# generated using pymatgen
data_Ba3Ir(CN)3
_symmetry_space_group_name_H-M   'P 1'
_cell_length_a   5.85040906
_cell_length_b   9.32464430
_cell_length_c   9.32464430
_cell_angle_alpha   120.00000102
_cell_angle_beta   90.00000000
_cell_angle_gamma   90.00000000
_symmetry_Int_Tables_number   1
_chemical_formula_structural   Ba3Ir(CN)3
_chemical_formula_sum   'Ba6 Ir2 C6 N6'
_cell_volume   440.53600468
_cell_formula_units_Z   2
loop_
 _symmetry_equiv_pos_site_id
 _symmetry_equiv_pos_as_xyz
  1  'x, y, z'
loop_
 _atom_site_type_symbol
 _atom_site_label
 _atom_site_symmetry_multiplicity
 _atom_site_fract_x
 _atom_site_fract_y
 _atom_site_fract_z
 _atom_site_occupancy
  Ba  Ba0  1  0.75000000  0.69360931  0.62207089  1
  Ba  Ba1  1  0.75000000  0.37792911  0.07153842  1
  Ba  Ba2  1  0.75000000  0.92846158  0.30639069  1
  Ba  Ba3  1  0.25000000  0.30639069  0.37792911  1
  Ba  Ba4  1  0.25000000  0.62207089  0.92846158  1
  Ba  Ba5  1  0.25000000  0.07153842  0.69360931  1
  Ir  Ir6  1  0.75000000  0.33333400  0.66666700  1
  Ir  Ir7  1  0.25000000  0.66666600  0.33333300  1
  C  C8  1  0.75000000  0.55361787  0.85221099  1
  C  C9  1  0.75000000  0.14778901  0.70140688  1
  C  C10  1  0.75000000  0.29859312  0.44638213  1
  C  C11  1  0.25000000  0.44638213  0.14778901  1
  C  C12  1  0.25000000  0.85221099  0.29859312  1
  C  C13  1  0.25000000  0.70140688  0.55361787  1
  N  N14  1  0.75000000  0.69761703  0.97034914  1
  N  N15  1  0.75000000  0.02965086  0.72726788  1
  N  N16  1  0.75000000  0.27273212  0.30238297  1
  N  N17  1  0.25000000  0.30238297  0.02965086  1
  N  N18  1  0.25000000  0.97034914  0.27273212  1
  N  N19  1  0.25000000  0.72726788  0.69761703  1
