# generated using pymatgen
data_Fe5O7F3
_symmetry_space_group_name_H-M   'P 1'
_cell_length_a   4.67999569
_cell_length_b   4.68722867
_cell_length_c   15.21368216
_cell_angle_alpha   90.00000000
_cell_angle_beta   90.00000000
_cell_angle_gamma   90.00000000
_symmetry_Int_Tables_number   1
_chemical_formula_structural   Fe5O7F3
_chemical_formula_sum   'Fe10 O14 F6'
_cell_volume   333.73052633
_cell_formula_units_Z   2
loop_
 _symmetry_equiv_pos_site_id
 _symmetry_equiv_pos_as_xyz
  1  'x, y, z'
loop_
 _atom_site_type_symbol
 _atom_site_label
 _atom_site_symmetry_multiplicity
 _atom_site_fract_x
 _atom_site_fract_y
 _atom_site_fract_z
 _atom_site_occupancy
  Fe  Fe0  1  0.03077422  0.00939102  0.00602111  1
  Fe  Fe1  1  0.01869169  0.01064826  0.20000000  1
  Fe  Fe2  1  0.03077422  0.00939102  0.39397889  1
  Fe  Fe3  1  0.00967684  0.97815339  0.59943409  1
  Fe  Fe4  1  0.00967684  0.97815339  0.80056591  1
  Fe  Fe5  1  0.49032316  0.47815339  0.09943409  1
  Fe  Fe6  1  0.46922478  0.50939102  0.50602111  1
  Fe  Fe7  1  0.49032316  0.47815339  0.30056591  1
  Fe  Fe8  1  0.48130831  0.51064826  0.70000000  1
  Fe  Fe9  1  0.46922478  0.50939102  0.89397889  1
  O  O10  1  0.20251770  0.80244984  0.10405847  1
  O  O11  1  0.20251770  0.80244984  0.29594153  1
  O  O12  1  0.18772328  0.81578135  0.49689423  1
  O  O13  1  0.18066577  0.80252569  0.70000000  1
  O  O14  1  0.18772328  0.81578135  0.90310577  1
  O  O15  1  0.31227672  0.31578135  0.99689423  1
  O  O16  1  0.31933423  0.30252569  0.20000000  1
  O  O17  1  0.31227672  0.31578135  0.40310577  1
  O  O18  1  0.29748230  0.30244984  0.60405847  1
  O  O19  1  0.29748230  0.30244984  0.79594153  1
  O  O20  1  0.68488730  0.69188327  0.60214770  1
  O  O21  1  0.68488730  0.69188327  0.79785230  1
  O  O22  1  0.81511270  0.19188327  0.10214770  1
  O  O23  1  0.81511270  0.19188327  0.29785230  1
  F  F24  1  0.70038319  0.70005437  0.99872990  1
  F  F25  1  0.70200444  0.69139655  0.20000000  1
  F  F26  1  0.70038319  0.70005437  0.40127010  1
  F  F27  1  0.79961681  0.20005437  0.49872990  1
  F  F28  1  0.79961681  0.20005437  0.90127010  1
  F  F29  1  0.79799556  0.19139655  0.70000000  1
