# generated using pymatgen
data_Ga3Ni5
_symmetry_space_group_name_H-M   'P 1'
_cell_length_a   3.71590792
_cell_length_b   5.06349531
_cell_length_c   5.06349531
_cell_angle_alpha   95.60547835
_cell_angle_beta   90.00000000
_cell_angle_gamma   90.00000000
_symmetry_Int_Tables_number   1
_chemical_formula_structural   Ga3Ni5
_chemical_formula_sum   'Ga3 Ni5'
_cell_volume   94.81652146
_cell_formula_units_Z   1
loop_
 _symmetry_equiv_pos_site_id
 _symmetry_equiv_pos_as_xyz
  1  'x, y, z'
loop_
 _atom_site_type_symbol
 _atom_site_label
 _atom_site_symmetry_multiplicity
 _atom_site_fract_x
 _atom_site_fract_y
 _atom_site_fract_z
 _atom_site_occupancy
  Ga  Ga0  1  0.00000000  0.00000000  0.00000000  1
  Ga  Ga1  1  0.50000000  0.28017854  0.71982146  1
  Ga  Ga2  1  0.50000000  0.71982146  0.28017854  1
  Ni  Ni3  1  0.00000000  0.50000000  0.50000000  1
  Ni  Ni4  1  0.00000000  0.00000000  0.50000000  1
  Ni  Ni5  1  0.00000000  0.50000000  0.00000000  1
  Ni  Ni6  1  0.50000000  0.77235570  0.77235570  1
  Ni  Ni7  1  0.50000000  0.22764430  0.22764430  1
