# generated using pymatgen
data_Nd2H5
_symmetry_space_group_name_H-M   'P 1'
_cell_length_a   5.42876148
_cell_length_b   5.42876148
_cell_length_c   6.72479388
_cell_angle_alpha   113.80578464
_cell_angle_beta   113.80578464
_cell_angle_gamma   90.00000000
_symmetry_Int_Tables_number   1
_chemical_formula_structural   Nd2H5
_chemical_formula_sum   'Nd4 H10'
_cell_volume   162.72707553
_cell_formula_units_Z   2
loop_
 _symmetry_equiv_pos_site_id
 _symmetry_equiv_pos_as_xyz
  1  'x, y, z'
loop_
 _atom_site_type_symbol
 _atom_site_label
 _atom_site_symmetry_multiplicity
 _atom_site_fract_x
 _atom_site_fract_y
 _atom_site_fract_z
 _atom_site_occupancy
  Nd  Nd0  1  0.25455776  0.75455776  0.50911551  1
  Nd  Nd1  1  0.00455776  0.00455776  0.00911551  1
  Nd  Nd2  1  0.76151273  0.26151273  0.52302546  1
  Nd  Nd3  1  0.51151273  0.51151273  0.02302546  1
  H  H4  1  0.61370399  0.63281073  0.76570153  1
  H  H5  1  0.15199755  0.13289081  0.76570153  1
  H  H6  1  0.38289081  0.90199755  0.26570153  1
  H  H7  1  0.88281073  0.36370399  0.26570153  1
  H  H8  1  0.15199755  0.63281073  0.76570153  1
  H  H9  1  0.61370399  0.13289081  0.76570153  1
  H  H10  1  0.88281073  0.90199755  0.26570153  1
  H  H11  1  0.38289081  0.36370399  0.26570153  1
  H  H12  1  0.00652644  0.50652644  0.01305289  1
  H  H13  1  0.75652644  0.75652644  0.51305289  1
