# generated using pymatgen
data_Fe5(O4F)2
_symmetry_space_group_name_H-M   'P 1'
_cell_length_a   4.66135963
_cell_length_b   7.59680633
_cell_length_c   9.81417661
_cell_angle_alpha   109.72354920
_cell_angle_beta   93.23177519
_cell_angle_gamma   88.28464998
_symmetry_Int_Tables_number   1
_chemical_formula_structural   Fe5(O4F)2
_chemical_formula_sum   'Fe10 O16 F4'
_cell_volume   326.60274750
_cell_formula_units_Z   2
loop_
 _symmetry_equiv_pos_site_id
 _symmetry_equiv_pos_as_xyz
  1  'x, y, z'
loop_
 _atom_site_type_symbol
 _atom_site_label
 _atom_site_symmetry_multiplicity
 _atom_site_fract_x
 _atom_site_fract_y
 _atom_site_fract_z
 _atom_site_occupancy
  Fe  Fe0  1  0.50000000  0.30000000  0.90000000  1
  Fe  Fe1  1  0.47313681  0.09536595  0.31225334  1
  Fe  Fe2  1  0.47526440  0.89227319  0.70897071  1
  Fe  Fe3  1  0.52473560  0.70772681  0.09102929  1
  Fe  Fe4  1  0.52686319  0.50463405  0.48774666  1
  Fe  Fe5  1  0.98890834  0.60207608  0.80592702  1
  Fe  Fe6  1  0.99696860  0.20329150  0.60361182  1
  Fe  Fe7  1  0.00000000  0.80000000  0.40000000  1
  Fe  Fe8  1  0.00303140  0.39670850  0.19638818  1
  Fe  Fe9  1  0.01109166  0.99792392  0.99407298  1
  O  O10  1  0.81122154  0.77148626  0.97924611  1
  O  O11  1  0.82226581  0.56232078  0.36832754  1
  O  O12  1  0.81409227  0.36366511  0.77352818  1
  O  O13  1  0.68832455  0.06232110  0.87922164  1
  O  O14  1  0.69547700  0.65890302  0.67320284  1
  O  O15  1  0.69959179  0.46198291  0.07525449  1
  O  O16  1  0.69092967  0.86216393  0.28153804  1
  O  O17  1  0.69205412  0.26120044  0.47870358  1
  O  O18  1  0.30040821  0.13801709  0.72474551  1
  O  O19  1  0.30907033  0.73783607  0.51846196  1
  O  O20  1  0.30794588  0.33879956  0.32129642  1
  O  O21  1  0.30452300  0.94109698  0.12679716  1
  O  O22  1  0.31167545  0.53767890  0.92077836  1
  O  O23  1  0.17773419  0.03767922  0.43167246  1
  O  O24  1  0.18877846  0.82851374  0.82075389  1
  O  O25  1  0.18590773  0.23633489  0.02647182  1
  F  F26  1  0.79591502  0.95840998  0.58353998  1
  F  F27  1  0.80003322  0.15939056  0.18180955  1
  F  F28  1  0.19996678  0.44060944  0.61819045  1
  F  F29  1  0.20408498  0.64159002  0.21646002  1
