# generated using pymatgen
data_TbAlNi
_symmetry_space_group_name_H-M   'P 1'
_cell_length_a   3.83923125
_cell_length_b   7.06349654
_cell_length_c   7.06251564
_cell_angle_alpha   120.00459756
_cell_angle_beta   90.00000000
_cell_angle_gamma   90.00000000
_symmetry_Int_Tables_number   1
_chemical_formula_structural   TbAlNi
_chemical_formula_sum   'Tb3 Al3 Ni3'
_cell_volume   165.85705174
_cell_formula_units_Z   3
loop_
 _symmetry_equiv_pos_site_id
 _symmetry_equiv_pos_as_xyz
  1  'x, y, z'
loop_
 _atom_site_type_symbol
 _atom_site_label
 _atom_site_symmetry_multiplicity
 _atom_site_fract_x
 _atom_site_fract_y
 _atom_site_fract_z
 _atom_site_occupancy
  Tb  Tb0  1  0.50000000  0.58224508  0.00000000  1
  Tb  Tb1  1  0.50000000  0.41774265  0.41772871  1
  Tb  Tb2  1  0.50000000  0.00001395  0.58227129  1
  Al  Al3  1  -0.00000000  0.23500357  0.00000000  1
  Al  Al4  1  -0.00000000  0.76500054  0.76501661  1
  Al  Al5  1  -0.00000000  0.99998393  0.23498339  1
  Ni  Ni6  1  0.00000000  0.33333752  0.66672508  1
  Ni  Ni7  1  0.00000000  0.66661243  0.33327492  1
  Ni  Ni8  1  0.50000000  0.99996034  0.00000000  1
