# generated using pymatgen
data_Sm2Fe14C
_symmetry_space_group_name_H-M   'P 1'
_cell_length_a   8.73580898
_cell_length_b   8.73580898
_cell_length_c   11.85198702
_cell_angle_alpha   90.00000000
_cell_angle_beta   90.00000000
_cell_angle_gamma   90.00000000
_symmetry_Int_Tables_number   1
_chemical_formula_structural   Sm2Fe14C
_chemical_formula_sum   'Sm8 Fe56 C4'
_cell_volume   904.47678680
_cell_formula_units_Z   4
loop_
 _symmetry_equiv_pos_site_id
 _symmetry_equiv_pos_as_xyz
  1  'x, y, z'
loop_
 _atom_site_type_symbol
 _atom_site_label
 _atom_site_symmetry_multiplicity
 _atom_site_fract_x
 _atom_site_fract_y
 _atom_site_fract_z
 _atom_site_occupancy
  Sm  Sm0  1  0.23937282  0.76062718  0.50000000  1
  Sm  Sm1  1  0.76062718  0.23937282  0.50000000  1
  Sm  Sm2  1  0.26062718  0.26062718  0.00000000  1
  Sm  Sm3  1  0.73937282  0.73937282  0.00000000  1
  Sm  Sm4  1  0.64357086  0.64357086  0.50000000  1
  Sm  Sm5  1  0.35642914  0.35642914  0.50000000  1
  Sm  Sm6  1  0.85642914  0.14357086  0.00000000  1
  Sm  Sm7  1  0.14357086  0.85642914  0.00000000  1
  Fe  Fe8  1  0.00000000  0.50000000  0.50000000  1
  Fe  Fe9  1  0.50000000  -0.00000000  0.00000000  1
  Fe  Fe10  1  0.50000000  -0.00000000  0.50000000  1
  Fe  Fe11  1  -0.00000000  0.50000000  0.00000000  1
  Fe  Fe12  1  0.50000000  0.50000000  0.10687894  1
  Fe  Fe13  1  -0.00000000  -0.00000000  0.60687894  1
  Fe  Fe14  1  0.50000000  0.50000000  0.89312106  1
  Fe  Fe15  1  -0.00000000  -0.00000000  0.39312106  1
  Fe  Fe16  1  0.18336313  0.81663687  0.25472013  1
  Fe  Fe17  1  0.81663687  0.18336313  0.25472013  1
  Fe  Fe18  1  0.31663687  0.31663687  0.75472013  1
  Fe  Fe19  1  0.68336313  0.68336313  0.75472013  1
  Fe  Fe20  1  0.81663687  0.18336313  0.74527987  1
  Fe  Fe21  1  0.18336313  0.81663687  0.74527987  1
  Fe  Fe22  1  0.68336313  0.68336313  0.24527987  1
  Fe  Fe23  1  0.31663687  0.31663687  0.24527987  1
  Fe  Fe24  1  0.40255695  0.59744305  0.29377678  1
  Fe  Fe25  1  0.59744305  0.40255695  0.29377678  1
  Fe  Fe26  1  0.09744305  0.09744305  0.79377678  1
  Fe  Fe27  1  0.90255695  0.90255695  0.79377678  1
  Fe  Fe28  1  0.59744305  0.40255695  0.70622322  1
  Fe  Fe29  1  0.40255695  0.59744305  0.70622322  1
  Fe  Fe30  1  0.90255695  0.90255695  0.20622322  1
  Fe  Fe31  1  0.09744305  0.09744305  0.20622322  1
  Fe  Fe32  1  0.14108455  0.53573402  0.32379563  1
  Fe  Fe33  1  0.85891545  0.46426598  0.32379563  1
  Fe  Fe34  1  0.35891545  0.03573402  0.82379563  1
  Fe  Fe35  1  0.64108455  0.96426598  0.82379563  1
  Fe  Fe36  1  0.85891545  0.46426598  0.67620437  1
  Fe  Fe37  1  0.14108455  0.53573402  0.67620437  1
  Fe  Fe38  1  0.64108455  0.96426598  0.17620437  1
  Fe  Fe39  1  0.35891545  0.03573402  0.17620437  1
  Fe  Fe40  1  0.53573402  0.14108455  0.32379563  1
  Fe  Fe41  1  0.46426598  0.85891545  0.32379563  1
  Fe  Fe42  1  0.03573402  0.35891545  0.82379563  1
  Fe  Fe43  1  0.96426598  0.64108455  0.82379563  1
  Fe  Fe44  1  0.46426598  0.85891545  0.67620437  1
  Fe  Fe45  1  0.53573402  0.14108455  0.67620437  1
  Fe  Fe46  1  0.96426598  0.64108455  0.17620437  1
  Fe  Fe47  1  0.03573402  0.35891545  0.17620437  1
  Fe  Fe48  1  0.93489621  0.72575783  0.37876861  1
  Fe  Fe49  1  0.06510379  0.27424217  0.37876861  1
  Fe  Fe50  1  0.56510379  0.22575783  0.87876861  1
  Fe  Fe51  1  0.43489621  0.77424217  0.87876861  1
  Fe  Fe52  1  0.06510379  0.27424217  0.62123139  1
  Fe  Fe53  1  0.93489621  0.72575783  0.62123139  1
  Fe  Fe54  1  0.43489621  0.77424217  0.12123139  1
  Fe  Fe55  1  0.56510379  0.22575783  0.12123139  1
  Fe  Fe56  1  0.72575783  0.93489621  0.37876861  1
  Fe  Fe57  1  0.27424217  0.06510379  0.37876861  1
  Fe  Fe58  1  0.22575783  0.56510379  0.87876861  1
  Fe  Fe59  1  0.77424217  0.43489621  0.87876861  1
  Fe  Fe60  1  0.27424217  0.06510379  0.62123139  1
  Fe  Fe61  1  0.72575783  0.93489621  0.62123139  1
  Fe  Fe62  1  0.77424217  0.43489621  0.12123139  1
  Fe  Fe63  1  0.22575783  0.56510379  0.12123139  1
  C  C64  1  0.87341191  0.87341191  0.50000000  1
  C  C65  1  0.12658809  0.12658809  0.50000000  1
  C  C66  1  0.62658809  0.37341191  0.00000000  1
  C  C67  1  0.37341191  0.62658809  0.00000000  1
