# generated using pymatgen
data_USiPt
_symmetry_space_group_name_H-M   'P 1'
_cell_length_a   4.30407966
_cell_length_b   5.63792701
_cell_length_c   5.47728357
_cell_angle_alpha   94.16589135
_cell_angle_beta   113.13523859
_cell_angle_gamma   67.56050183
_symmetry_Int_Tables_number   1
_chemical_formula_structural   USiPt
_chemical_formula_sum   'U2 Si2 Pt2'
_cell_volume   112.50053740
_cell_formula_units_Z   2
loop_
 _symmetry_equiv_pos_site_id
 _symmetry_equiv_pos_as_xyz
  1  'x, y, z'
loop_
 _atom_site_type_symbol
 _atom_site_label
 _atom_site_symmetry_multiplicity
 _atom_site_fract_x
 _atom_site_fract_y
 _atom_site_fract_z
 _atom_site_occupancy
  U  U0  1  0.76872523  0.67706381  0.21451427  1
  U  U1  1  0.23127477  0.32293619  0.78548573  1
  Si  Si2  1  0.06348233  0.08905691  0.21602156  1
  Si  Si3  1  0.93651767  0.91094309  0.78397844  1
  Pt  Pt4  1  0.54961305  0.27106090  0.37028699  1
  Pt  Pt5  1  0.45038695  0.72893910  0.62971301  1
