# generated using pymatgen
data_PrCdIn
_symmetry_space_group_name_H-M   'P 1'
_cell_length_a   4.96490656
_cell_length_b   4.96641389
_cell_length_c   7.82317614
_cell_angle_alpha   90.00000000
_cell_angle_beta   89.99395874
_cell_angle_gamma   59.98995668
_symmetry_Int_Tables_number   1
_chemical_formula_structural   PrCdIn
_chemical_formula_sum   'Pr2 Cd2 In2'
_cell_volume   167.04126336
_cell_formula_units_Z   2
loop_
 _symmetry_equiv_pos_site_id
 _symmetry_equiv_pos_as_xyz
  1  'x, y, z'
loop_
 _atom_site_type_symbol
 _atom_site_label
 _atom_site_symmetry_multiplicity
 _atom_site_fract_x
 _atom_site_fract_y
 _atom_site_fract_z
 _atom_site_occupancy
  Pr  Pr0  1  0.00002119  0.99998940  0.73814811  1
  Pr  Pr1  1  0.99997881  0.00001060  0.26185189  1
  Cd  Cd2  1  0.33336343  0.33331829  0.52656628  1
  Cd  Cd3  1  0.66663657  0.66668171  0.47343372  1
  In  In4  1  0.66670401  0.66664799  0.05135815  1
  In  In5  1  0.33329599  0.33335201  0.94864185  1
