# generated using pymatgen
data_CsLi7(NiO3)2
_symmetry_space_group_name_H-M   'P 1'
_cell_length_a   3.71752740
_cell_length_b   5.42694080
_cell_length_c   10.25005783
_cell_angle_alpha   93.22247382
_cell_angle_beta   89.99999999
_cell_angle_gamma   69.97032426
_symmetry_Int_Tables_number   1
_chemical_formula_structural   CsLi7(NiO3)2
_chemical_formula_sum   'Cs1 Li7 Ni2 O6'
_cell_volume   193.93701309
_cell_formula_units_Z   1
loop_
 _symmetry_equiv_pos_site_id
 _symmetry_equiv_pos_as_xyz
  1  'x, y, z'
loop_
 _atom_site_type_symbol
 _atom_site_label
 _atom_site_symmetry_multiplicity
 _atom_site_fract_x
 _atom_site_fract_y
 _atom_site_fract_z
 _atom_site_occupancy
  Cs  Cs0  1  0.00000000  -0.00000000  -0.00000000  1
  Li  Li1  1  0.16641361  0.66717279  0.72721692  1
  Li  Li2  1  0.73091228  0.53817644  0.89416178  1
  Li  Li3  1  0.24869036  0.50261829  0.41654449  1
  Li  Li4  1  0.75130964  0.49738171  0.58345551  1
  Li  Li5  1  0.26908772  0.46182356  0.10583822  1
  Li  Li6  1  0.83358639  0.33282721  0.27278308  1
  Li  Li7  1  0.50000000  -0.00000000  0.50000000  1
  Ni  Ni8  1  0.58269378  0.83461244  0.25773796  1
  Ni  Ni9  1  0.41730622  0.16538756  0.74226204  1
  O  O10  1  0.60045514  0.79908973  0.73537508  1
  O  O11  1  0.67177820  0.65644360  0.41222949  1
  O  O12  1  0.70422245  0.59155510  0.11499475  1
  O  O13  1  0.29577755  0.40844490  0.88500525  1
  O  O14  1  0.32822180  0.34355640  0.58777051  1
  O  O15  1  0.39954486  0.20091027  0.26462492  1
