# generated using pymatgen
data_PrTe3
_symmetry_space_group_name_H-M   'P 1'
_cell_length_a   4.40477196
_cell_length_b   4.40740549
_cell_length_c   14.00476878
_cell_angle_alpha   90.00000000
_cell_angle_beta   99.04787606
_cell_angle_gamma   90.00000000
_symmetry_Int_Tables_number   1
_chemical_formula_structural   PrTe3
_chemical_formula_sum   'Pr2 Te6'
_cell_volume   268.50023853
_cell_formula_units_Z   2
loop_
 _symmetry_equiv_pos_site_id
 _symmetry_equiv_pos_as_xyz
  1  'x, y, z'
loop_
 _atom_site_type_symbol
 _atom_site_label
 _atom_site_symmetry_multiplicity
 _atom_site_fract_x
 _atom_site_fract_y
 _atom_site_fract_z
 _atom_site_occupancy
  Te  Te0  1  0.49851530  0.75000000  0.15610415  1
  Te  Te1  1  0.34241115  0.25000000  0.84389585  1
  Te  Te2  1  0.21211936  0.75000000  0.58561903  1
  Te  Te3  1  0.62650033  0.25000000  0.41438097  1
  Te  Te4  1  0.99856815  0.25000000  0.15608702  1
  Te  Te5  1  0.84248113  0.75000000  0.84391298  1
  Pr  Pr6  1  0.74769497  0.25000000  0.65638536  1
  Pr  Pr7  1  0.09130961  0.75000000  0.34361464  1
