# generated using pymatgen
data_Sc3(FeSi3)2
_symmetry_space_group_name_H-M   'P 1'
_cell_length_a   5.07051678
_cell_length_b   9.55855552
_cell_length_c   14.42804859
_cell_angle_alpha   90.00000000
_cell_angle_beta   90.00000000
_cell_angle_gamma   74.61911461
_symmetry_Int_Tables_number   1
_chemical_formula_structural   Sc3(FeSi3)2
_chemical_formula_sum   'Sc12 Fe8 Si24'
_cell_volume   674.23607032
_cell_formula_units_Z   4
loop_
 _symmetry_equiv_pos_site_id
 _symmetry_equiv_pos_as_xyz
  1  'x, y, z'
loop_
 _atom_site_type_symbol
 _atom_site_label
 _atom_site_symmetry_multiplicity
 _atom_site_fract_x
 _atom_site_fract_y
 _atom_site_fract_z
 _atom_site_occupancy
  Sc  Sc0  1  0.53462667  0.93074667  0.82277805  1
  Sc  Sc1  1  0.46537333  0.06925333  0.17722195  1
  Sc  Sc2  1  0.96537333  0.06925333  0.32277805  1
  Sc  Sc3  1  0.03462667  0.93074667  0.67722195  1
  Sc  Sc4  1  0.78920111  0.42159778  0.81922579  1
  Sc  Sc5  1  0.21079889  0.57840222  0.18077421  1
  Sc  Sc6  1  0.71079889  0.57840222  0.31922579  1
  Sc  Sc7  1  0.28920111  0.42159778  0.68077421  1
  Sc  Sc8  1  0.87522786  0.24954429  0.59004809  1
  Sc  Sc9  1  0.12477214  0.75045571  0.40995191  1
  Sc  Sc10  1  0.62477214  0.75045571  0.09004809  1
  Sc  Sc11  1  0.37522786  0.24954429  0.90995191  1
  Fe  Fe12  1  0.95569303  0.08861395  0.87854149  1
  Fe  Fe13  1  0.04430697  0.91138605  0.12145851  1
  Fe  Fe14  1  0.54430697  0.91138605  0.37854149  1
  Fe  Fe15  1  0.45569303  0.08861395  0.62145851  1
  Fe  Fe16  1  0.50000000  0.50000000  0.50000000  1
  Fe  Fe17  1  -0.00000000  0.50000000  0.50000000  1
  Fe  Fe18  1  0.50000000  0.50000000  -0.00000000  1
  Fe  Fe19  1  -0.00000000  0.50000000  -0.00000000  1
  Si  Si20  1  0.64141158  0.71717684  0.49025669  1
  Si  Si21  1  0.35858842  0.28282316  0.50974331  1
  Si  Si22  1  0.85858842  0.28282316  0.99025669  1
  Si  Si23  1  0.14141158  0.71717684  0.00974331  1
  Si  Si24  1  0.66201965  0.17596070  0.75000000  1
  Si  Si25  1  0.83798035  0.82403930  0.25000000  1
  Si  Si26  1  0.33798035  0.82403930  0.25000000  1
  Si  Si27  1  0.16201965  0.17596070  0.75000000  1
  Si  Si28  1  0.24885380  0.00000000  0.50000000  1
  Si  Si29  1  0.74885380  0.00000000  -0.00000000  1
  Si  Si30  1  0.75114620  0.00000000  0.50000000  1
  Si  Si31  1  0.25114620  0.00000000  -0.00000000  1
  Si  Si32  1  0.72699936  0.54600127  0.63527397  1
  Si  Si33  1  0.27300064  0.45399873  0.36472603  1
  Si  Si34  1  0.77300064  0.45399873  0.13527397  1
  Si  Si35  1  0.22699936  0.54600127  0.86472603  1
  Si  Si36  1  0.58739208  0.82521584  0.64384743  1
  Si  Si37  1  0.41260792  0.17478416  0.35615257  1
  Si  Si38  1  0.91260792  0.17478416  0.14384743  1
  Si  Si39  1  0.08739208  0.82521584  0.85615257  1
  Si  Si40  1  0.66340508  0.67318985  0.91320961  1
  Si  Si41  1  0.33659492  0.32681015  0.08679039  1
  Si  Si42  1  0.83659492  0.32681015  0.41320961  1
  Si  Si43  1  0.16340508  0.67318985  0.58679039  1
