# generated using pymatgen
data_LaCrGe3
_symmetry_space_group_name_H-M   'P 1'
_cell_length_a   5.77627485
_cell_length_b   6.21662962
_cell_length_c   6.21662962
_cell_angle_alpha   119.99162323
_cell_angle_beta   90.00000000
_cell_angle_gamma   90.00000000
_symmetry_Int_Tables_number   1
_chemical_formula_structural   LaCrGe3
_chemical_formula_sum   'La2 Cr2 Ge6'
_cell_volume   193.34151649
_cell_formula_units_Z   2
loop_
 _symmetry_equiv_pos_site_id
 _symmetry_equiv_pos_as_xyz
  1  'x, y, z'
loop_
 _atom_site_type_symbol
 _atom_site_label
 _atom_site_symmetry_multiplicity
 _atom_site_fract_x
 _atom_site_fract_y
 _atom_site_fract_z
 _atom_site_occupancy
  La  La0  1  0.25000000  0.66669747  0.33330253  1
  La  La1  1  0.75000000  0.33330253  0.66669747  1
  Cr  Cr2  1  0.50000000  0.00000000  -0.00000000  1
  Cr  Cr3  1  -0.00000000  0.00000000  -0.00000000  1
  Ge  Ge4  1  0.75000000  0.80858113  0.61721033  1
  Ge  Ge5  1  0.75000000  0.80860783  0.19139217  1
  Ge  Ge6  1  0.75000000  0.38278967  0.19141887  1
  Ge  Ge7  1  0.25000000  0.19141887  0.38278967  1
  Ge  Ge8  1  0.25000000  0.19139217  0.80860783  1
  Ge  Ge9  1  0.25000000  0.61721033  0.80858113  1
