# generated using pymatgen
data_CsAsO3
_symmetry_space_group_name_H-M   'P 1'
_cell_length_a   5.04145829
_cell_length_b   5.04141676
_cell_length_c   9.99409291
_cell_angle_alpha   90.00146278
_cell_angle_beta   89.99967518
_cell_angle_gamma   119.99840498
_symmetry_Int_Tables_number   1
_chemical_formula_structural   CsAsO3
_chemical_formula_sum   'Cs2 As2 O6'
_cell_volume   219.98333068
_cell_formula_units_Z   2
loop_
 _symmetry_equiv_pos_site_id
 _symmetry_equiv_pos_as_xyz
  1  'x, y, z'
loop_
 _atom_site_type_symbol
 _atom_site_label
 _atom_site_symmetry_multiplicity
 _atom_site_fract_x
 _atom_site_fract_y
 _atom_site_fract_z
 _atom_site_occupancy
  Cs  Cs0  1  -0.00002759  0.00002494  0.20680247  1
  Cs  Cs1  1  -0.00005438  -0.00001883  0.79331669  1
  As  As2  1  0.33331168  0.66667780  0.50014041  1
  As  As3  1  0.66664449  0.33334509  0.50013075  1
  O  O4  1  0.00001762  0.39824783  0.60822174  1
  O  O5  1  0.39821614  0.00004462  0.60821624  1
  O  O6  1  0.39821353  0.39822129  0.39164933  1
  O  O7  1  0.60179979  0.60180101  0.60821338  1
  O  O8  1  0.60177713  0.00001753  0.39165021  1
  O  O9  1  0.00002158  0.60181971  0.39165877  1
