# generated using pymatgen
data_O2
_symmetry_space_group_name_H-M   'P 1'
_cell_length_a   4.38982799
_cell_length_b   5.36978940
_cell_length_c   5.36978940
_cell_angle_alpha   70.78662204
_cell_angle_beta   69.24482775
_cell_angle_gamma   69.24482780
_symmetry_Int_Tables_number   1
_chemical_formula_structural   O2
_chemical_formula_sum   O8
_cell_volume   107.64379010
_cell_formula_units_Z   4
loop_
 _symmetry_equiv_pos_site_id
 _symmetry_equiv_pos_as_xyz
  1  'x, y, z'
loop_
 _atom_site_type_symbol
 _atom_site_label
 _atom_site_symmetry_multiplicity
 _atom_site_fract_x
 _atom_site_fract_y
 _atom_site_fract_z
 _atom_site_occupancy
  O  O0  1  0.84460872  0.27345851  0.78608948  1
  O  O1  1  0.15539128  0.21391052  0.72654149  1
  O  O2  1  0.15539128  0.72654149  0.21391052  1
  O  O3  1  0.84460872  0.78608948  0.27345851  1
  O  O4  1  0.82168040  0.20774751  0.20774751  1
  O  O5  1  0.17831960  0.79225249  0.79225249  1
  O  O6  1  0.13264085  0.14822205  0.14822205  1
  O  O7  1  0.86735915  0.85177795  0.85177795  1
