# generated using pymatgen
data_Ba4SiP4
_symmetry_space_group_name_H-M   'P 1'
_cell_length_a   13.13525901
_cell_length_b   13.13525901
_cell_length_c   13.13525901
_cell_angle_alpha   90.00000000
_cell_angle_beta   90.00000000
_cell_angle_gamma   90.00000000
_symmetry_Int_Tables_number   1
_chemical_formula_structural   Ba4SiP4
_chemical_formula_sum   'Ba32 Si8 P32'
_cell_volume   2266.29229763
_cell_formula_units_Z   8
loop_
 _symmetry_equiv_pos_site_id
 _symmetry_equiv_pos_as_xyz
  1  'x, y, z'
loop_
 _atom_site_type_symbol
 _atom_site_label
 _atom_site_symmetry_multiplicity
 _atom_site_fract_x
 _atom_site_fract_y
 _atom_site_fract_z
 _atom_site_occupancy
  Si  Si0  1  0.50000000  0.75000000  0.00000000  1
  Si  Si1  1  0.50000000  0.25000000  0.00000000  1
  Si  Si2  1  0.00000000  0.50000000  0.25000000  1
  Si  Si3  1  0.00000000  0.50000000  0.75000000  1
  Si  Si4  1  0.25000000  0.00000000  0.50000000  1
  Si  Si5  1  0.50000000  0.50000000  0.50000000  1
  Si  Si6  1  0.00000000  0.00000000  0.00000000  1
  Si  Si7  1  0.75000000  0.00000000  0.50000000  1
  P  P8  1  0.89922628  0.39136339  0.34604948  1
  P  P9  1  0.10863661  0.60077372  0.84604948  1
  P  P10  1  0.60077372  0.15395052  0.89136339  1
  P  P11  1  0.60077372  0.84604948  0.10863661  1
  P  P12  1  0.89136339  0.39922628  0.84604948  1
  P  P13  1  0.39922628  0.84604948  0.89136339  1
  P  P14  1  0.89136339  0.60077372  0.15395052  1
  P  P15  1  0.10863661  0.39922628  0.15395052  1
  P  P16  1  0.39922628  0.15395052  0.10863661  1
  P  P17  1  0.84604948  0.10863661  0.60077372  1
  P  P18  1  0.60863661  0.34604948  0.10077372  1
  P  P19  1  0.15395052  0.89136339  0.60077372  1
  P  P20  1  0.10077372  0.39136339  0.65395052  1
  P  P21  1  0.34604948  0.10077372  0.60863661  1
  P  P22  1  0.34604948  0.89922628  0.39136339  1
  P  P23  1  0.15395052  0.10863661  0.39922628  1
  P  P24  1  0.89852345  0.89852345  0.89852345  1
  P  P25  1  0.60147655  0.39852345  0.60147655  1
  P  P26  1  0.39852345  0.60147655  0.60147655  1
  P  P27  1  0.60147655  0.60147655  0.39852345  1
  P  P28  1  0.89852345  0.10147655  0.10147655  1
  P  P29  1  0.10147655  0.10147655  0.89852345  1
  P  P30  1  0.10147655  0.89852345  0.10147655  1
  P  P31  1  0.39852345  0.39852345  0.39852345  1
  P  P32  1  0.84604948  0.89136339  0.39922628  1
  P  P33  1  0.39136339  0.34604948  0.89922628  1
  P  P34  1  0.60863661  0.65395052  0.89922628  1
  P  P35  1  0.10077372  0.60863661  0.34604948  1
  P  P36  1  0.89922628  0.60863661  0.65395052  1
  P  P37  1  0.65395052  0.10077372  0.39136339  1
  P  P38  1  0.65395052  0.89922628  0.60863661  1
  P  P39  1  0.39136339  0.65395052  0.10077372  1
  Ba  Ba40  1  0.90662558  0.86719989  0.64584695  1
  Ba  Ba41  1  0.90662558  0.13280011  0.35415305  1
  Ba  Ba42  1  0.86719989  0.64584695  0.90662558  1
  Ba  Ba43  1  0.13280011  0.64584695  0.09337442  1
  Ba  Ba44  1  0.64584695  0.90662558  0.86719989  1
  Ba  Ba45  1  0.35415305  0.09337442  0.86719989  1
  Ba  Ba46  1  0.59337442  0.85415305  0.36719989  1
  Ba  Ba47  1  0.59337442  0.14584695  0.63280011  1
  Ba  Ba48  1  0.40662558  0.85415305  0.63280011  1
  Ba  Ba49  1  0.14584695  0.63280011  0.59337442  1
  Ba  Ba50  1  0.63280011  0.40662558  0.85415305  1
  Ba  Ba51  1  0.63280011  0.59337442  0.14584695  1
  Ba  Ba52  1  0.85415305  0.36719989  0.59337442  1
  Ba  Ba53  1  0.36719989  0.59337442  0.85415305  1
  Ba  Ba54  1  0.85415305  0.63280011  0.40662558  1
  Ba  Ba55  1  0.14584695  0.36719989  0.40662558  1
  Ba  Ba56  1  0.36719989  0.40662558  0.14584695  1
  Ba  Ba57  1  0.35415305  0.90662558  0.13280011  1
  Ba  Ba58  1  0.64584695  0.09337442  0.13280011  1
  Ba  Ba59  1  0.86719989  0.35415305  0.09337442  1
  Ba  Ba60  1  0.13280011  0.35415305  0.90662558  1
  Ba  Ba61  1  0.09337442  0.13280011  0.64584695  1
  Ba  Ba62  1  0.09337442  0.86719989  0.35415305  1
  Ba  Ba63  1  0.40662558  0.14584695  0.36719989  1
  Ba  Ba64  1  0.14593112  0.14593112  0.14593112  1
  Ba  Ba65  1  0.35406888  0.64593112  0.35406888  1
  Ba  Ba66  1  0.64593112  0.35406888  0.35406888  1
  Ba  Ba67  1  0.35406888  0.35406888  0.64593112  1
  Ba  Ba68  1  0.14593112  0.85406888  0.85406888  1
  Ba  Ba69  1  0.85406888  0.85406888  0.14593112  1
  Ba  Ba70  1  0.85406888  0.14593112  0.85406888  1
  Ba  Ba71  1  0.64593112  0.64593112  0.64593112  1
