# generated using pymatgen
data_Er2SeO2
_symmetry_space_group_name_H-M   'P 1'
_cell_length_a   3.80690352
_cell_length_b   3.80690352
_cell_length_c   6.78189049
_cell_angle_alpha   90.00000000
_cell_angle_beta   90.00000000
_cell_angle_gamma   119.99999999
_symmetry_Int_Tables_number   1
_chemical_formula_structural   Er2SeO2
_chemical_formula_sum   'Er2 Se1 O2'
_cell_volume   85.11873204
_cell_formula_units_Z   1
loop_
 _symmetry_equiv_pos_site_id
 _symmetry_equiv_pos_as_xyz
  1  'x, y, z'
loop_
 _atom_site_type_symbol
 _atom_site_label
 _atom_site_symmetry_multiplicity
 _atom_site_fract_x
 _atom_site_fract_y
 _atom_site_fract_z
 _atom_site_occupancy
  O  O0  1  0.66666667  0.33333333  0.37435104  1
  O  O1  1  0.33333333  0.66666667  0.62564896  1
  Se  Se2  1  0.00000000  0.00000000  0.00000000  1
  Er  Er3  1  0.66666667  0.33333333  0.70839773  1
  Er  Er4  1  0.33333333  0.66666667  0.29160227  1
