# generated using pymatgen
data_Re3B
_symmetry_space_group_name_H-M   'P 1'
_cell_length_a   2.91168302
_cell_length_b   4.92520649
_cell_length_c   7.36813500
_cell_angle_alpha   90.00000000
_cell_angle_beta   90.00000000
_cell_angle_gamma   107.19291637
_symmetry_Int_Tables_number   1
_chemical_formula_structural   Re3B
_chemical_formula_sum   'Re6 B2'
_cell_volume   100.94217745
_cell_formula_units_Z   2
loop_
 _symmetry_equiv_pos_site_id
 _symmetry_equiv_pos_as_xyz
  1  'x, y, z'
loop_
 _atom_site_type_symbol
 _atom_site_label
 _atom_site_symmetry_multiplicity
 _atom_site_fract_x
 _atom_site_fract_y
 _atom_site_fract_z
 _atom_site_occupancy
  B  B0  1  0.25517524  0.51035049  0.25000000  1
  B  B1  1  0.74482476  0.48964951  0.75000000  1
  Re  Re2  1  0.86691135  0.73382269  0.43456914  1
  Re  Re3  1  0.13308865  0.26617731  0.56543086  1
  Re  Re4  1  0.42344895  0.84689790  0.75000000  1
  Re  Re5  1  0.57655105  0.15310210  0.25000000  1
  Re  Re6  1  0.86691135  0.73382269  0.06543086  1
  Re  Re7  1  0.13308865  0.26617731  0.93456914  1
