# generated using pymatgen
data_Mg3(Ni10P3)2
_symmetry_space_group_name_H-M   'P 1'
_cell_length_a   7.84313109
_cell_length_b   7.84313109
_cell_length_c   7.84313109
_cell_angle_alpha   59.99999997
_cell_angle_beta   59.99999997
_cell_angle_gamma   60.00000000
_symmetry_Int_Tables_number   1
_chemical_formula_structural   Mg3(Ni10P3)2
_chemical_formula_sum   'Mg3 Ni20 P6'
_cell_volume   341.15632220
_cell_formula_units_Z   1
loop_
 _symmetry_equiv_pos_site_id
 _symmetry_equiv_pos_as_xyz
  1  'x, y, z'
loop_
 _atom_site_type_symbol
 _atom_site_label
 _atom_site_symmetry_multiplicity
 _atom_site_fract_x
 _atom_site_fract_y
 _atom_site_fract_z
 _atom_site_occupancy
  Mg  Mg0  1  0.00000000  0.00000000  0.00000000  1
  Mg  Mg1  1  0.25000000  0.25000000  0.25000000  1
  Mg  Mg2  1  0.75000000  0.75000000  0.75000000  1
  P  P3  1  0.26436130  0.73563870  0.26436130  1
  P  P4  1  0.73563870  0.26436130  0.73563870  1
  P  P5  1  0.26436130  0.26436130  0.73563870  1
  P  P6  1  0.73563870  0.73563870  0.26436130  1
  P  P7  1  0.73563870  0.26436130  0.26436130  1
  P  P8  1  0.26436130  0.73563870  0.73563870  1
  Ni  Ni9  1  0.38415250  0.84754250  0.38415250  1
  Ni  Ni10  1  0.61584750  0.61584750  0.61584750  1
  Ni  Ni11  1  0.34918700  0.00000000  0.00000000  1
  Ni  Ni12  1  0.00000000  0.00000000  0.34918700  1
  Ni  Ni13  1  0.34918700  0.65081300  0.00000000  1
  Ni  Ni14  1  0.38415250  0.38415250  0.84754250  1
  Ni  Ni15  1  0.00000000  0.65081300  0.34918700  1
  Ni  Ni16  1  0.00000000  0.34918700  0.00000000  1
  Ni  Ni17  1  0.34918700  0.00000000  0.65081300  1
  Ni  Ni18  1  0.65081300  0.34918700  0.00000000  1
  Ni  Ni19  1  0.00000000  0.65081300  0.00000000  1
  Ni  Ni20  1  0.65081300  0.00000000  0.34918700  1
  Ni  Ni21  1  0.00000000  0.00000000  0.65081300  1
  Ni  Ni22  1  0.65081300  0.00000000  0.00000000  1
  Ni  Ni23  1  0.84754250  0.38415250  0.38415250  1
  Ni  Ni24  1  0.61584750  0.15245750  0.61584750  1
  Ni  Ni25  1  0.15245750  0.61584750  0.61584750  1
  Ni  Ni26  1  0.61584750  0.61584750  0.15245750  1
  Ni  Ni27  1  0.38415250  0.38415250  0.38415250  1
  Ni  Ni28  1  0.00000000  0.34918700  0.65081300  1
