# generated using pymatgen
data_HfSe3
_symmetry_space_group_name_H-M   'P 1'
_cell_length_a   3.74951781
_cell_length_b   5.44819551
_cell_length_c   10.19817683
_cell_angle_alpha   83.81959583
_cell_angle_beta   90.00000000
_cell_angle_gamma   90.00000000
_symmetry_Int_Tables_number   1
_chemical_formula_structural   HfSe3
_chemical_formula_sum   'Hf2 Se6'
_cell_volume   207.11859495
_cell_formula_units_Z   2
loop_
 _symmetry_equiv_pos_site_id
 _symmetry_equiv_pos_as_xyz
  1  'x, y, z'
loop_
 _atom_site_type_symbol
 _atom_site_label
 _atom_site_symmetry_multiplicity
 _atom_site_fract_x
 _atom_site_fract_y
 _atom_site_fract_z
 _atom_site_occupancy
  Se  Se0  1  0.25000000  0.09242771  0.19462114  1
  Se  Se1  1  0.75000000  0.90757229  0.80537886  1
  Se  Se2  1  0.75000000  0.75989748  0.45056962  1
  Se  Se3  1  0.25000000  0.24010252  0.54943038  1
  Se  Se4  1  0.75000000  0.46904016  0.80524405  1
  Se  Se5  1  0.25000000  0.53095984  0.19475595  1
  Hf  Hf6  1  0.25000000  0.72058955  0.64603198  1
  Hf  Hf7  1  0.75000000  0.27941045  0.35396802  1
