# generated using pymatgen
data_CaBiO3
_symmetry_space_group_name_H-M   'P 1'
_cell_length_a   5.83206614
_cell_length_b   6.03729814
_cell_length_c   8.73433827
_cell_angle_alpha   90.00017898
_cell_angle_beta   90.00791899
_cell_angle_gamma   90.00575789
_symmetry_Int_Tables_number   1
_chemical_formula_structural   CaBiO3
_chemical_formula_sum   'Ca4 Bi4 O12'
_cell_volume   307.53536508
_cell_formula_units_Z   4
loop_
 _symmetry_equiv_pos_site_id
 _symmetry_equiv_pos_as_xyz
  1  'x, y, z'
loop_
 _atom_site_type_symbol
 _atom_site_label
 _atom_site_symmetry_multiplicity
 _atom_site_fract_x
 _atom_site_fract_y
 _atom_site_fract_z
 _atom_site_occupancy
  Ca  Ca0  1  -0.00000000  0.50000000  0.50000000  1
  Ca  Ca1  1  -0.00000000  0.50000000  -0.00000000  1
  Ca  Ca2  1  0.50000000  0.00000000  0.50000000  1
  Ca  Ca3  1  0.50000000  0.00000000  -0.00000000  1
  Bi  Bi4  1  0.00669251  0.97093506  0.74757819  1
  Bi  Bi5  1  0.49328347  0.47094092  0.75242324  1
  Bi  Bi6  1  0.50671653  0.52905908  0.24757676  1
  Bi  Bi7  1  0.99330749  0.02906494  0.25242181  1
  O  O8  1  0.16486357  0.38984033  0.24948025  1
  O  O9  1  0.16651912  0.17018364  0.91638496  1
  O  O10  1  0.16405698  0.16852147  0.57793163  1
  O  O11  1  0.33593433  0.66852615  0.92207182  1
  O  O12  1  0.33347867  0.67019226  0.58361640  1
  O  O13  1  0.33510092  0.88986243  0.25051853  1
  O  O14  1  0.66489908  0.11013757  0.74948147  1
  O  O15  1  0.66652133  0.32980774  0.41638360  1
  O  O16  1  0.66406567  0.33147385  0.07792818  1
  O  O17  1  0.83594302  0.83147853  0.42206837  1
  O  O18  1  0.83348088  0.82981636  0.08361504  1
  O  O19  1  0.83513643  0.61015967  0.75051975  1
