# generated using pymatgen
data_HfGePd
_symmetry_space_group_name_H-M   'P 1'
_cell_length_a   3.96995681
_cell_length_b   6.71332962
_cell_length_c   11.54052430
_cell_angle_alpha   90.10229247
_cell_angle_beta   90.00000000
_cell_angle_gamma   90.00000000
_symmetry_Int_Tables_number   1
_chemical_formula_structural   HfGePd
_chemical_formula_sum   'Hf6 Ge6 Pd6'
_cell_volume   307.57327787
_cell_formula_units_Z   6
loop_
 _symmetry_equiv_pos_site_id
 _symmetry_equiv_pos_as_xyz
  1  'x, y, z'
loop_
 _atom_site_type_symbol
 _atom_site_label
 _atom_site_symmetry_multiplicity
 _atom_site_fract_x
 _atom_site_fract_y
 _atom_site_fract_z
 _atom_site_occupancy
  Hf  Hf0  1  0.25000000  0.53200265  0.62222917  1
  Hf  Hf1  1  0.75000000  0.97041997  0.29237888  1
  Hf  Hf2  1  0.25000000  0.02958003  0.70762112  1
  Hf  Hf3  1  0.25000000  0.66134411  0.92072159  1
  Hf  Hf4  1  0.75000000  0.46799735  0.37777083  1
  Hf  Hf5  1  0.75000000  0.33865589  0.07927841  1
  Ge  Ge6  1  0.75000000  0.74926013  0.08413900  1
  Ge  Ge7  1  0.25000000  0.26130920  0.25011929  1
  Ge  Ge8  1  0.25000000  0.75134436  0.41584955  1
  Ge  Ge9  1  0.25000000  0.25073987  0.91586100  1
  Ge  Ge10  1  0.75000000  0.24865564  0.58415045  1
  Ge  Ge11  1  0.75000000  0.73869080  0.74988071  1
  Pd  Pd12  1  0.75000000  0.99661710  0.90897150  1
  Pd  Pd13  1  0.75000000  0.85743274  0.54140346  1
  Pd  Pd14  1  0.25000000  0.62840834  0.20593818  1
  Pd  Pd15  1  0.25000000  0.14256726  0.45859654  1
  Pd  Pd16  1  0.75000000  0.37159166  0.79406182  1
  Pd  Pd17  1  0.25000000  0.00338290  0.09102850  1
