# generated using pymatgen
data_SrO6
_symmetry_space_group_name_H-M   'P 1'
_cell_length_a   5.28893389
_cell_length_b   5.28893389
_cell_length_c   8.10441316
_cell_angle_alpha   101.17445272
_cell_angle_beta   78.82554728
_cell_angle_gamma   110.66461076
_symmetry_Int_Tables_number   1
_chemical_formula_structural   SrO6
_chemical_formula_sum   'Sr2 O12'
_cell_volume   206.14510404
_cell_formula_units_Z   2
loop_
 _symmetry_equiv_pos_site_id
 _symmetry_equiv_pos_as_xyz
  1  'x, y, z'
loop_
 _atom_site_type_symbol
 _atom_site_label
 _atom_site_symmetry_multiplicity
 _atom_site_fract_x
 _atom_site_fract_y
 _atom_site_fract_z
 _atom_site_occupancy
  Sr  Sr0  1  0.84008671  0.84008671  0.75000000  1
  Sr  Sr1  1  0.15991329  0.15991329  0.25000000  1
  O  O2  1  0.18368658  0.84552451  0.95299055  1
  O  O3  1  0.84552451  0.18368658  0.54700945  1
  O  O4  1  0.81631342  0.15447549  0.04700945  1
  O  O5  1  0.15447549  0.81631342  0.45299055  1
  O  O6  1  0.34657864  0.93185880  0.81496998  1
  O  O7  1  0.93185880  0.34657864  0.68503002  1
  O  O8  1  0.65342136  0.06814120  0.18503002  1
  O  O9  1  0.06814120  0.65342136  0.31496998  1
  O  O10  1  0.47635290  0.45076520  0.57021825  1
  O  O11  1  0.45076520  0.47635290  0.92978175  1
  O  O12  1  0.52364710  0.54923480  0.42978175  1
  O  O13  1  0.54923480  0.52364710  0.07021825  1
