# generated using pymatgen
data_Ba2CaWO6
_symmetry_space_group_name_H-M   'P 1'
_cell_length_a   6.01057783
_cell_length_b   6.01057783
_cell_length_c   6.02985698
_cell_angle_alpha   119.89429100
_cell_angle_beta   119.89429104
_cell_angle_gamma   90.00000000
_symmetry_Int_Tables_number   1
_chemical_formula_structural   Ba2CaWO6
_chemical_formula_sum   'Ba2 Ca1 W1 O6'
_cell_volume   154.52772060
_cell_formula_units_Z   1
loop_
 _symmetry_equiv_pos_site_id
 _symmetry_equiv_pos_as_xyz
  1  'x, y, z'
loop_
 _atom_site_type_symbol
 _atom_site_label
 _atom_site_symmetry_multiplicity
 _atom_site_fract_x
 _atom_site_fract_y
 _atom_site_fract_z
 _atom_site_occupancy
  O  O0  1  0.75920468  0.69818915  0.00000002  1
  O  O1  1  0.30181133  0.75920488  0.99999958  1
  O  O2  1  0.69818955  0.24079532  0.99999963  1
  O  O3  1  0.24079427  0.30181104  0.99999989  1
  O  O4  1  0.27066342  0.27066351  0.54132710  1
  O  O5  1  0.72933585  0.72933611  0.45867291  1
  Ca  Ca6  1  0.00000000  0.00000000  0.00000000  1
  Ba  Ba7  1  0.25000028  0.75000037  0.49999977  1
  Ba  Ba8  1  0.74999900  0.24999926  0.49999858  1
  W  W9  1  0.50000010  0.49999908  0.99999893  1
