# generated using pymatgen
data_LaNiO3
_symmetry_space_group_name_H-M   'P 1'
_cell_length_a   5.43320370
_cell_length_b   5.43320370
_cell_length_c   5.43320370
_cell_angle_alpha   61.46395926
_cell_angle_beta   61.46395925
_cell_angle_gamma   61.46395931
_symmetry_Int_Tables_number   1
_chemical_formula_structural   LaNiO3
_chemical_formula_sum   'La2 Ni2 O6'
_cell_volume   117.13827016
_cell_formula_units_Z   2
loop_
 _symmetry_equiv_pos_site_id
 _symmetry_equiv_pos_as_xyz
  1  'x, y, z'
loop_
 _atom_site_type_symbol
 _atom_site_label
 _atom_site_symmetry_multiplicity
 _atom_site_fract_x
 _atom_site_fract_y
 _atom_site_fract_z
 _atom_site_occupancy
  O  O0  1  0.31335872  0.75000000  0.18664128  1
  O  O1  1  0.75000000  0.18664128  0.31335872  1
  O  O2  1  0.18664128  0.31335872  0.75000000  1
  O  O3  1  0.68664128  0.25000000  0.81335872  1
  O  O4  1  0.81335872  0.68664128  0.25000000  1
  O  O5  1  0.25000000  0.81335872  0.68664128  1
  Ni  Ni6  1  0.50000000  0.50000000  0.50000000  1
  Ni  Ni7  1  0.00000000  0.00000000  0.00000000  1
  La  La8  1  0.75000000  0.75000000  0.75000000  1
  La  La9  1  0.25000000  0.25000000  0.25000000  1
