# generated using pymatgen
data_LaCoO3
_symmetry_space_group_name_H-M   'P 1'
_cell_length_a   5.46420315
_cell_length_b   5.47218853
_cell_length_c   5.43575666
_cell_angle_alpha   61.02703035
_cell_angle_beta   61.13805031
_cell_angle_gamma   60.98788794
_symmetry_Int_Tables_number   1
_chemical_formula_structural   LaCoO3
_chemical_formula_sum   'La2 Co2 O6'
_cell_volume   117.64928454
_cell_formula_units_Z   2
loop_
 _symmetry_equiv_pos_site_id
 _symmetry_equiv_pos_as_xyz
  1  'x, y, z'
loop_
 _atom_site_type_symbol
 _atom_site_label
 _atom_site_symmetry_multiplicity
 _atom_site_fract_x
 _atom_site_fract_y
 _atom_site_fract_z
 _atom_site_occupancy
  La  La0  1  0.74882805  0.74977236  0.24983394  1
  La  La1  1  0.25117309  0.25022668  0.75016835  1
  Co  Co2  1  0.50000129  0.49999963  0.00000009  1
  Co  Co3  1  0.00000044  -0.00000006  0.49999930  1
  O  O4  1  0.25556471  0.68349530  0.30457245  1
  O  O5  1  0.74443425  0.31650588  0.69542626  1
  O  O6  1  0.80877759  0.25849406  0.18321367  1
  O  O7  1  0.19122256  0.74150676  0.81678671  1
  O  O8  1  0.68148444  0.80844254  0.75174429  1
  O  O9  1  0.31851457  0.19155785  0.24825293  1
