# generated using pymatgen
data_Ba2FeMoO6
_symmetry_space_group_name_H-M   'P 1'
_cell_length_a   5.77515154
_cell_length_b   5.77515153
_cell_length_c   5.78847209
_cell_angle_alpha   119.92390539
_cell_angle_beta   119.92390531
_cell_angle_gamma   89.99999992
_symmetry_Int_Tables_number   1
_chemical_formula_structural   Ba2FeMoO6
_chemical_formula_sum   'Ba2 Fe1 Mo1 O6'
_cell_volume   136.82696229
_cell_formula_units_Z   1
loop_
 _symmetry_equiv_pos_site_id
 _symmetry_equiv_pos_as_xyz
  1  'x, y, z'
loop_
 _atom_site_type_symbol
 _atom_site_label
 _atom_site_symmetry_multiplicity
 _atom_site_fract_x
 _atom_site_fract_y
 _atom_site_fract_z
 _atom_site_occupancy
  O  O0  1  0.74783475  0.74783475  0.49566950  1
  O  O1  1  0.25216525  0.25216525  0.50433050  1
  O  O2  1  0.74446877  0.74446877  0.00000000  1
  O  O3  1  0.25553123  0.74446877  0.00000000  1
  O  O4  1  0.25553123  0.25553123  0.00000000  1
  O  O5  1  0.74446877  0.25553123  0.00000000  1
  Fe  Fe6  1  0.00000000  0.00000000  0.00000000  1
  Mo  Mo7  1  0.50000000  0.50000000  0.00000000  1
  Ba  Ba8  1  0.75000000  0.25000000  0.50000000  1
  Ba  Ba9  1  0.25000000  0.75000000  0.50000000  1
