# generated using pymatgen
data_LaMnO3
_symmetry_space_group_name_H-M   'P 1'
_cell_length_a   5.57352734
_cell_length_b   5.80181272
_cell_length_c   7.85721437
_cell_angle_alpha   90.00000000
_cell_angle_beta   90.00000000
_cell_angle_gamma   90.00000000
_symmetry_Int_Tables_number   1
_chemical_formula_structural   LaMnO3
_chemical_formula_sum   'La4 Mn4 O12'
_cell_volume   254.07529818
_cell_formula_units_Z   4
loop_
 _symmetry_equiv_pos_site_id
 _symmetry_equiv_pos_as_xyz
  1  'x, y, z'
loop_
 _atom_site_type_symbol
 _atom_site_label
 _atom_site_symmetry_multiplicity
 _atom_site_fract_x
 _atom_site_fract_y
 _atom_site_fract_z
 _atom_site_occupancy
  La  La0  1  0.50947330  0.55425453  0.25000000  1
  La  La1  1  0.99052670  0.05425453  0.25000000  1
  La  La2  1  0.49052670  0.44574547  0.75000000  1
  La  La3  1  0.00947330  0.94574547  0.75000000  1
  Mn  Mn4  1  -0.00000000  0.50000000  -0.00000000  1
  Mn  Mn5  1  0.50000000  0.00000000  0.50000000  1
  Mn  Mn6  1  -0.00000000  0.50000000  0.50000000  1
  Mn  Mn7  1  0.50000000  -0.00000000  -0.00000000  1
  O  O8  1  0.41721523  0.98162918  0.25000000  1
  O  O9  1  0.08278477  0.48162918  0.25000000  1
  O  O10  1  0.58278477  0.01837082  0.75000000  1
  O  O11  1  0.91721523  0.51837082  0.75000000  1
  O  O12  1  0.28581797  0.69261103  0.54193374  1
  O  O13  1  0.21418203  0.19261103  0.95806626  1
  O  O14  1  0.71418203  0.30738897  0.04193374  1
  O  O15  1  0.78581797  0.80738897  0.45806626  1
  O  O16  1  0.71418203  0.30738897  0.45806626  1
  O  O17  1  0.78581797  0.80738897  0.04193374  1
  O  O18  1  0.28581797  0.69261103  0.95806626  1
  O  O19  1  0.21418203  0.19261103  0.54193374  1
