# generated using pymatgen
data_Co4B6O13
_symmetry_space_group_name_H-M   'P 1'
_cell_length_a   6.53567673
_cell_length_b   6.53567673
_cell_length_c   6.53567673
_cell_angle_alpha   109.47122064
_cell_angle_beta   109.47122065
_cell_angle_gamma   109.47122066
_symmetry_Int_Tables_number   1
_chemical_formula_structural   Co4B6O13
_chemical_formula_sum   'Co4 B6 O13'
_cell_volume   214.90662167
_cell_formula_units_Z   1
loop_
 _symmetry_equiv_pos_site_id
 _symmetry_equiv_pos_as_xyz
  1  'x, y, z'
loop_
 _atom_site_type_symbol
 _atom_site_label
 _atom_site_symmetry_multiplicity
 _atom_site_fract_x
 _atom_site_fract_y
 _atom_site_fract_z
 _atom_site_occupancy
  B  B0  1  0.50000000  0.75000000  0.25000000  1
  B  B1  1  0.25000000  0.75000000  0.50000000  1
  B  B2  1  0.75000000  0.25000000  0.50000000  1
  B  B3  1  0.25000000  0.50000000  0.75000000  1
  B  B4  1  0.75000000  0.50000000  0.25000000  1
  B  B5  1  0.50000000  0.25000000  0.75000000  1
  O  O6  1  0.55807534  0.55807534  0.28190202  1
  O  O7  1  0.72382668  0.44192466  0.00000000  1
  O  O8  1  0.00000000  0.72382668  0.44192466  1
  O  O9  1  0.44192466  0.72382668  0.00000000  1
  O  O10  1  0.27617332  0.71809798  0.27617332  1
  O  O11  1  0.72382668  0.00000000  0.44192466  1
  O  O12  1  0.44192466  0.00000000  0.72382668  1
  O  O13  1  0.00000000  0.44192466  0.72382668  1
  O  O14  1  0.28190202  0.55807534  0.55807534  1
  O  O15  1  0.55807534  0.28190202  0.55807534  1
  O  O16  1  0.27617332  0.27617332  0.71809798  1
  O  O17  1  0.71809798  0.27617332  0.27617332  1
  O  O18  1  0.00000000  0.00000000  0.00000000  1
  Co  Co19  1  0.00000000  0.00000000  0.69238222  1
  Co  Co20  1  0.00000000  0.69238222  0.00000000  1
  Co  Co21  1  0.69238222  0.00000000  0.00000000  1
  Co  Co22  1  0.30761778  0.30761778  0.30761778  1
