# generated using pymatgen
data_MgF2
_symmetry_space_group_name_H-M   'P 1'
_cell_length_a   3.91621222
_cell_length_b   5.71720586
_cell_length_c   5.78630302
_cell_angle_alpha   110.01178651
_cell_angle_beta   70.27447933
_cell_angle_gamma   109.97406737
_symmetry_Int_Tables_number   1
_chemical_formula_structural   MgF2
_chemical_formula_sum   'Mg2 F4'
_cell_volume   110.78177475
_cell_formula_units_Z   2
loop_
 _symmetry_equiv_pos_site_id
 _symmetry_equiv_pos_as_xyz
  1  'x, y, z'
loop_
 _atom_site_type_symbol
 _atom_site_label
 _atom_site_symmetry_multiplicity
 _atom_site_fract_x
 _atom_site_fract_y
 _atom_site_fract_z
 _atom_site_occupancy
  Mg  Mg0  1  0.89260238  0.64157598  0.85450786  1
  Mg  Mg1  1  0.10739762  0.35842402  0.14549214  1
  F  F2  1  0.65760399  0.41123969  0.09691516  1
  F  F3  1  -0.00000000  0.50000000  0.50000000  1
  F  F4  1  0.34239601  0.58876031  0.90308484  1
  F  F5  1  -0.00000000  0.00000000  0.00000000  1
