# generated using pymatgen
data_La2MgMnO6
_symmetry_space_group_name_H-M   'P 1'
_cell_length_a   5.50469134
_cell_length_b   5.50469133
_cell_length_c   5.50469134
_cell_angle_alpha   60.95210769
_cell_angle_beta   60.95210768
_cell_angle_gamma   60.95210761
_symmetry_Int_Tables_number   1
_chemical_formula_structural   La2MgMnO6
_chemical_formula_sum   'La2 Mg1 Mn1 O6'
_cell_volume   120.47649541
_cell_formula_units_Z   1
loop_
 _symmetry_equiv_pos_site_id
 _symmetry_equiv_pos_as_xyz
  1  'x, y, z'
loop_
 _atom_site_type_symbol
 _atom_site_label
 _atom_site_symmetry_multiplicity
 _atom_site_fract_x
 _atom_site_fract_y
 _atom_site_fract_z
 _atom_site_occupancy
  O  O0  1  0.30867564  0.76217930  0.17426147  1
  O  O1  1  0.76217930  0.17426147  0.30867564  1
  O  O2  1  0.17426147  0.30867564  0.76217930  1
  O  O3  1  0.69132436  0.23782070  0.82573853  1
  O  O4  1  0.82573853  0.69132436  0.23782070  1
  O  O5  1  0.23782070  0.82573853  0.69132436  1
  Mg  Mg6  1  0.50000000  0.50000000  0.50000000  1
  Mn  Mn7  1  0.00000000  0.00000000  0.00000000  1
  La  La8  1  0.75090521  0.75090521  0.75090521  1
  La  La9  1  0.24909479  0.24909479  0.24909479  1
