# generated using pymatgen
data_Sm(Sn3Ru2)2
_symmetry_space_group_name_H-M   'P 1'
_cell_length_a   6.94427921
_cell_length_b   6.94427921
_cell_length_c   6.96769450
_cell_angle_alpha   119.88889594
_cell_angle_beta   119.88889596
_cell_angle_gamma   90.00000001
_symmetry_Int_Tables_number   1
_chemical_formula_structural   Sm(Sn3Ru2)2
_chemical_formula_sum   'Sm1 Sn6 Ru4'
_cell_volume   238.38592063
_cell_formula_units_Z   1
loop_
 _symmetry_equiv_pos_site_id
 _symmetry_equiv_pos_as_xyz
  1  'x, y, z'
loop_
 _atom_site_type_symbol
 _atom_site_label
 _atom_site_symmetry_multiplicity
 _atom_site_fract_x
 _atom_site_fract_y
 _atom_site_fract_z
 _atom_site_occupancy
  Ru  Ru0  1  0.40503156  0.40503156  0.15549242  1
  Ru  Ru1  1  0.75046085  0.75046085  0.15549242  1
  Ru  Ru2  1  0.59496844  0.24953915  0.84450758  1
  Ru  Ru3  1  0.24953915  0.59496844  0.84450758  1
  Sn  Sn4  1  0.50000000  0.00000000  0.00000000  1
  Sn  Sn5  1  0.47070335  0.47070335  0.58857873  1
  Sn  Sn6  1  0.88212462  0.52929665  0.41142127  1
  Sn  Sn7  1  0.52929665  0.88212462  0.41142127  1
  Sn  Sn8  1  0.11787538  0.11787538  0.58857873  1
  Sn  Sn9  1  0.00000000  0.50000000  0.00000000  1
  Sm  Sm10  1  0.00000000  0.00000000  0.00000000  1
