# generated using pymatgen
data_Na4Hf(S2O9)2
_symmetry_space_group_name_H-M   'P 1'
_cell_length_a   6.88747499
_cell_length_b   6.88747499
_cell_length_c   17.28289000
_cell_angle_alpha   89.94620662
_cell_angle_beta   90.05379338
_cell_angle_gamma   85.48029249
_symmetry_Int_Tables_number   1
_chemical_formula_structural   Na4Hf(S2O9)2
_chemical_formula_sum   'Na8 Hf2 S8 O36'
_cell_volume   817.30354877
_cell_formula_units_Z   2
loop_
 _symmetry_equiv_pos_site_id
 _symmetry_equiv_pos_as_xyz
  1  'x, y, z'
loop_
 _atom_site_type_symbol
 _atom_site_label
 _atom_site_symmetry_multiplicity
 _atom_site_fract_x
 _atom_site_fract_y
 _atom_site_fract_z
 _atom_site_occupancy
  Na  Na0  1  0.16119882  0.47963273  0.65630983  1
  Na  Na1  1  0.52036727  0.83880118  0.15630983  1
  Na  Na2  1  0.85451297  0.50361526  0.84468497  1
  Na  Na3  1  0.49638474  0.14548703  0.34468497  1
  Na  Na4  1  0.36384868  0.83475611  0.80099576  1
  Na  Na5  1  0.16524389  0.63615132  0.30099576  1
  Na  Na6  1  0.65742199  0.15210579  0.70060504  1
  Na  Na7  1  0.84789421  0.34257801  0.20060504  1
  Hf  Hf8  1  0.86761850  0.84794446  0.50097505  1
  Hf  Hf9  1  0.15205554  0.13238150  0.00097505  1
  S  S10  1  0.10899287  0.96888903  0.62550996  1
  S  S11  1  0.03111097  0.89100713  0.12550996  1
  S  S12  1  0.91352548  0.01234491  0.87566235  1
  S  S13  1  0.98765509  0.08647452  0.37566235  1
  S  S14  1  0.35520955  0.37828881  0.84075775  1
  S  S15  1  0.62171119  0.64479045  0.34075775  1
  S  S16  1  0.66124298  0.60545693  0.66098936  1
  S  S17  1  0.39454307  0.33875702  0.16098936  1
  O  O18  1  0.89194930  0.02020438  0.60897915  1
  O  O19  1  0.97979562  0.10805070  0.10897915  1
  O  O20  1  0.16381363  0.85598855  0.55001003  1
  O  O21  1  0.14401145  0.83618637  0.05001003  1
  O  O22  1  0.21665959  0.14109913  0.62917084  1
  O  O23  1  0.85890087  0.78334041  0.12917084  1
  O  O24  1  0.13565488  0.83788996  0.69137229  1
  O  O25  1  0.16211004  0.86434512  0.19137229  1
  O  O26  1  0.04036094  0.87010311  0.39289851  1
  O  O27  1  0.12989689  0.95963906  0.89289851  1
  O  O28  1  0.80450329  0.84107000  0.87245085  1
  O  O29  1  0.15893000  0.19549671  0.37245085  1
  O  O30  1  0.87240914  0.14174055  0.45061216  1
  O  O31  1  0.85825945  0.12759086  0.95061216  1
  O  O32  1  0.88894602  0.14191569  0.80926566  1
  O  O33  1  0.85808431  0.11105398  0.30926566  1
  O  O34  1  0.18972727  0.48337359  0.80064801  1
  O  O35  1  0.51662641  0.81027273  0.30064801  1
  O  O36  1  0.51023420  0.50859053  0.85511390  1
  O  O37  1  0.49140947  0.48976580  0.35511390  1
  O  O38  1  0.42410132  0.19525282  0.80280325  1
  O  O39  1  0.80474718  0.57589868  0.30280325  1
  O  O40  1  0.68058059  0.72143959  0.42175705  1
  O  O41  1  0.27856041  0.31941941  0.92175705  1
  O  O42  1  0.82422063  0.49535364  0.70098989  1
  O  O43  1  0.50464636  0.17577937  0.20098989  1
  O  O44  1  0.59804728  0.78967959  0.69915881  1
  O  O45  1  0.21032041  0.40195272  0.19915881  1
  O  O46  1  0.50242938  0.47964324  0.64682637  1
  O  O47  1  0.52035676  0.49757062  0.14682637  1
  O  O48  1  0.74020901  0.66042647  0.57992332  1
  O  O49  1  0.33957353  0.25979099  0.07992332  1
  O  O50  1  0.58681974  0.99914010  0.48441263  1
  O  O51  1  0.00085990  0.41318026  0.98441263  1
  O  O52  1  0.02256641  0.56965852  0.51741619  1
  O  O53  1  0.43034148  0.97743359  0.01741619  1
