# generated using pymatgen
data_Na2CaZr2Si10O27
_symmetry_space_group_name_H-M   'P 1'
_cell_length_a   9.29680352
_cell_length_b   9.29680352
_cell_length_c   19.06491055
_cell_angle_alpha   82.02318419
_cell_angle_beta   97.97681581
_cell_angle_gamma   67.19752776
_symmetry_Int_Tables_number   1
_chemical_formula_structural   Na2CaZr2Si10O27
_chemical_formula_sum   'Na4 Ca2 Zr4 Si20 O54'
_cell_volume   1470.47063168
_cell_formula_units_Z   2
loop_
 _symmetry_equiv_pos_site_id
 _symmetry_equiv_pos_as_xyz
  1  'x, y, z'
loop_
 _atom_site_type_symbol
 _atom_site_label
 _atom_site_symmetry_multiplicity
 _atom_site_fract_x
 _atom_site_fract_y
 _atom_site_fract_z
 _atom_site_occupancy
  Na  Na0  1  0.96559291  0.05310402  0.60141411  1
  Na  Na1  1  0.94689598  0.03440709  0.10141411  1
  Na  Na2  1  0.05261192  0.95425642  0.90774950  1
  Na  Na3  1  0.04574358  0.94738808  0.40774950  1
  Ca  Ca4  1  0.37147867  0.37721936  0.49696432  1
  Ca  Ca5  1  0.62278064  0.62852133  0.99696432  1
  Zr  Zr6  1  0.97217905  0.50128720  0.50233956  1
  Zr  Zr7  1  0.49871280  0.02782095  0.00233956  1
  Zr  Zr8  1  0.49580577  0.97574646  0.49340997  1
  Zr  Zr9  1  0.02425354  0.50419423  0.99340997  1
  Si  Si10  1  0.15410087  0.23995866  0.88548284  1
  Si  Si11  1  0.76004134  0.84589913  0.38548284  1
  Si  Si12  1  0.75202803  0.85813465  0.88725671  1
  Si  Si13  1  0.14186535  0.24797197  0.38725671  1
  Si  Si14  1  0.84295142  0.76518197  0.61099917  1
  Si  Si15  1  0.23481803  0.15704858  0.11099917  1
  Si  Si16  1  0.24728279  0.14813409  0.60893668  1
  Si  Si17  1  0.85186591  0.75271721  0.10893668  1
  Si  Si18  1  0.28610914  0.29806775  0.74587089  1
  Si  Si19  1  0.70193225  0.71389086  0.24587089  1
  Si  Si20  1  0.71099895  0.70805818  0.75007219  1
  Si  Si21  1  0.29194182  0.28900105  0.25007219  1
  Si  Si22  1  0.18640533  0.60403673  0.62909113  1
  Si  Si23  1  0.39596327  0.81359467  0.12909113  1
  Si  Si24  1  0.39947284  0.79230539  0.63320298  1
  Si  Si25  1  0.20769461  0.60052716  0.13320298  1
  Si  Si26  1  0.80836907  0.40243975  0.86669154  1
  Si  Si27  1  0.59756025  0.19163093  0.36669154  1
  Si  Si28  1  0.59625715  0.21282556  0.86265192  1
  Si  Si29  1  0.78717444  0.40374285  0.36265192  1
  O  O30  1  0.33659206  0.65233393  0.64034866  1
  O  O31  1  0.34766607  0.66340794  0.14034866  1
  O  O32  1  0.65867070  0.35327481  0.85884885  1
  O  O33  1  0.64672519  0.34132930  0.35884885  1
  O  O34  1  0.18750530  0.52103934  0.55900357  1
  O  O35  1  0.47896066  0.81249470  0.05900357  1
  O  O36  1  0.02314137  0.77162907  0.61880468  1
  O  O37  1  0.22837093  0.97685863  0.11880468  1
  O  O38  1  0.20110232  0.48491386  0.70384486  1
  O  O39  1  0.51508614  0.79889768  0.20384486  1
  O  O40  1  0.46815317  0.79983052  0.55980233  1
  O  O41  1  0.20016948  0.53184683  0.05980233  1
  O  O42  1  0.24714203  0.96610857  0.62730789  1
  O  O43  1  0.03389143  0.75285797  0.12730789  1
  O  O44  1  0.52972480  0.75626630  0.70691674  1
  O  O45  1  0.24373370  0.47027520  0.20691674  1
  O  O46  1  0.79036799  0.52063301  0.79112042  1
  O  O47  1  0.47936699  0.20963201  0.29112042  1
  O  O48  1  0.80951162  0.48757066  0.93592268  1
  O  O49  1  0.51242934  0.19048838  0.43592368  1
  O  O50  1  0.97260739  0.23685461  0.87679512  1
  O  O51  1  0.76314539  0.02739261  0.37679512  1
  O  O52  1  0.46773510  0.25355168  0.78753395  1
  O  O53  1  0.74644832  0.53226490  0.28753495  1
  O  O54  1  0.52134203  0.20355230  0.93416584  1
  O  O55  1  0.79644770  0.47865797  0.43416584  1
  O  O56  1  0.75041778  0.04054355  0.86894053  1
  O  O57  1  0.95945645  0.24958222  0.36894053  1
  O  O58  1  0.81848008  0.73652138  0.69437719  1
  O  O59  1  0.26347862  0.18151992  0.19437719  1
  O  O60  1  0.29641086  0.18456418  0.68800251  1
  O  O61  1  0.81543582  0.70358914  0.18800251  1
  O  O62  1  0.18177489  0.26702493  0.80263250  1
  O  O63  1  0.73297507  0.81822511  0.30263250  1
  O  O64  1  0.70228649  0.81981698  0.80859606  1
  O  O65  1  0.18018302  0.29771351  0.30859606  1
  O  O66  1  0.14372772  0.38999106  0.92236749  1
  O  O67  1  0.61000894  0.85627228  0.42236749  1
  O  O68  1  0.61640686  0.86093576  0.93424452  1
  O  O69  1  0.13906424  0.38359314  0.43424452  1
  O  O70  1  0.93562643  0.74114785  0.92828282  1
  O  O71  1  0.25885215  0.06437357  0.42828282  1
  O  O72  1  0.27715095  0.06523324  0.93335991  1
  O  O73  1  0.93476676  0.72284905  0.43335991  1
  O  O74  1  0.06302656  0.26519457  0.56865613  1
  O  O75  1  0.73480543  0.93697344  0.06865613  1
  O  O76  1  0.71420903  0.93685779  0.56321991  1
  O  O77  1  0.06314221  0.28579097  0.06321991  1
  O  O78  1  0.85704980  0.61361150  0.57466937  1
  O  O79  1  0.38638850  0.14295020  0.07466937  1
  O  O80  1  0.38140181  0.14483728  0.56145160  1
  O  O81  1  0.85516272  0.61859819  0.06145160  1
  O  O82  1  0.55906453  0.50167969  0.51764935  1
  O  O83  1  0.49832031  0.44093547  0.01764935  1
