# generated using pymatgen
data_I3O8
_symmetry_space_group_name_H-M   'P 1'
_cell_length_a   7.69053979
_cell_length_b   7.88515569
_cell_length_c   11.52427340
_cell_angle_alpha   90.00000000
_cell_angle_beta   89.63372840
_cell_angle_gamma   90.00000000
_symmetry_Int_Tables_number   1
_chemical_formula_structural   I3O8
_chemical_formula_sum   'I12 O32'
_cell_volume   698.83037803
_cell_formula_units_Z   4
loop_
 _symmetry_equiv_pos_site_id
 _symmetry_equiv_pos_as_xyz
  1  'x, y, z'
loop_
 _atom_site_type_symbol
 _atom_site_label
 _atom_site_symmetry_multiplicity
 _atom_site_fract_x
 _atom_site_fract_y
 _atom_site_fract_z
 _atom_site_occupancy
  I  I0  1  0.26012030  0.73052267  0.40709454  1
  I  I1  1  0.76012030  0.76947733  0.90709454  1
  I  I2  1  0.73987970  0.26947733  0.59290546  1
  I  I3  1  0.23987970  0.23052267  0.09290546  1
  I  I4  1  0.16053733  0.23789701  0.39610153  1
  I  I5  1  0.66053733  0.26210299  0.89610153  1
  I  I6  1  0.83946267  0.76210299  0.60389847  1
  I  I7  1  0.33946267  0.73789701  0.10389847  1
  I  I8  1  0.74513241  0.54533527  0.31182997  1
  I  I9  1  0.24513241  0.95466473  0.81182997  1
  I  I10  1  0.25486759  0.45466473  0.68817003  1
  I  I11  1  0.75486759  0.04533527  0.18817003  1
  O  O12  1  0.03636983  0.79321483  0.44750563  1
  O  O13  1  0.53636983  0.70678517  0.94750563  1
  O  O14  1  0.96363017  0.20678517  0.55249437  1
  O  O15  1  0.46363017  0.29321483  0.05249437  1
  O  O16  1  0.35890746  0.93589189  0.41728398  1
  O  O17  1  0.85890746  0.56410811  0.91728398  1
  O  O18  1  0.64109254  0.06410811  0.58271602  1
  O  O19  1  0.14109254  0.43589189  0.08271602  1
  O  O20  1  0.32613136  0.32316536  0.49107655  1
  O  O21  1  0.82613136  0.17683464  0.99107655  1
  O  O22  1  0.67386864  0.67683464  0.50892345  1
  O  O23  1  0.17386864  0.82316536  0.00892345  1
  O  O24  1  0.05938295  0.44410190  0.36395164  1
  O  O25  1  0.55938295  0.05589810  0.86395164  1
  O  O26  1  0.94061705  0.55589810  0.63604836  1
  O  O27  1  0.44061705  0.94410190  0.13604836  1
  O  O28  1  0.31655269  0.24724906  0.25896831  1
  O  O29  1  0.81655269  0.25275094  0.75896831  1
  O  O30  1  0.68344731  0.75275094  0.74103169  1
  O  O31  1  0.18344731  0.74724906  0.24103169  1
  O  O32  1  0.73885354  0.95036292  0.33297756  1
  O  O33  1  0.23885354  0.54963708  0.83297756  1
  O  O34  1  0.26114646  0.04963708  0.66702244  1
  O  O35  1  0.76114646  0.45036292  0.16702244  1
  O  O36  1  0.69712866  0.34479784  0.38959226  1
  O  O37  1  0.19712866  0.15520216  0.88959226  1
  O  O38  1  0.30287134  0.65520216  0.61040774  1
  O  O39  1  0.80287134  0.84479784  0.11040774  1
  O  O40  1  0.51381985  0.61245217  0.28520980  1
  O  O41  1  0.01381985  0.88754783  0.78520980  1
  O  O42  1  0.48618015  0.38754783  0.71479020  1
  O  O43  1  0.98618015  0.11245217  0.21479020  1
