# generated using pymatgen
data_Sr2NiWO6
_symmetry_space_group_name_H-M   'P 1'
_cell_length_a   5.63248701
_cell_length_b   5.63248701
_cell_length_c   5.66223817
_cell_angle_alpha   119.82634048
_cell_angle_beta   119.82634046
_cell_angle_gamma   90.00000005
_symmetry_Int_Tables_number   1
_chemical_formula_structural   Sr2NiWO6
_chemical_formula_sum   'Sr2 Ni1 W1 O6'
_cell_volume   127.68433299
_cell_formula_units_Z   1
loop_
 _symmetry_equiv_pos_site_id
 _symmetry_equiv_pos_as_xyz
  1  'x, y, z'
loop_
 _atom_site_type_symbol
 _atom_site_label
 _atom_site_symmetry_multiplicity
 _atom_site_fract_x
 _atom_site_fract_y
 _atom_site_fract_z
 _atom_site_occupancy
  O  O0  1  0.75780598  0.75780539  0.51561201  1
  O  O1  1  0.24219412  0.24219413  0.48438803  1
  O  O2  1  0.79474371  0.72141262  0.00000046  1
  O  O3  1  0.27858686  0.79474420  0.99999998  1
  O  O4  1  0.20525639  0.27858690  0.99999958  1
  O  O5  1  0.72141395  0.20525750  0.00000150  1
  Ni  Ni6  1  0.50000026  0.50000037  0.00000005  1
  Sr  Sr7  1  0.24999955  0.75000102  0.50000041  1
  Sr  Sr8  1  0.74999920  0.25000069  0.50000005  1
  W  W9  1  0.00000000  0.00000000  0.00000000  1
