# generated using pymatgen
data_H4N2O3
_symmetry_space_group_name_H-M   'P 1'
_cell_length_a   7.37861622
_cell_length_b   8.28874977
_cell_length_c   6.81722103
_cell_angle_alpha   87.78472082
_cell_angle_beta   89.21819865
_cell_angle_gamma   88.70393695
_symmetry_Int_Tables_number   1
_chemical_formula_structural   H4N2O3
_chemical_formula_sum   'H16 N8 O12'
_cell_volume   416.48563261
_cell_formula_units_Z   4
loop_
 _symmetry_equiv_pos_site_id
 _symmetry_equiv_pos_as_xyz
  1  'x, y, z'
loop_
 _atom_site_type_symbol
 _atom_site_label
 _atom_site_symmetry_multiplicity
 _atom_site_fract_x
 _atom_site_fract_y
 _atom_site_fract_z
 _atom_site_occupancy
  H  H0  1  0.84577191  0.62837718  0.11061780  1
  H  H1  1  0.65682062  0.12693757  0.08678290  1
  H  H2  1  0.15413983  0.37360561  0.60463768  1
  H  H3  1  0.38135125  0.87342647  0.86397438  1
  H  H4  1  0.49851001  0.12827674  0.94372625  1
  H  H5  1  0.94235936  0.56728036  0.49627661  1
  H  H6  1  0.99345005  0.70222327  0.62946102  1
  H  H7  1  0.57153628  0.80129972  0.43850247  1
  H  H8  1  0.37621970  0.85368132  0.37640882  1
  H  H9  1  0.13730328  0.30195740  0.10038105  1
  H  H10  1  0.99022934  0.39965949  0.98882927  1
  H  H11  1  0.32592765  0.77860685  0.05134017  1
  H  H12  1  0.10110090  0.27407012  0.42998707  1
  H  H13  1  0.63167624  0.20855187  0.61755936  1
  H  H14  1  0.50634021  0.09177082  0.51518966  1
  H  H15  1  0.84114406  0.73300584  0.92176003  1
  N  N16  1  0.10684988  0.97164717  0.25928083  1
  N  N17  1  0.36766246  0.47032920  0.22283441  1
  N  N18  1  0.86306079  0.01494570  0.73547800  1
  N  N19  1  0.62984856  0.51850772  0.77283323  1
  N  N20  1  0.52073662  0.47011374  0.24419581  1
  N  N21  1  0.95306746  0.96244927  0.25340959  1
  N  N22  1  0.47579283  0.52689067  0.76385566  1
  N  N23  1  0.01654753  0.02992066  0.72814873  1
  O  O24  1  0.68092334  0.47209919  0.26771415  1
  O  O25  1  0.79180800  0.95507519  0.24688381  1
  O  O26  1  0.31338757  0.53594327  0.75643557  1
  O  O27  1  0.17749297  0.04358549  0.71761653  1
  O  O28  1  0.58162298  0.19984696  0.00512785  1
  O  O29  1  0.92086553  0.68336875  0.51495152  1
  O  O30  1  0.45284854  0.83353939  0.49063111  1
  O  O31  1  0.03510131  0.28906553  0.01396803  1
  O  O32  1  0.42689694  0.83821685  0.99291355  1
  O  O33  1  0.05245714  0.35354598  0.51897445  1
  O  O34  1  0.52093233  0.20604171  0.54132203  1
  O  O35  1  0.92620555  0.67858892  0.01199558  1
