# generated using pymatgen
data_Fe8H10O17
_symmetry_space_group_name_H-M   'P 1'
_cell_length_a   10.63231320
_cell_length_b   6.14164209
_cell_length_c   10.68534364
_cell_angle_alpha   89.94009108
_cell_angle_beta   88.53149558
_cell_angle_gamma   89.34938887
_symmetry_Int_Tables_number   1
_chemical_formula_structural   Fe8H10O17
_chemical_formula_sum   'Fe16 H20 O34'
_cell_volume   697.47713298
_cell_formula_units_Z   2
loop_
 _symmetry_equiv_pos_site_id
 _symmetry_equiv_pos_as_xyz
  1  'x, y, z'
loop_
 _atom_site_type_symbol
 _atom_site_label
 _atom_site_symmetry_multiplicity
 _atom_site_fract_x
 _atom_site_fract_y
 _atom_site_fract_z
 _atom_site_occupancy
  Fe  Fe0  1  0.33839303  0.01560339  0.10582690  1
  Fe  Fe1  1  0.14934413  0.00704758  0.61330789  1
  Fe  Fe2  1  0.85293904  0.25371791  0.56991727  1
  Fe  Fe3  1  0.69234511  0.28712289  0.08359148  1
  Fe  Fe4  1  0.65853978  0.00152869  0.77390471  1
  Fe  Fe5  1  0.87588450  0.00872038  0.27616038  1
  Fe  Fe6  1  0.17181538  0.25324492  0.32049276  1
  Fe  Fe7  1  0.35488250  0.25364976  0.80600663  1
  Fe  Fe8  1  0.32869924  0.50493143  0.10513616  1
  Fe  Fe9  1  0.15044187  0.50594825  0.62069925  1
  Fe  Fe10  1  0.85231922  0.75748483  0.58349315  1
  Fe  Fe11  1  0.84419012  0.74886092  0.96382436  1
  Fe  Fe12  1  0.66154012  0.50963292  0.78506342  1
  Fe  Fe13  1  0.84909027  0.51933722  0.27505349  1
  Fe  Fe14  1  0.16550394  0.76675138  0.32739009  1
  Fe  Fe15  1  0.35421044  0.75639959  0.81020150  1
  H  H16  1  0.35608208  0.99876224  0.38961940  1
  H  H17  1  0.42383830  0.99678318  0.62177596  1
  H  H18  1  0.86354597  0.22387330  0.81938927  1
  H  H19  1  0.66401755  0.98898523  0.50628617  1
  H  H20  1  0.66577060  0.83788356  0.21576091  1
  H  H21  1  0.61254353  0.03014235  0.30223880  1
  H  H22  1  0.61730811  0.92256808  0.99616485  1
  H  H23  1  0.48369980  0.27549480  -0.00008180  1
  H  H24  1  0.09354724  0.21985100  0.82021493  1
  H  H25  1  0.35797003  0.53310808  0.37559203  1
  H  H26  1  0.01661486  0.50514651  0.42121900  1
  H  H27  1  0.41223611  0.50507358  0.61598467  1
  H  H28  1  0.66597332  0.50997736  0.51049738  1
  H  H29  1  0.12649331  0.79590944  0.08204506  1
  H  H30  1  0.53135664  0.70637547  0.09695551  1
  H  H31  1  0.09374944  0.81197820  0.82190785  1
  H  H32  1  0.06026150  0.49844095  0.95962686  1
  H  H33  1  0.94226872  0.38161437  0.03138258  1
  H  H34  1  0.99120008  0.04060882  0.00084097  1
  H  H35  1  0.58345702  0.48261911  0.27084421  1
  O  O36  1  0.31090034  0.00460088  0.31157714  1
  O  O37  1  0.05572792  0.01283836  0.30436395  1
  O  O38  1  0.34695202  0.00570796  0.67241200  1
  O  O39  1  0.33927545  0.00721674  0.92518779  1
  O  O40  1  0.79473704  0.24785307  0.76142498  1
  O  O41  1  0.54133494  0.25767202  0.78750411  1
  O  O42  1  0.86468517  0.26744412  0.14110478  1
  O  O43  1  0.82726189  0.25883805  0.38973066  1
  O  O44  1  0.70689081  0.00897843  0.58456851  1
  O  O45  1  0.96652568  0.00498193  0.59853578  1
  O  O46  1  0.66604237  -0.00166325  0.22962084  1
  O  O47  1  0.69148379  0.00587709  0.97065961  1
  O  O48  1  0.21882847  0.25755333  0.13371480  1
  O  O49  1  0.48132492  0.26136393  0.09217645  1
  O  O50  1  0.15727414  0.25024248  0.75483837  1
  O  O51  1  0.18852777  0.25885825  0.50405998  1
  O  O52  1  0.30216464  0.51306696  0.30589595  1
  O  O53  1  0.04295866  0.50956986  0.32982384  1
  O  O54  1  0.34189214  0.50567363  0.67542543  1
  O  O55  1  0.33364102  0.50400081  0.92384206  1
  O  O56  1  0.79275615  0.75542591  0.77458172  1
  O  O57  1  0.53893159  0.75810952  0.77994967  1
  O  O58  1  0.87044419  0.76167375  0.14740742  1
  O  O59  1  0.82789127  0.76470450  0.39656180  1
  O  O60  1  0.71152737  0.50543152  0.58840510  1
  O  O61  1  0.97012537  0.50437699  0.58322601  1
  O  O62  1  0.70339796  0.52014025  0.96614661  1
  O  O63  1  0.20236230  0.76500269  0.12943187  1
  O  O64  1  0.44943758  0.75065281  0.13183251  1
  O  O65  1  0.15693341  0.76274113  0.75672620  1
  O  O66  1  0.19018148  0.75305319  0.50564960  1
  O  O67  1  0.97081680  0.46853645  0.95329666  1
  O  O68  1  0.98081503  0.95388172  0.92498191  1
  O  O69  1  0.65966844  0.51438521  0.22271285  1
