# generated using pymatgen
data_Cr2Se3
_symmetry_space_group_name_H-M   'P 1'
_cell_length_a   6.35920776
_cell_length_b   6.35920776
_cell_length_c   6.94430287
_cell_angle_alpha   62.75010533
_cell_angle_beta   62.75010540
_cell_angle_gamma   60.00001245
_symmetry_Int_Tables_number   1
_chemical_formula_structural   Cr2Se3
_chemical_formula_sum   'Cr4 Se6'
_cell_volume   206.43032671
_cell_formula_units_Z   2
loop_
 _symmetry_equiv_pos_site_id
 _symmetry_equiv_pos_as_xyz
  1  'x, y, z'
loop_
 _atom_site_type_symbol
 _atom_site_label
 _atom_site_symmetry_multiplicity
 _atom_site_fract_x
 _atom_site_fract_y
 _atom_site_fract_z
 _atom_site_occupancy
  Cr  Cr0  1  0.00000000  0.00000000  -0.00000000  1
  Cr  Cr1  1  0.50000000  0.50000000  0.50000000  1
  Cr  Cr2  1  0.32390524  0.32390524  0.02828427  1
  Cr  Cr3  1  0.67609476  0.67609476  0.97171573  1
  Se  Se4  1  0.90416742  0.26207608  0.23750706  1
  Se  Se5  1  0.26207608  0.59624944  0.23750706  1
  Se  Se6  1  0.59624944  0.90416742  0.23750706  1
  Se  Se7  1  0.09583258  0.73792392  0.76249294  1
  Se  Se8  1  0.73792392  0.40375056  0.76249294  1
  Se  Se9  1  0.40375056  0.09583258  0.76249294  1
