# generated using pymatgen
data_CsAuI3
_symmetry_space_group_name_H-M   'P 1'
_cell_length_a   8.45466369
_cell_length_b   8.45466369
_cell_length_c   8.65702169
_cell_angle_alpha   119.22972692
_cell_angle_beta   119.22972696
_cell_angle_gamma   89.99999997
_symmetry_Int_Tables_number   1
_chemical_formula_structural   CsAuI3
_chemical_formula_sum   'Cs2 Au2 I6'
_cell_volume   447.56312065
_cell_formula_units_Z   2
loop_
 _symmetry_equiv_pos_site_id
 _symmetry_equiv_pos_as_xyz
  1  'x, y, z'
loop_
 _atom_site_type_symbol
 _atom_site_label
 _atom_site_symmetry_multiplicity
 _atom_site_fract_x
 _atom_site_fract_y
 _atom_site_fract_z
 _atom_site_occupancy
  I  I0  1  0.77340406  0.77340406  0.00000000  1
  I  I1  1  0.70998266  0.70998266  0.41996533  1
  I  I2  1  0.22659594  0.22659594  0.00000000  1
  I  I3  1  0.29001734  0.29001734  0.58003467  1
  I  I4  1  0.22659594  0.77340406  0.00000000  1
  I  I5  1  0.77340406  0.22659594  0.00000000  1
  Cs  Cs6  1  0.25000000  0.75000000  0.50000000  1
  Cs  Cs7  1  0.75000000  0.25000000  0.50000000  1
  Au  Au8  1  0.50000000  0.50000000  0.00000000  1
  Au  Au9  1  0.00000000  0.00000000  0.00000000  1
