# generated using pymatgen
data_Nd3(BN2)2
_symmetry_space_group_name_H-M   'P 1'
_cell_length_a   3.55698781
_cell_length_b   6.30842824
_cell_length_c   6.52384919
_cell_angle_alpha   118.91352058
_cell_angle_beta   105.81988612
_cell_angle_gamma   90.00000002
_symmetry_Int_Tables_number   1
_chemical_formula_structural   Nd3(BN2)2
_chemical_formula_sum   'Nd3 B2 N4'
_cell_volume   121.76861765
_cell_formula_units_Z   1
loop_
 _symmetry_equiv_pos_site_id
 _symmetry_equiv_pos_as_xyz
  1  'x, y, z'
loop_
 _atom_site_type_symbol
 _atom_site_label
 _atom_site_symmetry_multiplicity
 _atom_site_fract_x
 _atom_site_fract_y
 _atom_site_fract_z
 _atom_site_occupancy
  B  B0  1  0.50000006  0.35696301  0.00000012  1
  B  B1  1  0.49999994  0.64303699  0.99999988  1
  N  N2  1  0.61895581  0.36274286  0.23791161  1
  N  N3  1  0.61895575  0.87516865  0.23791149  1
  N  N4  1  0.38104425  0.12483135  0.76208851  1
  N  N5  1  0.38104419  0.63725714  0.76208839  1
  Nd  Nd6  1  0.20182796  0.70182791  0.40365591  1
  Nd  Nd7  1  0.79817204  0.29817209  0.59634409  1
  Nd  Nd8  1  0.00000000  0.00000000  0.00000000  1
