# generated using pymatgen
data_Ag2PdCl4
_symmetry_space_group_name_H-M   'P 1'
_cell_length_a   6.55283669
_cell_length_b   6.55283669
_cell_length_c   8.24756559
_cell_angle_alpha   90.00000000
_cell_angle_beta   90.00000000
_cell_angle_gamma   100.90585445
_symmetry_Int_Tables_number   1
_chemical_formula_structural   Ag2PdCl4
_chemical_formula_sum   'Ag4 Pd2 Cl8'
_cell_volume   347.75160847
_cell_formula_units_Z   2
loop_
 _symmetry_equiv_pos_site_id
 _symmetry_equiv_pos_as_xyz
  1  'x, y, z'
loop_
 _atom_site_type_symbol
 _atom_site_label
 _atom_site_symmetry_multiplicity
 _atom_site_fract_x
 _atom_site_fract_y
 _atom_site_fract_z
 _atom_site_occupancy
  Cl  Cl0  1  0.19269330  0.19269330  0.79469785  1
  Cl  Cl1  1  0.30730670  0.30730670  0.29469785  1
  Cl  Cl2  1  0.69269330  0.69269330  0.70530215  1
  Cl  Cl3  1  0.80730670  0.80730670  0.20530215  1
  Cl  Cl4  1  0.26976892  0.73023108  0.50000000  1
  Cl  Cl5  1  0.23023108  0.76976892  0.00000000  1
  Cl  Cl6  1  0.76976892  0.23023108  0.00000000  1
  Cl  Cl7  1  0.73023108  0.26976892  0.50000000  1
  Pd  Pd8  1  0.00000000  0.00000000  0.00000000  1
  Pd  Pd9  1  0.50000000  0.50000000  0.50000000  1
  Ag  Ag10  1  0.52880753  0.02880753  0.75000000  1
  Ag  Ag11  1  0.97119247  0.47119247  0.25000000  1
  Ag  Ag12  1  0.02880753  0.52880753  0.75000000  1
  Ag  Ag13  1  0.47119247  0.97119247  0.25000000  1
