# generated using pymatgen
data_Pr3(BN2)2
_symmetry_space_group_name_H-M   'P 1'
_cell_length_a   3.59626936
_cell_length_b   6.35552341
_cell_length_c   6.57204017
_cell_angle_alpha   118.91603864
_cell_angle_beta   105.87882260
_cell_angle_gamma   90.00000006
_symmetry_Int_Tables_number   1
_chemical_formula_structural   Pr3(BN2)2
_chemical_formula_sum   'Pr3 B2 N4'
_cell_volume   124.89650515
_cell_formula_units_Z   1
loop_
 _symmetry_equiv_pos_site_id
 _symmetry_equiv_pos_as_xyz
  1  'x, y, z'
loop_
 _atom_site_type_symbol
 _atom_site_label
 _atom_site_symmetry_multiplicity
 _atom_site_fract_x
 _atom_site_fract_y
 _atom_site_fract_z
 _atom_site_occupancy
  B  B0  1  0.50000000  0.35710446  0.00000000  1
  B  B1  1  0.50000000  0.64289554  0.00000000  1
  N  N2  1  0.61820945  0.36293103  0.23641891  1
  N  N3  1  0.61820945  0.87348787  0.23641891  1
  N  N4  1  0.38179055  0.12651213  0.76358109  1
  N  N5  1  0.38179055  0.63706897  0.76358109  1
  Pr  Pr6  1  0.20187115  0.70187115  0.40374230  1
  Pr  Pr7  1  0.79812885  0.29812885  0.59625770  1
  Pr  Pr8  1  0.00000000  0.00000000  0.00000000  1
