# generated using pymatgen
data_MgTiO3
_symmetry_space_group_name_H-M   'P 1'
_cell_length_a   5.53133981
_cell_length_b   5.53133981
_cell_length_c   5.53133981
_cell_angle_alpha   54.94174483
_cell_angle_beta   54.94174484
_cell_angle_gamma   54.94174481
_symmetry_Int_Tables_number   1
_chemical_formula_structural   MgTiO3
_chemical_formula_sum   'Mg2 Ti2 O6'
_cell_volume   105.58039054
_cell_formula_units_Z   2
loop_
 _symmetry_equiv_pos_site_id
 _symmetry_equiv_pos_as_xyz
  1  'x, y, z'
loop_
 _atom_site_type_symbol
 _atom_site_label
 _atom_site_symmetry_multiplicity
 _atom_site_fract_x
 _atom_site_fract_y
 _atom_site_fract_z
 _atom_site_occupancy
  O  O0  1  0.04816549  0.77475470  0.43700991  1
  O  O1  1  0.77475470  0.43700991  0.04816549  1
  O  O2  1  0.43700991  0.04816549  0.77475470  1
  O  O3  1  0.95183451  0.22524530  0.56299009  1
  O  O4  1  0.56299009  0.95183451  0.22524530  1
  O  O5  1  0.22524530  0.56299009  0.95183451  1
  Mg  Mg6  1  0.35473073  0.35473073  0.35473073  1
  Mg  Mg7  1  0.64526927  0.64526927  0.64526927  1
  Ti  Ti8  1  0.14361134  0.14361134  0.14361134  1
  Ti  Ti9  1  0.85638866  0.85638866  0.85638866  1
