# generated using pymatgen
data_HoInAu
_symmetry_space_group_name_H-M   'P 1'
_cell_length_a   3.95064475
_cell_length_b   7.79310983
_cell_length_c   7.79310388
_cell_angle_alpha   120.00003043
_cell_angle_beta   90.00000000
_cell_angle_gamma   90.00000000
_symmetry_Int_Tables_number   1
_chemical_formula_structural   HoInAu
_chemical_formula_sum   'Ho3 In3 Au3'
_cell_volume   207.78765385
_cell_formula_units_Z   3
loop_
 _symmetry_equiv_pos_site_id
 _symmetry_equiv_pos_as_xyz
  1  'x, y, z'
loop_
 _atom_site_type_symbol
 _atom_site_label
 _atom_site_symmetry_multiplicity
 _atom_site_fract_x
 _atom_site_fract_y
 _atom_site_fract_z
 _atom_site_occupancy
  Ho  Ho0  1  0.50000000  0.59860183  1.00000000  1
  Ho  Ho1  1  0.50000000  0.40138264  0.40139680  1
  Ho  Ho2  1  0.50000000  0.99998585  0.59860320  1
  In  In3  1  -0.00000000  0.26345808  0.00000000  1
  In  In4  1  0.00000000  0.73652249  0.73652017  1
  In  In5  1  0.00000000  0.00000232  0.26347983  1
  Au  Au6  1  -0.00000000  0.33332053  0.66667624  1
  Au  Au7  1  -0.00000000  0.66664429  0.33332376  1
  Au  Au8  1  0.50000000  0.99998197  0.00000000  1
