# generated using pymatgen
data_CaSm3
_symmetry_space_group_name_H-M   'P 1'
_cell_length_a   7.41269804
_cell_length_b   7.41269948
_cell_length_c   5.93849863
_cell_angle_alpha   90.00000000
_cell_angle_beta   90.00000000
_cell_angle_gamma   120.00000396
_symmetry_Int_Tables_number   1
_chemical_formula_structural   CaSm3
_chemical_formula_sum   'Ca2 Sm6'
_cell_volume   282.59207453
_cell_formula_units_Z   2
loop_
 _symmetry_equiv_pos_site_id
 _symmetry_equiv_pos_as_xyz
  1  'x, y, z'
loop_
 _atom_site_type_symbol
 _atom_site_label
 _atom_site_symmetry_multiplicity
 _atom_site_fract_x
 _atom_site_fract_y
 _atom_site_fract_z
 _atom_site_occupancy
  Ca  Ca0  1  0.33333400  0.66666700  0.74999900  1
  Ca  Ca1  1  0.66666700  0.33333400  0.25000000  1
  Sm  Sm2  1  0.16449108  0.32898216  0.25000000  1
  Sm  Sm3  1  0.67101584  0.83550792  0.25000000  1
  Sm  Sm4  1  0.16449208  0.83550792  0.25000000  1
  Sm  Sm5  1  0.83550892  0.67101684  0.74999900  1
  Sm  Sm6  1  0.32898416  0.16449108  0.74999900  1
  Sm  Sm7  1  0.83550892  0.16449108  0.74999900  1
