# generated using pymatgen
data_TbNiGe2
_symmetry_space_group_name_H-M   'P 1'
_cell_length_a   4.19220192
_cell_length_b   4.14232771
_cell_length_c   8.55282058
_cell_angle_alpha   104.01414896
_cell_angle_beta   90.00000000
_cell_angle_gamma   90.00000000
_symmetry_Int_Tables_number   1
_chemical_formula_structural   TbNiGe2
_chemical_formula_sum   'Tb2 Ni2 Ge4'
_cell_volume   144.10311626
_cell_formula_units_Z   2
loop_
 _symmetry_equiv_pos_site_id
 _symmetry_equiv_pos_as_xyz
  1  'x, y, z'
loop_
 _atom_site_type_symbol
 _atom_site_label
 _atom_site_symmetry_multiplicity
 _atom_site_fract_x
 _atom_site_fract_y
 _atom_site_fract_z
 _atom_site_occupancy
  Tb  Tb0  1  0.75000000  0.10797721  0.21595442  1
  Tb  Tb1  1  0.25000000  0.89202279  0.78404558  1
  Ni  Ni2  1  0.75000000  0.31972607  0.63945213  1
  Ni  Ni3  1  0.25000000  0.68027393  0.36054787  1
  Ge  Ge4  1  0.75000000  0.45812560  0.91625121  1
  Ge  Ge5  1  0.25000000  0.54187440  0.08374879  1
  Ge  Ge6  1  0.75000000  0.74887414  0.49774829  1
  Ge  Ge7  1  0.25000000  0.25112586  0.50225171  1
