# generated using pymatgen
data_NaSbO3
_symmetry_space_group_name_H-M   'P 1'
_cell_length_a   6.24692606
_cell_length_b   6.24692605
_cell_length_c   6.24692606
_cell_angle_alpha   51.04890315
_cell_angle_beta   51.04890314
_cell_angle_gamma   51.04890311
_symmetry_Int_Tables_number   1
_chemical_formula_structural   NaSbO3
_chemical_formula_sum   'Na2 Sb2 O6'
_cell_volume   136.00988398
_cell_formula_units_Z   2
loop_
 _symmetry_equiv_pos_site_id
 _symmetry_equiv_pos_as_xyz
  1  'x, y, z'
loop_
 _atom_site_type_symbol
 _atom_site_label
 _atom_site_symmetry_multiplicity
 _atom_site_fract_x
 _atom_site_fract_y
 _atom_site_fract_z
 _atom_site_occupancy
  O  O0  1  0.95948727  0.19096301  0.56019795  1
  O  O1  1  0.19096301  0.56019795  0.95948727  1
  O  O2  1  0.56019795  0.95948727  0.19096301  1
  O  O3  1  0.04051273  0.80903699  0.43980205  1
  O  O4  1  0.43980205  0.04051273  0.80903699  1
  O  O5  1  0.80903699  0.43980205  0.04051273  1
  Na  Na6  1  0.63816453  0.63816453  0.63816453  1
  Na  Na7  1  0.36183547  0.36183547  0.36183547  1
  Sb  Sb8  1  0.83885721  0.83885721  0.83885721  1
  Sb  Sb9  1  0.16114279  0.16114279  0.16114279  1
