# generated using pymatgen
data_TaSnS2
_symmetry_space_group_name_H-M   'P 1'
_cell_length_a   3.34089826
_cell_length_b   3.34089826
_cell_length_c   17.64769695
_cell_angle_alpha   90.00000000
_cell_angle_beta   90.00000000
_cell_angle_gamma   120.00000004
_symmetry_Int_Tables_number   1
_chemical_formula_structural   TaSnS2
_chemical_formula_sum   'Ta2 Sn2 S4'
_cell_volume   170.58670045
_cell_formula_units_Z   2
loop_
 _symmetry_equiv_pos_site_id
 _symmetry_equiv_pos_as_xyz
  1  'x, y, z'
loop_
 _atom_site_type_symbol
 _atom_site_label
 _atom_site_symmetry_multiplicity
 _atom_site_fract_x
 _atom_site_fract_y
 _atom_site_fract_z
 _atom_site_occupancy
  S  S0  1  0.00000000  0.00000000  0.33840630  1
  S  S1  1  0.00000000  0.00000000  0.83840630  1
  S  S2  1  0.00000000  0.00000000  0.16159370  1
  S  S3  1  0.00000000  0.00000000  0.66159370  1
  Sn  Sn4  1  0.00000000  0.00000000  0.00000000  1
  Sn  Sn5  1  0.00000000  0.00000000  0.50000000  1
  Ta  Ta6  1  0.66666667  0.33333333  0.75000000  1
  Ta  Ta7  1  0.33333333  0.66666667  0.25000000  1
