# generated using pymatgen
data_InGaS3
_symmetry_space_group_name_H-M   'P 1'
_cell_length_a   6.84357785
_cell_length_b   6.84357784
_cell_length_c   18.36269034
_cell_angle_alpha   90.00000000
_cell_angle_beta   90.00000000
_cell_angle_gamma   120.00000009
_symmetry_Int_Tables_number   1
_chemical_formula_structural   InGaS3
_chemical_formula_sum   'In6 Ga6 S18'
_cell_volume   744.78919079
_cell_formula_units_Z   6
loop_
 _symmetry_equiv_pos_site_id
 _symmetry_equiv_pos_as_xyz
  1  'x, y, z'
loop_
 _atom_site_type_symbol
 _atom_site_label
 _atom_site_symmetry_multiplicity
 _atom_site_fract_x
 _atom_site_fract_y
 _atom_site_fract_z
 _atom_site_occupancy
  Ga  Ga0  1  0.65971597  0.67156963  0.13051606  1
  Ga  Ga1  1  0.98814634  0.65971597  0.29718306  1
  Ga  Ga2  1  0.67156963  0.01185366  0.96384906  1
  Ga  Ga3  1  0.32843037  0.98814634  0.46384906  1
  Ga  Ga4  1  0.01185366  0.34028403  0.79718306  1
  Ga  Ga5  1  0.34028403  0.32843037  0.63051606  1
  In  In6  1  0.31878059  0.32578370  0.99164500  1
  In  In7  1  0.99299688  0.31878059  0.15831200  1
  In  In8  1  0.32578370  0.00700312  0.82497800  1
  In  In9  1  0.67421630  0.99299688  0.32497800  1
  In  In10  1  0.00700312  0.68121941  0.65831200  1
  In  In11  1  0.68121941  0.67421630  0.49164500  1
  S  S12  1  0.35612059  0.31340840  0.13757136  1
  S  S13  1  0.04271219  0.35612059  0.30423836  1
  S  S14  1  0.31340840  0.95728781  0.97090436  1
  S  S15  1  0.68659160  0.04271219  0.47090436  1
  S  S16  1  0.95728781  0.64387941  0.80423836  1
  S  S17  1  0.64387941  0.68659160  0.63757136  1
  S  S18  1  0.95660087  0.33462548  0.01234123  1
  S  S19  1  0.62197539  0.95660087  0.17900823  1
  S  S20  1  0.33462548  0.37802461  0.84567423  1
  S  S21  1  0.66537452  0.62197539  0.34567423  1
  S  S22  1  0.37802461  0.04339913  0.67900823  1
  S  S23  1  0.04339913  0.66537452  0.51234123  1
  S  S24  1  0.99383977  0.69494569  0.16992635  1
  S  S25  1  0.29889408  0.99383977  0.33659335  1
  S  S26  1  0.69494569  0.70110592  0.00325935  1
  S  S27  1  0.30505431  0.29889408  0.50325935  1
  S  S28  1  0.70110592  0.00616023  0.83659335  1
  S  S29  1  0.00616023  0.30505431  0.66992635  1
