# generated using pymatgen
data_RbFeS2
_symmetry_space_group_name_H-M   'P 1'
_cell_length_a   5.44141399
_cell_length_b   6.89876076
_cell_length_c   6.89876076
_cell_angle_alpha   116.30911950
_cell_angle_beta   101.14635162
_cell_angle_gamma   101.14635160
_symmetry_Int_Tables_number   1
_chemical_formula_structural   RbFeS2
_chemical_formula_sum   'Rb2 Fe2 S4'
_cell_volume   216.00445028
_cell_formula_units_Z   2
loop_
 _symmetry_equiv_pos_site_id
 _symmetry_equiv_pos_as_xyz
  1  'x, y, z'
loop_
 _atom_site_type_symbol
 _atom_site_label
 _atom_site_symmetry_multiplicity
 _atom_site_fract_x
 _atom_site_fract_y
 _atom_site_fract_z
 _atom_site_occupancy
  S  S0  1  0.40479869  0.91200766  0.71525175  1
  S  S1  1  0.09520131  0.28474825  0.08799234  1
  S  S2  1  0.90479869  0.71525175  0.91200766  1
  S  S3  1  0.59520131  0.08799234  0.28474825  1
  Fe  Fe4  1  0.25000000  0.99750547  0.00249453  1
  Fe  Fe5  1  0.75000000  0.00249453  0.99750547  1
  Rb  Rb6  1  0.75000000  0.64596564  0.35403436  1
  Rb  Rb7  1  0.25000000  0.35403436  0.64596564  1
