# generated using pymatgen
data_Ba2LaNbO6
_symmetry_space_group_name_H-M   'P 1'
_cell_length_a   6.13824614
_cell_length_b   6.13824614
_cell_length_c   6.20465986
_cell_angle_alpha   90.27225155
_cell_angle_beta   119.47113460
_cell_angle_gamma   119.86042187
_symmetry_Int_Tables_number   1
_chemical_formula_structural   Ba2LaNbO6
_chemical_formula_sum   'Ba2 La1 Nb1 O6'
_cell_volume   166.57628309
_cell_formula_units_Z   1
loop_
 _symmetry_equiv_pos_site_id
 _symmetry_equiv_pos_as_xyz
  1  'x, y, z'
loop_
 _atom_site_type_symbol
 _atom_site_label
 _atom_site_symmetry_multiplicity
 _atom_site_fract_x
 _atom_site_fract_y
 _atom_site_fract_z
 _atom_site_occupancy
  Ba  Ba0  1  0.00772515  0.75388814  0.76161328  1
  Ba  Ba1  1  0.99227485  0.24611186  0.23838672  1
  La  La2  1  0.50000000  -0.00000000  0.50000000  1
  Nb  Nb3  1  0.50000000  0.50000000  -0.00000000  1
  O  O4  1  0.43105847  0.27210758  0.70316605  1
  O  O5  1  0.56894153  0.72789242  0.29683395  1
  O  O6  1  0.04057365  0.30596590  0.81160256  1
  O  O7  1  0.49436333  0.22897108  0.18839744  1
  O  O8  1  0.95942635  0.69403410  0.18839744  1
  O  O9  1  0.50563667  0.77102892  0.81160256  1
