# generated using pymatgen
data_La2Fe2Se2O3
_symmetry_space_group_name_H-M   'P 1'
_cell_length_a   4.13128762
_cell_length_b   4.13128762
_cell_length_c   9.93025650
_cell_angle_alpha   102.00606294
_cell_angle_beta   102.00606294
_cell_angle_gamma   90.00000000
_symmetry_Int_Tables_number   1
_chemical_formula_structural   La2Fe2Se2O3
_chemical_formula_sum   'La2 Fe2 Se2 O3'
_cell_volume   161.98542657
_cell_formula_units_Z   1
loop_
 _symmetry_equiv_pos_site_id
 _symmetry_equiv_pos_as_xyz
  1  'x, y, z'
loop_
 _atom_site_type_symbol
 _atom_site_label
 _atom_site_symmetry_multiplicity
 _atom_site_fract_x
 _atom_site_fract_y
 _atom_site_fract_z
 _atom_site_occupancy
  La  La0  1  0.31352567  0.31352567  0.62705135  1
  La  La1  1  0.68647433  0.68647433  0.37294865  1
  Fe  Fe2  1  0.00000000  0.50000000  0.00000000  1
  Fe  Fe3  1  0.50000000  0.00000000  0.00000000  1
  Se  Se4  1  0.90220481  0.90220481  0.80440963  1
  Se  Se5  1  0.09779519  0.09779519  0.19559037  1
  O  O6  1  0.75000000  0.25000000  0.50000000  1
  O  O7  1  0.25000000  0.75000000  0.50000000  1
  O  O8  1  0.50000000  0.50000000  0.00000000  1
