# generated using pymatgen
data_PrAl
_symmetry_space_group_name_H-M   'P 1'
_cell_length_a   5.76547624
_cell_length_b   6.05041090
_cell_length_c   6.05041128
_cell_angle_alpha   101.13983790
_cell_angle_beta   90.00000000
_cell_angle_gamma   90.00000000
_symmetry_Int_Tables_number   1
_chemical_formula_structural   PrAl
_chemical_formula_sum   'Pr4 Al4'
_cell_volume   207.08285925
_cell_formula_units_Z   4
loop_
 _symmetry_equiv_pos_site_id
 _symmetry_equiv_pos_as_xyz
  1  'x, y, z'
loop_
 _atom_site_type_symbol
 _atom_site_label
 _atom_site_symmetry_multiplicity
 _atom_site_fract_x
 _atom_site_fract_y
 _atom_site_fract_z
 _atom_site_occupancy
  Pr  Pr0  1  0.25000000  0.33895408  0.97916416  1
  Pr  Pr1  1  0.25000000  0.97916416  0.33895408  1
  Pr  Pr2  1  0.75000000  0.02083584  0.66104592  1
  Pr  Pr3  1  0.75000000  0.66104592  0.02083584  1
  Al  Al4  1  0.25000000  0.80207727  0.80207727  1
  Al  Al5  1  0.75000000  0.19792273  0.19792273  1
  Al  Al6  1  0.00000000  0.50000000  0.50000000  1
  Al  Al7  1  0.50000000  0.50000000  0.50000000  1
