# generated using pymatgen
data_YbMgSn
_symmetry_space_group_name_H-M   'P 1'
_cell_length_a   7.66366801
_cell_length_b   7.66366801
_cell_length_c   4.71013792
_cell_angle_alpha   90.00000000
_cell_angle_beta   90.00000000
_cell_angle_gamma   120.00000004
_symmetry_Int_Tables_number   1
_chemical_formula_structural   YbMgSn
_chemical_formula_sum   'Yb3 Mg3 Sn3'
_cell_volume   239.57286212
_cell_formula_units_Z   3
loop_
 _symmetry_equiv_pos_site_id
 _symmetry_equiv_pos_as_xyz
  1  'x, y, z'
loop_
 _atom_site_type_symbol
 _atom_site_label
 _atom_site_symmetry_multiplicity
 _atom_site_fract_x
 _atom_site_fract_y
 _atom_site_fract_z
 _atom_site_occupancy
  Yb  Yb0  1  0.00000000  0.57238142  0.50000000  1
  Yb  Yb1  1  0.42761858  0.42761858  0.50000000  1
  Yb  Yb2  1  0.57238142  0.00000000  0.50000000  1
  Mg  Mg3  1  0.24925574  0.00000000  0.00000000  1
  Mg  Mg4  1  0.00000000  0.24925574  0.00000000  1
  Mg  Mg5  1  0.75074426  0.75074426  0.00000000  1
  Sn  Sn6  1  0.66666700  0.33333300  0.00000000  1
  Sn  Sn7  1  0.33333300  0.66666700  0.00000000  1
  Sn  Sn8  1  0.00000000  0.00000000  0.50000000  1
