# generated using pymatgen
data_LaInRh
_symmetry_space_group_name_H-M   'P 1'
_cell_length_a   7.59328919
_cell_length_b   7.59328919
_cell_length_c   4.24625687
_cell_angle_alpha   90.00000000
_cell_angle_beta   90.00000000
_cell_angle_gamma   119.92238937
_symmetry_Int_Tables_number   1
_chemical_formula_structural   LaInRh
_chemical_formula_sum   'La3 In3 Rh3'
_cell_volume   212.19536169
_cell_formula_units_Z   3
loop_
 _symmetry_equiv_pos_site_id
 _symmetry_equiv_pos_as_xyz
  1  'x, y, z'
loop_
 _atom_site_type_symbol
 _atom_site_label
 _atom_site_symmetry_multiplicity
 _atom_site_fract_x
 _atom_site_fract_y
 _atom_site_fract_z
 _atom_site_occupancy
  La  La0  1  0.40714608  0.40714608  0.50000000  1
  La  La1  1  0.59270072  0.00023563  0.50000000  1
  La  La2  1  0.00023563  0.59270072  0.50000000  1
  In  In3  1  0.75059658  0.75059658  -0.00000000  1
  In  In4  1  0.24930889  0.00005008  0.00000000  1
  In  In5  1  0.00005008  0.24930889  -0.00000000  1
  Rh  Rh6  1  0.66665417  0.33326486  -0.00000000  1
  Rh  Rh7  1  0.33326486  0.66665417  -0.00000000  1
  Rh  Rh8  1  0.00014300  0.00014300  0.50000000  1
