# generated using pymatgen
data_CsAuBr3
_symmetry_space_group_name_H-M   'P 1'
_cell_length_a   7.92849689
_cell_length_b   7.92849755
_cell_length_c   8.11361992
_cell_angle_alpha   119.24806897
_cell_angle_beta   119.24807179
_cell_angle_gamma   89.99999580
_symmetry_Int_Tables_number   1
_chemical_formula_structural   CsAuBr3
_chemical_formula_sum   'Cs2 Au2 Br6'
_cell_volume   368.69126422
_cell_formula_units_Z   2
loop_
 _symmetry_equiv_pos_site_id
 _symmetry_equiv_pos_as_xyz
  1  'x, y, z'
loop_
 _atom_site_type_symbol
 _atom_site_label
 _atom_site_symmetry_multiplicity
 _atom_site_fract_x
 _atom_site_fract_y
 _atom_site_fract_z
 _atom_site_occupancy
  Cs  Cs0  1  0.75000000  0.25000000  0.50000000  1
  Cs  Cs1  1  0.25000000  0.75000000  0.50000000  1
  Au  Au2  1  0.00000000  0.00000000  0.00000000  1
  Au  Au3  1  0.50000000  0.50000000  0.00000000  1
  Br  Br4  1  0.28993568  0.28993568  0.57987136  1
  Br  Br5  1  0.77537853  0.22462147  0.00000000  1
  Br  Br6  1  0.71006432  0.71006432  0.42012864  1
  Br  Br7  1  0.22462147  0.22462147  0.00000000  1
  Br  Br8  1  0.22462147  0.77537853  1.00000000  1
  Br  Br9  1  0.77537853  0.77537853  1.00000000  1
