# generated using pymatgen
data_HfAl3
_symmetry_space_group_name_H-M   'P 1'
_cell_length_a   3.99884782
_cell_length_b   3.99884851
_cell_length_c   9.06115679
_cell_angle_alpha   102.74772899
_cell_angle_beta   102.74773120
_cell_angle_gamma   90.00000441
_symmetry_Int_Tables_number   1
_chemical_formula_structural   HfAl3
_chemical_formula_sum   'Hf2 Al6'
_cell_volume   137.65937779
_cell_formula_units_Z   2
loop_
 _symmetry_equiv_pos_site_id
 _symmetry_equiv_pos_as_xyz
  1  'x, y, z'
loop_
 _atom_site_type_symbol
 _atom_site_label
 _atom_site_symmetry_multiplicity
 _atom_site_fract_x
 _atom_site_fract_y
 _atom_site_fract_z
 _atom_site_occupancy
  Hf  Hf0  1  0.11975307  0.11975307  0.23950614  1
  Hf  Hf1  1  0.88024693  0.88024693  0.76049386  1
  Al  Al2  1  0.37449177  0.37449177  0.74898353  1
  Al  Al3  1  0.00000000  0.50000000  0.00000000  1
  Al  Al4  1  0.62550823  0.62550823  0.25101647  1
  Al  Al5  1  0.25000000  0.75000000  0.50000000  1
  Al  Al6  1  0.75000000  0.25000000  0.50000000  1
  Al  Al7  1  0.50000000  0.00000000  0.00000000  1
