# generated using pymatgen
data_La3(BN2)2
_symmetry_space_group_name_H-M   'P 1'
_cell_length_a   3.64125973
_cell_length_b   6.41829550
_cell_length_c   6.62217058
_cell_angle_alpha   118.98590818
_cell_angle_beta   105.95595987
_cell_angle_gamma   90.00016217
_symmetry_Int_Tables_number   1
_chemical_formula_structural   La3(BN2)2
_chemical_formula_sum   'La3 B2 N4'
_cell_volume   128.51973387
_cell_formula_units_Z   1
loop_
 _symmetry_equiv_pos_site_id
 _symmetry_equiv_pos_as_xyz
  1  'x, y, z'
loop_
 _atom_site_type_symbol
 _atom_site_label
 _atom_site_symmetry_multiplicity
 _atom_site_fract_x
 _atom_site_fract_y
 _atom_site_fract_z
 _atom_site_occupancy
  La  La0  1  0.20076065  0.70076960  0.40153959  1
  La  La1  1  0.00000000  0.00000000  0.00000000  1
  La  La2  1  0.79923935  0.29923040  0.59846041  1
  B  B3  1  0.49999700  0.35747372  0.99999366  1
  B  B4  1  0.50000300  0.64252628  0.00000634  1
  N  N5  1  0.61753118  0.36251677  0.23503851  1
  N  N6  1  0.38248027  0.12747203  0.76495522  1
  N  N7  1  0.38246882  0.63748323  0.76496149  1
  N  N8  1  0.61751973  0.87252797  0.23504478  1
