# generated using pymatgen
data_Fe(Mo3Se4)2
_symmetry_space_group_name_H-M   'P 1'
_cell_length_a   6.72339096
_cell_length_b   6.73436984
_cell_length_c   6.73981486
_cell_angle_alpha   92.85814010
_cell_angle_beta   92.07751966
_cell_angle_gamma   92.32424770
_symmetry_Int_Tables_number   1
_chemical_formula_structural   Fe(Mo3Se4)2
_chemical_formula_sum   'Fe1 Mo6 Se8'
_cell_volume   304.30959103
_cell_formula_units_Z   1
loop_
 _symmetry_equiv_pos_site_id
 _symmetry_equiv_pos_as_xyz
  1  'x, y, z'
loop_
 _atom_site_type_symbol
 _atom_site_label
 _atom_site_symmetry_multiplicity
 _atom_site_fract_x
 _atom_site_fract_y
 _atom_site_fract_z
 _atom_site_occupancy
  Fe  Fe0  1  -0.00000000  -0.00000000  0.00000000  1
  Mo  Mo1  1  0.42018652  0.54653604  0.22671233  1
  Mo  Mo2  1  0.57981348  0.45346396  0.77328767  1
  Mo  Mo3  1  0.54804402  0.22830318  0.41829071  1
  Mo  Mo4  1  0.45195598  0.77169682  0.58170929  1
  Mo  Mo5  1  0.22760381  0.41989698  0.54753796  1
  Mo  Mo6  1  0.77239619  0.58010302  0.45246204  1
  Se  Se7  1  0.74841683  0.36448827  0.12741943  1
  Se  Se8  1  0.25158317  0.63551173  0.87258057  1
  Se  Se9  1  0.21738990  0.21597522  0.21512876  1
  Se  Se10  1  0.78261010  0.78402478  0.78487124  1
  Se  Se11  1  0.12957854  0.74614968  0.36700684  1
  Se  Se12  1  0.87042146  0.25385032  0.63299316  1
  Se  Se13  1  0.36530288  0.13034808  0.74534713  1
  Se  Se14  1  0.63469712  0.86965192  0.25465287  1
