# generated using pymatgen
data_Ba2NdRuO6
_symmetry_space_group_name_H-M   'P 1'
_cell_length_a   6.05657244
_cell_length_b   6.10259181
_cell_length_c   8.57047166
_cell_angle_alpha   90.25904818
_cell_angle_beta   90.00000000
_cell_angle_gamma   90.00000000
_symmetry_Int_Tables_number   1
_chemical_formula_structural   Ba2NdRuO6
_chemical_formula_sum   'Ba4 Nd2 Ru2 O12'
_cell_volume   316.76816021
_cell_formula_units_Z   2
loop_
 _symmetry_equiv_pos_site_id
 _symmetry_equiv_pos_as_xyz
  1  'x, y, z'
loop_
 _atom_site_type_symbol
 _atom_site_label
 _atom_site_symmetry_multiplicity
 _atom_site_fract_x
 _atom_site_fract_y
 _atom_site_fract_z
 _atom_site_occupancy
  O  O0  1  0.99983399  0.54497034  0.27035720  1
  O  O1  1  0.49983399  0.95502966  0.22964280  1
  O  O2  1  0.00016601  0.45502966  0.72964280  1
  O  O3  1  0.50016601  0.04497034  0.77035720  1
  O  O4  1  0.23118513  0.27088809  0.47631209  1
  O  O5  1  0.73118513  0.22911191  0.02368791  1
  O  O6  1  0.76881487  0.72911191  0.52368791  1
  O  O7  1  0.26881487  0.77088809  0.97631209  1
  O  O8  1  0.73162078  0.77131789  0.97634222  1
  O  O9  1  0.23162078  0.72868211  0.52365778  1
  O  O10  1  0.26837922  0.22868211  0.02365778  1
  O  O11  1  0.76837922  0.27131789  0.47634222  1
  Ru  Ru12  1  0.50000000  0.00000000  0.00000000  1
  Ru  Ru13  1  0.00000000  0.50000000  0.50000000  1
  Ba  Ba14  1  0.50005514  0.49747586  0.25140588  1
  Ba  Ba15  1  0.99994486  0.99747586  0.75140588  1
  Ba  Ba16  1  0.00005514  0.00252414  0.24859412  1
  Ba  Ba17  1  0.49994486  0.50252414  0.74859412  1
  Nd  Nd18  1  0.50000000  0.00000000  0.50000000  1
  Nd  Nd19  1  0.00000000  0.50000000  0.00000000  1
