# generated using pymatgen
data_MgGa
_symmetry_space_group_name_H-M   'P 1'
_cell_length_a   10.69165682
_cell_length_b   10.69165682
_cell_length_c   5.50178824
_cell_angle_alpha   90.00000000
_cell_angle_beta   90.00000000
_cell_angle_gamma   90.00000000
_symmetry_Int_Tables_number   1
_chemical_formula_structural   MgGa
_chemical_formula_sum   'Mg16 Ga16'
_cell_volume   628.91780700
_cell_formula_units_Z   16
loop_
 _symmetry_equiv_pos_site_id
 _symmetry_equiv_pos_as_xyz
  1  'x, y, z'
loop_
 _atom_site_type_symbol
 _atom_site_label
 _atom_site_symmetry_multiplicity
 _atom_site_fract_x
 _atom_site_fract_y
 _atom_site_fract_z
 _atom_site_occupancy
  Mg  Mg0  1  0.86763318  0.07373245  0.26488129  1
  Mg  Mg1  1  0.07373245  0.13236682  0.73511871  1
  Mg  Mg2  1  0.92626755  0.86763318  0.73511871  1
  Mg  Mg3  1  0.13236682  0.92626755  0.26488129  1
  Mg  Mg4  1  0.36763318  0.07373245  0.48511871  1
  Mg  Mg5  1  0.57373245  0.13236682  0.01488129  1
  Mg  Mg6  1  0.42626755  0.86763318  0.01488129  1
  Mg  Mg7  1  0.63236682  0.92626755  0.48511871  1
  Mg  Mg8  1  0.36763318  0.57373245  0.76488129  1
  Mg  Mg9  1  0.57373245  0.63236682  0.23511871  1
  Mg  Mg10  1  0.42626755  0.36763318  0.23511871  1
  Mg  Mg11  1  0.63236682  0.42626755  0.76488129  1
  Mg  Mg12  1  0.86763318  0.57373245  0.98511871  1
  Mg  Mg13  1  0.07373245  0.63236682  0.51488129  1
  Mg  Mg14  1  0.92626755  0.36763318  0.51488129  1
  Mg  Mg15  1  0.13236682  0.42626755  0.98511871  1
  Ga  Ga16  1  0.19627694  0.39138546  0.49651683  1
  Ga  Ga17  1  0.10861454  0.19627694  0.24651683  1
  Ga  Ga18  1  0.39138546  0.30372306  0.74651683  1
  Ga  Ga19  1  0.30372306  0.10861454  0.99651683  1
  Ga  Ga20  1  0.19627694  0.89138546  0.75348317  1
  Ga  Ga21  1  0.10861454  0.69627694  0.00348317  1
  Ga  Ga22  1  0.39138546  0.80372306  0.50348317  1
  Ga  Ga23  1  0.30372306  0.60861454  0.25348317  1
  Ga  Ga24  1  0.69627694  0.89138546  0.99651683  1
  Ga  Ga25  1  0.60861454  0.69627694  0.74651683  1
  Ga  Ga26  1  0.89138546  0.80372306  0.24651683  1
  Ga  Ga27  1  0.80372306  0.60861454  0.49651683  1
  Ga  Ga28  1  0.69627694  0.39138546  0.25348317  1
  Ga  Ga29  1  0.60861454  0.19627694  0.50348317  1
  Ga  Ga30  1  0.89138546  0.30372306  0.00348317  1
  Ga  Ga31  1  0.80372306  0.10861454  0.75348317  1
