# generated using pymatgen
data_KCaF3
_symmetry_space_group_name_H-M   'P 1'
_cell_length_a   6.20942935
_cell_length_b   6.31405681
_cell_length_c   8.84176659
_cell_angle_alpha   90.00000000
_cell_angle_beta   90.00000000
_cell_angle_gamma   90.00000000
_symmetry_Int_Tables_number   1
_chemical_formula_structural   KCaF3
_chemical_formula_sum   'K4 Ca4 F12'
_cell_volume   346.65639886
_cell_formula_units_Z   4
loop_
 _symmetry_equiv_pos_site_id
 _symmetry_equiv_pos_as_xyz
  1  'x, y, z'
loop_
 _atom_site_type_symbol
 _atom_site_label
 _atom_site_symmetry_multiplicity
 _atom_site_fract_x
 _atom_site_fract_y
 _atom_site_fract_z
 _atom_site_occupancy
  F  F0  1  0.20712837  0.29140913  0.45796782  1
  F  F1  1  0.70712837  0.20859087  0.54203218  1
  F  F2  1  0.29287163  0.79140913  0.04203218  1
  F  F3  1  0.79287163  0.70859087  0.95796782  1
  F  F4  1  0.79287163  0.70859087  0.54203218  1
  F  F5  1  0.29287163  0.79140913  0.45796782  1
  F  F6  1  0.70712837  0.20859087  0.95796782  1
  F  F7  1  0.20712837  0.29140913  0.04203218  1
  F  F8  1  0.92031916  0.97252233  0.25000000  1
  F  F9  1  0.42031916  0.52747767  0.75000000  1
  F  F10  1  0.57968084  0.47252233  0.25000000  1
  F  F11  1  0.07968084  0.02747767  0.75000000  1
  K  K12  1  0.49148526  0.03844970  0.25000000  1
  K  K13  1  0.99148526  0.46155030  0.75000000  1
  K  K14  1  0.00851474  0.53844970  0.25000000  1
  K  K15  1  0.50851474  0.96155030  0.75000000  1
  Ca  Ca16  1  0.00000000  0.00000000  0.00000000  1
  Ca  Ca17  1  0.50000000  0.50000000  0.00000000  1
  Ca  Ca18  1  0.50000000  0.50000000  0.50000000  1
  Ca  Ca19  1  0.00000000  0.00000000  0.50000000  1
