# generated using pymatgen
data_LaZn11
_symmetry_space_group_name_H-M   'P 1'
_cell_length_a   6.88580852
_cell_length_b   8.31294701
_cell_length_c   8.31293977
_cell_angle_alpha   80.11814605
_cell_angle_beta   65.53329398
_cell_angle_gamma   65.53302043
_symmetry_Int_Tables_number   1
_chemical_formula_structural   LaZn11
_chemical_formula_sum   'La2 Zn22'
_cell_volume   394.22058707
_cell_formula_units_Z   2
loop_
 _symmetry_equiv_pos_site_id
 _symmetry_equiv_pos_as_xyz
  1  'x, y, z'
loop_
 _atom_site_type_symbol
 _atom_site_label
 _atom_site_symmetry_multiplicity
 _atom_site_fract_x
 _atom_site_fract_y
 _atom_site_fract_z
 _atom_site_occupancy
  La  La0  1  0.37499721  0.24999920  0.74999879  1
  La  La1  1  0.62500279  0.75000080  0.25000121  1
  Zn  Zn2  1  0.72207116  0.83432012  0.57784737  1
  Zn  Zn3  1  -0.00000000  -0.00000000  0.00000000  1
  Zn  Zn4  1  0.20011163  0.07783144  0.16572232  1
  Zn  Zn5  1  0.13423332  0.42214976  0.16569324  1
  Zn  Zn6  1  0.20011040  0.66572315  0.57783202  1
  Zn  Zn7  1  0.86576668  0.57785024  0.83430676  1
  Zn  Zn8  1  0.13423289  0.66569252  0.92215020  1
  Zn  Zn9  1  0.12493313  0.74999017  0.24999070  1
  Zn  Zn10  1  0.86576711  0.33430748  0.07784980  1
  Zn  Zn11  1  0.87506687  0.25000983  0.75000930  1
  Zn  Zn12  1  0.55633686  0.57783629  0.66572698  1
  Zn  Zn13  1  0.50000000  0.50000000  0.00000000  1
  Zn  Zn14  1  0.27792884  0.16567988  0.42215263  1
  Zn  Zn15  1  0.79988960  0.33427685  0.42216798  1
  Zn  Zn16  1  0.72206967  0.07784806  0.33432081  1
  Zn  Zn17  1  0.44366314  0.42216371  0.33427302  1
  Zn  Zn18  1  0.55633782  0.16572600  0.07783469  1
  Zn  Zn19  1  0.27793033  0.92215194  0.66567919  1
  Zn  Zn20  1  0.79988837  0.92216856  0.83427768  1
  Zn  Zn21  1  0.44366218  0.83427400  0.92216531  1
  Zn  Zn22  1  -0.00000000  -0.00000000  0.50000000  1
  Zn  Zn23  1  -0.00000000  0.50000000  0.50000000  1
