# generated using pymatgen
data_UI4
_symmetry_space_group_name_H-M   'P 1'
_cell_length_a   7.69438472
_cell_length_b   8.74184480
_cell_length_c   8.74184480
_cell_angle_alpha   61.36108314
_cell_angle_beta   91.74666805
_cell_angle_gamma   91.74666805
_symmetry_Int_Tables_number   1
_chemical_formula_structural   UI4
_chemical_formula_sum   'U2 I8'
_cell_volume   515.74174818
_cell_formula_units_Z   2
loop_
 _symmetry_equiv_pos_site_id
 _symmetry_equiv_pos_as_xyz
  1  'x, y, z'
loop_
 _atom_site_type_symbol
 _atom_site_label
 _atom_site_symmetry_multiplicity
 _atom_site_fract_x
 _atom_site_fract_y
 _atom_site_fract_z
 _atom_site_occupancy
  U  U0  1  0.25000000  0.14331544  0.85668456  1
  U  U1  1  0.75000000  0.85668456  0.14331544  1
  I  I2  1  0.57216368  0.99961617  0.77510263  1
  I  I3  1  0.92783632  0.22489737  0.00038383  1
  I  I4  1  0.42783632  0.00038383  0.22489737  1
  I  I5  1  0.07216368  0.77510263  0.99961617  1
  I  I6  1  0.38973532  0.48691332  0.76039771  1
  I  I7  1  0.11026468  0.23960229  0.51308668  1
  I  I8  1  0.61026468  0.51308668  0.23960229  1
  I  I9  1  0.88973532  0.76039771  0.48691332  1
