# generated using pymatgen
data_Ce4GeS3
_symmetry_space_group_name_H-M   'P 1'
_cell_length_a   8.17714059
_cell_length_b   10.81584966
_cell_length_c   7.07933477
_cell_angle_alpha   29.20828422
_cell_angle_beta   54.72258256
_cell_angle_gamma   40.88427837
_symmetry_Int_Tables_number   1
_chemical_formula_structural   Ce4GeS3
_chemical_formula_sum   'Ce4 Ge1 S3'
_cell_volume   193.21901895
_cell_formula_units_Z   1
loop_
 _symmetry_equiv_pos_site_id
 _symmetry_equiv_pos_as_xyz
  1  'x, y, z'
loop_
 _atom_site_type_symbol
 _atom_site_label
 _atom_site_symmetry_multiplicity
 _atom_site_fract_x
 _atom_site_fract_y
 _atom_site_fract_z
 _atom_site_occupancy
  Ce  Ce0  1  -0.00000000  0.00000000  0.00000000  1
  Ce  Ce1  1  0.50000000  0.00000000  0.00000000  1
  Ce  Ce2  1  0.24514396  0.50000000  0.00971209  1
  Ce  Ce3  1  0.75485604  0.50000000  0.99028791  1
  Ge  Ge4  1  0.50000000  0.50000000  0.50000000  1
  S  S5  1  -0.00000000  0.50000000  0.50000000  1
  S  S6  1  0.25000000  -0.00000000  0.50000000  1
  S  S7  1  0.75000000  0.00000000  0.50000000  1
