# generated using pymatgen
data_SnSe
_symmetry_space_group_name_H-M   'P 1'
_cell_length_a   4.21940320
_cell_length_b   4.52401876
_cell_length_c   11.78980050
_cell_angle_alpha   90.00000000
_cell_angle_beta   90.00000000
_cell_angle_gamma   90.00000000
_symmetry_Int_Tables_number   1
_chemical_formula_structural   SnSe
_chemical_formula_sum   'Sn4 Se4'
_cell_volume   225.05148417
_cell_formula_units_Z   4
loop_
 _symmetry_equiv_pos_site_id
 _symmetry_equiv_pos_as_xyz
  1  'x, y, z'
loop_
 _atom_site_type_symbol
 _atom_site_label
 _atom_site_symmetry_multiplicity
 _atom_site_fract_x
 _atom_site_fract_y
 _atom_site_fract_z
 _atom_site_occupancy
  Se  Se0  1  0.25000000  0.01438426  0.35514466  1
  Se  Se1  1  0.75000000  0.98561574  0.64485534  1
  Se  Se2  1  0.75000000  0.51438426  0.14485534  1
  Se  Se3  1  0.25000000  0.48561574  0.85514466  1
  Sn  Sn4  1  0.25000000  0.40028047  0.62187764  1
  Sn  Sn5  1  0.75000000  0.59971953  0.37812236  1
  Sn  Sn6  1  0.75000000  0.90028047  0.87812236  1
  Sn  Sn7  1  0.25000000  0.09971953  0.12187764  1
