# generated using pymatgen
data_MgPS3
_symmetry_space_group_name_H-M   'P 1'
_cell_length_a   6.10864201
_cell_length_b   6.10743485
_cell_length_c   7.25098633
_cell_angle_alpha   81.96825241
_cell_angle_beta   73.77628343
_cell_angle_gamma   59.99345687
_symmetry_Int_Tables_number   1
_chemical_formula_structural   MgPS3
_chemical_formula_sum   'Mg2 P2 S6'
_cell_volume   224.93363561
_cell_formula_units_Z   2
loop_
 _symmetry_equiv_pos_site_id
 _symmetry_equiv_pos_as_xyz
  1  'x, y, z'
loop_
 _atom_site_type_symbol
 _atom_site_label
 _atom_site_symmetry_multiplicity
 _atom_site_fract_x
 _atom_site_fract_y
 _atom_site_fract_z
 _atom_site_occupancy
  Mg  Mg0  1  0.33300994  0.33398012  1.00000000  1
  Mg  Mg1  1  0.66699006  0.66601988  0.00000000  1
  P  P2  1  0.94710857  1.00000000  0.15867010  1
  P  P3  1  0.05289143  0.00000000  0.84132990  1
  S  S4  1  0.24504089  1.00000000  0.23537963  1
  S  S5  1  0.75495911  0.00000000  0.76462037  1
  S  S6  1  0.92173944  0.67689905  0.23568573  1
  S  S7  1  0.59863849  0.32310095  0.23568573  1
  S  S8  1  0.07826056  0.32310095  0.76431427  1
  S  S9  1  0.40136151  0.67689905  0.76431427  1
