# generated using pymatgen
data_Li3Eu
_symmetry_space_group_name_H-M   'P 1'
_cell_length_a   6.92444490
_cell_length_b   6.92444534
_cell_length_c   5.39132898
_cell_angle_alpha   90.00000000
_cell_angle_beta   90.00000000
_cell_angle_gamma   120.00000972
_symmetry_Int_Tables_number   1
_chemical_formula_structural   Li3Eu
_chemical_formula_sum   'Li6 Eu2'
_cell_volume   223.87024667
_cell_formula_units_Z   2
loop_
 _symmetry_equiv_pos_site_id
 _symmetry_equiv_pos_as_xyz
  1  'x, y, z'
loop_
 _atom_site_type_symbol
 _atom_site_label
 _atom_site_symmetry_multiplicity
 _atom_site_fract_x
 _atom_site_fract_y
 _atom_site_fract_z
 _atom_site_occupancy
  Li  Li0  1  0.14520903  0.29041806  0.24999800  1
  Li  Li1  1  0.70958194  0.85478997  0.24999800  1
  Li  Li2  1  0.14520803  0.85478997  0.24999800  1
  Li  Li3  1  0.85479097  0.70958194  0.75000000  1
  Li  Li4  1  0.29041706  0.14520803  0.75000000  1
  Li  Li5  1  0.85478997  0.14520803  0.75000000  1
  Eu  Eu6  1  0.33333400  0.66666800  0.75000000  1
  Eu  Eu7  1  0.66666700  0.33333300  0.24999800  1
