# generated using pymatgen
data_NdTe3
_symmetry_space_group_name_H-M   'P 1'
_cell_length_a   4.39042685
_cell_length_b   4.39527771
_cell_length_c   13.93519789
_cell_angle_alpha   90.00000000
_cell_angle_beta   99.06356464
_cell_angle_gamma   90.00000000
_symmetry_Int_Tables_number   1
_chemical_formula_structural   NdTe3
_chemical_formula_sum   'Nd2 Te6'
_cell_volume   265.55198282
_cell_formula_units_Z   2
loop_
 _symmetry_equiv_pos_site_id
 _symmetry_equiv_pos_as_xyz
  1  'x, y, z'
loop_
 _atom_site_type_symbol
 _atom_site_label
 _atom_site_symmetry_multiplicity
 _atom_site_fract_x
 _atom_site_fract_y
 _atom_site_fract_z
 _atom_site_occupancy
  Te  Te0  1  0.49975383  0.75000000  0.15704239  1
  Te  Te1  1  0.34271144  0.25000000  0.84295761  1
  Te  Te2  1  0.21498348  0.75000000  0.58544636  1
  Te  Te3  1  0.62953711  0.25000000  0.41455364  1
  Te  Te4  1  0.99972724  0.25000000  0.15708550  1
  Te  Te5  1  0.84264174  0.75000000  0.84291450  1
  Nd  Nd6  1  0.75015834  0.25000000  0.65587154  1
  Nd  Nd7  1  0.09428681  0.75000000  0.34412846  1
