# generated using pymatgen
data_RuF3
_symmetry_space_group_name_H-M   'P 1'
_cell_length_a   5.49844331
_cell_length_b   5.49844331
_cell_length_c   5.49844331
_cell_angle_alpha   55.07500016
_cell_angle_beta   55.07500016
_cell_angle_gamma   55.07500020
_symmetry_Int_Tables_number   1
_chemical_formula_structural   RuF3
_chemical_formula_sum   'Ru2 F6'
_cell_volume   104.07970025
_cell_formula_units_Z   2
loop_
 _symmetry_equiv_pos_site_id
 _symmetry_equiv_pos_as_xyz
  1  'x, y, z'
loop_
 _atom_site_type_symbol
 _atom_site_label
 _atom_site_symmetry_multiplicity
 _atom_site_fract_x
 _atom_site_fract_y
 _atom_site_fract_z
 _atom_site_occupancy
  F  F0  1  0.75000000  0.10257769  0.39742231  1
  F  F1  1  0.10257769  0.39742231  0.75000000  1
  F  F2  1  0.60257769  0.25000000  0.89742231  1
  F  F3  1  0.89742231  0.60257769  0.25000000  1
  F  F4  1  0.25000000  0.89742231  0.60257769  1
  F  F5  1  0.39742231  0.75000000  0.10257769  1
  Ru  Ru6  1  0.50000000  0.50000000  0.50000000  1
  Ru  Ru7  1  0.00000000  0.00000000  0.00000000  1
