# generated using pymatgen
data_Na4NpO5
_symmetry_space_group_name_H-M   'P 1'
_cell_length_a   4.64685278
_cell_length_b   5.87879865
_cell_length_c   5.87879865
_cell_angle_alpha   81.01360595
_cell_angle_beta   66.72022019
_cell_angle_gamma   66.72022019
_symmetry_Int_Tables_number   1
_chemical_formula_structural   Na4NpO5
_chemical_formula_sum   'Na4 Np1 O5'
_cell_volume   135.51134320
_cell_formula_units_Z   1
loop_
 _symmetry_equiv_pos_site_id
 _symmetry_equiv_pos_as_xyz
  1  'x, y, z'
loop_
 _atom_site_type_symbol
 _atom_site_label
 _atom_site_symmetry_multiplicity
 _atom_site_fract_x
 _atom_site_fract_y
 _atom_site_fract_z
 _atom_site_occupancy
  Na  Na0  1  0.60084703  0.59829775  0.20000820  1
  Na  Na1  1  0.39915297  0.40170225  0.79999180  1
  Na  Na2  1  0.19914478  0.20000820  0.40170225  1
  Na  Na3  1  0.80085522  0.79999180  0.59829775  1
  Np  Np4  1  0.00000000  -0.00000000  0.00000000  1
  O  O5  1  0.50000000  -0.00000000  0.00000000  1
  O  O6  1  0.92355301  0.32911524  0.82377875  1
  O  O7  1  0.07644699  0.67088476  0.17622125  1
  O  O8  1  0.25266825  0.82377875  0.67088476  1
  O  O9  1  0.74733175  0.17622125  0.32911524  1
