# generated using pymatgen
data_Na7(WO3)9
_symmetry_space_group_name_H-M   'P 1'
_cell_length_a   9.70191513
_cell_length_b   8.83571901
_cell_length_c   6.86484955
_cell_angle_alpha   104.66533443
_cell_angle_beta   89.96356040
_cell_angle_gamma   79.15698496
_symmetry_Int_Tables_number   1
_chemical_formula_structural   Na7(WO3)9
_chemical_formula_sum   'Na7 W9 O27'
_cell_volume   558.42023537
_cell_formula_units_Z   1
loop_
 _symmetry_equiv_pos_site_id
 _symmetry_equiv_pos_as_xyz
  1  'x, y, z'
loop_
 _atom_site_type_symbol
 _atom_site_label
 _atom_site_symmetry_multiplicity
 _atom_site_fract_x
 _atom_site_fract_y
 _atom_site_fract_z
 _atom_site_occupancy
  Na  Na0  1  0.89044210  0.66689652  0.22199854  1
  Na  Na1  1  0.55595810  0.66802519  0.88859002  1
  Na  Na2  1  0.77903367  0.33089015  0.44399555  1
  Na  Na3  1  0.22105217  0.66515236  0.55522987  1
  Na  Na4  1  0.33259435  0.00291252  0.33405211  1
  Na  Na5  1  0.44476435  0.33093801  0.11018101  1
  Na  Na6  1  0.99826366  0.00233263  0.99953350  1
  W  W7  1  0.88864592  0.66689072  0.72279327  1
  W  W8  1  0.77924902  0.33059399  0.94346310  1
  W  W9  1  0.44415146  0.33208507  0.61340749  1
  W  W10  1  0.33269071  0.00101812  0.83372035  1
  W  W11  1  0.55735393  0.66933609  0.38952435  1
  W  W12  1  0.66538778  0.00150668  0.16525601  1
  W  W13  1  0.11326339  0.33554665  0.27895322  1
  W  W14  1  0.99908729  0.00367534  0.49975562  1
  W  W15  1  0.22108895  0.66398867  0.05345393  1
  O  O16  1  0.94664203  0.82838093  0.61228170  1
  O  O17  1  0.83214259  0.50722062  0.82867919  1
  O  O18  1  0.89152855  0.16098155  0.71683021  1
  O  O19  1  0.77861568  0.83415616  0.95793594  1
  O  O20  1  0.93738365  0.33723641  0.10991992  1
  O  O21  1  0.71914284  0.66144441  0.54877845  1
  O  O22  1  0.84007554  0.99716385  0.33480906  1
  O  O23  1  0.61599406  0.34184126  0.78149320  1
  O  O24  1  0.27816363  0.83677208  0.93927905  1
  O  O25  1  0.60720956  0.82723098  0.27566120  1
  O  O26  1  0.38944191  0.16434401  0.72020626  1
  O  O27  1  0.50255780  0.49810322  0.49853194  1
  O  O28  1  0.33980898  0.50261816  0.83633139  1
  O  O29  1  0.72258483  0.16959947  0.06195288  1
  O  O30  1  0.55829220  0.16333821  0.38445653  1
  O  O31  1  0.44220301  0.82553375  0.60250065  1
  O  O32  1  0.66122044  0.50422317  0.17028347  1
  O  O33  1  0.28241472  0.33275411  0.44005581  1
  O  O34  1  0.38802912  0.66835054  0.22324503  1
  O  O35  1  0.16290733  0.99245650  0.66105228  1
  O  O36  1  0.05826324  0.67658980  0.89544686  1
  O  O37  1  0.49555092  0.00042813  0.00526438  1
  O  O38  1  0.05439900  0.16051932  0.38568227  1
  O  O39  1  0.16933442  0.50386144  0.17446807  1
  O  O40  1  0.99755489  0.49703445  0.48906530  1
  O  O41  1  0.10970615  0.83481675  0.28530015  1
  O  O42  1  0.21802407  0.16787698  0.06213985  1
