# generated using pymatgen
data_CdSnO3
_symmetry_space_group_name_H-M   'P 1'
_cell_length_a   6.02233492
_cell_length_b   6.02233492
_cell_length_c   6.02233534
_cell_angle_alpha   54.91035943
_cell_angle_beta   54.91035938
_cell_angle_gamma   54.91035603
_symmetry_Int_Tables_number   1
_chemical_formula_structural   CdSnO3
_chemical_formula_sum   'Cd2 Sn2 O6'
_cell_volume   136.15068987
_cell_formula_units_Z   2
loop_
 _symmetry_equiv_pos_site_id
 _symmetry_equiv_pos_as_xyz
  1  'x, y, z'
loop_
 _atom_site_type_symbol
 _atom_site_label
 _atom_site_symmetry_multiplicity
 _atom_site_fract_x
 _atom_site_fract_y
 _atom_site_fract_z
 _atom_site_occupancy
  Cd  Cd0  1  0.36567658  0.36567658  0.36567658  1
  Cd  Cd1  1  0.63432342  0.63432342  0.63432342  1
  Sn  Sn2  1  0.15441952  0.15441952  0.15441952  1
  Sn  Sn3  1  0.84558048  0.84558048  0.84558048  1
  O  O4  1  0.03914167  0.78791545  0.44379528  1
  O  O5  1  0.55620472  0.96085833  0.21208455  1
  O  O6  1  0.21208455  0.55620472  0.96085833  1
  O  O7  1  0.78791545  0.44379528  0.03914167  1
  O  O8  1  0.44379528  0.03914167  0.78791545  1
  O  O9  1  0.96085833  0.21208455  0.55620472  1
