# generated using pymatgen
data_TlPS3
_symmetry_space_group_name_H-M   'P 1'
_cell_length_a   7.12569352
_cell_length_b   7.15846128
_cell_length_c   7.15846128
_cell_angle_alpha   71.74555373
_cell_angle_beta   60.15130687
_cell_angle_gamma   60.15130683
_symmetry_Int_Tables_number   1
_chemical_formula_structural   TlPS3
_chemical_formula_sum   'Tl2 P2 S6'
_cell_volume   273.64942269
_cell_formula_units_Z   2
loop_
 _symmetry_equiv_pos_site_id
 _symmetry_equiv_pos_as_xyz
  1  'x, y, z'
loop_
 _atom_site_type_symbol
 _atom_site_label
 _atom_site_symmetry_multiplicity
 _atom_site_fract_x
 _atom_site_fract_y
 _atom_site_fract_z
 _atom_site_occupancy
  P  P0  1  0.66208138  0.33791862  0.33791862  1
  P  P1  1  0.33791862  0.66208138  0.66208138  1
  S  S2  1  0.54011233  0.22325773  0.22325773  1
  S  S3  1  0.98662779  0.77674227  0.77674227  1
  S  S4  1  0.50000000  0.31374934  0.68625066  1
  S  S5  1  0.50000000  0.68625066  0.31374934  1
  S  S6  1  0.45988767  0.77674227  0.77674227  1
  S  S7  1  0.01337221  0.22325773  0.22325773  1
  Tl  Tl8  1  0.00000000  0.25014607  0.74985393  1
  Tl  Tl9  1  0.00000000  0.74985393  0.25014607  1
