# generated using pymatgen
data_BW
_symmetry_space_group_name_H-M   'P 1'
_cell_length_a   3.14574256
_cell_length_b   3.14574257
_cell_length_c   8.80738826
_cell_angle_alpha   100.28737632
_cell_angle_beta   100.28737635
_cell_angle_gamma   90.00000007
_symmetry_Int_Tables_number   1
_chemical_formula_structural   BW
_chemical_formula_sum   'B4 W4'
_cell_volume   84.32982067
_cell_formula_units_Z   4
loop_
 _symmetry_equiv_pos_site_id
 _symmetry_equiv_pos_as_xyz
  1  'x, y, z'
loop_
 _atom_site_type_symbol
 _atom_site_label
 _atom_site_symmetry_multiplicity
 _atom_site_fract_x
 _atom_site_fract_y
 _atom_site_fract_z
 _atom_site_occupancy
  B  B0  1  0.78120118  0.03120118  0.06240236  1
  B  B1  1  0.53120118  0.28120118  0.56240236  1
  B  B2  1  0.21879882  0.96879882  0.93759764  1
  B  B3  1  0.46879882  0.71879882  0.43759764  1
  W  W4  1  0.92813949  0.17813949  0.35627897  1
  W  W5  1  0.67813949  0.42813949  0.85627897  1
  W  W6  1  0.07186051  0.82186051  0.64372103  1
  W  W7  1  0.32186051  0.57186051  0.14372103  1
