# generated using pymatgen
data_Mg16Al12Re
_symmetry_space_group_name_H-M   'P 1'
_cell_length_a   9.45417365
_cell_length_b   8.92463356
_cell_length_c   8.92463337
_cell_angle_alpha   108.23820508
_cell_angle_beta   110.67774830
_cell_angle_gamma   110.67775190
_symmetry_Int_Tables_number   1
_chemical_formula_structural   Mg16Al12Re
_chemical_formula_sum   'Mg16 Al12 Re1'
_cell_volume   570.81844574
_cell_formula_units_Z   1
loop_
 _symmetry_equiv_pos_site_id
 _symmetry_equiv_pos_as_xyz
  1  'x, y, z'
loop_
 _atom_site_type_symbol
 _atom_site_label
 _atom_site_symmetry_multiplicity
 _atom_site_fract_x
 _atom_site_fract_y
 _atom_site_fract_z
 _atom_site_occupancy
  Mg  Mg0  1  0.00740341  0.35979979  1.00000000  1
  Mg  Mg1  1  0.56962888  0.25928060  1.00000000  1
  Mg  Mg2  1  0.98717778  0.00000100  0.00000100  1
  Mg  Mg3  1  0.31882172  0.59713525  0.00000100  1
  Mg  Mg4  1  0.56962888  1.00000000  0.25928060  1
  Mg  Mg5  1  0.68006319  0.67376440  0.27423111  1
  Mg  Mg6  1  0.00629879  0.60046771  0.32623560  1
  Mg  Mg7  1  0.00740341  1.00000000  0.35979979  1
  Mg  Mg8  1  0.40583308  0.72576989  0.39953329  1
  Mg  Mg9  1  0.72168847  0.40286675  0.40286675  1
  Mg  Mg10  1  0.31882172  0.00000000  0.59713525  1
  Mg  Mg11  1  0.00629879  0.32623660  0.60046671  1
  Mg  Mg12  1  0.64760262  0.64019921  0.64019821  1
  Mg  Mg13  1  0.68006319  0.27423211  0.67376440  1
  Mg  Mg14  1  0.40583308  0.39953429  0.72576989  1
  Mg  Mg15  1  0.31034828  0.74072040  0.74072040  1
  Al  Al16  1  0.65269772  0.80699465  1.00000000  1
  Al  Al17  1  0.81104712  0.61154623  0.00000100  1
  Al  Al18  1  0.36741350  0.36251583  0.18227281  1
  Al  Al19  1  0.18513968  0.81772619  0.18024102  1
  Al  Al20  1  0.84570207  0.19300635  0.19300535  1
  Al  Al21  1  0.36741450  0.18227281  0.36251583  1
  Al  Al22  1  0.19950089  0.38845577  0.38845577  1
  Al  Al23  1  0.81104712  0.00000000  0.61154623  1
  Al  Al24  1  0.00489867  0.81975898  0.63748617  1
  Al  Al25  1  0.65269772  1.00000000  0.80699465  1
  Al  Al26  1  0.00489867  0.63748617  0.81975898  1
  Al  Al27  1  0.18513968  0.18024202  0.81772619  1
  Re  Re28  1  0.26949739  0.99999900  1.00000000  1
