# generated using pymatgen
data_UTe3
_symmetry_space_group_name_H-M   'P 1'
_cell_length_a   4.22747781
_cell_length_b   6.03251230
_cell_length_c   10.57601385
_cell_angle_alpha   82.88452078
_cell_angle_beta   90.00000000
_cell_angle_gamma   90.00000000
_symmetry_Int_Tables_number   1
_chemical_formula_structural   UTe3
_chemical_formula_sum   'U2 Te6'
_cell_volume   267.63561274
_cell_formula_units_Z   2
loop_
 _symmetry_equiv_pos_site_id
 _symmetry_equiv_pos_as_xyz
  1  'x, y, z'
loop_
 _atom_site_type_symbol
 _atom_site_label
 _atom_site_symmetry_multiplicity
 _atom_site_fract_x
 _atom_site_fract_y
 _atom_site_fract_z
 _atom_site_occupancy
  U  U0  1  0.75000000  0.28095577  0.34567565  1
  U  U1  1  0.25000000  0.71904423  0.65432435  1
  Te  Te2  1  0.75000000  0.44188758  0.82423050  1
  Te  Te3  1  0.25000000  0.55811242  0.17576950  1
  Te  Te4  1  0.75000000  0.90716845  0.83670445  1
  Te  Te5  1  0.25000000  0.09283155  0.16329555  1
  Te  Te6  1  0.75000000  0.76328344  0.43708296  1
  Te  Te7  1  0.25000000  0.23671656  0.56291704  1
