# generated using pymatgen
data_Mg16Al12Ru
_symmetry_space_group_name_H-M   'P 1'
_cell_length_a   9.31575178
_cell_length_b   8.95775696
_cell_length_c   8.95775800
_cell_angle_alpha   108.64753823
_cell_angle_beta   110.28285646
_cell_angle_gamma   110.28284411
_symmetry_Int_Tables_number   1
_chemical_formula_structural   Mg16Al12Ru
_chemical_formula_sum   'Mg16 Al12 Ru1'
_cell_volume   569.56866972
_cell_formula_units_Z   1
loop_
 _symmetry_equiv_pos_site_id
 _symmetry_equiv_pos_as_xyz
  1  'x, y, z'
loop_
 _atom_site_type_symbol
 _atom_site_label
 _atom_site_symmetry_multiplicity
 _atom_site_fract_x
 _atom_site_fract_y
 _atom_site_fract_z
 _atom_site_occupancy
  Mg  Mg0  1  0.31844165  0.59384105  0.00000000  1
  Mg  Mg1  1  0.98847814  0.00000000  1.00000000  1
  Mg  Mg2  1  0.56782209  0.25613785  0.00000000  1
  Mg  Mg3  1  0.00466940  0.35627470  0.00000000  1
  Mg  Mg4  1  0.56782209  1.00000000  0.25613785  1
  Mg  Mg5  1  0.68065016  0.67253692  0.27407603  1
  Mg  Mg6  1  0.00811424  0.60153911  0.32746308  1
  Mg  Mg7  1  0.00466940  0.00000100  0.35627470  1
  Mg  Mg8  1  0.40657513  0.72592397  0.39846189  1
  Mg  Mg9  1  0.72460159  0.40616095  0.40615995  1
  Mg  Mg10  1  0.31844165  1.00000000  0.59384105  1
  Mg  Mg11  1  0.00811424  0.32746308  0.60153911  1
  Mg  Mg12  1  0.64839469  0.64372530  0.64372530  1
  Mg  Mg13  1  0.68065016  0.27407603  0.67253692  1
  Mg  Mg14  1  0.40657513  0.39846189  0.72592397  1
  Mg  Mg15  1  0.31168324  0.74386215  0.74386215  1
  Al  Al16  1  0.81053554  0.60949837  0.99999900  1
  Al  Al17  1  0.65270148  0.80776616  1.00000000  1
  Al  Al18  1  0.18454362  0.81812059  0.17936016  1
  Al  Al19  1  0.36642304  0.36124057  0.18187841  1
  Al  Al20  1  0.84493432  0.19223384  0.19223384  1
  Al  Al21  1  0.36642304  0.18187941  0.36123957  1
  Al  Al22  1  0.20103817  0.39050363  0.39050363  1
  Al  Al23  1  0.81053654  0.00000000  0.60949737  1
  Al  Al24  1  0.00518347  0.82063984  0.63876043  1
  Al  Al25  1  0.65270148  0.00000100  0.80776616  1
  Al  Al26  1  0.18454362  0.17936016  0.81812059  1
  Al  Al27  1  0.00518247  0.63876043  0.82063984  1
  Ru  Ru28  1  0.26955324  1.00000000  0.00000100  1
