# generated using pymatgen
data_PrAgHg2
_symmetry_space_group_name_H-M   'P 1'
_cell_length_a   5.15945927
_cell_length_b   5.15945683
_cell_length_c   5.15945975
_cell_angle_alpha   60.00002212
_cell_angle_beta   60.00001034
_cell_angle_gamma   60.00001832
_symmetry_Int_Tables_number   1
_chemical_formula_structural   PrAgHg2
_chemical_formula_sum   'Pr1 Ag1 Hg2'
_cell_volume   97.11751670
_cell_formula_units_Z   1
loop_
 _symmetry_equiv_pos_site_id
 _symmetry_equiv_pos_as_xyz
  1  'x, y, z'
loop_
 _atom_site_type_symbol
 _atom_site_label
 _atom_site_symmetry_multiplicity
 _atom_site_fract_x
 _atom_site_fract_y
 _atom_site_fract_z
 _atom_site_occupancy
  Pr  Pr0  1  0.74999996  0.75000013  0.74999998  1
  Ag  Ag1  1  0.24999898  0.24999896  0.24999901  1
  Hg  Hg2  1  0.00000004  0.99999996  0.99999997  1
  Hg  Hg3  1  0.50000002  0.49999995  0.50000004  1
