# generated using pymatgen
data_LaZn4
_symmetry_space_group_name_H-M   'P 1'
_cell_length_a   6.06318637
_cell_length_b   6.06318637
_cell_length_c   6.08367594
_cell_angle_alpha   90.00000000
_cell_angle_beta   90.00000000
_cell_angle_gamma   117.53864282
_symmetry_Int_Tables_number   1
_chemical_formula_structural   LaZn4
_chemical_formula_sum   'La2 Zn8'
_cell_volume   198.30982348
_cell_formula_units_Z   2
loop_
 _symmetry_equiv_pos_site_id
 _symmetry_equiv_pos_as_xyz
  1  'x, y, z'
loop_
 _atom_site_type_symbol
 _atom_site_label
 _atom_site_symmetry_multiplicity
 _atom_site_fract_x
 _atom_site_fract_y
 _atom_site_fract_z
 _atom_site_occupancy
  La  La0  1  0.26740376  0.73259624  0.75000000  1
  La  La1  1  0.73259624  0.26740376  0.25000000  1
  Zn  Zn2  1  0.85093983  0.14906017  0.75000000  1
  Zn  Zn3  1  0.14906017  0.85093983  0.25000000  1
  Zn  Zn4  1  0.60994422  0.39005578  0.75000000  1
  Zn  Zn5  1  0.39005578  0.60994422  0.25000000  1
  Zn  Zn6  1  0.21743492  0.21743492  0.50000000  1
  Zn  Zn7  1  0.21743492  0.21743492  0.00000000  1
  Zn  Zn8  1  0.78256508  0.78256508  0.50000000  1
  Zn  Zn9  1  0.78256508  0.78256508  0.00000000  1
