# generated using pymatgen
data_Li6UO6
_symmetry_space_group_name_H-M   'P 1'
_cell_length_a   5.48607204
_cell_length_b   5.48607205
_cell_length_c   5.48607204
_cell_angle_alpha   101.03443934
_cell_angle_beta   101.03443927
_cell_angle_gamma   101.03443926
_symmetry_Int_Tables_number   1
_chemical_formula_structural   Li6UO6
_chemical_formula_sum   'Li6 U1 O6'
_cell_volume   154.54516223
_cell_formula_units_Z   1
loop_
 _symmetry_equiv_pos_site_id
 _symmetry_equiv_pos_as_xyz
  1  'x, y, z'
loop_
 _atom_site_type_symbol
 _atom_site_label
 _atom_site_symmetry_multiplicity
 _atom_site_fract_x
 _atom_site_fract_y
 _atom_site_fract_z
 _atom_site_occupancy
  Li  Li0  1  0.64444774  0.35298942  0.00283592  1
  Li  Li1  1  0.35555226  0.64701058  0.99716408  1
  Li  Li2  1  0.64701058  0.99716408  0.35555226  1
  Li  Li3  1  0.99716408  0.35555226  0.64701058  1
  Li  Li4  1  0.35298942  0.00283592  0.64444774  1
  Li  Li5  1  0.00283592  0.64444774  0.35298942  1
  O  O6  1  0.10036092  0.73263336  0.73003301  1
  O  O7  1  0.89963908  0.26736664  0.26996699  1
  O  O8  1  0.26736664  0.26996699  0.89963908  1
  O  O9  1  0.26996699  0.89963908  0.26736664  1
  O  O10  1  0.73263336  0.73003301  0.10036092  1
  O  O11  1  0.73003301  0.10036092  0.73263336  1
  U  U12  1  0.00000000  0.00000000  0.00000000  1
