# generated using pymatgen
data_PmNi2Sn
_symmetry_space_group_name_H-M   'P 1'
_cell_length_a   4.65061102
_cell_length_b   4.65061200
_cell_length_c   4.65061130
_cell_angle_alpha   59.99998345
_cell_angle_beta   59.99998627
_cell_angle_gamma   59.99997898
_symmetry_Int_Tables_number   1
_chemical_formula_structural   PmNi2Sn
_chemical_formula_sum   'Pm1 Ni2 Sn1'
_cell_volume   71.12380789
_cell_formula_units_Z   1
loop_
 _symmetry_equiv_pos_site_id
 _symmetry_equiv_pos_as_xyz
  1  'x, y, z'
loop_
 _atom_site_type_symbol
 _atom_site_label
 _atom_site_symmetry_multiplicity
 _atom_site_fract_x
 _atom_site_fract_y
 _atom_site_fract_z
 _atom_site_occupancy
  Pm  Pm0  1  0.24999993  0.25000002  0.24999993  1
  Ni  Ni1  1  0.00000002  0.99999975  0.99999971  1
  Ni  Ni2  1  0.50000010  0.50000004  0.50000018  1
  Sn  Sn3  1  0.74999895  0.74999920  0.74999917  1
