# generated using pymatgen
data_LaHg3
_symmetry_space_group_name_H-M   'P 1'
_cell_length_a   5.17210110
_cell_length_b   6.91076348
_cell_length_c   6.91076348
_cell_angle_alpha   119.99789686
_cell_angle_beta   90.00000000
_cell_angle_gamma   90.00000000
_symmetry_Int_Tables_number   1
_chemical_formula_structural   LaHg3
_chemical_formula_sum   'La2 Hg6'
_cell_volume   213.92369885
_cell_formula_units_Z   2
loop_
 _symmetry_equiv_pos_site_id
 _symmetry_equiv_pos_as_xyz
  1  'x, y, z'
loop_
 _atom_site_type_symbol
 _atom_site_label
 _atom_site_symmetry_multiplicity
 _atom_site_fract_x
 _atom_site_fract_y
 _atom_site_fract_z
 _atom_site_occupancy
  La  La0  1  0.75000000  0.66667304  0.33332696  1
  La  La1  1  0.25000000  0.33332696  0.66667304  1
  Hg  Hg2  1  0.75000000  0.16222459  0.32439546  1
  Hg  Hg3  1  0.75000000  0.16222796  0.83777204  1
  Hg  Hg4  1  0.75000000  0.67560454  0.83777541  1
  Hg  Hg5  1  0.25000000  0.83777541  0.67560454  1
  Hg  Hg6  1  0.25000000  0.83777204  0.16222796  1
  Hg  Hg7  1  0.25000000  0.32439546  0.16222459  1
