# generated using pymatgen
data_MgNi3
_symmetry_space_group_name_H-M   'P 1'
_cell_length_a   5.20380435
_cell_length_b   5.20380523
_cell_length_c   4.16153438
_cell_angle_alpha   90.00000000
_cell_angle_beta   90.00000000
_cell_angle_gamma   120.00000072
_symmetry_Int_Tables_number   1
_chemical_formula_structural   MgNi3
_chemical_formula_sum   'Mg2 Ni6'
_cell_volume   97.59467186
_cell_formula_units_Z   2
loop_
 _symmetry_equiv_pos_site_id
 _symmetry_equiv_pos_as_xyz
  1  'x, y, z'
loop_
 _atom_site_type_symbol
 _atom_site_label
 _atom_site_symmetry_multiplicity
 _atom_site_fract_x
 _atom_site_fract_y
 _atom_site_fract_z
 _atom_site_occupancy
  Mg  Mg0  1  0.66666600  0.33333300  0.25000200  1
  Mg  Mg1  1  0.33333300  0.66666700  0.75000100  1
  Ni  Ni2  1  0.15973094  0.31946188  0.25000200  1
  Ni  Ni3  1  0.15973094  0.84026906  0.25000200  1
  Ni  Ni4  1  0.68053812  0.84026906  0.25000200  1
  Ni  Ni5  1  0.31946188  0.15973094  0.75000100  1
  Ni  Ni6  1  0.84026806  0.15973094  0.75000100  1
  Ni  Ni7  1  0.84026906  0.68053812  0.75000100  1
