# generated using pymatgen
data_ZrCdPd2
_symmetry_space_group_name_H-M   'P 1'
_cell_length_a   4.68296894
_cell_length_b   4.68296894
_cell_length_c   4.68296894
_cell_angle_alpha   59.88447281
_cell_angle_beta   59.88447281
_cell_angle_gamma   59.88447281
_symmetry_Int_Tables_number   1
_chemical_formula_structural   ZrCdPd2
_chemical_formula_sum   'Zr1 Cd1 Pd2'
_cell_volume   72.42841348
_cell_formula_units_Z   1
loop_
 _symmetry_equiv_pos_site_id
 _symmetry_equiv_pos_as_xyz
  1  'x, y, z'
loop_
 _atom_site_type_symbol
 _atom_site_label
 _atom_site_symmetry_multiplicity
 _atom_site_fract_x
 _atom_site_fract_y
 _atom_site_fract_z
 _atom_site_occupancy
  Zr  Zr0  1  0.74999945  0.74999945  0.74999945  1
  Cd  Cd1  1  0.25000078  0.25000078  0.25000078  1
  Pd  Pd2  1  -0.00003924  -0.00003924  -0.00003924  1
  Pd  Pd3  1  0.50003901  0.50003901  0.50003901  1
