# generated using pymatgen
data_Ti2MnOs
_symmetry_space_group_name_H-M   'P 1'
_cell_length_a   4.30857493
_cell_length_b   4.30857250
_cell_length_c   4.30857291
_cell_angle_alpha   59.99995022
_cell_angle_beta   59.99995836
_cell_angle_gamma   60.00005451
_symmetry_Int_Tables_number   1
_chemical_formula_structural   Ti2MnOs
_chemical_formula_sum   'Ti2 Mn1 Os1'
_cell_volume   56.55687214
_cell_formula_units_Z   1
loop_
 _symmetry_equiv_pos_site_id
 _symmetry_equiv_pos_as_xyz
  1  'x, y, z'
loop_
 _atom_site_type_symbol
 _atom_site_label
 _atom_site_symmetry_multiplicity
 _atom_site_fract_x
 _atom_site_fract_y
 _atom_site_fract_z
 _atom_site_occupancy
  Ti  Ti0  1  -0.00000016  0.99999971  -0.00000002  1
  Ti  Ti1  1  0.50000003  0.49999871  0.49999973  1
  Mn  Mn2  1  0.24999852  0.25000096  0.25000013  1
  Os  Os3  1  0.75000060  0.74999962  0.74999917  1
