# generated using pymatgen
data_Li2EuSn
_symmetry_space_group_name_H-M   'P 1'
_cell_length_a   5.04270951
_cell_length_b   5.04118252
_cell_length_c   5.03831385
_cell_angle_alpha   59.97342111
_cell_angle_beta   59.97939807
_cell_angle_gamma   60.00781792
_symmetry_Int_Tables_number   1
_chemical_formula_structural   Li2EuSn
_chemical_formula_sum   'Li2 Eu1 Sn1'
_cell_volume   90.53933019
_cell_formula_units_Z   1
loop_
 _symmetry_equiv_pos_site_id
 _symmetry_equiv_pos_as_xyz
  1  'x, y, z'
loop_
 _atom_site_type_symbol
 _atom_site_label
 _atom_site_symmetry_multiplicity
 _atom_site_fract_x
 _atom_site_fract_y
 _atom_site_fract_z
 _atom_site_occupancy
  Eu  Eu0  1  0.25000115  0.24999817  0.25000603  1
  Li  Li1  1  -0.00006592  -0.00004120  -0.00081196  1
  Li  Li2  1  0.50006501  0.50003055  0.50081193  1
  Sn  Sn3  1  0.75000075  0.75001348  0.74999500  1
