# generated using pymatgen
data_TbHg3
_symmetry_space_group_name_H-M   'P 1'
_cell_length_a   5.03866347
_cell_length_b   6.66584885
_cell_length_c   6.66584885
_cell_angle_alpha   120.00897080
_cell_angle_beta   90.00000000
_cell_angle_gamma   90.00000000
_symmetry_Int_Tables_number   1
_chemical_formula_structural   TbHg3
_chemical_formula_sum   'Tb2 Hg6'
_cell_volume   193.87313909
_cell_formula_units_Z   2
loop_
 _symmetry_equiv_pos_site_id
 _symmetry_equiv_pos_as_xyz
  1  'x, y, z'
loop_
 _atom_site_type_symbol
 _atom_site_label
 _atom_site_symmetry_multiplicity
 _atom_site_fract_x
 _atom_site_fract_y
 _atom_site_fract_z
 _atom_site_occupancy
  Tb  Tb0  1  0.75000000  0.66668689  0.33331311  1
  Tb  Tb1  1  0.25000000  0.33331311  0.66668689  1
  Hg  Hg2  1  0.75000000  0.16620945  0.33242721  1
  Hg  Hg3  1  0.75000000  0.16621315  0.83378685  1
  Hg  Hg4  1  0.75000000  0.66757279  0.83379055  1
  Hg  Hg5  1  0.25000000  0.83379055  0.66757279  1
  Hg  Hg6  1  0.25000000  0.83378685  0.16621315  1
  Hg  Hg7  1  0.25000000  0.33242721  0.16620945  1
