# generated using pymatgen
data_Ce(BIr)2
_symmetry_space_group_name_H-M   'P 1'
_cell_length_a   5.58036127
_cell_length_b   5.58036127
_cell_length_c   6.12979536
_cell_angle_alpha   105.46908710
_cell_angle_beta   105.46908717
_cell_angle_gamma   114.45898498
_symmetry_Int_Tables_number   1
_chemical_formula_structural   Ce(BIr)2
_chemical_formula_sum   'Ce2 B4 Ir4'
_cell_volume   151.19486742
_cell_formula_units_Z   2
loop_
 _symmetry_equiv_pos_site_id
 _symmetry_equiv_pos_as_xyz
  1  'x, y, z'
loop_
 _atom_site_type_symbol
 _atom_site_label
 _atom_site_symmetry_multiplicity
 _atom_site_fract_x
 _atom_site_fract_y
 _atom_site_fract_z
 _atom_site_occupancy
  B  B0  1  0.80529481  0.19470519  0.75000000  1
  B  B1  1  0.55529481  0.44470519  0.25000000  1
  B  B2  1  0.44470519  0.55529481  0.75000000  1
  B  B3  1  0.19470519  0.80529481  0.25000000  1
  Ce  Ce4  1  0.12500000  0.87500000  0.75000000  1
  Ce  Ce5  1  0.87500000  0.12500000  0.25000000  1
  Ir  Ir6  1  0.75466780  0.50466780  0.00933560  1
  Ir  Ir7  1  0.50466780  0.75466780  0.50933560  1
  Ir  Ir8  1  0.24533220  0.49533220  0.99066440  1
  Ir  Ir9  1  0.49533220  0.24533220  0.49066440  1
