# generated using pymatgen
data_V2B3
_symmetry_space_group_name_H-M   'P 1'
_cell_length_a   2.97819200
_cell_length_b   3.03759033
_cell_length_c   9.32356671
_cell_angle_alpha   99.37517655
_cell_angle_beta   90.00000000
_cell_angle_gamma   90.00000000
_symmetry_Int_Tables_number   1
_chemical_formula_structural   V2B3
_chemical_formula_sum   'V4 B6'
_cell_volume   83.21927755
_cell_formula_units_Z   2
loop_
 _symmetry_equiv_pos_site_id
 _symmetry_equiv_pos_as_xyz
  1  'x, y, z'
loop_
 _atom_site_type_symbol
 _atom_site_label
 _atom_site_symmetry_multiplicity
 _atom_site_fract_x
 _atom_site_fract_y
 _atom_site_fract_z
 _atom_site_occupancy
  V  V0  1  0.75000000  0.42935336  0.85870672  1
  V  V1  1  0.25000000  0.57064664  0.14129328  1
  V  V2  1  0.75000000  0.70502345  0.41004690  1
  V  V3  1  0.25000000  0.29497655  0.58995310  1
  B  B4  1  0.75000000  0.02363553  0.04727107  1
  B  B5  1  0.25000000  0.97636447  0.95272893  1
  B  B6  1  0.75000000  0.11788830  0.23577659  1
  B  B7  1  0.25000000  0.88211170  0.76422341  1
  B  B8  1  0.75000000  0.83101731  0.66203463  1
  B  B9  1  0.25000000  0.16898269  0.33796537  1
