# generated using pymatgen
data_NdCoC2
_symmetry_space_group_name_H-M   'P 1'
_cell_length_a   3.79772489
_cell_length_b   3.79772489
_cell_length_c   7.40485953
_cell_angle_alpha   81.78517218
_cell_angle_beta   81.78517218
_cell_angle_gamma   90.02873283
_symmetry_Int_Tables_number   1
_chemical_formula_structural   NdCoC2
_chemical_formula_sum   'Nd2 Co2 C4'
_cell_volume   104.59391246
_cell_formula_units_Z   2
loop_
 _symmetry_equiv_pos_site_id
 _symmetry_equiv_pos_as_xyz
  1  'x, y, z'
loop_
 _atom_site_type_symbol
 _atom_site_label
 _atom_site_symmetry_multiplicity
 _atom_site_fract_x
 _atom_site_fract_y
 _atom_site_fract_z
 _atom_site_occupancy
  C  C0  1  0.55492530  0.40354861  0.02520150  1
  C  C1  1  0.40354861  0.55492530  0.52520150  1
  C  C2  1  0.14536535  0.50688759  0.67822735  1
  C  C3  1  0.50688759  0.14536535  0.17822735  1
  Co  Co4  1  0.48308967  0.62533577  0.25755763  1
  Co  Co5  1  0.62533577  0.48308967  0.75755763  1
  Nd  Nd6  1  0.92368938  0.06915832  0.45201352  1
  Nd  Nd7  1  0.06915832  0.92368938  0.95201352  1
