# generated using pymatgen
data_MnPSe3
_symmetry_space_group_name_H-M   'P 1'
_cell_length_a   8.36236254
_cell_length_b   8.36236254
_cell_length_c   8.36236254
_cell_angle_alpha   45.08955478
_cell_angle_beta   45.08955482
_cell_angle_gamma   45.08955482
_symmetry_Int_Tables_number   1
_chemical_formula_structural   MnPSe3
_chemical_formula_sum   'Mn2 P2 Se6'
_cell_volume   267.00663974
_cell_formula_units_Z   2
loop_
 _symmetry_equiv_pos_site_id
 _symmetry_equiv_pos_as_xyz
  1  'x, y, z'
loop_
 _atom_site_type_symbol
 _atom_site_label
 _atom_site_symmetry_multiplicity
 _atom_site_fract_x
 _atom_site_fract_y
 _atom_site_fract_z
 _atom_site_occupancy
  P  P0  1  0.54976237  0.54976237  0.54976237  1
  P  P1  1  0.45023763  0.45023763  0.45023763  1
  Mn  Mn2  1  0.83303355  0.83303355  0.83303355  1
  Mn  Mn3  1  0.16696645  0.16696645  0.16696645  1
  Se  Se4  1  0.42310114  0.75838869  0.09057638  1
  Se  Se5  1  0.09057638  0.42310114  0.75838869  1
  Se  Se6  1  0.75838869  0.09057638  0.42310114  1
  Se  Se7  1  0.57689886  0.24161131  0.90942362  1
  Se  Se8  1  0.90942362  0.57689886  0.24161131  1
  Se  Se9  1  0.24161131  0.90942362  0.57689886  1
