# generated using pymatgen
data_USe3
_symmetry_space_group_name_H-M   'P 1'
_cell_length_a   4.03482964
_cell_length_b   5.71425334
_cell_length_c   10.19710381
_cell_angle_alpha   97.49384234
_cell_angle_beta   90.00000000
_cell_angle_gamma   90.00000000
_symmetry_Int_Tables_number   1
_chemical_formula_structural   USe3
_chemical_formula_sum   'U2 Se6'
_cell_volume   233.09676286
_cell_formula_units_Z   2
loop_
 _symmetry_equiv_pos_site_id
 _symmetry_equiv_pos_as_xyz
  1  'x, y, z'
loop_
 _atom_site_type_symbol
 _atom_site_label
 _atom_site_symmetry_multiplicity
 _atom_site_fract_x
 _atom_site_fract_y
 _atom_site_fract_z
 _atom_site_occupancy
  Se  Se0  1  0.75000000  0.61566203  0.31163934  1
  Se  Se1  1  0.25000000  0.38433797  0.68836066  1
  Se  Se2  1  0.25000000  0.26530690  0.06477995  1
  Se  Se3  1  0.75000000  0.73469310  0.93522005  1
  Se  Se4  1  0.25000000  0.96888939  0.68961677  1
  Se  Se5  1  0.75000000  0.03111061  0.31038323  1
  U  U6  1  0.75000000  0.21759708  0.86067429  1
  U  U7  1  0.25000000  0.78240292  0.13932571  1
