# generated using pymatgen
data_YTe3
_symmetry_space_group_name_H-M   'P 1'
_cell_length_a   4.34651715
_cell_length_b   4.34712214
_cell_length_c   13.19940914
_cell_angle_alpha   90.00000000
_cell_angle_beta   99.47679661
_cell_angle_gamma   90.00000000
_symmetry_Int_Tables_number   1
_chemical_formula_structural   YTe3
_chemical_formula_sum   'Y2 Te6'
_cell_volume   245.99700494
_cell_formula_units_Z   2
loop_
 _symmetry_equiv_pos_site_id
 _symmetry_equiv_pos_as_xyz
  1  'x, y, z'
loop_
 _atom_site_type_symbol
 _atom_site_label
 _atom_site_symmetry_multiplicity
 _atom_site_fract_x
 _atom_site_fract_y
 _atom_site_fract_z
 _atom_site_occupancy
  Y  Y0  1  0.16966944  0.75000000  0.33933888  1
  Y  Y1  1  0.83033056  0.25000000  0.66066112  1
  Te  Te2  1  0.92560242  0.75000000  0.85120483  1
  Te  Te3  1  0.07439758  0.25000000  0.14879517  1
  Te  Te4  1  0.57450413  0.75000000  0.14900826  1
  Te  Te5  1  0.42549587  0.25000000  0.85099174  1
  Te  Te6  1  0.29348169  0.75000000  0.58696337  1
  Te  Te7  1  0.70651831  0.25000000  0.41303663  1
