# generated using pymatgen
data_ErCuGe
_symmetry_space_group_name_H-M   'P 1'
_cell_length_a   4.25172979
_cell_length_b   4.25172979
_cell_length_c   7.10384758
_cell_angle_alpha   90.00000000
_cell_angle_beta   90.00000000
_cell_angle_gamma   120.00000005
_symmetry_Int_Tables_number   1
_chemical_formula_structural   ErCuGe
_chemical_formula_sum   'Er2 Cu2 Ge2'
_cell_volume   111.21300577
_cell_formula_units_Z   2
loop_
 _symmetry_equiv_pos_site_id
 _symmetry_equiv_pos_as_xyz
  1  'x, y, z'
loop_
 _atom_site_type_symbol
 _atom_site_label
 _atom_site_symmetry_multiplicity
 _atom_site_fract_x
 _atom_site_fract_y
 _atom_site_fract_z
 _atom_site_occupancy
  Cu  Cu0  1  0.66666667  0.33333333  0.52612718  1
  Cu  Cu1  1  0.33333333  0.66666667  0.02612718  1
  Ge  Ge2  1  0.33333333  0.66666667  0.46173774  1
  Ge  Ge3  1  0.66666667  0.33333333  0.96173774  1
  Er  Er4  1  0.00000000  0.00000000  0.73853509  1
  Er  Er5  1  0.00000000  0.00000000  0.23853509  1
