# generated using pymatgen
data_SmTe3
_symmetry_space_group_name_H-M   'P 1'
_cell_length_a   4.37178180
_cell_length_b   4.37260170
_cell_length_c   13.81087043
_cell_angle_alpha   90.00000000
_cell_angle_beta   99.10668178
_cell_angle_gamma   90.00000000
_symmetry_Int_Tables_number   1
_chemical_formula_structural   SmTe3
_chemical_formula_sum   'Sm2 Te6'
_cell_volume   260.68169005
_cell_formula_units_Z   2
loop_
 _symmetry_equiv_pos_site_id
 _symmetry_equiv_pos_as_xyz
  1  'x, y, z'
loop_
 _atom_site_type_symbol
 _atom_site_label
 _atom_site_symmetry_multiplicity
 _atom_site_fract_x
 _atom_site_fract_y
 _atom_site_fract_z
 _atom_site_occupancy
  Te  Te0  1  0.70747797  0.25000000  0.41495595  1
  Te  Te1  1  0.29252203  0.75000000  0.58504405  1
  Te  Te2  1  0.07904548  0.25000000  0.15809095  1
  Te  Te3  1  0.92095452  0.75000000  0.84190905  1
  Te  Te4  1  0.57901922  0.75000000  0.15803844  1
  Te  Te5  1  0.42098078  0.25000000  0.84196156  1
  Sm  Sm6  1  0.82760934  0.25000000  0.65521869  1
  Sm  Sm7  1  0.17239066  0.75000000  0.34478131  1
