# generated using pymatgen
data_SmTlAu2
_symmetry_space_group_name_H-M   'P 1'
_cell_length_a   5.09319806
_cell_length_b   5.09320041
_cell_length_c   5.09318969
_cell_angle_alpha   59.99990948
_cell_angle_beta   59.99997681
_cell_angle_gamma   60.00001874
_symmetry_Int_Tables_number   1
_chemical_formula_structural   SmTlAu2
_chemical_formula_sum   'Sm1 Tl1 Au2'
_cell_volume   93.42344370
_cell_formula_units_Z   1
loop_
 _symmetry_equiv_pos_site_id
 _symmetry_equiv_pos_as_xyz
  1  'x, y, z'
loop_
 _atom_site_type_symbol
 _atom_site_label
 _atom_site_symmetry_multiplicity
 _atom_site_fract_x
 _atom_site_fract_y
 _atom_site_fract_z
 _atom_site_occupancy
  Sm  Sm0  1  0.25000016  0.24999983  0.25000014  1
  Tl  Tl1  1  0.74999996  0.74999999  0.75000007  1
  Au  Au2  1  0.49999971  0.50000024  0.50000009  1
  Au  Au3  1  0.00000017  0.99999994  0.99999970  1
