# generated using pymatgen
data_Sr(GaH)2
_symmetry_space_group_name_H-M   'P 1'
_cell_length_a   4.41559366
_cell_length_b   4.41464334
_cell_length_c   4.68396274
_cell_angle_alpha   90.00559935
_cell_angle_beta   89.98639213
_cell_angle_gamma   120.00014135
_symmetry_Int_Tables_number   1
_chemical_formula_structural   Sr(GaH)2
_chemical_formula_sum   'Sr1 Ga2 H2'
_cell_volume   79.07298909
_cell_formula_units_Z   1
loop_
 _symmetry_equiv_pos_site_id
 _symmetry_equiv_pos_as_xyz
  1  'x, y, z'
loop_
 _atom_site_type_symbol
 _atom_site_label
 _atom_site_symmetry_multiplicity
 _atom_site_fract_x
 _atom_site_fract_y
 _atom_site_fract_z
 _atom_site_occupancy
  Sr  Sr0  1  0.99995851  0.99999877  0.00000019  1
  Ga  Ga1  1  0.33316107  0.66654907  0.46301708  1
  Ga  Ga2  1  0.66676060  0.33345126  0.53698271  1
  H  H3  1  0.33330080  0.66666038  0.09913842  1
  H  H4  1  0.66662102  0.33334152  0.90086061  1
