# generated using pymatgen
data_PrNiGe2
_symmetry_space_group_name_H-M   'P 1'
_cell_length_a   4.24647259
_cell_length_b   4.26348575
_cell_length_c   8.63789009
_cell_angle_alpha   104.28762801
_cell_angle_beta   90.00000000
_cell_angle_gamma   90.00000000
_symmetry_Int_Tables_number   1
_chemical_formula_structural   PrNiGe2
_chemical_formula_sum   'Pr2 Ni2 Ge4'
_cell_volume   151.54985850
_cell_formula_units_Z   2
loop_
 _symmetry_equiv_pos_site_id
 _symmetry_equiv_pos_as_xyz
  1  'x, y, z'
loop_
 _atom_site_type_symbol
 _atom_site_label
 _atom_site_symmetry_multiplicity
 _atom_site_fract_x
 _atom_site_fract_y
 _atom_site_fract_z
 _atom_site_occupancy
  Pr  Pr0  1  0.75000000  0.10847041  0.21694082  1
  Pr  Pr1  1  0.25000000  0.89152959  0.78305918  1
  Ni  Ni2  1  0.75000000  0.31844571  0.63689141  1
  Ni  Ni3  1  0.25000000  0.68155429  0.36310859  1
  Ge  Ge4  1  0.75000000  0.45755460  0.91510920  1
  Ge  Ge5  1  0.25000000  0.54244540  0.08489080  1
  Ge  Ge6  1  0.75000000  0.74944747  0.49889494  1
  Ge  Ge7  1  0.25000000  0.25055253  0.50110506  1
