# generated using pymatgen
data_TlBr3
_symmetry_space_group_name_H-M   'P 1'
_cell_length_a   7.70839556
_cell_length_b   11.55196675
_cell_length_c   13.64467985
_cell_angle_alpha   90.00000000
_cell_angle_beta   90.00000000
_cell_angle_gamma   90.00000000
_symmetry_Int_Tables_number   1
_chemical_formula_structural   TlBr3
_chemical_formula_sum   'Tl4 Br12'
_cell_volume   1215.01956956
_cell_formula_units_Z   4
loop_
 _symmetry_equiv_pos_site_id
 _symmetry_equiv_pos_as_xyz
  1  'x, y, z'
loop_
 _atom_site_type_symbol
 _atom_site_label
 _atom_site_symmetry_multiplicity
 _atom_site_fract_x
 _atom_site_fract_y
 _atom_site_fract_z
 _atom_site_occupancy
  Tl  Tl0  1  0.32960492  0.75000000  0.25126426  1
  Tl  Tl1  1  0.17039508  0.75000000  0.75126426  1
  Tl  Tl2  1  0.67039508  0.25000000  0.74873574  1
  Tl  Tl3  1  0.82960492  0.25000000  0.24873574  1
  Br  Br4  1  0.17718913  0.75000000  0.41581359  1
  Br  Br5  1  0.32281087  0.75000000  0.91581359  1
  Br  Br6  1  0.82281087  0.25000000  0.58418641  1
  Br  Br7  1  0.67718913  0.25000000  0.08418641  1
  Br  Br8  1  0.41875487  0.56385699  0.16495061  1
  Br  Br9  1  0.08124513  0.93614301  0.66495061  1
  Br  Br10  1  0.58124513  0.06385699  0.83504939  1
  Br  Br11  1  0.91875487  0.43614301  0.33504939  1
  Br  Br12  1  0.58124513  0.43614301  0.83504939  1
  Br  Br13  1  0.91875487  0.06385699  0.33504939  1
  Br  Br14  1  0.41875487  0.93614301  0.16495061  1
  Br  Br15  1  0.08124513  0.56385699  0.66495061  1
