# generated using pymatgen
data_Ce2MnN3
_symmetry_space_group_name_H-M   'P 1'
_cell_length_a   3.46065231
_cell_length_b   3.79747897
_cell_length_c   6.71090348
_cell_angle_alpha   106.43555154
_cell_angle_beta   104.94181725
_cell_angle_gamma   90.00000006
_symmetry_Int_Tables_number   1
_chemical_formula_structural   Ce2MnN3
_chemical_formula_sum   'Ce2 Mn1 N3'
_cell_volume   81.47559719
_cell_formula_units_Z   1
loop_
 _symmetry_equiv_pos_site_id
 _symmetry_equiv_pos_as_xyz
  1  'x, y, z'
loop_
 _atom_site_type_symbol
 _atom_site_label
 _atom_site_symmetry_multiplicity
 _atom_site_fract_x
 _atom_site_fract_y
 _atom_site_fract_z
 _atom_site_occupancy
  N  N0  1  0.83719012  0.83717971  0.67438023  1
  N  N1  1  0.16280988  0.16282029  0.32561977  1
  N  N2  1  0.00000000  0.50000000  0.00000000  1
  Mn  Mn3  1  0.00000000  0.00000000  0.00000000  1
  Ce  Ce4  1  0.64577958  0.64577466  0.29155915  1
  Ce  Ce5  1  0.35422042  0.35422534  0.70844085  1
