# generated using pymatgen
data_LuZn2
_symmetry_space_group_name_H-M   'P 1'
_cell_length_a   4.42381237
_cell_length_b   5.57043483
_cell_length_c   5.57043483
_cell_angle_alpha   77.15811062
_cell_angle_beta   66.60426161
_cell_angle_gamma   66.60426161
_symmetry_Int_Tables_number   1
_chemical_formula_structural   LuZn2
_chemical_formula_sum   'Lu2 Zn4'
_cell_volume   115.28571013
_cell_formula_units_Z   2
loop_
 _symmetry_equiv_pos_site_id
 _symmetry_equiv_pos_as_xyz
  1  'x, y, z'
loop_
 _atom_site_type_symbol
 _atom_site_label
 _atom_site_symmetry_multiplicity
 _atom_site_fract_x
 _atom_site_fract_y
 _atom_site_fract_z
 _atom_site_occupancy
  Lu  Lu0  1  0.46385815  0.28614185  0.78614185  1
  Lu  Lu1  1  0.53614185  0.71385815  0.21385815  1
  Zn  Zn2  1  0.83431827  0.11931803  0.21204542  1
  Zn  Zn3  1  0.16568173  0.88068197  0.78795458  1
  Zn  Zn4  1  0.83431827  0.71204542  0.61931803  1
  Zn  Zn5  1  0.16568173  0.28795458  0.38068197  1
