# generated using pymatgen
data_ErAlGe
_symmetry_space_group_name_H-M   'P 1'
_cell_length_a   4.05709673
_cell_length_b   5.56288542
_cell_length_c   5.73181380
_cell_angle_alpha   90.00000000
_cell_angle_beta   90.00000000
_cell_angle_gamma   111.38651139
_symmetry_Int_Tables_number   1
_chemical_formula_structural   ErAlGe
_chemical_formula_sum   'Er2 Al2 Ge2'
_cell_volume   120.45458134
_cell_formula_units_Z   2
loop_
 _symmetry_equiv_pos_site_id
 _symmetry_equiv_pos_as_xyz
  1  'x, y, z'
loop_
 _atom_site_type_symbol
 _atom_site_label
 _atom_site_symmetry_multiplicity
 _atom_site_fract_x
 _atom_site_fract_y
 _atom_site_fract_z
 _atom_site_occupancy
  Er  Er0  1  0.31022663  0.62045326  0.25000000  1
  Er  Er1  1  0.68977337  0.37954674  0.75000000  1
  Al  Al2  1  0.00000000  -0.00000000  0.00000000  1
  Al  Al3  1  -0.00000000  -0.00000000  0.50000000  1
  Ge  Ge4  1  0.60690734  0.21381467  0.25000000  1
  Ge  Ge5  1  0.39309266  0.78618533  0.75000000  1
