# generated using pymatgen
data_KNa2BN2
_symmetry_space_group_name_H-M   'P 1'
_cell_length_a   4.26681224
_cell_length_b   4.26681224
_cell_length_c   5.99463080
_cell_angle_alpha   110.84776467
_cell_angle_beta   110.84776467
_cell_angle_gamma   90.00000000
_symmetry_Int_Tables_number   1
_chemical_formula_structural   KNa2BN2
_chemical_formula_sum   'K1 Na2 B1 N2'
_cell_volume   94.30608115
_cell_formula_units_Z   1
loop_
 _symmetry_equiv_pos_site_id
 _symmetry_equiv_pos_as_xyz
  1  'x, y, z'
loop_
 _atom_site_type_symbol
 _atom_site_label
 _atom_site_symmetry_multiplicity
 _atom_site_fract_x
 _atom_site_fract_y
 _atom_site_fract_z
 _atom_site_occupancy
  K  K0  1  0.50000000  0.50000000  0.00000000  1
  Na  Na1  1  0.75000000  0.25000000  0.50000000  1
  Na  Na2  1  0.25000000  0.75000000  0.50000000  1
  B  B3  1  0.00000000  0.00000000  0.00000000  1
  N  N4  1  0.86924409  0.86924409  0.73848818  1
  N  N5  1  0.13075591  0.13075591  0.26151182  1
