# generated using pymatgen
data_Te4Rh3
_symmetry_space_group_name_H-M   'P 1'
_cell_length_a   4.03172718
_cell_length_b   6.79366942
_cell_length_c   6.95193579
_cell_angle_alpha   118.19784648
_cell_angle_beta   90.00000000
_cell_angle_gamma   107.26111106
_symmetry_Int_Tables_number   1
_chemical_formula_structural   Te4Rh3
_chemical_formula_sum   'Te4 Rh3'
_cell_volume   158.01929863
_cell_formula_units_Z   1
loop_
 _symmetry_equiv_pos_site_id
 _symmetry_equiv_pos_as_xyz
  1  'x, y, z'
loop_
 _atom_site_type_symbol
 _atom_site_label
 _atom_site_symmetry_multiplicity
 _atom_site_fract_x
 _atom_site_fract_y
 _atom_site_fract_z
 _atom_site_occupancy
  Te  Te0  1  0.36653882  0.73307764  0.02265110  1
  Te  Te1  1  0.63346118  0.26692236  0.97734890  1
  Te  Te2  1  0.12353165  0.24706329  0.45773401  1
  Te  Te3  1  0.87646835  0.75293671  0.54226599  1
  Rh  Rh4  1  0.00000000  -0.00000000  -0.00000000  1
  Rh  Rh5  1  0.26182632  0.52365263  0.27693916  1
  Rh  Rh6  1  0.73817368  0.47634737  0.72306084  1
