# generated using pymatgen
data_PrSn2
_symmetry_space_group_name_H-M   'P 1'
_cell_length_a   4.55652566
_cell_length_b   4.70114175
_cell_length_c   8.30860101
_cell_angle_alpha   90.00000000
_cell_angle_beta   105.91466369
_cell_angle_gamma   90.00000000
_symmetry_Int_Tables_number   1
_chemical_formula_structural   PrSn2
_chemical_formula_sum   'Pr2 Sn4'
_cell_volume   171.15581716
_cell_formula_units_Z   2
loop_
 _symmetry_equiv_pos_site_id
 _symmetry_equiv_pos_as_xyz
  1  'x, y, z'
loop_
 _atom_site_type_symbol
 _atom_site_label
 _atom_site_symmetry_multiplicity
 _atom_site_fract_x
 _atom_site_fract_y
 _atom_site_fract_z
 _atom_site_occupancy
  Pr  Pr0  1  0.85416114  0.50000000  0.70832229  1
  Pr  Pr1  1  0.14583886  0.50000000  0.29167771  1
  Sn  Sn2  1  0.68196249  0.00000000  0.36392498  1
  Sn  Sn3  1  0.31803751  0.00000000  0.63607502  1
  Sn  Sn4  1  0.50000000  0.50000000  -0.00000000  1
  Sn  Sn5  1  0.00000000  0.00000000  0.00000000  1
