# generated using pymatgen
data_LuCu2
_symmetry_space_group_name_H-M   'P 1'
_cell_length_a   4.22374495
_cell_length_b   5.34041753
_cell_length_c   5.34041753
_cell_angle_alpha   77.30961824
_cell_angle_beta   66.70590675
_cell_angle_gamma   66.70590675
_symmetry_Int_Tables_number   1
_chemical_formula_structural   LuCu2
_chemical_formula_sum   'Lu2 Cu4'
_cell_volume   101.33704370
_cell_formula_units_Z   2
loop_
 _symmetry_equiv_pos_site_id
 _symmetry_equiv_pos_as_xyz
  1  'x, y, z'
loop_
 _atom_site_type_symbol
 _atom_site_label
 _atom_site_symmetry_multiplicity
 _atom_site_fract_x
 _atom_site_fract_y
 _atom_site_fract_z
 _atom_site_occupancy
  Lu  Lu0  1  0.54209784  0.70790216  0.20790216  1
  Lu  Lu1  1  0.45790216  0.29209784  0.79209784  1
  Cu  Cu2  1  0.16427106  0.28623123  0.38522666  1
  Cu  Cu3  1  0.83572894  0.71376877  0.61477334  1
  Cu  Cu4  1  0.83572894  0.11477334  0.21376877  1
  Cu  Cu5  1  0.16427106  0.88522666  0.78623123  1
