# generated using pymatgen
data_BaSm(CoO3)2
_symmetry_space_group_name_H-M   'P 1'
_cell_length_a   3.96718273
_cell_length_b   7.73499634
_cell_length_c   7.74271615
_cell_angle_alpha   90.00000000
_cell_angle_beta   90.00000000
_cell_angle_gamma   90.00000000
_symmetry_Int_Tables_number   1
_chemical_formula_structural   BaSm(CoO3)2
_chemical_formula_sum   'Ba2 Sm2 Co4 O12'
_cell_volume   237.59410193
_cell_formula_units_Z   2
loop_
 _symmetry_equiv_pos_site_id
 _symmetry_equiv_pos_as_xyz
  1  'x, y, z'
loop_
 _atom_site_type_symbol
 _atom_site_label
 _atom_site_symmetry_multiplicity
 _atom_site_fract_x
 _atom_site_fract_y
 _atom_site_fract_z
 _atom_site_occupancy
  Ba  Ba0  1  0.50000000  0.00000000  0.24792490  1
  Ba  Ba1  1  0.50000000  0.00000000  0.75207510  1
  Sm  Sm2  1  0.50000000  0.50000000  0.24349488  1
  Sm  Sm3  1  0.50000000  0.50000000  0.75650512  1
  Co  Co4  1  -0.00000000  0.74650974  0.50000000  1
  Co  Co5  1  0.00000000  0.25349026  0.50000000  1
  Co  Co6  1  -0.00000000  0.74480388  -0.00000000  1
  Co  Co7  1  0.00000000  0.25519612  -0.00000000  1
  O  O8  1  -0.00000000  0.00000000  0.00000000  1
  O  O9  1  0.00000000  0.00000000  0.50000000  1
  O  O10  1  0.00000000  0.50000000  0.50000000  1
  O  O11  1  0.00000000  0.50000000  0.00000000  1
  O  O12  1  0.50000000  0.71485549  0.00000000  1
  O  O13  1  0.50000000  0.28514451  0.00000000  1
  O  O14  1  0.50000000  0.72320210  0.50000000  1
  O  O15  1  0.50000000  0.27679790  0.50000000  1
  O  O16  1  0.00000000  0.72744199  0.24009527  1
  O  O17  1  0.00000000  0.72744199  0.75990473  1
  O  O18  1  -0.00000000  0.27255801  0.75990473  1
  O  O19  1  -0.00000000  0.27255801  0.24009527  1
