# generated using pymatgen
data_Sm2Ga2Fe15
_symmetry_space_group_name_H-M   'P 1'
_cell_length_a   6.44544865
_cell_length_b   6.44544865
_cell_length_c   6.44544868
_cell_angle_alpha   82.59503544
_cell_angle_beta   82.59503544
_cell_angle_gamma   82.59504181
_symmetry_Int_Tables_number   1
_chemical_formula_structural   Sm2Ga2Fe15
_chemical_formula_sum   'Sm2 Ga2 Fe15'
_cell_volume   261.59901656
_cell_formula_units_Z   1
loop_
 _symmetry_equiv_pos_site_id
 _symmetry_equiv_pos_as_xyz
  1  'x, y, z'
loop_
 _atom_site_type_symbol
 _atom_site_label
 _atom_site_symmetry_multiplicity
 _atom_site_fract_x
 _atom_site_fract_y
 _atom_site_fract_z
 _atom_site_occupancy
  Sm  Sm0  1  0.65263292  0.65263292  0.65263292  1
  Sm  Sm1  1  0.34736708  0.34736708  0.34736708  1
  Ga  Ga2  1  0.89683054  0.89683054  0.89683054  1
  Ga  Ga3  1  0.10316946  0.10316946  0.10316946  1
  Fe  Fe4  1  0.00000000  0.00000000  0.50000000  1
  Fe  Fe5  1  0.00000000  0.50000000  -0.00000000  1
  Fe  Fe6  1  0.50000000  0.00000000  -0.00000000  1
  Fe  Fe7  1  0.29323476  0.70676524  -0.00000000  1
  Fe  Fe8  1  0.70676524  0.00000000  0.29323476  1
  Fe  Fe9  1  1.00000000  0.29323476  0.70676524  1
  Fe  Fe10  1  0.29323476  1.00000000  0.70676524  1
  Fe  Fe11  1  0.00000000  0.70676524  0.29323476  1
  Fe  Fe12  1  0.70676524  0.29323476  -0.00000000  1
  Fe  Fe13  1  0.34127633  0.34127633  0.84245570  1
  Fe  Fe14  1  0.34127633  0.84245569  0.34127633  1
  Fe  Fe15  1  0.84245569  0.34127633  0.34127633  1
  Fe  Fe16  1  0.65872367  0.65872367  0.15754430  1
  Fe  Fe17  1  0.65872367  0.15754431  0.65872367  1
  Fe  Fe18  1  0.15754431  0.65872367  0.65872367  1
