# generated using pymatgen
data_Er2Fe2Si2C
_symmetry_space_group_name_H-M   'P 1'
_cell_length_a   3.90900794
_cell_length_b   5.60266984
_cell_length_c   5.60897459
_cell_angle_alpha   73.16147333
_cell_angle_beta   69.60684182
_cell_angle_gamma   69.58287043
_symmetry_Int_Tables_number   1
_chemical_formula_structural   Er2Fe2Si2C
_chemical_formula_sum   'Er2 Fe2 Si2 C1'
_cell_volume   105.91417555
_cell_formula_units_Z   1
loop_
 _symmetry_equiv_pos_site_id
 _symmetry_equiv_pos_as_xyz
  1  'x, y, z'
loop_
 _atom_site_type_symbol
 _atom_site_label
 _atom_site_symmetry_multiplicity
 _atom_site_fract_x
 _atom_site_fract_y
 _atom_site_fract_z
 _atom_site_occupancy
  Er  Er0  1  0.05999236  0.67331249  0.20670279  1
  Er  Er1  1  0.94000764  0.32668751  0.79329721  1
  Fe  Fe2  1  0.29786895  0.80783006  0.59643205  1
  Fe  Fe3  1  0.70213105  0.19216994  0.40356795  1
  Si  Si4  1  0.65920128  0.89393229  0.78766514  1
  Si  Si5  1  0.34079872  0.10606771  0.21233486  1
  C  C6  1  0.50000000  0.50000000  0.50000000  1
