# generated using pymatgen
data_TbH9C5(NO4)2
_symmetry_space_group_name_H-M   'P 1'
_cell_length_a   6.68019487
_cell_length_b   6.73841154
_cell_length_c   6.73841154
_cell_angle_alpha   65.70805572
_cell_angle_beta   75.43664949
_cell_angle_gamma   75.43664949
_symmetry_Int_Tables_number   1
_chemical_formula_structural   TbH9C5(NO4)2
_chemical_formula_sum   'Tb1 H9 C5 N2 O8'
_cell_volume   263.79067029
_cell_formula_units_Z   1
loop_
 _symmetry_equiv_pos_site_id
 _symmetry_equiv_pos_as_xyz
  1  'x, y, z'
loop_
 _atom_site_type_symbol
 _atom_site_label
 _atom_site_symmetry_multiplicity
 _atom_site_fract_x
 _atom_site_fract_y
 _atom_site_fract_z
 _atom_site_occupancy
  Tb  Tb0  1  -0.00000000  0.48411014  0.51588986  1
  H  H1  1  0.42136632  0.28282786  0.15855339  1
  H  H2  1  0.57863368  0.84144661  0.71717214  1
  H  H3  1  0.54018480  0.00138413  0.24963829  1
  H  H4  1  0.45981520  0.75036171  0.99861587  1
  H  H5  1  0.81828076  0.04569360  0.97893797  1
  H  H6  1  0.18171924  0.02106203  0.95430640  1
  H  H7  1  0.11957807  0.02884604  0.34639040  1
  H  H8  1  0.88042193  0.65360960  0.97115396  1
  H  H9  1  0.50000000  0.40291059  0.59708941  1
  C  C10  1  0.70605493  0.19682675  0.97902265  1
  C  C11  1  0.29394507  0.02097735  0.80317325  1
  C  C12  1  0.96448906  0.01638275  0.45618663  1
  C  C13  1  0.03551094  0.54381337  0.98361725  1
  C  C14  1  0.50000000  0.55338226  0.44661774  1
  N  N15  1  0.54357882  0.16050319  0.14214362  1
  N  N16  1  0.45642118  0.85785638  0.83949681  1
  O  O17  1  0.73678438  0.38192656  0.83489433  1
  O  O18  1  0.26321562  0.16510567  0.61807344  1
  O  O19  1  0.88609048  0.84537859  0.50234545  1
  O  O20  1  0.11390952  0.49765455  0.15462141  1
  O  O21  1  0.66605354  0.63991498  0.37034426  1
  O  O22  1  0.33394646  0.62965574  0.36008502  1
  O  O23  1  0.12199057  0.47424307  0.83017355  1
  O  O24  1  0.87800943  0.16982645  0.52575693  1
