# generated using pymatgen
data_TbMgSn
_symmetry_space_group_name_H-M   'P 1'
_cell_length_a   4.41748505
_cell_length_b   4.41748505
_cell_length_c   8.57352031
_cell_angle_alpha   104.92911099
_cell_angle_beta   104.92911099
_cell_angle_gamma   90.00000000
_symmetry_Int_Tables_number   1
_chemical_formula_structural   TbMgSn
_chemical_formula_sum   'Tb2 Mg2 Sn2'
_cell_volume   155.80594167
_cell_formula_units_Z   2
loop_
 _symmetry_equiv_pos_site_id
 _symmetry_equiv_pos_as_xyz
  1  'x, y, z'
loop_
 _atom_site_type_symbol
 _atom_site_label
 _atom_site_symmetry_multiplicity
 _atom_site_fract_x
 _atom_site_fract_y
 _atom_site_fract_z
 _atom_site_occupancy
  Tb  Tb0  1  0.66662758  0.66662758  0.33325516  1
  Tb  Tb1  1  0.33337242  0.33337242  0.66674484  1
  Mg  Mg2  1  0.50000000  -0.00000000  -0.00000000  1
  Mg  Mg3  1  -0.00000000  0.50000000  -0.00000000  1
  Sn  Sn4  1  0.86424526  0.86424526  0.72849053  1
  Sn  Sn5  1  0.13575474  0.13575474  0.27150947  1
