# generated using pymatgen
data_CeGaCo
_symmetry_space_group_name_H-M   'P 1'
_cell_length_a   4.35608897
_cell_length_b   4.74269348
_cell_length_c   5.85561864
_cell_angle_alpha   99.43363483
_cell_angle_beta   111.83642432
_cell_angle_gamma   89.99999989
_symmetry_Int_Tables_number   1
_chemical_formula_structural   CeGaCo
_chemical_formula_sum   'Ce2 Ga2 Co2'
_cell_volume   110.53026530
_cell_formula_units_Z   2
loop_
 _symmetry_equiv_pos_site_id
 _symmetry_equiv_pos_as_xyz
  1  'x, y, z'
loop_
 _atom_site_type_symbol
 _atom_site_label
 _atom_site_symmetry_multiplicity
 _atom_site_fract_x
 _atom_site_fract_y
 _atom_site_fract_z
 _atom_site_occupancy
  Ce  Ce0  1  0.87345900  0.68563503  0.74691800  1
  Ce  Ce1  1  0.12654100  0.31436497  0.25308200  1
  Ga  Ga2  1  0.58733689  0.80870923  0.17467377  1
  Ga  Ga3  1  0.41266311  0.19129077  0.82532623  1
  Co  Co4  1  0.80549353  0.13791128  0.61098706  1
  Co  Co5  1  0.19450647  0.86208872  0.38901294  1
