# generated using pymatgen
data_GdCoSi3
_symmetry_space_group_name_H-M   'P 1'
_cell_length_a   4.07169783
_cell_length_b   4.07169783
_cell_length_c   5.61287759
_cell_angle_alpha   111.26674284
_cell_angle_beta   111.26674284
_cell_angle_gamma   90.00000000
_symmetry_Int_Tables_number   1
_chemical_formula_structural   GdCoSi3
_chemical_formula_sum   'Gd1 Co1 Si3'
_cell_volume   79.87957321
_cell_formula_units_Z   1
loop_
 _symmetry_equiv_pos_site_id
 _symmetry_equiv_pos_as_xyz
  1  'x, y, z'
loop_
 _atom_site_type_symbol
 _atom_site_label
 _atom_site_symmetry_multiplicity
 _atom_site_fract_x
 _atom_site_fract_y
 _atom_site_fract_z
 _atom_site_occupancy
  Gd  Gd0  1  0.00244070  0.00244070  0.00488141  1
  Co  Co1  1  0.66117684  0.66117684  0.32235367  1
  Si  Si2  1  0.42978379  0.42978379  0.85956758  1
  Si  Si3  1  0.76179933  0.26179933  0.52359867  1
  Si  Si4  1  0.26179933  0.76179933  0.52359867  1
