# generated using pymatgen
data_GdH9C5(NO4)2
_symmetry_space_group_name_H-M   'P 1'
_cell_length_a   6.71987099
_cell_length_b   6.80748664
_cell_length_c   6.80748664
_cell_angle_alpha   65.67852705
_cell_angle_beta   75.22960534
_cell_angle_gamma   75.22960534
_symmetry_Int_Tables_number   1
_chemical_formula_structural   GdH9C5(NO4)2
_chemical_formula_sum   'Gd1 H9 C5 N2 O8'
_cell_volume   270.39386884
_cell_formula_units_Z   1
loop_
 _symmetry_equiv_pos_site_id
 _symmetry_equiv_pos_as_xyz
  1  'x, y, z'
loop_
 _atom_site_type_symbol
 _atom_site_label
 _atom_site_symmetry_multiplicity
 _atom_site_fract_x
 _atom_site_fract_y
 _atom_site_fract_z
 _atom_site_occupancy
  Gd  Gd0  1  -0.00000000  0.94993000  0.05007000  1
  H  H1  1  0.50000000  0.02977040  0.97022960  1
  H  H2  1  0.11986085  0.78973692  0.58843536  1
  H  H3  1  0.88013915  0.41156464  0.21026308  1
  H  H4  1  0.41734009  0.58457111  0.85524034  1
  H  H5  1  0.58265991  0.14475966  0.41542889  1
  H  H6  1  0.53329845  0.68382676  0.57607969  1
  H  H7  1  0.46670155  0.42392031  0.31617324  1
  H  H8  1  0.81685189  0.42065343  0.61372270  1
  H  H9  1  0.18314811  0.38627730  0.57934657  1
  C  C10  1  0.50000000  0.88056925  0.11943075  1
  C  C11  1  0.96355112  0.89481630  0.57982274  1
  C  C12  1  0.03644888  0.42017726  0.10518370  1
  C  C13  1  0.70410543  0.41595576  0.76443610  1
  C  C14  1  0.29589457  0.23556390  0.58404424  1
  N  N15  1  0.53967727  0.57435571  0.73193733  1
  N  N16  1  0.46032273  0.26806267  0.42564429  1
  O  O17  1  0.66502055  0.80552703  0.20473749  1
  O  O18  1  0.33497945  0.79526251  0.19447297  1
  O  O19  1  0.73584578  0.27109121  0.94624221  1
  O  O20  1  0.26415422  0.05375779  0.72890879  1
  O  O21  1  0.88299420  0.93803267  0.41273318  1
  O  O22  1  0.11700580  0.58726682  0.06196733  1
  O  O23  1  0.87785204  0.96228538  0.73308480  1
  O  O24  1  0.12214796  0.26691520  0.03771462  1
