# generated using pymatgen
data_EuSi2
_symmetry_space_group_name_H-M   'P 1'
_cell_length_a   4.28077175
_cell_length_b   4.28077175
_cell_length_c   7.54840788
_cell_angle_alpha   106.47247017
_cell_angle_beta   106.47247017
_cell_angle_gamma   90.00000000
_symmetry_Int_Tables_number   1
_chemical_formula_structural   EuSi2
_chemical_formula_sum   'Eu2 Si4'
_cell_volume   126.71574328
_cell_formula_units_Z   2
loop_
 _symmetry_equiv_pos_site_id
 _symmetry_equiv_pos_as_xyz
  1  'x, y, z'
loop_
 _atom_site_type_symbol
 _atom_site_label
 _atom_site_symmetry_multiplicity
 _atom_site_fract_x
 _atom_site_fract_y
 _atom_site_fract_z
 _atom_site_occupancy
  Eu  Eu0  1  0.25000000  0.75000000  0.50000000  1
  Eu  Eu1  1  -0.00000000  -0.00000000  -0.00000000  1
  Si  Si2  1  0.66599223  0.16599223  0.33198446  1
  Si  Si3  1  0.58400777  0.58400777  0.16801554  1
  Si  Si4  1  0.83400777  0.33400777  0.66801554  1
  Si  Si5  1  0.41599223  0.41599223  0.83198446  1
