# generated using pymatgen
data_GdSn2
_symmetry_space_group_name_H-M   'P 1'
_cell_length_a   4.39482270
_cell_length_b   4.48713522
_cell_length_c   8.52892953
_cell_angle_alpha   105.19686552
_cell_angle_beta   90.00796171
_cell_angle_gamma   89.99611251
_symmetry_Int_Tables_number   1
_chemical_formula_structural   GdSn2
_chemical_formula_sum   'Gd2 Sn4'
_cell_volume   162.31035536
_cell_formula_units_Z   2
loop_
 _symmetry_equiv_pos_site_id
 _symmetry_equiv_pos_as_xyz
  1  'x, y, z'
loop_
 _atom_site_type_symbol
 _atom_site_label
 _atom_site_symmetry_multiplicity
 _atom_site_fract_x
 _atom_site_fract_y
 _atom_site_fract_z
 _atom_site_occupancy
  Gd  Gd0  1  0.75002260  0.09822171  0.19609959  1
  Gd  Gd1  1  0.24998236  0.90174864  0.80387723  1
  Sn  Sn2  1  0.74998680  0.74935246  0.49940834  1
  Sn  Sn3  1  0.25000896  0.25072175  0.50070952  1
  Sn  Sn4  1  0.75000736  0.43610059  0.87246936  1
  Sn  Sn5  1  0.24999193  0.56385484  0.12743597  1
