# generated using pymatgen
data_USnAu
_symmetry_space_group_name_H-M   'P 1'
_cell_length_a   5.12987507
_cell_length_b   5.12987507
_cell_length_c   5.82936862
_cell_angle_alpha   90.00000000
_cell_angle_beta   90.00000000
_cell_angle_gamma   119.85265638
_symmetry_Int_Tables_number   1
_chemical_formula_structural   USnAu
_chemical_formula_sum   'U2 Sn2 Au2'
_cell_volume   133.04808433
_cell_formula_units_Z   2
loop_
 _symmetry_equiv_pos_site_id
 _symmetry_equiv_pos_as_xyz
  1  'x, y, z'
loop_
 _atom_site_type_symbol
 _atom_site_label
 _atom_site_symmetry_multiplicity
 _atom_site_fract_x
 _atom_site_fract_y
 _atom_site_fract_z
 _atom_site_occupancy
  U  U0  1  0.00015736  0.99984264  0.23500937  1
  U  U1  1  0.99984264  0.00015736  0.73500937  1
  Sn  Sn2  1  0.33308291  0.66691709  0.98533575  1
  Sn  Sn3  1  0.66691709  0.33308291  0.48533575  1
  Au  Au4  1  0.33328759  0.66671241  0.48665488  1
  Au  Au5  1  0.66671241  0.33328759  0.98665488  1
