# generated using pymatgen
data_TmMgSn
_symmetry_space_group_name_H-M   'P 1'
_cell_length_a   4.36760698
_cell_length_b   4.36760698
_cell_length_c   8.47914395
_cell_angle_alpha   104.92473708
_cell_angle_beta   104.92473708
_cell_angle_gamma   90.00000000
_symmetry_Int_Tables_number   1
_chemical_formula_structural   TmMgSn
_chemical_formula_sum   'Tm2 Mg2 Sn2'
_cell_volume   150.63739528
_cell_formula_units_Z   2
loop_
 _symmetry_equiv_pos_site_id
 _symmetry_equiv_pos_as_xyz
  1  'x, y, z'
loop_
 _atom_site_type_symbol
 _atom_site_label
 _atom_site_symmetry_multiplicity
 _atom_site_fract_x
 _atom_site_fract_y
 _atom_site_fract_z
 _atom_site_occupancy
  Tm  Tm0  1  0.66812119  0.66812119  0.33624237  1
  Tm  Tm1  1  0.33187881  0.33187881  0.66375763  1
  Mg  Mg2  1  0.50000000  0.00000000  0.00000000  1
  Mg  Mg3  1  0.00000000  0.50000000  0.00000000  1
  Sn  Sn4  1  0.86329433  0.86329433  0.72658867  1
  Sn  Sn5  1  0.13670567  0.13670567  0.27341133  1
