# generated using pymatgen
data_HoSn2
_symmetry_space_group_name_H-M   'P 1'
_cell_length_a   4.35551917
_cell_length_b   4.41882893
_cell_length_c   8.46726372
_cell_angle_alpha   105.12561213
_cell_angle_beta   90.00000000
_cell_angle_gamma   90.00000000
_symmetry_Int_Tables_number   1
_chemical_formula_structural   HoSn2
_chemical_formula_sum   'Ho2 Sn4'
_cell_volume   157.31775595
_cell_formula_units_Z   2
loop_
 _symmetry_equiv_pos_site_id
 _symmetry_equiv_pos_as_xyz
  1  'x, y, z'
loop_
 _atom_site_type_symbol
 _atom_site_label
 _atom_site_symmetry_multiplicity
 _atom_site_fract_x
 _atom_site_fract_y
 _atom_site_fract_z
 _atom_site_occupancy
  Ho  Ho0  1  0.75000000  0.09878371  0.19756743  1
  Ho  Ho1  1  0.25000000  0.90121629  0.80243257  1
  Sn  Sn2  1  0.75000000  0.43679010  0.87358021  1
  Sn  Sn3  1  0.25000000  0.56320990  0.12641979  1
  Sn  Sn4  1  0.75000000  0.74878833  0.49757666  1
  Sn  Sn5  1  0.25000000  0.25121167  0.50242334  1
