# generated using pymatgen
data_PrCu2
_symmetry_space_group_name_H-M   'P 1'
_cell_length_a   4.39413415
_cell_length_b   5.61535537
_cell_length_c   5.61535537
_cell_angle_alpha   79.61155107
_cell_angle_beta   66.96703696
_cell_angle_gamma   66.96703696
_symmetry_Int_Tables_number   1
_chemical_formula_structural   PrCu2
_chemical_formula_sum   'Pr2 Cu4'
_cell_volume   117.28514098
_cell_formula_units_Z   2
loop_
 _symmetry_equiv_pos_site_id
 _symmetry_equiv_pos_as_xyz
  1  'x, y, z'
loop_
 _atom_site_type_symbol
 _atom_site_label
 _atom_site_symmetry_multiplicity
 _atom_site_fract_x
 _atom_site_fract_y
 _atom_site_fract_z
 _atom_site_occupancy
  Pr  Pr0  1  0.53780699  0.71219301  0.21219301  1
  Pr  Pr1  1  0.46219301  0.28780699  0.78780699  1
  Cu  Cu2  1  0.16529328  0.28423234  0.38518109  1
  Cu  Cu3  1  0.83470672  0.71576766  0.61481891  1
  Cu  Cu4  1  0.83470672  0.11481891  0.21576766  1
  Cu  Cu5  1  0.16529328  0.88518109  0.78423234  1
