# generated using pymatgen
data_La2Mn3Cu9P7
_symmetry_space_group_name_H-M   'P 1'
_cell_length_a   3.87420677
_cell_length_b   9.54546051
_cell_length_c   9.53850570
_cell_angle_alpha   119.99207014
_cell_angle_beta   90.00000000
_cell_angle_gamma   90.00000000
_symmetry_Int_Tables_number   1
_chemical_formula_structural   La2Mn3Cu9P7
_chemical_formula_sum   'La2 Mn3 Cu9 P7'
_cell_volume   305.50994621
_cell_formula_units_Z   1
loop_
 _symmetry_equiv_pos_site_id
 _symmetry_equiv_pos_as_xyz
  1  'x, y, z'
loop_
 _atom_site_type_symbol
 _atom_site_label
 _atom_site_symmetry_multiplicity
 _atom_site_fract_x
 _atom_site_fract_y
 _atom_site_fract_z
 _atom_site_occupancy
  La  La0  1  0.00000000  0.66676127  0.33324242  1
  La  La1  1  0.50000000  0.33324090  0.66659743  1
  Mn  Mn2  1  0.50000000  0.12404376  0.91207604  1
  Mn  Mn3  1  0.50000000  0.08801901  0.21156957  1
  Mn  Mn4  1  0.50000000  0.78762589  0.87636757  1
  Cu  Cu5  1  -0.00000000  0.37046459  0.94905811  1
  Cu  Cu6  1  -0.00000000  0.05095704  0.42156799  1
  Cu  Cu7  1  0.00000000  0.57853835  0.62938539  1
  Cu  Cu8  1  0.00000000  0.88227528  0.72398099  1
  Cu  Cu9  1  0.00000000  0.27624216  0.15853110  1
  Cu  Cu10  1  -0.00000000  0.84172118  0.11779031  1
  Cu  Cu11  1  0.50000000  0.95570589  0.57632508  1
  Cu  Cu12  1  0.50000000  0.42365321  0.37932439  1
  Cu  Cu13  1  0.50000000  0.62065745  0.04436375  1
  P  P14  1  -0.00000000  0.11602184  0.70458386  1
  P  P15  1  -0.00000000  0.29535536  0.41145283  1
  P  P16  1  -0.00000000  0.58844086  0.88382362  1
  P  P17  1  0.50000000  0.70418145  0.59257698  1
  P  P18  1  0.50000000  0.40769526  0.11165119  1
  P  P19  1  0.50000000  0.88845893  0.29583254  1
  P  P20  1  -0.00000000  -0.00005966  -0.00010116  1
