# generated using pymatgen
data_LuSn2
_symmetry_space_group_name_H-M   'P 1'
_cell_length_a   4.33630906
_cell_length_b   4.38299866
_cell_length_c   8.35626102
_cell_angle_alpha   105.20410398
_cell_angle_beta   90.00000000
_cell_angle_gamma   90.00000000
_symmetry_Int_Tables_number   1
_chemical_formula_structural   LuSn2
_chemical_formula_sum   'Lu2 Sn4'
_cell_volume   153.26036182
_cell_formula_units_Z   2
loop_
 _symmetry_equiv_pos_site_id
 _symmetry_equiv_pos_as_xyz
  1  'x, y, z'
loop_
 _atom_site_type_symbol
 _atom_site_label
 _atom_site_symmetry_multiplicity
 _atom_site_fract_x
 _atom_site_fract_y
 _atom_site_fract_z
 _atom_site_occupancy
  Lu  Lu0  1  0.75000000  0.09867543  0.19735086  1
  Lu  Lu1  1  0.25000000  0.90132457  0.80264914  1
  Sn  Sn2  1  0.75000000  0.43490747  0.86981494  1
  Sn  Sn3  1  0.25000000  0.56509253  0.13018506  1
  Sn  Sn4  1  0.75000000  0.74950928  0.49901857  1
  Sn  Sn5  1  0.25000000  0.25049072  0.50098143  1
