# generated using pymatgen
data_GdAl3Cu
_symmetry_space_group_name_H-M   'P 1'
_cell_length_a   4.15469588
_cell_length_b   4.15469588
_cell_length_c   6.06443031
_cell_angle_alpha   110.03207793
_cell_angle_beta   110.03207793
_cell_angle_gamma   90.00000000
_symmetry_Int_Tables_number   1
_chemical_formula_structural   GdAl3Cu
_chemical_formula_sum   'Gd1 Al3 Cu1'
_cell_volume   91.57801284
_cell_formula_units_Z   1
loop_
 _symmetry_equiv_pos_site_id
 _symmetry_equiv_pos_as_xyz
  1  'x, y, z'
loop_
 _atom_site_type_symbol
 _atom_site_label
 _atom_site_symmetry_multiplicity
 _atom_site_fract_x
 _atom_site_fract_y
 _atom_site_fract_z
 _atom_site_occupancy
  Gd  Gd0  1  0.00004319  0.00004319  0.00008638  1
  Al  Al1  1  0.40780222  0.40780222  0.81560444  1
  Al  Al2  1  0.74953845  0.24953845  0.49907689  1
  Al  Al3  1  0.24953845  0.74953845  0.49907689  1
  Cu  Cu4  1  0.62907770  0.62907770  0.25815540  1
