# generated using pymatgen
data_La3BeSbS7
_symmetry_space_group_name_H-M   'P 1'
_cell_length_a   6.25311790
_cell_length_b   10.29497601
_cell_length_c   10.29508302
_cell_angle_alpha   120.00078354
_cell_angle_beta   90.00000000
_cell_angle_gamma   90.00000000
_symmetry_Int_Tables_number   1
_chemical_formula_structural   La3BeSbS7
_chemical_formula_sum   'La6 Be2 Sb2 S14'
_cell_volume   573.95654420
_cell_formula_units_Z   2
loop_
 _symmetry_equiv_pos_site_id
 _symmetry_equiv_pos_as_xyz
  1  'x, y, z'
loop_
 _atom_site_type_symbol
 _atom_site_label
 _atom_site_symmetry_multiplicity
 _atom_site_fract_x
 _atom_site_fract_y
 _atom_site_fract_z
 _atom_site_occupancy
  La  La0  1  0.25416952  0.25943557  0.39633990  1
  La  La1  1  0.25414439  0.60367880  0.86310666  1
  La  La2  1  0.25418571  0.13691702  0.74054764  1
  La  La3  1  0.75416952  0.74056443  0.60366010  1
  La  La4  1  0.75414439  0.39632120  0.13689334  1
  La  La5  1  0.75418571  0.86308298  0.25945236  1
  Be  Be6  1  0.84032734  0.33333659  0.66666702  1
  Be  Be7  1  0.34032734  0.66666341  0.33333298  1
  Sb  Sb8  1  0.51064283  0.00000094  0.00000132  1
  Sb  Sb9  1  0.01064283  0.99999906  0.99999868  1
  S  S10  1  0.71398524  0.16272385  0.25065330  1
  S  S11  1  0.71398341  0.74934734  0.91207196  1
  S  S12  1  0.71398331  0.08793112  0.83727994  1
  S  S13  1  0.21398524  0.83727615  0.74934670  1
  S  S14  1  0.21398341  0.25065266  0.08792804  1
  S  S15  1  0.21398331  0.91206888  0.16272006  1
  S  S16  1  0.97315821  0.11645195  0.52011549  1
  S  S17  1  0.97316234  0.47988126  0.59633191  1
  S  S18  1  0.97316287  0.40366994  0.88354695  1
  S  S19  1  0.47315821  0.88354805  0.47988451  1
  S  S20  1  0.47316234  0.52011874  0.40366809  1
  S  S21  1  0.47316287  0.59633006  0.11645305  1
  S  S22  1  0.49309484  0.33333494  0.66666493  1
  S  S23  1  0.99309484  0.66666506  0.33333507  1
