# generated using pymatgen
data_Eu(SiPt)2
_symmetry_space_group_name_H-M   'P 1'
_cell_length_a   4.26969285
_cell_length_b   4.26511814
_cell_length_c   5.83618586
_cell_angle_alpha   111.39546354
_cell_angle_beta   111.43151173
_cell_angle_gamma   90.18296853
_symmetry_Int_Tables_number   1
_chemical_formula_structural   Eu(SiPt)2
_chemical_formula_sum   'Eu1 Si2 Pt2'
_cell_volume   90.96512590
_cell_formula_units_Z   1
loop_
 _symmetry_equiv_pos_site_id
 _symmetry_equiv_pos_as_xyz
  1  'x, y, z'
loop_
 _atom_site_type_symbol
 _atom_site_label
 _atom_site_symmetry_multiplicity
 _atom_site_fract_x
 _atom_site_fract_y
 _atom_site_fract_z
 _atom_site_occupancy
  Eu  Eu0  1  0.99963468  0.99584507  0.00156866  1
  Si  Si1  1  0.37541433  0.37665459  0.75696952  1
  Si  Si2  1  0.61676641  0.62104054  0.24943019  1
  Pt  Pt3  1  0.74890290  0.24919537  0.50501975  1
  Pt  Pt4  1  0.24138068  0.74920342  0.50064789  1
