# generated using pymatgen
data_Gd2InNi2
_symmetry_space_group_name_H-M   'P 1'
_cell_length_a   3.71568289
_cell_length_b   4.02252877
_cell_length_c   7.48839256
_cell_angle_alpha   105.58003949
_cell_angle_beta   90.00000000
_cell_angle_gamma   90.00000000
_symmetry_Int_Tables_number   1
_chemical_formula_structural   Gd2InNi2
_chemical_formula_sum   'Gd2 In1 Ni2'
_cell_volume   107.81227605
_cell_formula_units_Z   1
loop_
 _symmetry_equiv_pos_site_id
 _symmetry_equiv_pos_as_xyz
  1  'x, y, z'
loop_
 _atom_site_type_symbol
 _atom_site_label
 _atom_site_symmetry_multiplicity
 _atom_site_fract_x
 _atom_site_fract_y
 _atom_site_fract_z
 _atom_site_occupancy
  Gd  Gd0  1  0.50000000  0.63768368  0.27536735  1
  Gd  Gd1  1  0.50000000  0.36231632  0.72463265  1
  In  In2  1  0.00000000  0.00000000  -0.00000000  1
  Ni  Ni3  1  0.00000000  0.80071794  0.60143589  1
  Ni  Ni4  1  0.00000000  0.19928206  0.39856411  1
