# generated using pymatgen
data_GdZn2
_symmetry_space_group_name_H-M   'P 1'
_cell_length_a   4.55110416
_cell_length_b   5.70916639
_cell_length_c   5.70916639
_cell_angle_alpha   78.11959964
_cell_angle_beta   66.51064951
_cell_angle_gamma   66.51064951
_symmetry_Int_Tables_number   1
_chemical_formula_structural   GdZn2
_chemical_formula_sum   'Gd2 Zn4'
_cell_volume   124.58012253
_cell_formula_units_Z   2
loop_
 _symmetry_equiv_pos_site_id
 _symmetry_equiv_pos_as_xyz
  1  'x, y, z'
loop_
 _atom_site_type_symbol
 _atom_site_label
 _atom_site_symmetry_multiplicity
 _atom_site_fract_x
 _atom_site_fract_y
 _atom_site_fract_z
 _atom_site_occupancy
  Gd  Gd0  1  0.52992914  0.72007086  0.22007086  1
  Gd  Gd1  1  0.47007086  0.27992914  0.77992914  1
  Zn  Zn2  1  0.16613941  0.28993338  0.37778780  1
  Zn  Zn3  1  0.83386059  0.71006662  0.62221220  1
  Zn  Zn4  1  0.83386059  0.12221220  0.21006662  1
  Zn  Zn5  1  0.16613941  0.87778780  0.78993338  1
