# generated using pymatgen
data_Sb4BrO6
_symmetry_space_group_name_H-M   'P 1'
_cell_length_a   4.13872688
_cell_length_b   9.80371297
_cell_length_c   10.86514624
_cell_angle_alpha   108.86644883
_cell_angle_beta   90.00000000
_cell_angle_gamma   102.18562483
_symmetry_Int_Tables_number   1
_chemical_formula_structural   Sb4BrO6
_chemical_formula_sum   'Sb8 Br2 O12'
_cell_volume   406.65628310
_cell_formula_units_Z   2
loop_
 _symmetry_equiv_pos_site_id
 _symmetry_equiv_pos_as_xyz
  1  'x, y, z'
loop_
 _atom_site_type_symbol
 _atom_site_label
 _atom_site_symmetry_multiplicity
 _atom_site_fract_x
 _atom_site_fract_y
 _atom_site_fract_z
 _atom_site_occupancy
  Sb  Sb0  1  0.26694789  0.53389579  0.17617357  1
  Sb  Sb1  1  0.73305211  0.46610421  0.82382643  1
  Sb  Sb2  1  0.49705747  0.99411493  0.28338674  1
  Sb  Sb3  1  0.50294253  0.00588507  0.71661326  1
  Sb  Sb4  1  0.07927228  0.15854457  0.97632098  1
  Sb  Sb5  1  0.92072772  0.84145543  0.02367902  1
  Sb  Sb6  1  0.30997767  0.61995533  0.65424558  1
  Sb  Sb7  1  0.69002233  0.38004467  0.34575442  1
  Br  Br8  1  0.10854992  0.21709984  0.51568547  1
  Br  Br9  1  0.89145008  0.78290016  0.48431453  1
  O  O10  1  0.26563432  0.53126865  0.80133061  1
  O  O11  1  0.73436568  0.46873135  0.19866939  1
  O  O12  1  0.03218603  0.06437206  0.78032564  1
  O  O13  1  0.96781397  0.93562794  0.21967436  1
  O  O14  1  0.43002088  0.86004177  0.08513166  1
  O  O15  1  0.56997912  0.13995823  0.91486834  1
  O  O16  1  0.20336025  0.40672050  0.29704039  1
  O  O17  1  0.79663975  0.59327950  0.70295961  1
  O  O18  1  0.18625686  0.37251372  -0.00007198  1
  O  O19  1  0.81374314  0.62748628  0.00007198  1
  O  O20  1  0.41480001  0.82960002  0.77673136  1
  O  O21  1  0.58519999  0.17039998  0.22326864  1
