# generated using pymatgen
data_YbZnPb
_symmetry_space_group_name_H-M   'P 1'
_cell_length_a   4.75571930
_cell_length_b   4.75571930
_cell_length_c   7.57823992
_cell_angle_alpha   90.00000000
_cell_angle_beta   90.00000000
_cell_angle_gamma   119.98646965
_symmetry_Int_Tables_number   1
_chemical_formula_structural   YbZnPb
_chemical_formula_sum   'Yb2 Zn2 Pb2'
_cell_volume   148.45355547
_cell_formula_units_Z   2
loop_
 _symmetry_equiv_pos_site_id
 _symmetry_equiv_pos_as_xyz
  1  'x, y, z'
loop_
 _atom_site_type_symbol
 _atom_site_label
 _atom_site_symmetry_multiplicity
 _atom_site_fract_x
 _atom_site_fract_y
 _atom_site_fract_z
 _atom_site_occupancy
  Yb  Yb0  1  0.99997149  0.00002851  0.25766228  1
  Yb  Yb1  1  0.00002851  0.99997149  0.75766228  1
  Zn  Zn2  1  0.33329511  0.66670489  0.44147387  1
  Zn  Zn3  1  0.66670489  0.33329511  0.94147387  1
  Pb  Pb4  1  0.33332055  0.66667945  0.04186385  1
  Pb  Pb5  1  0.66667945  0.33332055  0.54186385  1
