# generated using pymatgen
data_NdMgSn
_symmetry_space_group_name_H-M   'P 1'
_cell_length_a   4.51672191
_cell_length_b   4.51672191
_cell_length_c   8.71845387
_cell_angle_alpha   105.01264865
_cell_angle_beta   105.01264865
_cell_angle_gamma   90.00000000
_symmetry_Int_Tables_number   1
_chemical_formula_structural   NdMgSn
_chemical_formula_sum   'Nd2 Mg2 Sn2'
_cell_volume   165.49928160
_cell_formula_units_Z   2
loop_
 _symmetry_equiv_pos_site_id
 _symmetry_equiv_pos_as_xyz
  1  'x, y, z'
loop_
 _atom_site_type_symbol
 _atom_site_label
 _atom_site_symmetry_multiplicity
 _atom_site_fract_x
 _atom_site_fract_y
 _atom_site_fract_z
 _atom_site_occupancy
  Nd  Nd0  1  0.66435481  0.66435481  0.32870961  1
  Nd  Nd1  1  0.33564519  0.33564519  0.67129039  1
  Mg  Mg2  1  0.50000000  -0.00000000  -0.00000000  1
  Mg  Mg3  1  0.00000000  0.50000000  -0.00000000  1
  Sn  Sn4  1  0.86687922  0.86687922  0.73375843  1
  Sn  Sn5  1  0.13312078  0.13312078  0.26624157  1
