# generated using pymatgen
data_TmSn2
_symmetry_space_group_name_H-M   'P 1'
_cell_length_a   4.34792455
_cell_length_b   4.39604753
_cell_length_c   8.39796162
_cell_angle_alpha   105.17291762
_cell_angle_beta   90.00000000
_cell_angle_gamma   90.00000000
_symmetry_Int_Tables_number   1
_chemical_formula_structural   TmSn2
_chemical_formula_sum   'Tm2 Sn4'
_cell_volume   154.92044003
_cell_formula_units_Z   2
loop_
 _symmetry_equiv_pos_site_id
 _symmetry_equiv_pos_as_xyz
  1  'x, y, z'
loop_
 _atom_site_type_symbol
 _atom_site_label
 _atom_site_symmetry_multiplicity
 _atom_site_fract_x
 _atom_site_fract_y
 _atom_site_fract_z
 _atom_site_occupancy
  Tm  Tm0  1  0.75000000  0.09870396  0.19740792  1
  Tm  Tm1  1  0.25000000  0.90129604  0.80259208  1
  Sn  Sn2  1  0.75000000  0.43593407  0.87186813  1
  Sn  Sn3  1  0.25000000  0.56406593  0.12813187  1
  Sn  Sn4  1  0.75000000  0.74948346  0.49896691  1
  Sn  Sn5  1  0.25000000  0.25051654  0.50103309  1
