# generated using pymatgen
data_TaNiB
_symmetry_space_group_name_H-M   'P 1'
_cell_length_a   3.05598274
_cell_length_b   3.29574272
_cell_length_c   6.84661921
_cell_angle_alpha   103.92691118
_cell_angle_beta   90.00000000
_cell_angle_gamma   90.00000000
_symmetry_Int_Tables_number   1
_chemical_formula_structural   TaNiB
_chemical_formula_sum   'Ta2 Ni2 B2'
_cell_volume   66.93021882
_cell_formula_units_Z   2
loop_
 _symmetry_equiv_pos_site_id
 _symmetry_equiv_pos_as_xyz
  1  'x, y, z'
loop_
 _atom_site_type_symbol
 _atom_site_label
 _atom_site_symmetry_multiplicity
 _atom_site_fract_x
 _atom_site_fract_y
 _atom_site_fract_z
 _atom_site_occupancy
  Ta  Ta0  1  0.75000000  0.09853904  0.19707808  1
  Ta  Ta1  1  0.25000000  0.90146096  0.80292192  1
  Ni  Ni2  1  0.75000000  0.29608875  0.59217750  1
  Ni  Ni3  1  0.25000000  0.70391125  0.40782250  1
  B  B4  1  0.75000000  0.46491394  0.92982789  1
  B  B5  1  0.25000000  0.53508606  0.07017211  1
