# generated using pymatgen
data_TmCuSn
_symmetry_space_group_name_H-M   'P 1'
_cell_length_a   4.49722481
_cell_length_b   4.49722481
_cell_length_c   7.23002093
_cell_angle_alpha   90.00000000
_cell_angle_beta   90.00000000
_cell_angle_gamma   119.99947497
_symmetry_Int_Tables_number   1
_chemical_formula_structural   TmCuSn
_chemical_formula_sum   'Tm2 Cu2 Sn2'
_cell_volume   126.63731088
_cell_formula_units_Z   2
loop_
 _symmetry_equiv_pos_site_id
 _symmetry_equiv_pos_as_xyz
  1  'x, y, z'
loop_
 _atom_site_type_symbol
 _atom_site_label
 _atom_site_symmetry_multiplicity
 _atom_site_fract_x
 _atom_site_fract_y
 _atom_site_fract_z
 _atom_site_occupancy
  Tm  Tm0  1  -0.00000000  0.00000000  0.50000000  1
  Tm  Tm1  1  -0.00000000  0.00000000  0.00000000  1
  Cu  Cu2  1  0.66669238  0.33330762  0.75000000  1
  Cu  Cu3  1  0.33330762  0.66669238  0.25000000  1
  Sn  Sn4  1  0.66668114  0.33331886  0.25000000  1
  Sn  Sn5  1  0.33331886  0.66668114  0.75000000  1
