# generated using pymatgen
data_KPtS2O9
_symmetry_space_group_name_H-M   'P 1'
_cell_length_a   7.61786657
_cell_length_b   7.70853956
_cell_length_c   7.77905746
_cell_angle_alpha   102.06137336
_cell_angle_beta   112.13732076
_cell_angle_gamma   99.29205267
_symmetry_Int_Tables_number   1
_chemical_formula_structural   KPtS2O9
_chemical_formula_sum   'K2 Pt2 S4 O18'
_cell_volume   398.97741380
_cell_formula_units_Z   2
loop_
 _symmetry_equiv_pos_site_id
 _symmetry_equiv_pos_as_xyz
  1  'x, y, z'
loop_
 _atom_site_type_symbol
 _atom_site_label
 _atom_site_symmetry_multiplicity
 _atom_site_fract_x
 _atom_site_fract_y
 _atom_site_fract_z
 _atom_site_occupancy
  K  K0  1  0.78479815  0.04349246  0.28318283  1
  K  K1  1  0.21520185  0.95650754  0.71681717  1
  Pt  Pt2  1  0.86422389  0.54878785  0.87373083  1
  Pt  Pt3  1  0.13577611  0.45121215  0.12626917  1
  S  S4  1  0.77072247  0.12654125  0.82498436  1
  S  S5  1  0.22927753  0.87345875  0.17501564  1
  S  S6  1  0.81281405  0.55537848  0.25712916  1
  S  S7  1  0.18718595  0.44462152  0.74287084  1
  O  O8  1  0.68277246  0.29165071  0.79136359  1
  O  O9  1  0.31722754  0.70834929  0.20863641  1
  O  O10  1  0.05611054  0.80155796  0.96600871  1
  O  O11  1  0.94388946  0.19844204  0.03399129  1
  O  O12  1  0.62275960  0.99408254  0.84008755  1
  O  O13  1  0.37724040  0.00591746  0.15991245  1
  O  O14  1  0.84090061  0.06212116  0.68128659  1
  O  O15  1  0.15909939  0.93787884  0.31871341  1
  O  O16  1  0.76617591  0.63297279  0.07878873  1
  O  O17  1  0.23382409  0.36702721  0.92121127  1
  O  O18  1  0.96922261  0.45553793  0.67731844  1
  O  O19  1  0.03077739  0.54446207  0.32268156  1
  O  O20  1  0.68332427  0.37569548  0.20745895  1
  O  O21  1  0.31667573  0.62430452  0.79254105  1
  O  O22  1  0.81420740  0.70152535  0.40929658  1
  O  O23  1  0.18579260  0.29847465  0.59070342  1
  O  O24  1  0.66056760  0.62074215  0.68054597  1
  O  O25  1  0.33943240  0.37925785  0.31945403  1
