# generated using pymatgen
data_GdCoSi
_symmetry_space_group_name_H-M   'P 1'
_cell_length_a   3.95469932
_cell_length_b   3.95469932
_cell_length_c   6.84219547
_cell_angle_alpha   90.00000000
_cell_angle_beta   90.00000000
_cell_angle_gamma   90.00000000
_symmetry_Int_Tables_number   1
_chemical_formula_structural   GdCoSi
_chemical_formula_sum   'Gd2 Co2 Si2'
_cell_volume   107.00951988
_cell_formula_units_Z   2
loop_
 _symmetry_equiv_pos_site_id
 _symmetry_equiv_pos_as_xyz
  1  'x, y, z'
loop_
 _atom_site_type_symbol
 _atom_site_label
 _atom_site_symmetry_multiplicity
 _atom_site_fract_x
 _atom_site_fract_y
 _atom_site_fract_z
 _atom_site_occupancy
  Gd  Gd0  1  0.75000000  0.75000000  0.31975480  1
  Gd  Gd1  1  0.25000000  0.25000000  0.68024520  1
  Co  Co2  1  0.75000000  0.25000000  0.00000000  1
  Co  Co3  1  0.25000000  0.75000000  0.00000000  1
  Si  Si4  1  0.75000000  0.75000000  0.81645779  1
  Si  Si5  1  0.25000000  0.25000000  0.18354221  1
