# generated using pymatgen
data_YbSnHg
_symmetry_space_group_name_H-M   'P 1'
_cell_length_a   4.87275627
_cell_length_b   4.87275627
_cell_length_c   7.70656028
_cell_angle_alpha   90.00000000
_cell_angle_beta   90.00000000
_cell_angle_gamma   119.99589428
_symmetry_Int_Tables_number   1
_chemical_formula_structural   YbSnHg
_chemical_formula_sum   'Yb2 Sn2 Hg2'
_cell_volume   158.47419543
_cell_formula_units_Z   2
loop_
 _symmetry_equiv_pos_site_id
 _symmetry_equiv_pos_as_xyz
  1  'x, y, z'
loop_
 _atom_site_type_symbol
 _atom_site_label
 _atom_site_symmetry_multiplicity
 _atom_site_fract_x
 _atom_site_fract_y
 _atom_site_fract_z
 _atom_site_occupancy
  Yb  Yb0  1  0.99998704  0.00001296  0.25135154  1
  Yb  Yb1  1  0.00001296  0.99998704  0.75135154  1
  Sn  Sn2  1  0.33330710  0.66669290  0.03890474  1
  Sn  Sn3  1  0.66669290  0.33330710  0.53890474  1
  Hg  Hg4  1  0.33332716  0.66667284  0.43974372  1
  Hg  Hg5  1  0.66667284  0.33332716  0.93974372  1
