# generated using pymatgen
data_UAsP
_symmetry_space_group_name_H-M   'P 1'
_cell_length_a   3.85550870
_cell_length_b   3.85550870
_cell_length_c   7.94938925
_cell_angle_alpha   90.00000000
_cell_angle_beta   90.00000000
_cell_angle_gamma   90.00000000
_symmetry_Int_Tables_number   1
_chemical_formula_structural   UAsP
_chemical_formula_sum   'U2 As2 P2'
_cell_volume   118.16725255
_cell_formula_units_Z   2
loop_
 _symmetry_equiv_pos_site_id
 _symmetry_equiv_pos_as_xyz
  1  'x, y, z'
loop_
 _atom_site_type_symbol
 _atom_site_label
 _atom_site_symmetry_multiplicity
 _atom_site_fract_x
 _atom_site_fract_y
 _atom_site_fract_z
 _atom_site_occupancy
  U  U0  1  0.75000000  0.75000000  0.70418343  1
  U  U1  1  0.25000000  0.25000000  0.29581657  1
  As  As2  1  0.75000000  0.25000000  -0.00000000  1
  As  As3  1  0.25000000  0.75000000  -0.00000000  1
  P  P4  1  0.75000000  0.75000000  0.35558307  1
  P  P5  1  0.25000000  0.25000000  0.64441693  1
