# generated using pymatgen
data_LuGa2
_symmetry_space_group_name_H-M   'P 1'
_cell_length_a   4.22197822
_cell_length_b   5.71252400
_cell_length_c   5.71252400
_cell_angle_alpha   73.42270394
_cell_angle_beta   68.31293288
_cell_angle_gamma   68.31293288
_symmetry_Int_Tables_number   1
_chemical_formula_structural   LuGa2
_chemical_formula_sum   'Lu2 Ga4'
_cell_volume   117.18258850
_cell_formula_units_Z   2
loop_
 _symmetry_equiv_pos_site_id
 _symmetry_equiv_pos_as_xyz
  1  'x, y, z'
loop_
 _atom_site_type_symbol
 _atom_site_label
 _atom_site_symmetry_multiplicity
 _atom_site_fract_x
 _atom_site_fract_y
 _atom_site_fract_z
 _atom_site_occupancy
  Lu  Lu0  1  0.56078725  0.68921275  0.18921275  1
  Lu  Lu1  1  0.43921275  0.31078725  0.81078725  1
  Ga  Ga2  1  0.16011448  0.28848709  0.39128395  1
  Ga  Ga3  1  0.83988552  0.71151291  0.60871605  1
  Ga  Ga4  1  0.83988552  0.10871605  0.21151291  1
  Ga  Ga5  1  0.16011448  0.89128395  0.78848709  1
