# generated using pymatgen
data_NbP2
_symmetry_space_group_name_H-M   'P 1'
_cell_length_a   3.29253082
_cell_length_b   4.75081251
_cell_length_c   6.86523629
_cell_angle_alpha   78.99577776
_cell_angle_beta   76.12542533
_cell_angle_gamma   69.72521933
_symmetry_Int_Tables_number   1
_chemical_formula_structural   NbP2
_chemical_formula_sum   'Nb2 P4'
_cell_volume   97.10729883
_cell_formula_units_Z   2
loop_
 _symmetry_equiv_pos_site_id
 _symmetry_equiv_pos_as_xyz
  1  'x, y, z'
loop_
 _atom_site_type_symbol
 _atom_site_label
 _atom_site_symmetry_multiplicity
 _atom_site_fract_x
 _atom_site_fract_y
 _atom_site_fract_z
 _atom_site_occupancy
  Nb  Nb0  1  0.16036566  0.87989904  0.79936964  1
  Nb  Nb1  1  0.83963434  0.12010096  0.20063036  1
  P  P2  1  0.40442569  0.29285754  0.89829107  1
  P  P3  1  0.59557431  0.70714246  0.10170893  1
  P  P4  1  0.86658430  0.74075071  0.52608070  1
  P  P5  1  0.13341570  0.25924929  0.47391930  1
