# generated using pymatgen
data_SmSiPt
_symmetry_space_group_name_H-M   'P 1'
_cell_length_a   4.17936216
_cell_length_b   4.17936216
_cell_length_c   7.81872244
_cell_angle_alpha   105.50166466
_cell_angle_beta   105.50166466
_cell_angle_gamma   90.00000000
_symmetry_Int_Tables_number   1
_chemical_formula_structural   SmSiPt
_chemical_formula_sum   'Sm2 Si2 Pt2'
_cell_volume   126.43899188
_cell_formula_units_Z   2
loop_
 _symmetry_equiv_pos_site_id
 _symmetry_equiv_pos_as_xyz
  1  'x, y, z'
loop_
 _atom_site_type_symbol
 _atom_site_label
 _atom_site_symmetry_multiplicity
 _atom_site_fract_x
 _atom_site_fract_y
 _atom_site_fract_z
 _atom_site_occupancy
  Sm  Sm0  1  0.25232400  0.75232400  0.50464801  1
  Sm  Sm1  1  0.00232400  0.00232400  0.00464801  1
  Si  Si2  1  0.83251480  0.33251480  0.66502959  1
  Si  Si3  1  0.58251480  0.58251480  0.16502959  1
  Pt  Pt4  1  0.66516120  0.16516120  0.33032240  1
  Pt  Pt5  1  0.41516120  0.41516120  0.83032240  1
