# generated using pymatgen
data_ThSiS
_symmetry_space_group_name_H-M   'P 1'
_cell_length_a   3.90443269
_cell_length_b   3.90443269
_cell_length_c   9.03070464
_cell_angle_alpha   102.48449562
_cell_angle_beta   102.48449562
_cell_angle_gamma   90.00000000
_symmetry_Int_Tables_number   1
_chemical_formula_structural   ThSiS
_chemical_formula_sum   'Th2 Si2 S2'
_cell_volume   131.07809987
_cell_formula_units_Z   2
loop_
 _symmetry_equiv_pos_site_id
 _symmetry_equiv_pos_as_xyz
  1  'x, y, z'
loop_
 _atom_site_type_symbol
 _atom_site_label
 _atom_site_symmetry_multiplicity
 _atom_site_fract_x
 _atom_site_fract_y
 _atom_site_fract_z
 _atom_site_occupancy
  Th  Th0  1  0.86259917  0.86259917  0.72519834  1
  Th  Th1  1  0.13740083  0.13740083  0.27480166  1
  Si  Si2  1  0.50000000  0.00000000  -0.00000000  1
  Si  Si3  1  0.00000000  0.50000000  -0.00000000  1
  S  S4  1  0.68715243  0.68715243  0.37430486  1
  S  S5  1  0.31284757  0.31284757  0.62569514  1
