# generated using pymatgen
data_Ce4CoS7
_symmetry_space_group_name_H-M   'P 1'
_cell_length_a   7.10341403
_cell_length_b   9.54150152
_cell_length_c   9.52689020
_cell_angle_alpha   120.21240689
_cell_angle_beta   90.00000000
_cell_angle_gamma   90.00000000
_symmetry_Int_Tables_number   1
_chemical_formula_structural   Ce4CoS7
_chemical_formula_sum   'Ce8 Co2 S14'
_cell_volume   557.99732373
_cell_formula_units_Z   2
loop_
 _symmetry_equiv_pos_site_id
 _symmetry_equiv_pos_as_xyz
  1  'x, y, z'
loop_
 _atom_site_type_symbol
 _atom_site_label
 _atom_site_symmetry_multiplicity
 _atom_site_fract_x
 _atom_site_fract_y
 _atom_site_fract_z
 _atom_site_occupancy
  Ce  Ce0  1  0.26754443  0.19322974  0.35981915  1
  Ce  Ce1  1  0.26509563  0.63769704  0.83343463  1
  Ce  Ce2  1  0.26179466  0.16875343  0.80358024  1
  Ce  Ce3  1  0.76754443  0.80677026  0.64018085  1
  Ce  Ce4  1  0.76509563  0.36230296  0.16656537  1
  Ce  Ce5  1  0.76179466  0.83124657  0.19641976  1
  Ce  Ce6  1  0.79317357  0.33685984  0.65395503  1
  Ce  Ce7  1  0.29317357  0.66314016  0.34604497  1
  Co  Co8  1  0.61263453  -0.00096785  0.00260719  1
  Co  Co9  1  0.11263453  0.00096785  0.99739281  1
  S  S10  1  0.65864564  0.14085607  0.26779721  1
  S  S11  1  0.65528289  0.73378334  0.87547788  1
  S  S12  1  0.65109783  0.12255672  0.86283680  1
  S  S13  1  0.15864564  0.85914393  0.73220279  1
  S  S14  1  0.15528289  0.26621666  0.12452212  1
  S  S15  1  0.15109783  0.87744328  0.13716320  1
  S  S16  1  0.02142665  0.07632120  0.52628049  1
  S  S17  1  0.03245510  0.47396796  0.54163205  1
  S  S18  1  0.01733508  0.45215713  0.91836998  1
  S  S19  1  0.52142665  0.92367880  0.47371951  1
  S  S20  1  0.53245510  0.52603204  0.45836795  1
  S  S21  1  0.51733508  0.54784287  0.08163002  1
  S  S22  1  0.41751399  0.33253024  0.66723686  1
  S  S23  1  0.91751399  0.66746976  0.33276314  1
