# generated using pymatgen
data_Eu2BBrN2
_symmetry_space_group_name_H-M   'P 1'
_cell_length_a   4.05954441
_cell_length_b   4.05954441
_cell_length_c   9.21831541
_cell_angle_alpha   77.27986445
_cell_angle_beta   77.27986445
_cell_angle_gamma   60.00001615
_symmetry_Int_Tables_number   1
_chemical_formula_structural   Eu2BBrN2
_chemical_formula_sum   'Eu2 B1 Br1 N2'
_cell_volume   127.24046902
_cell_formula_units_Z   1
loop_
 _symmetry_equiv_pos_site_id
 _symmetry_equiv_pos_as_xyz
  1  'x, y, z'
loop_
 _atom_site_type_symbol
 _atom_site_label
 _atom_site_symmetry_multiplicity
 _atom_site_fract_x
 _atom_site_fract_y
 _atom_site_fract_z
 _atom_site_occupancy
  Eu  Eu0  1  0.24816888  0.24816888  0.25549336  1
  Eu  Eu1  1  0.75183112  0.75183112  0.74450664  1
  B  B2  1  0.50000000  0.50000000  0.50000000  1
  Br  Br3  1  0.00000000  0.00000000  -0.00000000  1
  N  N4  1  0.44936042  0.44936042  0.65191875  1
  N  N5  1  0.55063958  0.55063958  0.34808125  1
