# generated using pymatgen
data_AlH8C3NCl2
_symmetry_space_group_name_H-M   'P 1'
_cell_length_a   7.72663837
_cell_length_b   8.14007463
_cell_length_c   8.84835616
_cell_angle_alpha   90.03241703
_cell_angle_beta   64.76788128
_cell_angle_gamma   68.08843195
_symmetry_Int_Tables_number   1
_chemical_formula_structural   AlH8C3NCl2
_chemical_formula_sum   'Al2 H16 C6 N2 Cl4'
_cell_volume   458.52734466
_cell_formula_units_Z   2
loop_
 _symmetry_equiv_pos_site_id
 _symmetry_equiv_pos_as_xyz
  1  'x, y, z'
loop_
 _atom_site_type_symbol
 _atom_site_label
 _atom_site_symmetry_multiplicity
 _atom_site_fract_x
 _atom_site_fract_y
 _atom_site_fract_z
 _atom_site_occupancy
  Al  Al0  1  0.55609585  0.12572871  0.90661721  1
  Al  Al1  1  0.44390415  0.87427129  0.09338279  1
  H  H2  1  0.41100341  0.89181195  0.76837662  1
  H  H3  1  0.58899659  0.10818805  0.23162338  1
  H  H4  1  0.67084766  0.82672811  0.60443282  1
  H  H5  1  0.32915234  0.17327189  0.39556718  1
  H  H6  1  0.60277245  0.66742566  0.72855732  1
  H  H7  1  0.39722755  0.33257434  0.27144268  1
  H  H8  1  0.90195292  0.78371060  0.90322579  1
  H  H9  1  0.09804708  0.21628940  0.09677421  1
  H  H10  1  0.87231181  0.60624495  0.81579658  1
  H  H11  1  0.12768819  0.39375505  0.18420342  1
  H  H12  1  0.18025513  0.66141671  0.61095489  1
  H  H13  1  0.81974487  0.33858329  0.38904511  1
  H  H14  1  0.00145983  0.68934481  0.52863696  1
  H  H15  1  0.99854017  0.31065519  0.47136304  1
  H  H16  1  0.01079519  0.88222309  0.61493668  1
  H  H17  1  0.98920481  0.11777691  0.38506332  1
  C  C18  1  0.57693013  0.81016586  0.73232633  1
  C  C19  1  0.42306987  0.18983414  0.26767367  1
  C  C20  1  0.86263507  0.74442067  0.80748098  1
  C  C21  1  0.13736493  0.25557933  0.19251902  1
  C  C22  1  0.02084276  0.74521624  0.63027301  1
  C  C23  1  0.97915724  0.25478376  0.36972699  1
  N  N24  1  0.63697994  0.86585230  0.85686724  1
  N  N25  1  0.36302006  0.13414770  0.14313276  1
  Cl  Cl26  1  0.39860038  0.27046252  0.76919844  1
  Cl  Cl27  1  0.60139962  0.72953748  0.23080156  1
  Cl  Cl28  1  0.80090493  0.19812320  0.89041885  1
  Cl  Cl29  1  0.19909507  0.80187680  0.10958115  1
