# generated using pymatgen
data_Li3GdBi2
_symmetry_space_group_name_H-M   'P 1'
_cell_length_a   4.69552683
_cell_length_b   4.69515709
_cell_length_c   7.36652979
_cell_angle_alpha   90.00000002
_cell_angle_beta   89.99522938
_cell_angle_gamma   119.99739987
_symmetry_Int_Tables_number   1
_chemical_formula_structural   Li3GdBi2
_chemical_formula_sum   'Li3 Gd1 Bi2'
_cell_volume   140.64989449
_cell_formula_units_Z   1
loop_
 _symmetry_equiv_pos_site_id
 _symmetry_equiv_pos_as_xyz
  1  'x, y, z'
loop_
 _atom_site_type_symbol
 _atom_site_label
 _atom_site_symmetry_multiplicity
 _atom_site_fract_x
 _atom_site_fract_y
 _atom_site_fract_z
 _atom_site_occupancy
  Li  Li0  1  0.00000000  -0.00000000  0.50000000  1
  Li  Li1  1  0.33334586  0.66667293  0.35005698  1
  Li  Li2  1  0.66665414  0.33332707  0.64994302  1
  Gd  Gd3  1  0.00000000  -0.00000000  -0.00000000  1
  Bi  Bi4  1  0.33332816  0.66666408  0.75215541  1
  Bi  Bi5  1  0.66667184  0.33333592  0.24784459  1
