# generated using pymatgen
data_HfCuGe
_symmetry_space_group_name_H-M   'P 1'
_cell_length_a   3.78531156
_cell_length_b   3.78531156
_cell_length_c   7.29002286
_cell_angle_alpha   105.04767862
_cell_angle_beta   105.04767862
_cell_angle_gamma   90.00000000
_symmetry_Int_Tables_number   1
_chemical_formula_structural   HfCuGe
_chemical_formula_sum   'Hf2 Cu2 Ge2'
_cell_volume   97.16020311
_cell_formula_units_Z   2
loop_
 _symmetry_equiv_pos_site_id
 _symmetry_equiv_pos_as_xyz
  1  'x, y, z'
loop_
 _atom_site_type_symbol
 _atom_site_label
 _atom_site_symmetry_multiplicity
 _atom_site_fract_x
 _atom_site_fract_y
 _atom_site_fract_z
 _atom_site_occupancy
  Hf  Hf0  1  0.32965525  0.32965525  0.65931050  1
  Hf  Hf1  1  0.67034475  0.67034475  0.34068950  1
  Cu  Cu2  1  0.50000000  -0.00000000  0.00000000  1
  Cu  Cu3  1  -0.00000000  0.50000000  0.00000000  1
  Ge  Ge4  1  0.12696375  0.12696375  0.25392750  1
  Ge  Ge5  1  0.87303625  0.87303625  0.74607250  1
