# generated using pymatgen
data_NdScSb
_symmetry_space_group_name_H-M   'P 1'
_cell_length_a   4.47059285
_cell_length_b   4.47059285
_cell_length_c   8.82755006
_cell_angle_alpha   104.66802769
_cell_angle_beta   104.66802769
_cell_angle_gamma   90.00000000
_symmetry_Int_Tables_number   1
_chemical_formula_structural   NdScSb
_chemical_formula_sum   'Nd2 Sc2 Sb2'
_cell_volume   164.72866549
_cell_formula_units_Z   2
loop_
 _symmetry_equiv_pos_site_id
 _symmetry_equiv_pos_as_xyz
  1  'x, y, z'
loop_
 _atom_site_type_symbol
 _atom_site_label
 _atom_site_symmetry_multiplicity
 _atom_site_fract_x
 _atom_site_fract_y
 _atom_site_fract_z
 _atom_site_occupancy
  Nd  Nd0  1  0.82480777  0.82480777  0.64961554  1
  Nd  Nd1  1  0.17519223  0.17519223  0.35038446  1
  Sc  Sc2  1  0.50000000  -0.00000000  -0.00000000  1
  Sc  Sc3  1  -0.00000000  0.50000000  -0.00000000  1
  Sb  Sb4  1  0.62626849  0.62626849  0.25253697  1
  Sb  Sb5  1  0.37373151  0.37373151  0.74746303  1
