# generated using pymatgen
data_YbBiAu
_symmetry_space_group_name_H-M   'P 1'
_cell_length_a   4.84393802
_cell_length_b   4.84393802
_cell_length_c   7.79485068
_cell_angle_alpha   90.00000000
_cell_angle_beta   90.00000000
_cell_angle_gamma   120.13652689
_symmetry_Int_Tables_number   1
_chemical_formula_structural   YbBiAu
_chemical_formula_sum   'Yb2 Bi2 Au2'
_cell_volume   158.17449897
_cell_formula_units_Z   2
loop_
 _symmetry_equiv_pos_site_id
 _symmetry_equiv_pos_as_xyz
  1  'x, y, z'
loop_
 _atom_site_type_symbol
 _atom_site_label
 _atom_site_symmetry_multiplicity
 _atom_site_fract_x
 _atom_site_fract_y
 _atom_site_fract_z
 _atom_site_occupancy
  Yb  Yb0  1  0.00112142  0.99887858  0.26074075  1
  Yb  Yb1  1  0.99887858  0.00112142  0.76074075  1
  Bi  Bi2  1  0.33366261  0.66633739  0.03833217  1
  Bi  Bi3  1  0.66633739  0.33366261  0.53833217  1
  Au  Au4  1  0.33430161  0.66569839  0.43192708  1
  Au  Au5  1  0.66569839  0.33430161  0.93192708  1
