# generated using pymatgen
data_Cs2U(PO5)2
_symmetry_space_group_name_H-M   'P 1'
_cell_length_a   6.39276468
_cell_length_b   9.34191507
_cell_length_c   10.04484825
_cell_angle_alpha   90.00000000
_cell_angle_beta   97.75610710
_cell_angle_gamma   90.00000000
_symmetry_Int_Tables_number   1
_chemical_formula_structural   Cs2U(PO5)2
_chemical_formula_sum   'Cs4 U2 P4 O20'
_cell_volume   594.39697680
_cell_formula_units_Z   2
loop_
 _symmetry_equiv_pos_site_id
 _symmetry_equiv_pos_as_xyz
  1  'x, y, z'
loop_
 _atom_site_type_symbol
 _atom_site_label
 _atom_site_symmetry_multiplicity
 _atom_site_fract_x
 _atom_site_fract_y
 _atom_site_fract_z
 _atom_site_occupancy
  Cs  Cs0  1  0.50017844  0.30807080  0.14677585  1
  Cs  Cs1  1  0.49982156  0.80807080  0.35322415  1
  Cs  Cs2  1  0.49982156  0.69192920  0.85322415  1
  Cs  Cs3  1  0.50017844  0.19192920  0.64677585  1
  U  U4  1  0.00000000  0.50000000  0.50000000  1
  U  U5  1  0.00000000  0.00000000  0.00000000  1
  P  P6  1  0.02467524  0.34980611  0.84022908  1
  P  P7  1  0.97532476  0.84980611  0.65977092  1
  P  P8  1  0.97532476  0.65019389  0.15977092  1
  P  P9  1  0.02467524  0.15019389  0.34022908  1
  O  O10  1  0.00033721  0.35640841  0.68292595  1
  O  O11  1  0.99966279  0.85640841  0.81707405  1
  O  O12  1  0.99966279  0.64359159  0.31707405  1
  O  O13  1  0.00033721  0.14359159  0.18292595  1
  O  O14  1  0.09093581  0.30759230  0.38262749  1
  O  O15  1  0.90906419  0.80759230  0.11737251  1
  O  O16  1  0.90906419  0.69240770  0.61737251  1
  O  O17  1  0.09093581  0.19240770  0.88262749  1
  O  O18  1  0.79433141  0.55186542  0.10202522  1
  O  O19  1  0.20566859  0.05186542  0.39797478  1
  O  O20  1  0.20566859  0.44813458  0.89797478  1
  O  O21  1  0.79433141  0.94813458  0.60202522  1
  O  O22  1  0.81119198  0.38507945  0.88476546  1
  O  O23  1  0.18880802  0.88507945  0.61523454  1
  O  O24  1  0.18880802  0.61492055  0.11523454  1
  O  O25  1  0.81119198  0.11492055  0.38476546  1
  O  O26  1  0.72213626  0.46049931  0.44371560  1
  O  O27  1  0.27786374  0.96049931  0.05628440  1
  O  O28  1  0.27786374  0.53950069  0.55628440  1
  O  O29  1  0.72213626  0.03950069  0.94371560  1
