# generated using pymatgen
data_Eu2Fe2O5
_symmetry_space_group_name_H-M   'P 1'
_cell_length_a   5.51194304
_cell_length_b   5.70007466
_cell_length_c   8.74493701
_cell_angle_alpha   109.02054228
_cell_angle_beta   108.36990129
_cell_angle_gamma   90.00000000
_symmetry_Int_Tables_number   1
_chemical_formula_structural   Eu2Fe2O5
_chemical_formula_sum   'Eu4 Fe4 O10'
_cell_volume   244.89462306
_cell_formula_units_Z   2
loop_
 _symmetry_equiv_pos_site_id
 _symmetry_equiv_pos_as_xyz
  1  'x, y, z'
loop_
 _atom_site_type_symbol
 _atom_site_label
 _atom_site_symmetry_multiplicity
 _atom_site_fract_x
 _atom_site_fract_y
 _atom_site_fract_z
 _atom_site_occupancy
  Eu  Eu0  1  0.61398320  0.13092203  0.22407411  1
  Eu  Eu1  1  0.38990909  0.86907797  0.77592589  1
  Eu  Eu2  1  0.11398320  0.59315208  0.22407411  1
  Eu  Eu3  1  0.88990909  0.40684792  0.77592589  1
  Fe  Fe4  1  0.00955554  -0.00000000  0.00000000  1
  Fe  Fe5  1  0.50955554  0.50000000  -0.00000000  1
  Fe  Fe6  1  0.22384988  0.19710209  0.50000000  1
  Fe  Fe7  1  0.72384988  0.80289791  0.50000000  1
  O  O8  1  0.24297158  0.24060090  0.97001628  1
  O  O9  1  0.27295530  0.75939910  0.02998372  1
  O  O10  1  0.74297158  0.22941539  0.97001628  1
  O  O11  1  0.77295530  0.77058461  0.02998372  1
  O  O12  1  0.16567882  0.19700328  0.26427750  1
  O  O13  1  0.90140133  0.80299672  0.73572250  1
  O  O14  1  0.66567882  0.56727421  0.26427750  1
  O  O15  1  0.40140133  0.43272579  0.73572250  1
  O  O16  1  0.84369526  0.15035530  0.50000000  1
  O  O17  1  0.34369526  0.84964470  0.50000000  1
