# generated using pymatgen
data_NdSiPt
_symmetry_space_group_name_H-M   'P 1'
_cell_length_a   4.22186284
_cell_length_b   4.22186284
_cell_length_c   7.83807186
_cell_angle_alpha   105.62366957
_cell_angle_beta   105.62366957
_cell_angle_gamma   90.00000000
_symmetry_Int_Tables_number   1
_chemical_formula_structural   NdSiPt
_chemical_formula_sum   'Nd2 Si2 Pt2'
_cell_volume   129.17672606
_cell_formula_units_Z   2
loop_
 _symmetry_equiv_pos_site_id
 _symmetry_equiv_pos_as_xyz
  1  'x, y, z'
loop_
 _atom_site_type_symbol
 _atom_site_label
 _atom_site_symmetry_multiplicity
 _atom_site_fract_x
 _atom_site_fract_y
 _atom_site_fract_z
 _atom_site_occupancy
  Nd  Nd0  1  0.24907600  0.74907600  0.49815201  1
  Nd  Nd1  1  0.99907600  0.99907600  0.99815201  1
  Si  Si2  1  0.66884780  0.16884780  0.33769560  1
  Si  Si3  1  0.41884780  0.41884780  0.83769560  1
  Pt  Pt4  1  0.83607620  0.33607620  0.67215239  1
  Pt  Pt5  1  0.58607620  0.58607620  0.17215239  1
