# generated using pymatgen
data_LaGeIr
_symmetry_space_group_name_H-M   'P 1'
_cell_length_a   4.33625744
_cell_length_b   4.33625744
_cell_length_c   7.87528648
_cell_angle_alpha   105.98036857
_cell_angle_beta   105.98036857
_cell_angle_gamma   90.00000000
_symmetry_Int_Tables_number   1
_chemical_formula_structural   LaGeIr
_chemical_formula_sum   'La2 Ge2 Ir2'
_cell_volume   136.39537082
_cell_formula_units_Z   2
loop_
 _symmetry_equiv_pos_site_id
 _symmetry_equiv_pos_as_xyz
  1  'x, y, z'
loop_
 _atom_site_type_symbol
 _atom_site_label
 _atom_site_symmetry_multiplicity
 _atom_site_fract_x
 _atom_site_fract_y
 _atom_site_fract_z
 _atom_site_occupancy
  La  La0  1  0.24868866  0.74868866  0.49737732  1
  La  La1  1  0.99868866  0.99868866  0.99737732  1
  Ge  Ge2  1  0.66518225  0.16518225  0.33036450  1
  Ge  Ge3  1  0.41518225  0.41518225  0.83036450  1
  Ir  Ir4  1  0.83412909  0.33412909  0.66825818  1
  Ir  Ir5  1  0.58412909  0.58412909  0.16825818  1
