# generated using pymatgen
data_Sr2BBrN2
_symmetry_space_group_name_H-M   'P 1'
_cell_length_a   4.14919839
_cell_length_b   4.14919839
_cell_length_c   9.21272321
_cell_angle_alpha   76.98603806
_cell_angle_beta   76.98603806
_cell_angle_gamma   60.00001487
_symmetry_Int_Tables_number   1
_chemical_formula_structural   Sr2BBrN2
_chemical_formula_sum   'Sr2 B1 Br1 N2'
_cell_volume   132.63104496
_cell_formula_units_Z   1
loop_
 _symmetry_equiv_pos_site_id
 _symmetry_equiv_pos_as_xyz
  1  'x, y, z'
loop_
 _atom_site_type_symbol
 _atom_site_label
 _atom_site_symmetry_multiplicity
 _atom_site_fract_x
 _atom_site_fract_y
 _atom_site_fract_z
 _atom_site_occupancy
  Sr  Sr0  1  0.24783524  0.24783524  0.25649428  1
  Sr  Sr1  1  0.75216476  0.75216476  0.74350572  1
  B  B2  1  0.50000000  0.50000000  0.50000000  1
  Br  Br3  1  0.00000000  0.00000000  0.00000000  1
  N  N4  1  0.44942194  0.44942194  0.65173418  1
  N  N5  1  0.55057806  0.55057806  0.34826582  1
