# generated using pymatgen
data_HoSnGe
_symmetry_space_group_name_H-M   'P 1'
_cell_length_a   4.09493653
_cell_length_b   4.26044129
_cell_length_c   8.39192215
_cell_angle_alpha   104.70496337
_cell_angle_beta   90.00000000
_cell_angle_gamma   90.00000000
_symmetry_Int_Tables_number   1
_chemical_formula_structural   HoSnGe
_chemical_formula_sum   'Ho2 Sn2 Ge2'
_cell_volume   141.61199588
_cell_formula_units_Z   2
loop_
 _symmetry_equiv_pos_site_id
 _symmetry_equiv_pos_as_xyz
  1  'x, y, z'
loop_
 _atom_site_type_symbol
 _atom_site_label
 _atom_site_symmetry_multiplicity
 _atom_site_fract_x
 _atom_site_fract_y
 _atom_site_fract_z
 _atom_site_occupancy
  Ho  Ho0  1  0.75000000  0.09388716  0.18777433  1
  Ho  Ho1  1  0.25000000  0.90611284  0.81222567  1
  Sn  Sn2  1  0.75000000  0.74399375  0.48798751  1
  Sn  Sn3  1  0.25000000  0.25600625  0.51201249  1
  Ge  Ge4  1  0.75000000  0.44510684  0.89021368  1
  Ge  Ge5  1  0.25000000  0.55489316  0.10978632  1
