# generated using pymatgen
data_CdPb2(ClO)2
_symmetry_space_group_name_H-M   'P 1'
_cell_length_a   3.89348293
_cell_length_b   6.60843374
_cell_length_c   7.19509196
_cell_angle_alpha   69.07937240
_cell_angle_beta   74.30210176
_cell_angle_gamma   72.86738655
_symmetry_Int_Tables_number   1
_chemical_formula_structural   CdPb2(ClO)2
_chemical_formula_sum   'Cd1 Pb2 Cl2 O2'
_cell_volume   162.38975440
_cell_formula_units_Z   1
loop_
 _symmetry_equiv_pos_site_id
 _symmetry_equiv_pos_as_xyz
  1  'x, y, z'
loop_
 _atom_site_type_symbol
 _atom_site_label
 _atom_site_symmetry_multiplicity
 _atom_site_fract_x
 _atom_site_fract_y
 _atom_site_fract_z
 _atom_site_occupancy
  Cd  Cd0  1  -0.00000000  -0.00000000  0.00000000  1
  Pb  Pb1  1  0.18754316  0.39055841  0.23435527  1
  Pb  Pb2  1  0.81245684  0.60944159  0.76564473  1
  Cl  Cl3  1  0.43471635  0.83468209  0.29588520  1
  Cl  Cl4  1  0.56528365  0.16531791  0.70411480  1
  O  O5  1  0.19279266  0.68167118  0.93274351  1
  O  O6  1  0.80720734  0.31832882  0.06725649  1
