# generated using pymatgen
data_ZrSc2
_symmetry_space_group_name_H-M   'P 1'
_cell_length_a   3.27730821
_cell_length_b   6.15068485
_cell_length_c   7.64783218
_cell_angle_alpha   102.77238955
_cell_angle_beta   90.00000000
_cell_angle_gamma   105.45123684
_symmetry_Int_Tables_number   1
_chemical_formula_structural   ZrSc2
_chemical_formula_sum   'Zr2 Sc4'
_cell_volume   144.62933238
_cell_formula_units_Z   2
loop_
 _symmetry_equiv_pos_site_id
 _symmetry_equiv_pos_as_xyz
  1  'x, y, z'
loop_
 _atom_site_type_symbol
 _atom_site_label
 _atom_site_symmetry_multiplicity
 _atom_site_fract_x
 _atom_site_fract_y
 _atom_site_fract_z
 _atom_site_occupancy
  Zr  Zr0  1  0.47390131  0.94780262  0.19286251  1
  Zr  Zr1  1  0.52609869  0.05219738  0.80713749  1
  Sc  Sc2  1  0.80887081  0.61774162  0.86310936  1
  Sc  Sc3  1  0.19112919  0.38225838  0.13689064  1
  Sc  Sc4  1  0.86681816  0.73363631  0.47384801  1
  Sc  Sc5  1  0.13318184  0.26636369  0.52615199  1
