# generated using pymatgen
data_LaGePt
_symmetry_space_group_name_H-M   'P 1'
_cell_length_a   4.29910359
_cell_length_b   4.29910359
_cell_length_c   8.17121717
_cell_angle_alpha   105.25193778
_cell_angle_beta   105.25193778
_cell_angle_gamma   90.00000000
_symmetry_Int_Tables_number   1
_chemical_formula_structural   LaGePt
_chemical_formula_sum   'La2 Ge2 Pt2'
_cell_volume   140.18260128
_cell_formula_units_Z   2
loop_
 _symmetry_equiv_pos_site_id
 _symmetry_equiv_pos_as_xyz
  1  'x, y, z'
loop_
 _atom_site_type_symbol
 _atom_site_label
 _atom_site_symmetry_multiplicity
 _atom_site_fract_x
 _atom_site_fract_y
 _atom_site_fract_z
 _atom_site_occupancy
  La  La0  1  0.24991295  0.74991295  0.49982589  1
  La  La1  1  0.99991295  0.99991295  0.99982589  1
  Ge  Ge2  1  0.66913717  0.16913717  0.33827434  1
  Ge  Ge3  1  0.41913717  0.41913717  0.83827434  1
  Pt  Pt4  1  0.83494988  0.33494988  0.66989977  1
  Pt  Pt5  1  0.58494988  0.58494988  0.16989977  1
