# generated using pymatgen
data_ScH3(CO2)3
_symmetry_space_group_name_H-M   'P 1'
_cell_length_a   7.24803834
_cell_length_b   7.24803834
_cell_length_c   7.24803872
_cell_angle_alpha   103.80513811
_cell_angle_beta   103.80513811
_cell_angle_gamma   103.80513259
_symmetry_Int_Tables_number   1
_chemical_formula_structural   ScH3(CO2)3
_chemical_formula_sum   'Sc2 H6 C6 O12'
_cell_volume   340.99694260
_cell_formula_units_Z   2
loop_
 _symmetry_equiv_pos_site_id
 _symmetry_equiv_pos_as_xyz
  1  'x, y, z'
loop_
 _atom_site_type_symbol
 _atom_site_label
 _atom_site_symmetry_multiplicity
 _atom_site_fract_x
 _atom_site_fract_y
 _atom_site_fract_z
 _atom_site_occupancy
  Sc  Sc0  1  0.50000000  0.50000000  0.50000000  1
  Sc  Sc1  1  0.00000000  0.00000000  0.00000000  1
  H  H2  1  0.75000000  0.05145364  0.44854636  1
  H  H3  1  0.05145364  0.44854636  0.75000000  1
  H  H4  1  0.44854636  0.75000000  0.05145364  1
  H  H5  1  0.25000000  0.94854636  0.55145364  1
  H  H6  1  0.94854636  0.55145364  0.25000000  1
  H  H7  1  0.55145364  0.25000000  0.94854636  1
  C  C8  1  0.75000000  0.95439337  0.54560663  1
  C  C9  1  0.95439337  0.54560663  0.75000000  1
  C  C10  1  0.54560663  0.75000000  0.95439337  1
  C  C11  1  0.25000000  0.04560663  0.45439337  1
  C  C12  1  0.04560663  0.45439337  0.25000000  1
  C  C13  1  0.45439337  0.25000000  0.04560663  1
  O  O14  1  0.61457636  0.78667997  0.47820614  1
  O  O15  1  0.78667997  0.47820614  0.61457636  1
  O  O16  1  0.47820614  0.61457636  0.78667997  1
  O  O17  1  0.11457636  0.97820614  0.28667997  1
  O  O18  1  0.97820614  0.28667997  0.11457636  1
  O  O19  1  0.28667997  0.11457636  0.97820614  1
  O  O20  1  0.38542364  0.21332003  0.52179386  1
  O  O21  1  0.21332003  0.52179386  0.38542364  1
  O  O22  1  0.52179386  0.38542364  0.21332003  1
  O  O23  1  0.88542364  0.02179386  0.71332003  1
  O  O24  1  0.02179386  0.71332003  0.88542364  1
  O  O25  1  0.71332003  0.88542364  0.02179386  1
