# generated using pymatgen
data_InCo3SnS2
_symmetry_space_group_name_H-M   'P 1'
_cell_length_a   5.31052440
_cell_length_b   5.31052440
_cell_length_c   5.48997579
_cell_angle_alpha   61.07551755
_cell_angle_beta   61.07551755
_cell_angle_gamma   60.00000501
_symmetry_Int_Tables_number   1
_chemical_formula_structural   InCo3SnS2
_chemical_formula_sum   'In1 Co3 Sn1 S2'
_cell_volume   111.22496800
_cell_formula_units_Z   1
loop_
 _symmetry_equiv_pos_site_id
 _symmetry_equiv_pos_as_xyz
  1  'x, y, z'
loop_
 _atom_site_type_symbol
 _atom_site_label
 _atom_site_symmetry_multiplicity
 _atom_site_fract_x
 _atom_site_fract_y
 _atom_site_fract_z
 _atom_site_occupancy
  In  In0  1  0.50000000  0.50000000  0.50000000  1
  Co  Co1  1  0.50000000  0.50000000  0.00000000  1
  Co  Co2  1  0.50000000  -0.00000000  -0.00000000  1
  Co  Co3  1  0.00000000  0.50000000  0.00000000  1
  Sn  Sn4  1  0.00000000  -0.00000000  -0.00000000  1
  S  S5  1  0.22144279  0.22144279  0.33567164  1
  S  S6  1  0.77855721  0.77855721  0.66432836  1
