# generated using pymatgen
data_ThSiNi
_symmetry_space_group_name_H-M   'P 1'
_cell_length_a   4.07582426
_cell_length_b   4.07582426
_cell_length_c   7.56719345
_cell_angle_alpha   105.62313942
_cell_angle_beta   105.62313942
_cell_angle_gamma   90.00000000
_symmetry_Int_Tables_number   1
_chemical_formula_structural   ThSiNi
_chemical_formula_sum   'Th2 Si2 Ni2'
_cell_volume   116.23447742
_cell_formula_units_Z   2
loop_
 _symmetry_equiv_pos_site_id
 _symmetry_equiv_pos_as_xyz
  1  'x, y, z'
loop_
 _atom_site_type_symbol
 _atom_site_label
 _atom_site_symmetry_multiplicity
 _atom_site_fract_x
 _atom_site_fract_y
 _atom_site_fract_z
 _atom_site_occupancy
  Th  Th0  1  0.24920534  0.74920534  0.49841069  1
  Th  Th1  1  0.99920534  0.99920534  0.99841069  1
  Si  Si2  1  0.66831277  0.16831277  0.33662555  1
  Si  Si3  1  0.41831277  0.41831277  0.83662555  1
  Ni  Ni4  1  0.83648188  0.33648188  0.67296377  1
  Ni  Ni5  1  0.58648188  0.58648188  0.17296377  1
