# generated using pymatgen
data_NdFe6Bi(BO3)8
_symmetry_space_group_name_H-M   'P 1'
_cell_length_a   7.51279287
_cell_length_b   7.51279287
_cell_length_c   7.51279308
_cell_angle_alpha   100.44172624
_cell_angle_beta   100.44172624
_cell_angle_gamma   79.55827925
_symmetry_Int_Tables_number   1
_chemical_formula_structural   NdFe6Bi(BO3)8
_chemical_formula_sum   'Nd1 Fe6 Bi1 B8 O24'
_cell_volume   405.25364073
_cell_formula_units_Z   1
loop_
 _symmetry_equiv_pos_site_id
 _symmetry_equiv_pos_as_xyz
  1  'x, y, z'
loop_
 _atom_site_type_symbol
 _atom_site_label
 _atom_site_symmetry_multiplicity
 _atom_site_fract_x
 _atom_site_fract_y
 _atom_site_fract_z
 _atom_site_occupancy
  Nd  Nd0  1  -0.00000000  -0.00000000  -0.00000000  1
  Fe  Fe1  1  1.00000000  0.55450901  0.55450901  1
  Fe  Fe2  1  0.50000000  0.05210900  0.05210900  1
  Fe  Fe3  1  0.55450901  0.44549099  -0.00000000  1
  Fe  Fe4  1  0.05210900  0.94789100  0.50000000  1
  Fe  Fe5  1  0.94789100  0.50000000  0.94789100  1
  Fe  Fe6  1  0.44549099  0.00000000  0.44549099  1
  Bi  Bi7  1  0.50000000  0.50000000  0.50000000  1
  B  B8  1  0.25403186  0.25403186  0.74596814  1
  B  B9  1  0.74596814  0.74596814  0.25403186  1
  B  B10  1  0.25375276  0.69523304  0.19455178  1
  B  B11  1  0.74624724  0.19455178  0.69523304  1
  B  B12  1  0.69523304  0.80544822  0.74624724  1
  B  B13  1  0.19455178  0.30476696  0.25375276  1
  B  B14  1  0.80544822  0.25375276  0.30476696  1
  B  B15  1  0.30476696  0.74624724  0.80544822  1
  O  O16  1  0.25399326  0.84152701  0.33800299  1
  O  O17  1  0.74600674  0.33800299  0.84152701  1
  O  O18  1  0.84152701  0.66199701  0.74600674  1
  O  O19  1  0.33800299  0.15847299  0.25399326  1
  O  O20  1  0.66199701  0.25399326  0.15847299  1
  O  O21  1  0.15847299  0.74600674  0.66199701  1
  O  O22  1  0.09647071  0.69295789  0.06794980  1
  O  O23  1  0.59270914  0.19001547  0.56376747  1
  O  O24  1  0.69295789  0.93205020  0.90352929  1
  O  O25  1  0.19001547  0.43623253  0.40729086  1
  O  O26  1  0.93205020  0.09647071  0.30704211  1
  O  O27  1  0.43623253  0.59270914  0.80998453  1
  O  O28  1  0.40729086  0.56376747  0.19001547  1
  O  O29  1  0.90352929  0.06794980  0.69295789  1
  O  O30  1  0.80998453  0.40729086  0.43623253  1
  O  O31  1  0.30704211  0.90352929  0.93205020  1
  O  O32  1  0.56376747  0.80998453  0.59270914  1
  O  O33  1  0.06794980  0.30704211  0.09647071  1
  O  O34  1  0.25468130  0.10637964  0.60387211  1
  O  O35  1  0.74531870  0.60387211  0.10637964  1
  O  O36  1  0.10637964  0.39612789  0.74531870  1
  O  O37  1  0.60387211  0.89362036  0.25468130  1
  O  O38  1  0.39612789  0.25468130  0.89362036  1
  O  O39  1  0.89362036  0.74531870  0.39612789  1
