# generated using pymatgen
data_Tl2PO4
_symmetry_space_group_name_H-M   'P 1'
_cell_length_a   5.76489686
_cell_length_b   7.68895441
_cell_length_c   10.27319468
_cell_angle_alpha   90.00000000
_cell_angle_beta   89.99782954
_cell_angle_gamma   90.00000000
_symmetry_Int_Tables_number   1
_chemical_formula_structural   Tl2PO4
_chemical_formula_sum   'Tl8 P4 O16'
_cell_volume   455.36992655
_cell_formula_units_Z   4
loop_
 _symmetry_equiv_pos_site_id
 _symmetry_equiv_pos_as_xyz
  1  'x, y, z'
loop_
 _atom_site_type_symbol
 _atom_site_label
 _atom_site_symmetry_multiplicity
 _atom_site_fract_x
 _atom_site_fract_y
 _atom_site_fract_z
 _atom_site_occupancy
  Tl  Tl0  1  0.25040567  0.34271219  0.58650005  1
  Tl  Tl1  1  0.75040567  0.15728781  0.08650005  1
  Tl  Tl2  1  0.74959433  0.65728781  0.41349995  1
  Tl  Tl3  1  0.24959433  0.84271219  0.91349995  1
  Tl  Tl4  1  0.75252933  0.48477502  0.80515474  1
  Tl  Tl5  1  0.25252933  0.01522498  0.30515474  1
  Tl  Tl6  1  0.24747067  0.51522498  0.19484526  1
  Tl  Tl7  1  0.74747067  0.98477502  0.69484526  1
  P  P8  1  0.25024573  0.30898798  0.92150121  1
  P  P9  1  0.75024573  0.19101202  0.42150121  1
  P  P10  1  0.74975427  0.69101202  0.07849879  1
  P  P11  1  0.24975427  0.80898798  0.57849879  1
  O  O12  1  0.47578571  0.23881715  0.85271749  1
  O  O13  1  0.97578571  0.26118285  0.35271749  1
  O  O14  1  0.52421429  0.76118285  0.14728251  1
  O  O15  1  0.02421429  0.73881715  0.64728251  1
  O  O16  1  0.02632191  0.23608687  0.85280939  1
  O  O17  1  0.52632191  0.26391313  0.35280939  1
  O  O18  1  0.97367809  0.76391313  0.14719061  1
  O  O19  1  0.47367809  0.73608687  0.64719061  1
  O  O20  1  0.24775640  0.50875173  0.92024144  1
  O  O21  1  0.74775640  0.99124827  0.42024144  1
  O  O22  1  0.75224360  0.49124827  0.07975856  1
  O  O23  1  0.25224360  0.00875173  0.57975856  1
  O  O24  1  0.25108711  0.24364338  0.06802943  1
  O  O25  1  0.75108711  0.25635662  0.56802943  1
  O  O26  1  0.74891289  0.75635662  0.93197057  1
  O  O27  1  0.24891289  0.74364338  0.43197057  1
