# generated using pymatgen
data_Rb2TeSe4
_symmetry_space_group_name_H-M   'P 1'
_cell_length_a   5.41166550
_cell_length_b   7.15931069
_cell_length_c   7.15931069
_cell_angle_alpha   76.06617343
_cell_angle_beta   69.85117149
_cell_angle_gamma   69.85117149
_symmetry_Int_Tables_number   1
_chemical_formula_structural   Rb2TeSe4
_chemical_formula_sum   'Rb2 Te1 Se4'
_cell_volume   242.10789150
_cell_formula_units_Z   1
loop_
 _symmetry_equiv_pos_site_id
 _symmetry_equiv_pos_as_xyz
  1  'x, y, z'
loop_
 _atom_site_type_symbol
 _atom_site_label
 _atom_site_symmetry_multiplicity
 _atom_site_fract_x
 _atom_site_fract_y
 _atom_site_fract_z
 _atom_site_occupancy
  Rb  Rb0  1  0.34403772  0.32064086  0.32064086  1
  Rb  Rb1  1  0.65596228  0.67935914  0.67935914  1
  Te  Te2  1  0.00000000  -0.00000000  0.00000000  1
  Se  Se3  1  0.26309490  0.31221288  0.84796669  1
  Se  Se4  1  0.26309490  0.84796669  0.31221288  1
  Se  Se5  1  0.73690510  0.68778712  0.15203331  1
  Se  Se6  1  0.73690510  0.15203331  0.68778712  1
