# generated using pymatgen
data_Ta(MnB2)2
_symmetry_space_group_name_H-M   'P 1'
_cell_length_a   3.04291454
_cell_length_b   3.15946497
_cell_length_c   6.81635538
_cell_angle_alpha   103.40048433
_cell_angle_beta   102.89745427
_cell_angle_gamma   90.00000000
_symmetry_Int_Tables_number   1
_chemical_formula_structural   Ta(MnB2)2
_chemical_formula_sum   'Ta1 Mn2 B4'
_cell_volume   62.04729849
_cell_formula_units_Z   1
loop_
 _symmetry_equiv_pos_site_id
 _symmetry_equiv_pos_as_xyz
  1  'x, y, z'
loop_
 _atom_site_type_symbol
 _atom_site_label
 _atom_site_symmetry_multiplicity
 _atom_site_fract_x
 _atom_site_fract_y
 _atom_site_fract_z
 _atom_site_occupancy
  Ta  Ta0  1  0.50000000  0.00000000  0.00000000  1
  Mn  Mn1  1  0.18768103  0.18768103  0.37536205  1
  Mn  Mn2  1  0.81231897  0.81231897  0.62463795  1
  B  B3  1  0.35323978  0.35323978  0.70647956  1
  B  B4  1  0.64676022  0.64676022  0.29352044  1
  B  B5  1  0.92729996  0.42729996  0.85459993  1
  B  B6  1  0.07270004  0.57270004  0.14540007  1
