# generated using pymatgen
data_Sm2Cr2C3
_symmetry_space_group_name_H-M   'P 1'
_cell_length_a   3.46731866
_cell_length_b   5.47979856
_cell_length_c   5.70787375
_cell_angle_alpha   104.43157749
_cell_angle_beta   90.00000000
_cell_angle_gamma   108.44370463
_symmetry_Int_Tables_number   1
_chemical_formula_structural   Sm2Cr2C3
_chemical_formula_sum   'Sm2 Cr2 C3'
_cell_volume   99.26629511
_cell_formula_units_Z   1
loop_
 _symmetry_equiv_pos_site_id
 _symmetry_equiv_pos_as_xyz
  1  'x, y, z'
loop_
 _atom_site_type_symbol
 _atom_site_label
 _atom_site_symmetry_multiplicity
 _atom_site_fract_x
 _atom_site_fract_y
 _atom_site_fract_z
 _atom_site_occupancy
  Sm  Sm0  1  0.39751248  0.79502497  0.18147155  1
  Sm  Sm1  1  0.60248752  0.20497503  0.81852845  1
  Cr  Cr2  1  0.15878943  0.31757886  0.39694867  1
  Cr  Cr3  1  0.84121057  0.68242114  0.60305133  1
  C  C4  1  0.29151579  0.58303158  0.71860786  1
  C  C5  1  0.70848421  0.41696842  0.28139214  1
  C  C6  1  -0.00000000  -0.00000000  0.50000000  1
