# generated using pymatgen
data_Na2Co2Si8H72C24N4O
_symmetry_space_group_name_H-M   'P 1'
_cell_length_a   9.32994965
_cell_length_b   11.12344934
_cell_length_c   13.35292454
_cell_angle_alpha   96.85689029
_cell_angle_beta   108.72410903
_cell_angle_gamma   99.36282231
_symmetry_Int_Tables_number   1
_chemical_formula_structural   Na2Co2Si8H72C24N4O
_chemical_formula_sum   'Na2 Co2 Si8 H72 C24 N4 O1'
_cell_volume   1272.93108538
_cell_formula_units_Z   1
loop_
 _symmetry_equiv_pos_site_id
 _symmetry_equiv_pos_as_xyz
  1  'x, y, z'
loop_
 _atom_site_type_symbol
 _atom_site_label
 _atom_site_symmetry_multiplicity
 _atom_site_fract_x
 _atom_site_fract_y
 _atom_site_fract_z
 _atom_site_occupancy
  Na  Na0  1  0.57860556  0.71088493  0.55511887  1
  Na  Na1  1  0.42139444  0.28911507  0.44488113  1
  Co  Co2  1  0.38831176  0.51848915  0.35568322  1
  Co  Co3  1  0.61168824  0.48151085  0.64431678  1
  Si  Si4  1  0.58704173  0.74573543  0.29543865  1
  Si  Si5  1  0.41295827  0.25426457  0.70456135  1
  Si  Si6  1  0.29264811  0.78243654  0.33843286  1
  Si  Si7  1  0.70735189  0.21756346  0.66156714  1
  Si  Si8  1  0.06369705  0.31680225  0.25130150  1
  Si  Si9  1  0.93630295  0.68319775  0.74869850  1
  Si  Si10  1  0.31665529  0.29330343  0.15883683  1
  Si  Si11  1  0.68334471  0.70669657  0.84116317  1
  H  H12  1  0.71662063  0.57242397  0.35043476  1
  H  H13  1  0.28337937  0.42757603  0.64956524  1
  H  H14  1  0.61579317  0.54296320  0.20826466  1
  H  H15  1  0.38420683  0.45703680  0.79173534  1
  H  H16  1  0.79476672  0.65130607  0.26545843  1
  H  H17  1  0.20523328  0.34869393  0.73454157  1
  H  H18  1  0.49134874  0.89147508  0.17074119  1
  H  H19  1  0.50865126  0.10852492  0.82925881  1
  H  H20  1  0.62907581  0.81948601  0.13617917  1
  H  H21  1  0.37092419  0.18051399  0.86382083  1
  H  H22  1  0.43529128  0.73554475  0.10062174  1
  H  H23  1  0.56470872  0.26445525  0.89937826  1
  H  H24  1  0.79914495  0.84389840  0.47154335  1
  H  H25  1  0.20085505  0.15610160  0.52845665  1
  H  H26  1  0.84005249  0.89646410  0.36204999  1
  H  H27  1  0.15994751  0.10353590  0.63795001  1
  H  H28  1  0.70706821  0.95885150  0.41102496  1
  H  H29  1  0.29293179  0.04114850  0.58897504  1
  H  H30  1  0.37447084  0.97544440  0.27114836  1
  H  H31  1  0.62552916  0.02455560  0.72885164  1
  H  H32  1  0.25424390  0.99829431  0.34811852  1
  H  H33  1  0.74575610  0.00170569  0.65188148  1
  H  H34  1  0.45395246  0.99912744  0.41449476  1
  H  H35  1  0.54604754  0.00087256  0.58550524  1
  H  H36  1  0.06058285  0.63131064  0.20807920  1
  H  H37  1  0.93941715  0.36868936  0.79192080  1
  H  H38  1  0.02698903  0.78450848  0.21784525  1
  H  H39  1  0.97301097  0.21549152  0.78215475  1
  H  H40  1  0.14127759  0.73873682  0.14204282  1
  H  H41  1  0.85872241  0.26126318  0.85795718  1
  H  H42  1  0.32025486  0.82853080  0.53345379  1
  H  H43  1  0.67974514  0.17146920  0.46654621  1
  H  H44  1  0.12440407  0.80001428  0.44935180  1
  H  H45  1  0.87559593  0.19998572  0.55064820  1
  H  H46  1  0.21633421  0.67348466  0.47405811  1
  H  H47  1  0.78366579  0.32651534  0.52594189  1
  H  H48  1  0.03692300  0.50828917  0.35666855  1
  H  H49  1  0.96307700  0.49171083  0.64333145  1
  H  H50  1  0.92180116  0.37315939  0.37141612  1
  H  H51  1  0.07819884  0.62684061  0.62858388  1
  H  H52  1  0.12431181  0.41083625  0.44424530  1
  H  H53  1  0.87568819  0.58916375  0.55575470  1
  H  H54  1  0.89704354  0.26817781  0.05597659  1
  H  H55  1  0.10295646  0.73182219  0.94402341  1
  H  H56  1  0.81685963  0.36023077  0.13257320  1
  H  H57  1  0.18314037  0.63976923  0.86742680  1
  H  H58  1  0.97607061  0.42992632  0.09840320  1
  H  H59  1  0.02392939  0.57007368  0.90159680  1
  H  H60  1  0.04815586  0.12462027  0.33463080  1
  H  H61  1  0.95184414  0.87537973  0.66536920  1
  H  H62  1  0.86473691  0.13876084  0.24940018  1
  H  H63  1  0.13526309  0.86123916  0.75059982  1
  H  H64  1  0.99458736  0.08393406  0.19214614  1
  H  H65  1  0.00541264  0.91606594  0.80785386  1
  H  H66  1  0.36448165  0.49928458  0.10510812  1
  H  H67  1  0.63551835  0.50071542  0.89489188  1
  H  H68  1  0.38692865  0.38062160  0.01261443  1
  H  H69  1  0.61307135  0.61937840  0.98738557  1
  H  H70  1  0.19872795  0.39805296  0.00771910  1
  H  H71  1  0.80127205  0.60194704  0.99228090  1
  H  H72  1  0.51411134  0.17727176  0.25017646  1
  H  H73  1  0.48588866  0.82272824  0.74982354  1
  H  H74  1  0.56423358  0.24652159  0.15009372  1
  H  H75  1  0.43576642  0.75347841  0.84990628  1
  H  H76  1  0.59863497  0.33916961  0.27661985  1
  H  H77  1  0.40136503  0.66083039  0.72338015  1
  H  H78  1  0.07459648  0.14463228  0.03019526  1
  H  H79  1  0.92540352  0.85536772  0.96980474  1
  H  H80  1  0.24484940  0.11419441  0.01033051  1
  H  H81  1  0.75515060  0.88580559  0.98966949  1
  H  H82  1  0.19569745  0.06492095  0.11875115  1
  H  H83  1  0.80430255  0.93507905  0.88124885  1
  C  C84  1  0.68634890  0.61498102  0.27804173  1
  C  C85  1  0.31365110  0.38501898  0.72195827  1
  C  C86  1  0.52917226  0.80353184  0.16362250  1
  C  C87  1  0.47082774  0.19646816  0.83637750  1
  C  C88  1  0.74633184  0.87350414  0.39461598  1
  C  C89  1  0.25366816  0.12649586  0.60538402  1
  C  C90  1  0.35110142  0.95556208  0.34373675  1
  C  C91  1  0.64889858  0.04443792  0.65626325  1
  C  C92  1  0.11346102  0.72881339  0.21514433  1
  C  C93  1  0.88653898  0.27118661  0.78485567  1
  C  C94  1  0.23381596  0.76927357  0.46007837  1
  C  C95  1  0.76618404  0.23072643  0.53992163  1
  C  C96  1  0.03520470  0.41180375  0.36682573  1
  C  C97  1  0.96479530  0.58819625  0.63317427  1
  C  C98  1  0.92604417  0.34655902  0.12233644  1
  C  C99  1  0.07395583  0.65344098  0.87766356  1
  C  C100  1  0.98775215  0.15008724  0.25722418  1
  C  C101  1  0.01224785  0.84991276  0.74277582  1
  C  C102  1  0.31744896  0.40346269  0.06220837  1
  C  C103  1  0.68255104  0.59653731  0.93779163  1
  C  C104  1  0.51736256  0.26207452  0.21526849  1
  C  C105  1  0.48263744  0.73792548  0.78473151  1
  C  C106  1  0.19524757  0.14013860  0.07230658  1
  C  C107  1  0.80475243  0.85986140  0.92769342  1
  N  N108  1  0.43605579  0.69879923  0.34216219  1
  N  N109  1  0.56394421  0.30120077  0.65783781  1
  N  N110  1  0.25916990  0.35305041  0.26387623  1
  N  N111  1  0.74083010  0.64694959  0.73612377  1
  O  O112  1  0.50000000  0.50000000  0.50000000  1
