# generated using pymatgen
data_K(Cu2Sb)2
_symmetry_space_group_name_H-M   'P 1'
_cell_length_a   4.31290084
_cell_length_b   4.31290084
_cell_length_c   9.37157879
_cell_angle_alpha   76.69672214
_cell_angle_beta   76.69672214
_cell_angle_gamma   59.99999751
_symmetry_Int_Tables_number   1
_chemical_formula_structural   K(Cu2Sb)2
_chemical_formula_sum   'K1 Cu4 Sb2'
_cell_volume   145.54058962
_cell_formula_units_Z   1
loop_
 _symmetry_equiv_pos_site_id
 _symmetry_equiv_pos_as_xyz
  1  'x, y, z'
loop_
 _atom_site_type_symbol
 _atom_site_label
 _atom_site_symmetry_multiplicity
 _atom_site_fract_x
 _atom_site_fract_y
 _atom_site_fract_z
 _atom_site_occupancy
  K  K0  1  0.00000000  0.00000000  0.00000000  1
  Cu  Cu1  1  0.14278366  0.14278366  0.57164901  1
  Cu  Cu2  1  0.85721634  0.85721634  0.42835099  1
  Cu  Cu3  1  0.45166984  0.45166984  0.64499048  1
  Cu  Cu4  1  0.54833016  0.54833016  0.35500952  1
  Sb  Sb5  1  0.24268201  0.24268201  0.27195398  1
  Sb  Sb6  1  0.75731799  0.75731799  0.72804602  1
