# generated using pymatgen
data_KZn2BCl2O3
_symmetry_space_group_name_H-M   'P 1'
_cell_length_a   5.00426630
_cell_length_b   5.00439501
_cell_length_c   9.51390855
_cell_angle_alpha   74.74949705
_cell_angle_beta   74.75200641
_cell_angle_gamma   60.00085545
_symmetry_Int_Tables_number   1
_chemical_formula_structural   KZn2BCl2O3
_chemical_formula_sum   'K1 Zn2 B1 Cl2 O3'
_cell_volume   196.59436607
_cell_formula_units_Z   1
loop_
 _symmetry_equiv_pos_site_id
 _symmetry_equiv_pos_as_xyz
  1  'x, y, z'
loop_
 _atom_site_type_symbol
 _atom_site_label
 _atom_site_symmetry_multiplicity
 _atom_site_fract_x
 _atom_site_fract_y
 _atom_site_fract_z
 _atom_site_occupancy
  K  K0  1  0.50000595  0.50000000  0.50000000  1
  Zn  Zn1  1  0.69430981  0.69430143  0.91713114  1
  Zn  Zn2  1  0.30574238  0.30569857  0.08286886  1
  B  B3  1  0.00000838  0.00000000  1.00000000  1
  Cl  Cl4  1  0.77807176  0.77808080  0.66586946  1
  Cl  Cl5  1  0.22202202  0.22191920  0.33413054  1
  O  O6  1  0.00001152  0.27667468  0.00000299  1
  O  O7  1  0.72333900  0.00000000  1.00000000  1
  O  O8  1  0.27668919  0.72332532  0.99999701  1
