# generated using pymatgen
data_PuN2O11
_symmetry_space_group_name_H-M   'P 1'
_cell_length_a   7.36430860
_cell_length_b   7.58246033
_cell_length_c   10.34419610
_cell_angle_alpha   82.79390236
_cell_angle_beta   77.72639983
_cell_angle_gamma   67.92998805
_symmetry_Int_Tables_number   1
_chemical_formula_structural   PuN2O11
_chemical_formula_sum   'Pu2 N4 O22'
_cell_volume   522.39364203
_cell_formula_units_Z   2
loop_
 _symmetry_equiv_pos_site_id
 _symmetry_equiv_pos_as_xyz
  1  'x, y, z'
loop_
 _atom_site_type_symbol
 _atom_site_label
 _atom_site_symmetry_multiplicity
 _atom_site_fract_x
 _atom_site_fract_y
 _atom_site_fract_z
 _atom_site_occupancy
  Pu  Pu0  1  0.50000000  0.50000000  0.50000000  1
  Pu  Pu1  1  0.50000000  -0.00000000  0.00000000  1
  N  N2  1  0.82840937  0.11747118  0.38965349  1
  N  N3  1  0.17159063  0.88252882  0.61034651  1
  N  N4  1  0.75226919  0.23519361  0.04363927  1
  N  N5  1  0.24773081  0.76480639  0.95636073  1
  O  O6  1  0.58452296  0.42459129  0.65612340  1
  O  O7  1  0.41547704  0.57540871  0.34387660  1
  O  O8  1  0.65478867  0.12189216  0.44243630  1
  O  O9  1  0.34521133  0.87810784  0.55756370  1
  O  O10  1  0.96041927  0.96969952  0.34644503  1
  O  O11  1  0.03958073  0.03030048  0.65355497  1
  O  O12  1  0.86025841  0.27236346  0.38335883  1
  O  O13  1  0.13974159  0.72763654  0.61664117  1
  O  O14  1  0.67591641  0.62154384  0.45206240  1
  O  O15  1  0.32408359  0.37845616  0.54793760  1
  O  O16  1  0.66527786  0.79262026  0.07712360  1
  O  O17  1  0.33472214  0.20737974  0.92287640  1
  O  O18  1  0.78087592  0.15715855  0.93559693  1
  O  O19  1  0.21912408  0.84284145  0.06440307  1
  O  O20  1  0.85434852  0.32592612  0.05939705  1
  O  O21  1  0.14565148  0.67407388  0.94060295  1
  O  O22  1  0.61428293  0.21598199  0.13511133  1
  O  O23  1  0.38571707  0.78401801  0.86488867  1
  O  O24  1  0.65665166  0.93127891  0.84028847  1
  O  O25  1  0.34334834  0.06872109  0.15971153  1
  O  O26  1  0.06540492  0.52802881  0.23169112  1
  O  O27  1  0.93459508  0.47197119  0.76830888  1
