# generated using pymatgen
data_FePH4(NO2)2
_symmetry_space_group_name_H-M   'P 1'
_cell_length_a   6.58589118
_cell_length_b   7.78089683
_cell_length_c   8.73469941
_cell_angle_alpha   90.00000000
_cell_angle_beta   90.00000000
_cell_angle_gamma   90.00000000
_symmetry_Int_Tables_number   1
_chemical_formula_structural   FePH4(NO2)2
_chemical_formula_sum   'Fe4 P4 H16 N8 O16'
_cell_volume   447.60215772
_cell_formula_units_Z   4
loop_
 _symmetry_equiv_pos_site_id
 _symmetry_equiv_pos_as_xyz
  1  'x, y, z'
loop_
 _atom_site_type_symbol
 _atom_site_label
 _atom_site_symmetry_multiplicity
 _atom_site_fract_x
 _atom_site_fract_y
 _atom_site_fract_z
 _atom_site_occupancy
  Fe  Fe0  1  0.00000000  0.50000000  0.50000000  1
  Fe  Fe1  1  0.50000000  0.00000000  0.50000000  1
  Fe  Fe2  1  0.50000000  0.50000000  -0.00000000  1
  Fe  Fe3  1  0.00000000  0.00000000  -0.00000000  1
  P  P4  1  0.75000000  0.25000000  0.75853430  1
  P  P5  1  0.25000000  0.75000000  0.74146570  1
  P  P6  1  0.25000000  0.75000000  0.24146570  1
  P  P7  1  0.75000000  0.25000000  0.25853430  1
  H  H8  1  0.30977101  0.38141318  0.68054890  1
  H  H9  1  0.19022899  0.11858682  0.68054890  1
  H  H10  1  0.80977101  0.61858682  0.81945110  1
  H  H11  1  0.69022899  0.88141318  0.81945110  1
  H  H12  1  0.69022899  0.61858682  0.31945110  1
  H  H13  1  0.80977101  0.88141318  0.31945110  1
  H  H14  1  0.19022899  0.38141318  0.18054890  1
  H  H15  1  0.30977101  0.11858682  0.18054890  1
  H  H16  1  0.37834510  0.36786237  0.49847027  1
  H  H17  1  0.12165490  0.13213763  0.49847027  1
  H  H18  1  0.87834510  0.63213763  0.00152973  1
  H  H19  1  0.62165490  0.86786237  0.00152973  1
  H  H20  1  0.62165490  0.63213763  0.50152973  1
  H  H21  1  0.87834510  0.86786237  0.50152973  1
  H  H22  1  0.12165490  0.36786237  0.99847027  1
  H  H23  1  0.37834510  0.13213763  0.99847027  1
  N  N24  1  0.26176139  0.34288826  0.57345856  1
  N  N25  1  0.23823861  0.15711174  0.57345856  1
  N  N26  1  0.76176139  0.65711174  0.92654144  1
  N  N27  1  0.73823861  0.84288826  0.92654144  1
  N  N28  1  0.73823861  0.65711174  0.42654144  1
  N  N29  1  0.76176139  0.84288826  0.42654144  1
  N  N30  1  0.23823861  0.34288826  0.07345856  1
  N  N31  1  0.26176139  0.15711174  0.07345856  1
  O  O32  1  0.93299046  0.19300652  0.85848512  1
  O  O33  1  0.56700954  0.30699348  0.85848512  1
  O  O34  1  0.43299046  0.80699348  0.64151488  1
  O  O35  1  0.06700954  0.69300652  0.64151488  1
  O  O36  1  0.06700954  0.80699348  0.14151488  1
  O  O37  1  0.43299046  0.69300652  0.14151488  1
  O  O38  1  0.56700954  0.19300652  0.35848512  1
  O  O39  1  0.93299046  0.30699348  0.35848512  1
  O  O40  1  0.81893586  0.40535779  0.66115695  1
  O  O41  1  0.68106414  0.09464221  0.66115695  1
  O  O42  1  0.31893586  0.59464221  0.83884305  1
  O  O43  1  0.18106414  0.90535779  0.83884305  1
  O  O44  1  0.18106414  0.59464221  0.33884305  1
  O  O45  1  0.31893586  0.90535779  0.33884305  1
  O  O46  1  0.68106414  0.40535779  0.16115695  1
  O  O47  1  0.81893586  0.09464221  0.16115695  1
