# generated using pymatgen
data_BaLaSi2
_symmetry_space_group_name_H-M   'P 1'
_cell_length_a   4.63313534
_cell_length_b   6.78041186
_cell_length_c   7.83034050
_cell_angle_alpha   90.00000000
_cell_angle_beta   107.20822250
_cell_angle_gamma   90.00000000
_symmetry_Int_Tables_number   1
_chemical_formula_structural   BaLaSi2
_chemical_formula_sum   'Ba2 La2 Si4'
_cell_volume   234.97537522
_cell_formula_units_Z   2
loop_
 _symmetry_equiv_pos_site_id
 _symmetry_equiv_pos_as_xyz
  1  'x, y, z'
loop_
 _atom_site_type_symbol
 _atom_site_label
 _atom_site_symmetry_multiplicity
 _atom_site_fract_x
 _atom_site_fract_y
 _atom_site_fract_z
 _atom_site_occupancy
  Ba  Ba0  1  0.27729259  0.75000000  0.55458519  1
  Ba  Ba1  1  0.72270741  0.25000000  0.44541481  1
  La  La2  1  0.54861323  0.75000000  0.09722647  1
  La  La3  1  0.45138677  0.25000000  0.90277353  1
  Si  Si4  1  0.92401749  0.56757574  0.84803498  1
  Si  Si5  1  0.07598251  0.43242426  0.15196502  1
  Si  Si6  1  0.92401749  0.93242426  0.84803498  1
  Si  Si7  1  0.07598251  0.06757574  0.15196502  1
