# generated using pymatgen
data_Sr(GaRh)2
_symmetry_space_group_name_H-M   'P 1'
_cell_length_a   5.82713099
_cell_length_b   6.05500489
_cell_length_c   7.39248135
_cell_angle_alpha   79.06784491
_cell_angle_beta   66.78855443
_cell_angle_gamma   61.23730508
_symmetry_Int_Tables_number   1
_chemical_formula_structural   Sr(GaRh)2
_chemical_formula_sum   'Sr2 Ga4 Rh4'
_cell_volume   210.14218447
_cell_formula_units_Z   2
loop_
 _symmetry_equiv_pos_site_id
 _symmetry_equiv_pos_as_xyz
  1  'x, y, z'
loop_
 _atom_site_type_symbol
 _atom_site_label
 _atom_site_symmetry_multiplicity
 _atom_site_fract_x
 _atom_site_fract_y
 _atom_site_fract_z
 _atom_site_occupancy
  Sr  Sr0  1  0.12500000  0.25000000  0.75000000  1
  Sr  Sr1  1  0.87500000  0.75000000  0.25000000  1
  Ga  Ga2  1  0.44377554  0.61244892  0.75000000  1
  Ga  Ga3  1  0.80622446  0.88755108  0.75000000  1
  Ga  Ga4  1  0.55622446  0.38755108  0.25000000  1
  Ga  Ga5  1  0.19377554  0.11244892  0.25000000  1
  Rh  Rh6  1  0.50890326  0.25000000  0.98219348  1
  Rh  Rh7  1  0.74109674  0.25000000  0.51780652  1
  Rh  Rh8  1  0.49109674  0.75000000  0.01780652  1
  Rh  Rh9  1  0.25890326  0.75000000  0.48219348  1
