# generated using pymatgen
data_Gd2Cr2C3
_symmetry_space_group_name_H-M   'P 1'
_cell_length_a   3.40306549
_cell_length_b   5.50321966
_cell_length_c   5.64620633
_cell_angle_alpha   104.50995396
_cell_angle_beta   90.00000000
_cell_angle_gamma   108.01034321
_symmetry_Int_Tables_number   1
_chemical_formula_structural   Gd2Cr2C3
_chemical_formula_sum   'Gd2 Cr2 C3'
_cell_volume   97.00720184
_cell_formula_units_Z   1
loop_
 _symmetry_equiv_pos_site_id
 _symmetry_equiv_pos_as_xyz
  1  'x, y, z'
loop_
 _atom_site_type_symbol
 _atom_site_label
 _atom_site_symmetry_multiplicity
 _atom_site_fract_x
 _atom_site_fract_y
 _atom_site_fract_z
 _atom_site_occupancy
  Gd  Gd0  1  0.39538311  0.79076622  0.18046664  1
  Gd  Gd1  1  0.60461689  0.20923378  0.81953336  1
  Cr  Cr2  1  0.15766987  0.31533974  0.39502928  1
  Cr  Cr3  1  0.84233013  0.68466026  0.60497072  1
  C  C4  1  0.00000000  0.00000000  0.50000000  1
  C  C5  1  0.71290268  0.42580535  0.27512034  1
  C  C6  1  0.28709732  0.57419465  0.72487966  1
