# generated using pymatgen
data_LiLa2FeO6
_symmetry_space_group_name_H-M   'P 1'
_cell_length_a   5.45466082
_cell_length_b   5.45466082
_cell_length_c   5.45466103
_cell_angle_alpha   60.95608762
_cell_angle_beta   60.95608762
_cell_angle_gamma   60.95608973
_symmetry_Int_Tables_number   1
_chemical_formula_structural   LiLa2FeO6
_chemical_formula_sum   'Li1 La2 Fe1 O6'
_cell_volume   117.23156595
_cell_formula_units_Z   1
loop_
 _symmetry_equiv_pos_site_id
 _symmetry_equiv_pos_as_xyz
  1  'x, y, z'
loop_
 _atom_site_type_symbol
 _atom_site_label
 _atom_site_symmetry_multiplicity
 _atom_site_fract_x
 _atom_site_fract_y
 _atom_site_fract_z
 _atom_site_occupancy
  Li  Li0  1  0.50000000  0.50000000  0.50000000  1
  La  La1  1  0.74994185  0.74994185  0.74994185  1
  La  La2  1  0.25005815  0.25005815  0.25005815  1
  Fe  Fe3  1  0.00000000  0.00000000  -0.00000000  1
  O  O4  1  0.29287292  0.76426079  0.18587825  1
  O  O5  1  0.76426079  0.18587825  0.29287292  1
  O  O6  1  0.18587825  0.29287292  0.76426079  1
  O  O7  1  0.70712708  0.23573921  0.81412175  1
  O  O8  1  0.23573921  0.81412175  0.70712708  1
  O  O9  1  0.81412175  0.70712708  0.23573921  1
