# generated using pymatgen
data_MnH7C3NO6
_symmetry_space_group_name_H-M   'P 1'
_cell_length_a   7.08480692
_cell_length_b   9.57208034
_cell_length_c   11.18142993
_cell_angle_alpha   90.00000000
_cell_angle_beta   90.00000000
_cell_angle_gamma   90.00000000
_symmetry_Int_Tables_number   1
_chemical_formula_structural   MnH7C3NO6
_chemical_formula_sum   'Mn4 H28 C12 N4 O24'
_cell_volume   758.28366535
_cell_formula_units_Z   4
loop_
 _symmetry_equiv_pos_site_id
 _symmetry_equiv_pos_as_xyz
  1  'x, y, z'
loop_
 _atom_site_type_symbol
 _atom_site_label
 _atom_site_symmetry_multiplicity
 _atom_site_fract_x
 _atom_site_fract_y
 _atom_site_fract_z
 _atom_site_occupancy
  Mn  Mn0  1  0.89731354  0.00201563  0.47208221  1
  Mn  Mn1  1  0.10268646  0.99798437  0.97208221  1
  Mn  Mn2  1  0.60268646  0.50201563  0.97208221  1
  Mn  Mn3  1  0.39731354  0.49798437  0.47208221  1
  H  H4  1  0.35535645  0.77670383  0.33999844  1
  H  H5  1  0.64464355  0.22329617  0.83999844  1
  H  H6  1  0.14464355  0.27670383  0.83999844  1
  H  H7  1  0.85535645  0.72329617  0.33999844  1
  H  H8  1  0.28345714  0.98187471  0.61686895  1
  H  H9  1  0.71654286  0.01812529  0.11686895  1
  H  H10  1  0.21654286  0.48187471  0.11686895  1
  H  H11  1  0.78345714  0.51812529  0.61686895  1
  H  H12  1  0.45809803  0.23015652  0.62322610  1
  H  H13  1  0.54190197  0.76984348  0.12322610  1
  H  H14  1  0.04190197  0.73015652  0.12322610  1
  H  H15  1  0.95809803  0.26984348  0.62322610  1
  H  H16  1  0.25798381  0.04385536  0.27014314  1
  H  H17  1  0.74201619  0.95614464  0.77014314  1
  H  H18  1  0.24201619  0.54385536  0.77014314  1
  H  H19  1  0.75798381  0.45614464  0.27014314  1
  H  H20  1  0.34384452  0.16359168  0.17468896  1
  H  H21  1  0.65615548  0.83640832  0.67468896  1
  H  H22  1  0.15615548  0.66359168  0.67468896  1
  H  H23  1  0.84384452  0.33640832  0.17468896  1
  H  H24  1  0.31218568  0.20282827  0.32115281  1
  H  H25  1  0.68781432  0.79717173  0.82115281  1
  H  H26  1  0.18781432  0.70282827  0.82115281  1
  H  H27  1  0.81218568  0.29717173  0.32115281  1
  H  H28  1  0.48978565  0.09412236  0.28003023  1
  H  H29  1  0.51021435  0.90587764  0.78003023  1
  H  H30  1  0.01021435  0.59412236  0.78003023  1
  H  H31  1  0.98978565  0.40587764  0.28003023  1
  C  C32  1  0.24464301  0.78936060  0.40945285  1
  C  C33  1  0.75535699  0.21063940  0.90945285  1
  C  C34  1  0.25535699  0.28936060  0.90945285  1
  C  C35  1  0.74464301  0.71063940  0.40945285  1
  C  C36  1  0.17588353  0.96850792  0.68780853  1
  C  C37  1  0.82411647  0.03149208  0.18780853  1
  C  C38  1  0.32411647  0.46850792  0.18780853  1
  C  C39  1  0.67588353  0.53149208  0.68780853  1
  C  C40  1  0.55869827  0.21067297  0.54887125  1
  C  C41  1  0.44130173  0.78932703  0.04887125  1
  C  C42  1  0.94130173  0.71067297  0.04887125  1
  C  C43  1  0.05869827  0.28932703  0.54887125  1
  N  N44  1  0.35216302  0.12625448  0.26134550  1
  N  N45  1  0.64783698  0.87374552  0.76134550  1
  N  N46  1  0.14783698  0.62625448  0.76134550  1
  N  N47  1  0.85216302  0.37374552  0.26134550  1
  O  O48  1  0.14558908  0.89919639  0.39969200  1
  O  O49  1  0.85441092  0.10080361  0.89969200  1
  O  O50  1  0.35441092  0.39919639  0.89969200  1
  O  O51  1  0.64558908  0.60080361  0.39969200  1
  O  O52  1  0.23084655  0.69485690  0.48849789  1
  O  O53  1  0.76915345  0.30514310  0.98849789  1
  O  O54  1  0.26915345  0.19485690  0.98849789  1
  O  O55  1  0.73084655  0.80514310  0.48849789  1
  O  O56  1  0.00410505  0.96542799  0.65751646  1
  O  O57  1  0.99589495  0.03457201  0.15751646  1
  O  O58  1  0.49589495  0.46542799  0.15751646  1
  O  O59  1  0.50410505  0.53457201  0.65751646  1
  O  O60  1  0.24008258  0.95569332  0.79420660  1
  O  O61  1  0.75991742  0.04430668  0.29420660  1
  O  O62  1  0.25991742  0.45569332  0.29420660  1
  O  O63  1  0.74008258  0.54430668  0.79420660  1
  O  O64  1  0.65885123  0.10200189  0.55886025  1
  O  O65  1  0.34114877  0.89799811  0.05886025  1
  O  O66  1  0.84114877  0.60200189  0.05886025  1
  O  O67  1  0.15885123  0.39799811  0.55886025  1
  O  O68  1  0.56170419  0.29862450  0.46355781  1
  O  O69  1  0.43829581  0.70137550  0.96355781  1
  O  O70  1  0.93829581  0.79862450  0.96355781  1
  O  O71  1  0.06170419  0.20137550  0.46355781  1
