# generated using pymatgen
data_Cs2YbCl4
_symmetry_space_group_name_H-M   'P 1'
_cell_length_a   5.40432462
_cell_length_b   5.40432462
_cell_length_c   9.50892549
_cell_angle_alpha   106.50931073
_cell_angle_beta   106.50931073
_cell_angle_gamma   90.00000000
_symmetry_Int_Tables_number   1
_chemical_formula_structural   Cs2YbCl4
_chemical_formula_sum   'Cs2 Yb1 Cl4'
_cell_volume   254.31041895
_cell_formula_units_Z   1
loop_
 _symmetry_equiv_pos_site_id
 _symmetry_equiv_pos_as_xyz
  1  'x, y, z'
loop_
 _atom_site_type_symbol
 _atom_site_label
 _atom_site_symmetry_multiplicity
 _atom_site_fract_x
 _atom_site_fract_y
 _atom_site_fract_z
 _atom_site_occupancy
  Cs  Cs0  1  0.64409778  0.64409778  0.28819556  1
  Cs  Cs1  1  0.35590222  0.35590222  0.71180444  1
  Yb  Yb2  1  0.00000000  0.00000000  0.00000000  1
  Cl  Cl3  1  0.84351205  0.84351205  0.68702409  1
  Cl  Cl4  1  0.15648795  0.15648795  0.31297591  1
  Cl  Cl5  1  0.00000000  0.50000000  0.00000000  1
  Cl  Cl6  1  0.50000000  0.00000000  0.00000000  1
