# generated using pymatgen
data_Sr(SnHg)2
_symmetry_space_group_name_H-M   'P 1'
_cell_length_a   5.09898196
_cell_length_b   6.90225335
_cell_length_c   9.46366303
_cell_angle_alpha   75.08416856
_cell_angle_beta   74.37155825
_cell_angle_gamma   68.32318063
_symmetry_Int_Tables_number   1
_chemical_formula_structural   Sr(SnHg)2
_chemical_formula_sum   'Sr2 Sn4 Hg4'
_cell_volume   293.39575325
_cell_formula_units_Z   2
loop_
 _symmetry_equiv_pos_site_id
 _symmetry_equiv_pos_as_xyz
  1  'x, y, z'
loop_
 _atom_site_type_symbol
 _atom_site_label
 _atom_site_symmetry_multiplicity
 _atom_site_fract_x
 _atom_site_fract_y
 _atom_site_fract_z
 _atom_site_occupancy
  Sr  Sr0  1  0.17096371  0.37422468  0.28384791  1
  Sr  Sr1  1  0.82903629  0.62577532  0.71615209  1
  Sn  Sn2  1  0.12817589  0.80353840  0.94010982  1
  Sn  Sn3  1  0.87182411  0.19646160  0.05989018  1
  Sn  Sn4  1  0.43777513  0.71494631  0.40950344  1
  Sn  Sn5  1  0.56222487  0.28505369  0.59049656  1
  Hg  Hg6  1  0.15938041  0.04424628  0.63699290  1
  Hg  Hg7  1  0.84061959  0.95575372  0.36300710  1
  Hg  Hg8  1  0.39215945  0.30364997  0.91203114  1
  Hg  Hg9  1  0.60784055  0.69635003  0.08796886  1
