# generated using pymatgen
data_PrNi4B
_symmetry_space_group_name_H-M   'P 1'
_cell_length_a   5.09396318
_cell_length_b   5.08989228
_cell_length_c   7.02300791
_cell_angle_alpha   90.00000000
_cell_angle_beta   90.00000000
_cell_angle_gamma   120.02646110
_symmetry_Int_Tables_number   1
_chemical_formula_structural   PrNi4B
_chemical_formula_sum   'Pr2 Ni8 B2'
_cell_volume   157.65302939
_cell_formula_units_Z   2
loop_
 _symmetry_equiv_pos_site_id
 _symmetry_equiv_pos_as_xyz
  1  'x, y, z'
loop_
 _atom_site_type_symbol
 _atom_site_label
 _atom_site_symmetry_multiplicity
 _atom_site_fract_x
 _atom_site_fract_y
 _atom_site_fract_z
 _atom_site_occupancy
  Pr  Pr0  1  0.99997555  0.00000000  -0.00000000  1
  Pr  Pr1  1  0.99998325  0.00000000  0.50000000  1
  Ni  Ni2  1  0.33342746  0.66689730  -0.00000000  1
  Ni  Ni3  1  0.66653016  0.33310270  -0.00000000  1
  Ni  Ni4  1  0.49998561  0.00000000  0.29415887  1
  Ni  Ni5  1  0.49998656  0.50000245  0.29429546  1
  Ni  Ni6  1  0.99998411  0.49999755  0.29429546  1
  Ni  Ni7  1  0.49998561  0.00000000  0.70584113  1
  Ni  Ni8  1  0.49998656  0.50000245  0.70570454  1
  Ni  Ni9  1  0.99998411  0.49999755  0.70570454  1
  B  B10  1  0.33325825  0.66654548  0.50000000  1
  B  B11  1  0.66671277  0.33345452  0.50000000  1
