# generated using pymatgen
data_NdCu2
_symmetry_space_group_name_H-M   'P 1'
_cell_length_a   4.35360057
_cell_length_b   5.53661397
_cell_length_c   5.53661397
_cell_angle_alpha   79.28283155
_cell_angle_beta   66.84845484
_cell_angle_gamma   66.84845484
_symmetry_Int_Tables_number   1
_chemical_formula_structural   NdCu2
_chemical_formula_sum   'Nd2 Cu4'
_cell_volume   112.74856906
_cell_formula_units_Z   2
loop_
 _symmetry_equiv_pos_site_id
 _symmetry_equiv_pos_as_xyz
  1  'x, y, z'
loop_
 _atom_site_type_symbol
 _atom_site_label
 _atom_site_symmetry_multiplicity
 _atom_site_fract_x
 _atom_site_fract_y
 _atom_site_fract_z
 _atom_site_occupancy
  Nd  Nd0  1  0.54089620  0.70910380  0.20910380  1
  Nd  Nd1  1  0.45910380  0.29089620  0.79089620  1
  Cu  Cu2  1  0.16521750  0.28214082  0.38742417  1
  Cu  Cu3  1  0.83478250  0.71785918  0.61257583  1
  Cu  Cu4  1  0.83478250  0.11257583  0.21785918  1
  Cu  Cu5  1  0.16521750  0.88742417  0.78214082  1
