# generated using pymatgen
data_Nd2Sb
_symmetry_space_group_name_H-M   'P 1'
_cell_length_a   4.58331787
_cell_length_b   4.58331787
_cell_length_c   9.45991355
_cell_angle_alpha   104.01934333
_cell_angle_beta   104.01934334
_cell_angle_gamma   89.99999994
_symmetry_Int_Tables_number   1
_chemical_formula_structural   Nd2Sb
_chemical_formula_sum   'Nd4 Sb2'
_cell_volume   186.69666696
_cell_formula_units_Z   2
loop_
 _symmetry_equiv_pos_site_id
 _symmetry_equiv_pos_as_xyz
  1  'x, y, z'
loop_
 _atom_site_type_symbol
 _atom_site_label
 _atom_site_symmetry_multiplicity
 _atom_site_fract_x
 _atom_site_fract_y
 _atom_site_fract_z
 _atom_site_occupancy
  Sb  Sb0  1  0.63837699  0.63837699  0.27675398  1
  Sb  Sb1  1  0.36162301  0.36162301  0.72324602  1
  Nd  Nd2  1  0.17901896  0.17901896  0.35803791  1
  Nd  Nd3  1  0.82098104  0.82098104  0.64196209  1
  Nd  Nd4  1  0.00000000  0.50000000  0.00000000  1
  Nd  Nd5  1  0.50000000  0.00000000  0.00000000  1
