# generated using pymatgen
data_H6C3S(NO)2
_symmetry_space_group_name_H-M   'P 1'
_cell_length_a   5.58705337
_cell_length_b   12.64857488
_cell_length_c   11.25663701
_cell_angle_alpha   100.66487673
_cell_angle_beta   90.00000000
_cell_angle_gamma   90.00000000
_symmetry_Int_Tables_number   1
_chemical_formula_structural   H6C3S(NO)2
_chemical_formula_sum   'H24 C12 S4 N8 O8'
_cell_volume   781.74608230
_cell_formula_units_Z   4
loop_
 _symmetry_equiv_pos_site_id
 _symmetry_equiv_pos_as_xyz
  1  'x, y, z'
loop_
 _atom_site_type_symbol
 _atom_site_label
 _atom_site_symmetry_multiplicity
 _atom_site_fract_x
 _atom_site_fract_y
 _atom_site_fract_z
 _atom_site_occupancy
  H  H0  1  0.37429206  0.06849565  0.68320459  1
  H  H1  1  0.12570794  0.56849565  0.18320459  1
  H  H2  1  0.62570794  0.93150435  0.31679541  1
  H  H3  1  0.87429206  0.43150435  0.81679541  1
  H  H4  1  0.22391806  0.01687664  0.54454853  1
  H  H5  1  0.27608194  0.51687664  0.04454853  1
  H  H6  1  0.77608194  0.98312336  0.45545147  1
  H  H7  1  0.72391806  0.48312336  0.95545147  1
  H  H8  1  0.83564556  0.13073608  0.84673265  1
  H  H9  1  0.66435444  0.63073608  0.34673265  1
  H  H10  1  0.16435444  0.86926392  0.15326735  1
  H  H11  1  0.33564556  0.36926392  0.65326735  1
  H  H12  1  0.45897956  0.12821506  0.11140303  1
  H  H13  1  0.04102044  0.62821506  0.61140303  1
  H  H14  1  0.54102044  0.87178494  0.88859697  1
  H  H15  1  0.95897956  0.37178494  0.38859697  1
  H  H16  1  0.32912509  0.24028102  0.21113465  1
  H  H17  1  0.17087491  0.74028102  0.71113465  1
  H  H18  1  0.67087491  0.75971898  0.78886535  1
  H  H19  1  0.82912509  0.25971898  0.28886535  1
  H  H20  1  0.48581776  0.26189661  0.07868611  1
  H  H21  1  0.01418224  0.76189661  0.57868611  1
  H  H22  1  0.51418224  0.73810339  0.92131389  1
  H  H23  1  0.98581776  0.23810339  0.42131389  1
  C  C24  1  0.37126630  0.20632080  0.11671189  1
  C  C25  1  0.12873370  0.70632080  0.61671189  1
  C  C26  1  0.62873370  0.79367920  0.88328811  1
  C  C27  1  0.87126630  0.29367920  0.38328811  1
  C  C28  1  0.00555889  0.07027255  0.68678404  1
  C  C29  1  0.49444111  0.57027255  0.18678404  1
  C  C30  1  0.99444111  0.92972745  0.31321596  1
  C  C31  1  0.50555889  0.42972745  0.81321596  1
  C  C32  1  0.19300779  0.13887175  0.89024686  1
  C  C33  1  0.30699221  0.63887175  0.39024686  1
  C  C34  1  0.80699221  0.86112825  0.10975314  1
  C  C35  1  0.69300779  0.36112825  0.60975314  1
  S  S36  1  0.08909818  0.19060967  0.03932199  1
  S  S37  1  0.41090182  0.69060967  0.53932199  1
  S  S38  1  0.91090182  0.80939033  0.96067801  1
  S  S39  1  0.58909818  0.30939033  0.46067801  1
  N  N40  1  0.22072929  0.05065043  0.63424726  1
  N  N41  1  0.27927071  0.55065043  0.13424726  1
  N  N42  1  0.77927071  0.94934957  0.36575274  1
  N  N43  1  0.72072929  0.44934957  0.86575274  1
  N  N44  1  0.00388013  0.11650829  0.81152433  1
  N  N45  1  0.49611987  0.61650829  0.31152433  1
  N  N46  1  0.99611987  0.88349171  0.18847567  1
  N  N47  1  0.50388013  0.38349171  0.68847567  1
  O  O48  1  0.80986724  0.05079772  0.63425760  1
  O  O49  1  0.69013276  0.55079772  0.13425760  1
  O  O50  1  0.19013276  0.94920228  0.36574240  1
  O  O51  1  0.30986724  0.44920228  0.86574240  1
  O  O52  1  0.40636220  0.12496173  0.86313581  1
  O  O53  1  0.09363780  0.62496173  0.36313581  1
  O  O54  1  0.59363780  0.87503827  0.13686419  1
  O  O55  1  0.90636220  0.37503827  0.63686419  1
