# generated using pymatgen
data_TiCuNi
_symmetry_space_group_name_H-M   'P 1'
_cell_length_a   3.13774926
_cell_length_b   3.13774926
_cell_length_c   4.53408247
_cell_angle_alpha   69.75604286
_cell_angle_beta   69.75604286
_cell_angle_gamma   90.00000000
_symmetry_Int_Tables_number   1
_chemical_formula_structural   TiCuNi
_chemical_formula_sum   'Ti1 Cu1 Ni1'
_cell_volume   38.93030057
_cell_formula_units_Z   1
loop_
 _symmetry_equiv_pos_site_id
 _symmetry_equiv_pos_as_xyz
  1  'x, y, z'
loop_
 _atom_site_type_symbol
 _atom_site_label
 _atom_site_symmetry_multiplicity
 _atom_site_fract_x
 _atom_site_fract_y
 _atom_site_fract_z
 _atom_site_occupancy
  Ti  Ti0  1  0.00599756  0.00599756  0.98800489  1
  Cu  Cu1  1  0.33195846  0.33195846  0.33608309  1
  Ni  Ni2  1  0.66204399  0.66204399  0.67591202  1
