# generated using pymatgen
data_CuH24C9S3IN6
_symmetry_space_group_name_H-M   'P 1'
_cell_length_a   8.23002603
_cell_length_b   10.59495877
_cell_length_c   13.21288872
_cell_angle_alpha   69.45749506
_cell_angle_beta   80.46082478
_cell_angle_gamma   83.11889710
_symmetry_Int_Tables_number   1
_chemical_formula_structural   CuH24C9S3IN6
_chemical_formula_sum   'Cu2 H48 C18 S6 I2 N12'
_cell_volume   1061.56845669
_cell_formula_units_Z   2
loop_
 _symmetry_equiv_pos_site_id
 _symmetry_equiv_pos_as_xyz
  1  'x, y, z'
loop_
 _atom_site_type_symbol
 _atom_site_label
 _atom_site_symmetry_multiplicity
 _atom_site_fract_x
 _atom_site_fract_y
 _atom_site_fract_z
 _atom_site_occupancy
  Cu  Cu0  1  0.84150542  0.60322532  0.46144918  1
  Cu  Cu1  1  0.15849458  0.39677468  0.53855082  1
  H  H2  1  0.99124017  0.38888982  0.73435677  1
  H  H3  1  0.00875983  0.61111018  0.26564323  1
  H  H4  1  0.92566197  0.68550821  0.80221795  1
  H  H5  1  0.07433803  0.31449179  0.19778205  1
  H  H6  1  0.56500577  0.69043394  0.36646510  1
  H  H7  1  0.43499423  0.30956606  0.63353490  1
  H  H8  1  0.56373177  0.98561317  0.13922198  1
  H  H9  1  0.43626823  0.01438683  0.86077802  1
  H  H10  1  0.71552742  0.82808213  0.50676985  1
  H  H11  1  0.28447258  0.17191787  0.49323015  1
  H  H12  1  0.49781865  0.76400969  0.76766099  1
  H  H13  1  0.50218135  0.23599031  0.23233901  1
  H  H14  1  0.79018732  0.50736706  0.88795681  1
  H  H15  1  0.20981268  0.49263294  0.11204319  1
  H  H16  1  0.86321899  0.33626417  0.90943663  1
  H  H17  1  0.13678101  0.66373583  0.09056337  1
  H  H18  1  0.99281205  0.44940222  0.92439066  1
  H  H19  1  0.00718795  0.55059778  0.07560934  1
  H  H20  1  0.00300970  0.86466577  0.58359025  1
  H  H21  1  0.99699030  0.13533423  0.41640975  1
  H  H22  1  0.99019664  0.89566803  0.70975841  1
  H  H23  1  0.00980336  0.10433197  0.29024159  1
  H  H24  1  0.17986709  0.83041743  0.65336642  1
  H  H25  1  0.82013291  0.16958257  0.34663358  1
  H  H26  1  0.43107169  0.78895713  0.16506379  1
  H  H27  1  0.56892831  0.21104287  0.83493621  1
  H  H28  1  0.32239630  0.71575156  0.29801704  1
  H  H29  1  0.67760370  0.28424844  0.70198296  1
  H  H30  1  0.33939131  0.89375597  0.24262388  1
  H  H31  1  0.66060869  0.10624403  0.75737612  1
  H  H32  1  0.92578958  0.99249526  0.12147646  1
  H  H33  1  0.07421042  0.00750474  0.87852354  1
  H  H34  1  0.79043448  0.08265099  0.02318862  1
  H  H35  1  0.20956552  0.91734901  0.97681138  1
  H  H36  1  0.80096559  0.13555163  0.13608058  1
  H  H37  1  0.19903441  0.86444837  0.86391942  1
  H  H38  1  0.66971293  0.92294425  0.69062988  1
  H  H39  1  0.33028707  0.07705575  0.30937012  1
  H  H40  1  0.68613212  0.02319662  0.55018808  1
  H  H41  1  0.31386788  0.97680338  0.44981192  1
  H  H42  1  0.48945288  0.97380117  0.62343419  1
  H  H43  1  0.51054712  0.02619883  0.37656581  1
  H  H44  1  0.51964182  0.48440658  0.83049890  1
  H  H45  1  0.48035818  0.51559342  0.16950110  1
  H  H46  1  0.36879132  0.58629762  0.88571007  1
  H  H47  1  0.63120868  0.41370238  0.11428993  1
  H  H48  1  0.32816788  0.53472761  0.77772045  1
  H  H49  1  0.67183212  0.46527239  0.22227955  1
  C  C50  1  0.01016125  0.58832778  0.69196458  1
  C  C51  1  0.98983875  0.41167222  0.30803542  1
  C  C52  1  0.89949498  0.44041623  0.87678428  1
  C  C53  1  0.10050502  0.55958377  0.12321572  1
  C  C54  1  0.04457021  0.82854028  0.66426497  1
  C  C55  1  0.95542979  0.17145972  0.33573503  1
  C  C56  1  0.68540185  0.84823100  0.25808438  1
  C  C57  1  0.31459815  0.15176900  0.74191562  1
  C  C58  1  0.40408065  0.79503802  0.24783569  1
  C  C59  1  0.59591935  0.20496198  0.75216431  1
  C  C60  1  0.80522639  0.04732385  0.10989307  1
  C  C61  1  0.19477361  0.95267615  0.89010693  1
  C  C62  1  0.58415384  0.70227291  0.63847280  1
  C  C63  1  0.41584616  0.29772709  0.36152720  1
  C  C64  1  0.62153192  0.94074038  0.61338445  1
  C  C65  1  0.37846808  0.05925962  0.38661555  1
  C  C66  1  0.42342749  0.56702764  0.81064536  1
  C  C67  1  0.57657251  0.43297236  0.18935464  1
  S  S68  1  0.08911938  0.60549094  0.55846299  1
  S  S69  1  0.91088062  0.39450906  0.44153701  1
  S  S70  1  0.86332232  0.80614744  0.32021763  1
  S  S71  1  0.13667768  0.19385256  0.67978237  1
  S  S72  1  0.61800742  0.56832631  0.59217585  1
  S  S73  1  0.38199258  0.43167369  0.40782415  1
  I  I74  1  0.69090411  0.79258650  0.93500583  1
  I  I75  1  0.30909589  0.20741350  0.06499417  1
  N  N76  1  0.96408503  0.46809032  0.76246751  1
  N  N77  1  0.03591497  0.53190968  0.23753249  1
  N  N78  1  0.99223153  0.69400850  0.72757458  1
  N  N79  1  0.00776847  0.30599150  0.27242542  1
  N  N80  1  0.55439352  0.77260323  0.29790910  1
  N  N81  1  0.44560648  0.22739677  0.70209090  1
  N  N82  1  0.67351061  0.95917366  0.17007434  1
  N  N83  1  0.32648939  0.04082634  0.82992566  1
  N  N84  1  0.64856207  0.82206208  0.58027902  1
  N  N85  1  0.35143793  0.17793792  0.41972098  1
  N  N86  1  0.49014361  0.69189667  0.73441903  1
  N  N87  1  0.50985639  0.30810333  0.26558097  1
