# generated using pymatgen
data_Si2Rh3
_symmetry_space_group_name_H-M   'P 1'
_cell_length_a   3.99884461
_cell_length_b   3.99884461
_cell_length_c   5.12577064
_cell_angle_alpha   90.00000000
_cell_angle_beta   90.00000000
_cell_angle_gamma   120.00000452
_symmetry_Int_Tables_number   1
_chemical_formula_structural   Si2Rh3
_chemical_formula_sum   'Si2 Rh3'
_cell_volume   70.98373357
_cell_formula_units_Z   1
loop_
 _symmetry_equiv_pos_site_id
 _symmetry_equiv_pos_as_xyz
  1  'x, y, z'
loop_
 _atom_site_type_symbol
 _atom_site_label
 _atom_site_symmetry_multiplicity
 _atom_site_fract_x
 _atom_site_fract_y
 _atom_site_fract_z
 _atom_site_occupancy
  Si  Si0  1  0.66666700  0.33333300  0.80015816  1
  Si  Si1  1  0.33333300  0.66666700  0.19984184  1
  Rh  Rh2  1  0.66666700  0.33333300  0.32678323  1
  Rh  Rh3  1  0.33333300  0.66666700  0.67321677  1
  Rh  Rh4  1  -0.00000000  0.00000000  -0.00000000  1
