# generated using pymatgen
data_H27C9S2N3O5
_symmetry_space_group_name_H-M   'P 1'
_cell_length_a   9.89552909
_cell_length_b   10.37882390
_cell_length_c   18.40395266
_cell_angle_alpha   90.00000000
_cell_angle_beta   98.40208630
_cell_angle_gamma   90.00000000
_symmetry_Int_Tables_number   1
_chemical_formula_structural   H27C9S2N3O5
_chemical_formula_sum   'H108 C36 S8 N12 O20'
_cell_volume   1869.87165567
_cell_formula_units_Z   4
loop_
 _symmetry_equiv_pos_site_id
 _symmetry_equiv_pos_as_xyz
  1  'x, y, z'
loop_
 _atom_site_type_symbol
 _atom_site_label
 _atom_site_symmetry_multiplicity
 _atom_site_fract_x
 _atom_site_fract_y
 _atom_site_fract_z
 _atom_site_occupancy
  H  H0  1  0.23595750  0.17222418  0.47978303  1
  H  H1  1  0.73595750  0.32777582  0.97978303  1
  H  H2  1  0.76404250  0.82777582  0.52021697  1
  H  H3  1  0.26404250  0.67222418  0.02021697  1
  H  H4  1  0.21606091  0.34129608  0.47672807  1
  H  H5  1  0.71606091  0.15870392  0.97672807  1
  H  H6  1  0.78393909  0.65870392  0.52327193  1
  H  H7  1  0.28393909  0.84129608  0.02327193  1
  H  H8  1  0.06900435  0.24294074  0.55817682  1
  H  H9  1  0.56900435  0.25705926  0.05817682  1
  H  H10  1  0.93099565  0.75705926  0.44182318  1
  H  H11  1  0.43099565  0.74294074  0.94182318  1
  H  H12  1  0.98226740  0.14728649  0.48621428  1
  H  H13  1  0.48226740  0.35271351  0.98621428  1
  H  H14  1  0.01773260  0.85271351  0.51378572  1
  H  H15  1  0.51773260  0.64728649  0.01378572  1
  H  H16  1  0.96380825  0.31770008  0.48392913  1
  H  H17  1  0.46380825  0.18229992  0.98392913  1
  H  H18  1  0.03619175  0.68229992  0.51607087  1
  H  H19  1  0.53619175  0.81770008  0.01607087  1
  H  H20  1  0.94303279  0.33411560  0.36829025  1
  H  H21  1  0.44303279  0.16588440  0.86829025  1
  H  H22  1  0.05696721  0.66588440  0.63170975  1
  H  H23  1  0.55696721  0.83411560  0.13170975  1
  H  H24  1  0.02283441  0.34072259  0.28882742  1
  H  H25  1  0.52283441  0.15927741  0.78882742  1
  H  H26  1  0.97716559  0.65927741  0.71117258  1
  H  H27  1  0.47716559  0.84072259  0.21117258  1
  H  H28  1  0.01354446  0.55615432  0.34542086  1
  H  H29  1  0.51354446  0.94384568  0.84542086  1
  H  H30  1  0.98645554  0.44384568  0.65457914  1
  H  H31  1  0.48645554  0.05615432  0.15457914  1
  H  H32  1  0.18750766  0.51088978  0.34948951  1
  H  H33  1  0.68750766  0.98911022  0.84948951  1
  H  H34  1  0.81249234  0.48911022  0.65051049  1
  H  H35  1  0.31249234  0.01088978  0.15051049  1
  H  H36  1  0.10650373  0.50282909  0.42937345  1
  H  H37  1  0.60650373  0.99717091  0.92937345  1
  H  H38  1  0.89349627  0.49717091  0.57062655  1
  H  H39  1  0.39349627  0.00282909  0.07062655  1
  H  H40  1  0.33862366  0.18078253  0.37724853  1
  H  H41  1  0.83862366  0.31921747  0.87724853  1
  H  H42  1  0.66137634  0.81921747  0.62275147  1
  H  H43  1  0.16137634  0.68078253  0.12275147  1
  H  H44  1  0.31831461  0.34968074  0.37461956  1
  H  H45  1  0.81831461  0.15031926  0.87461956  1
  H  H46  1  0.68168539  0.65031926  0.62538044  1
  H  H47  1  0.18168539  0.84968074  0.12538044  1
  H  H48  1  0.37121332  0.26703821  0.25685921  1
  H  H49  1  0.87121332  0.23296179  0.75685921  1
  H  H50  1  0.62878668  0.73296179  0.74314079  1
  H  H51  1  0.12878668  0.76703821  0.24314079  1
  H  H52  1  0.20703248  0.33794942  0.24228819  1
  H  H53  1  0.70703248  0.16205058  0.74228819  1
  H  H54  1  0.79296752  0.66205058  0.75771181  1
  H  H55  1  0.29296752  0.83794942  0.25771181  1
  H  H56  1  0.22337729  0.16763777  0.24384715  1
  H  H57  1  0.72337729  0.33236223  0.74384715  1
  H  H58  1  0.77662271  0.83236223  0.75615285  1
  H  H59  1  0.27662271  0.66763777  0.25615285  1
  H  H60  1  0.96804728  0.11982172  0.37111731  1
  H  H61  1  0.46804728  0.38017828  0.87111731  1
  H  H62  1  0.03195272  0.88017828  0.62888269  1
  H  H63  1  0.53195272  0.61982172  0.12888269  1
  H  H64  1  0.04899627  0.12522158  0.29212232  1
  H  H65  1  0.54899627  0.37477842  0.79212232  1
  H  H66  1  0.95100373  0.87477842  0.70787768  1
  H  H67  1  0.45100373  0.62522158  0.20787768  1
  H  H68  1  0.08966855  0.91583677  0.35477141  1
  H  H69  1  0.58966855  0.58416323  0.85477141  1
  H  H70  1  0.91033145  0.08416323  0.64522859  1
  H  H71  1  0.41033145  0.41583677  0.14522859  1
  H  H72  1  0.16716559  0.98929726  0.43752621  1
  H  H73  1  0.66716559  0.51070274  0.93752621  1
  H  H74  1  0.83283441  0.01070274  0.56247379  1
  H  H75  1  0.33283441  0.48929726  0.06247379  1
  H  H76  1  0.24851300  0.99592165  0.35810406  1
  H  H77  1  0.74851300  0.50407835  0.85810406  1
  H  H78  1  0.75148700  0.00407835  0.64189594  1
  H  H79  1  0.25148700  0.49592165  0.14189594  1
  H  H80  1  0.71968418  0.12204698  0.25903956  1
  H  H81  1  0.21968418  0.37795302  0.75903956  1
  H  H82  1  0.28031582  0.87795302  0.74096044  1
  H  H83  1  0.78031582  0.62204698  0.24096044  1
  H  H84  1  0.64541294  0.20945874  0.32438004  1
  H  H85  1  0.14541294  0.29054126  0.82438004  1
  H  H86  1  0.35458706  0.79054126  0.67561996  1
  H  H87  1  0.85458706  0.70945874  0.17561996  1
  H  H88  1  0.76851147  0.90881951  0.27454523  1
  H  H89  1  0.26851147  0.59118049  0.77454523  1
  H  H90  1  0.23148853  0.09118049  0.72545477  1
  H  H91  1  0.73148853  0.40881951  0.22545477  1
  H  H92  1  0.70090438  0.81833154  0.34098303  1
  H  H93  1  0.20090438  0.68166846  0.84098303  1
  H  H94  1  0.29909562  0.18166846  0.65901697  1
  H  H95  1  0.79909562  0.31833154  0.15901697  1
  H  H96  1  0.92455880  0.72622294  0.00178548  1
  H  H97  1  0.42455880  0.77377706  0.50178548  1
  H  H98  1  0.07544120  0.27377706  0.99821452  1
  H  H99  1  0.57544120  0.22622294  0.49821452  1
  H  H100  1  0.94854485  0.84496038  0.94754173  1
  H  H101  1  0.44854485  0.65503962  0.44754173  1
  H  H102  1  0.05145515  0.15503962  0.05245827  1
  H  H103  1  0.55145515  0.34496038  0.55245827  1
  H  H104  1  0.84257905  0.90633077  0.03966055  1
  H  H105  1  0.34257905  0.59366923  0.53966055  1
  H  H106  1  0.15742095  0.09366923  0.96033945  1
  H  H107  1  0.65742095  0.40633077  0.46033945  1
  C  C108  1  0.16337714  0.25002880  0.46212598  1
  C  C109  1  0.66337714  0.24997120  0.96212598  1
  C  C110  1  0.83662286  0.74997120  0.53787402  1
  C  C111  1  0.33662286  0.75002880  0.03787402  1
  C  C112  1  0.03632783  0.23872699  0.49868198  1
  C  C113  1  0.53632783  0.26127301  0.99868198  1
  C  C114  1  0.96367217  0.76127301  0.50131802  1
  C  C115  1  0.46367217  0.73872699  0.00131802  1
  C  C116  1  0.04033777  0.35330359  0.34856899  1
  C  C117  1  0.54033777  0.14669641  0.84856899  1
  C  C118  1  0.95966223  0.64669641  0.65143101  1
  C  C119  1  0.45966223  0.85330359  0.15143101  1
  C  C120  1  0.09156655  0.48763953  0.36978278  1
  C  C121  1  0.59156655  0.01236047  0.86978278  1
  C  C122  1  0.90843345  0.51236047  0.63021722  1
  C  C123  1  0.40843345  0.98763953  0.13021722  1
  C  C124  1  0.27389486  0.25910962  0.35167986  1
  C  C125  1  0.77389486  0.24089038  0.85167986  1
  C  C126  1  0.72610514  0.74089038  0.64832014  1
  C  C127  1  0.22610514  0.75910962  0.14832014  1
  C  C128  1  0.26647451  0.25727895  0.26891055  1
  C  C129  1  0.76647451  0.24272105  0.76891055  1
  C  C130  1  0.73352549  0.74272105  0.73108945  1
  C  C131  1  0.23352549  0.75727895  0.23108945  1
  C  C132  1  0.06803575  0.11934452  0.35220716  1
  C  C133  1  0.56803575  0.38065548  0.85220716  1
  C  C134  1  0.93196425  0.88065548  0.64779284  1
  C  C135  1  0.43196425  0.61934452  0.14779284  1
  C  C136  1  0.14893162  0.99951098  0.37754686  1
  C  C137  1  0.64893162  0.50048902  0.87754686  1
  C  C138  1  0.85106838  0.00048902  0.62245314  1
  C  C139  1  0.35106838  0.49951098  0.12245314  1
  C  C140  1  0.66509305  0.01436496  0.34515221  1
  C  C141  1  0.16509305  0.48563504  0.84515221  1
  C  C142  1  0.33490695  0.98563504  0.65484779  1
  C  C143  1  0.83490695  0.51436496  0.15484779  1
  S  S144  1  0.58567967  0.01159582  0.42139169  1
  S  S145  1  0.08567967  0.48840418  0.92139169  1
  S  S146  1  0.41432033  0.98840418  0.57860831  1
  S  S147  1  0.91432033  0.51159582  0.07860831  1
  S  S148  1  0.87083632  0.01757877  0.14337795  1
  S  S149  1  0.37083632  0.48242123  0.64337795  1
  S  S150  1  0.12916368  0.98242123  0.85662205  1
  S  S151  1  0.62916368  0.51757877  0.35662205  1
  N  N152  1  0.13650103  0.24541004  0.37867167  1
  N  N153  1  0.63650103  0.25458996  0.87867167  1
  N  N154  1  0.86349897  0.75458996  0.62132833  1
  N  N155  1  0.36349897  0.74541004  0.12132833  1
  N  N156  1  0.68162054  0.12394828  0.30816529  1
  N  N157  1  0.18162054  0.37605172  0.80816529  1
  N  N158  1  0.31837946  0.87605172  0.69183471  1
  N  N159  1  0.81837946  0.62394828  0.19183471  1
  N  N160  1  0.71600967  0.90617564  0.31865990  1
  N  N161  1  0.21600967  0.59382436  0.81865990  1
  N  N162  1  0.28399033  0.09382436  0.68134010  1
  N  N163  1  0.78399033  0.40617564  0.18134010  1
  O  O164  1  0.90085093  0.81571473  0.98818207  1
  O  O165  1  0.40085093  0.68428527  0.48818207  1
  O  O166  1  0.09914907  0.18428527  0.01181793  1
  O  O167  1  0.59914907  0.31571473  0.51181793  1
  O  O168  1  0.78755813  0.97032792  0.06762729  1
  O  O169  1  0.28755813  0.52967208  0.56762729  1
  O  O170  1  0.21244187  0.02967208  0.93237271  1
  O  O171  1  0.71244187  0.47032792  0.43237271  1
  O  O172  1  0.88059525  0.90688001  0.19455632  1
  O  O173  1  0.38059525  0.59311999  0.69455632  1
  O  O174  1  0.11940475  0.09311999  0.80544368  1
  O  O175  1  0.61940475  0.40688001  0.30544368  1
  O  O176  1  0.00550200  0.06121885  0.12879800  1
  O  O177  1  0.50550200  0.43878115  0.62879800  1
  O  O178  1  0.99449800  0.93878115  0.87120200  1
  O  O179  1  0.49449800  0.56121885  0.37120200  1
  O  O180  1  0.78538510  0.12163102  0.16638599  1
  O  O181  1  0.28538510  0.37836898  0.66638599  1
  O  O182  1  0.21461490  0.87836898  0.83361401  1
  O  O183  1  0.71461490  0.62163102  0.33361401  1
