# generated using pymatgen
data_Li2TiGeO5
_symmetry_space_group_name_H-M   'P 1'
_cell_length_a   4.55250108
_cell_length_b   6.65929683
_cell_length_c   6.65929683
_cell_angle_alpha   90.00000000
_cell_angle_beta   90.00000000
_cell_angle_gamma   90.00000000
_symmetry_Int_Tables_number   1
_chemical_formula_structural   Li2TiGeO5
_chemical_formula_sum   'Li4 Ti2 Ge2 O10'
_cell_volume   201.88627941
_cell_formula_units_Z   2
loop_
 _symmetry_equiv_pos_site_id
 _symmetry_equiv_pos_as_xyz
  1  'x, y, z'
loop_
 _atom_site_type_symbol
 _atom_site_label
 _atom_site_symmetry_multiplicity
 _atom_site_fract_x
 _atom_site_fract_y
 _atom_site_fract_z
 _atom_site_occupancy
  Li  Li0  1  0.50000000  0.00000000  0.00000000  1
  Li  Li1  1  0.50000000  0.00000000  0.50000000  1
  Li  Li2  1  0.50000000  0.50000000  0.50000000  1
  Li  Li3  1  0.50000000  0.50000000  0.00000000  1
  O  O4  1  0.76849971  0.46356816  0.75000000  1
  O  O5  1  0.76849971  0.03643184  0.75000000  1
  O  O6  1  0.27260714  0.75000000  0.75000000  1
  O  O7  1  0.72739286  0.25000000  0.25000000  1
  O  O8  1  0.23150029  0.25000000  0.96356816  1
  O  O9  1  0.23150029  0.53643184  0.25000000  1
  O  O10  1  0.23150029  0.96356816  0.25000000  1
  O  O11  1  0.23150029  0.25000000  0.53643184  1
  O  O12  1  0.76849971  0.75000000  0.03643184  1
  O  O13  1  0.76849971  0.75000000  0.46356816  1
  Ti  Ti14  1  0.10436253  0.25000000  0.25000000  1
  Ti  Ti15  1  0.89563747  0.75000000  0.75000000  1
  Ge  Ge16  1  0.00000000  0.25000000  0.75000000  1
  Ge  Ge17  1  0.00000000  0.75000000  0.25000000  1
