# generated using pymatgen
data_AlCr4CuSe8
_symmetry_space_group_name_H-M   'P 1'
_cell_length_a   7.47500470
_cell_length_b   7.47500470
_cell_length_c   7.47500470
_cell_angle_alpha   90.00000000
_cell_angle_beta   60.00000000
_cell_angle_gamma   120.00000000
_symmetry_Int_Tables_number   1
_chemical_formula_structural   AlCr4CuSe8
_chemical_formula_sum   'Al1 Cr4 Cu1 Se8'
_cell_volume   295.33805585
_cell_formula_units_Z   1
loop_
 _symmetry_equiv_pos_site_id
 _symmetry_equiv_pos_as_xyz
  1  'x, y, z'
loop_
 _atom_site_type_symbol
 _atom_site_label
 _atom_site_symmetry_multiplicity
 _atom_site_fract_x
 _atom_site_fract_y
 _atom_site_fract_z
 _atom_site_occupancy
  Al  Al0  1  0.25000000  0.62500000  0.62500000  1
  Cr  Cr1  1  0.49216728  0.48825092  0.00391636  1
  Cr  Cr2  1  0.49216728  0.00391636  0.00391636  1
  Cr  Cr3  1  0.00783272  0.00391636  0.48825092  1
  Cr  Cr4  1  0.00783272  0.00391636  0.00391636  1
  Cu  Cu5  1  0.75000000  0.37500000  0.37500000  1
  Se  Se6  1  0.01685428  0.77528142  0.24157286  1
  Se  Se7  1  0.01685428  0.24157286  0.24157286  1
  Se  Se8  1  0.48314572  0.24157286  0.77528142  1
  Se  Se9  1  0.48314572  0.24157286  0.24157286  1
  Se  Se10  1  0.98268961  0.22403442  0.75865519  1
  Se  Se11  1  0.98268961  0.75865519  0.75865519  1
  Se  Se12  1  0.51731039  0.75865519  0.22403442  1
  Se  Se13  1  0.51731039  0.75865519  0.75865519  1
