# generated using pymatgen
data_ThNi5
_symmetry_space_group_name_H-M   'P 1'
_cell_length_a   4.00071382
_cell_length_b   4.92250726
_cell_length_c   4.92299178
_cell_angle_alpha   119.99674949
_cell_angle_beta   90.00000000
_cell_angle_gamma   90.00000000
_symmetry_Int_Tables_number   1
_chemical_formula_structural   ThNi5
_chemical_formula_sum   'Th1 Ni5'
_cell_volume   83.96490835
_cell_formula_units_Z   1
loop_
 _symmetry_equiv_pos_site_id
 _symmetry_equiv_pos_as_xyz
  1  'x, y, z'
loop_
 _atom_site_type_symbol
 _atom_site_label
 _atom_site_symmetry_multiplicity
 _atom_site_fract_x
 _atom_site_fract_y
 _atom_site_fract_z
 _atom_site_occupancy
  Th  Th0  1  -0.00000000  0.99999575  1.00000000  1
  Ni  Ni1  1  -0.00000000  0.33330282  0.66669431  1
  Ni  Ni2  1  -0.00000000  0.66660851  0.33330569  1
  Ni  Ni3  1  0.50000000  0.49999881  1.00000000  1
  Ni  Ni4  1  0.50000000  0.49999775  0.50000140  1
  Ni  Ni5  1  0.50000000  0.99999635  0.49999860  1
