# generated using pymatgen
data_Nb6O15F
_symmetry_space_group_name_H-M   'P 1'
_cell_length_a   3.97094990
_cell_length_b   9.13895975
_cell_length_c   17.11437751
_cell_angle_alpha   90.00000000
_cell_angle_beta   90.00000000
_cell_angle_gamma   90.00000000
_symmetry_Int_Tables_number   1
_chemical_formula_structural   Nb6O15F
_chemical_formula_sum   'Nb12 O30 F2'
_cell_volume   621.08677221
_cell_formula_units_Z   2
loop_
 _symmetry_equiv_pos_site_id
 _symmetry_equiv_pos_as_xyz
  1  'x, y, z'
loop_
 _atom_site_type_symbol
 _atom_site_label
 _atom_site_symmetry_multiplicity
 _atom_site_fract_x
 _atom_site_fract_y
 _atom_site_fract_z
 _atom_site_occupancy
  Nb  Nb0  1  -0.00000000  0.68401612  0.25000000  1
  Nb  Nb1  1  -0.00000000  0.31598388  0.75000000  1
  Nb  Nb2  1  -0.00000000  0.39729795  0.37312454  1
  Nb  Nb3  1  0.00000000  0.60270205  0.62687546  1
  Nb  Nb4  1  -0.00000000  0.39729795  0.12687546  1
  Nb  Nb5  1  -0.00000000  0.60270205  0.87312454  1
  Nb  Nb6  1  -0.00000000  0.81652910  0.44041931  1
  Nb  Nb7  1  -0.00000000  0.18347090  0.55958069  1
  Nb  Nb8  1  -0.00000000  0.81652910  0.05958069  1
  Nb  Nb9  1  0.00000000  0.18347090  0.94041931  1
  Nb  Nb10  1  0.00000000  0.05850539  0.25000000  1
  Nb  Nb11  1  0.00000000  0.94149461  0.75000000  1
  O  O12  1  0.00000000  0.46466416  0.25000000  1
  O  O13  1  -0.00000000  0.53533584  0.75000000  1
  O  O14  1  -0.00000000  0.62102065  0.36497718  1
  O  O15  1  -0.00000000  0.37897935  0.63502282  1
  O  O16  1  0.00000000  0.62102065  0.13502282  1
  O  O17  1  -0.00000000  0.37897935  0.86497718  1
  O  O18  1  0.00000000  0.87059119  0.32325498  1
  O  O19  1  -0.00000000  0.12940881  0.67674502  1
  O  O20  1  0.00000000  0.87059119  0.17674502  1
  O  O21  1  0.00000000  0.12940881  0.82325498  1
  O  O22  1  0.00000000  0.19640527  0.33378762  1
  O  O23  1  -0.00000000  0.80359473  0.66621238  1
  O  O24  1  0.00000000  0.19640527  0.16621238  1
  O  O25  1  -0.00000000  0.80359473  0.83378762  1
  O  O26  1  -0.00000000  0.33699382  0.48091224  1
  O  O27  1  0.00000000  0.66300618  0.51908776  1
  O  O28  1  -0.00000000  0.33699382  0.01908776  1
  O  O29  1  -0.00000000  0.66300618  0.98091224  1
  O  O30  1  0.50000000  0.40561295  0.37001552  1
  O  O31  1  0.50000000  0.59438705  0.62998448  1
  O  O32  1  0.50000000  0.40561295  0.12998448  1
  O  O33  1  0.50000000  0.59438705  0.87001552  1
  O  O34  1  -0.00000000  0.00000000  0.50000000  1
  O  O35  1  -0.00000000  -0.00000000  -0.00000000  1
  O  O36  1  0.50000000  0.81938839  0.43878784  1
  O  O37  1  0.50000000  0.18061161  0.56121216  1
  O  O38  1  0.50000000  0.81938839  0.06121216  1
  O  O39  1  0.50000000  0.18061161  0.93878784  1
  O  O40  1  0.50000000  0.04707558  0.25000000  1
  O  O41  1  0.50000000  0.95292442  0.75000000  1
  F  F42  1  0.50000000  0.69479024  0.25000000  1
  F  F43  1  0.50000000  0.30520976  0.75000000  1
