# generated using pymatgen
data_TbOF
_symmetry_space_group_name_H-M   'P 1'
_cell_length_a   6.77721392
_cell_length_b   6.77721392
_cell_length_c   6.77721392
_cell_angle_alpha   32.94581631
_cell_angle_beta   32.94581628
_cell_angle_gamma   32.94581637
_symmetry_Int_Tables_number   1
_chemical_formula_structural   TbOF
_chemical_formula_sum   'Tb2 O2 F2'
_cell_volume   81.92468714
_cell_formula_units_Z   2
loop_
 _symmetry_equiv_pos_site_id
 _symmetry_equiv_pos_as_xyz
  1  'x, y, z'
loop_
 _atom_site_type_symbol
 _atom_site_label
 _atom_site_symmetry_multiplicity
 _atom_site_fract_x
 _atom_site_fract_y
 _atom_site_fract_z
 _atom_site_occupancy
  O  O0  1  0.62194360  0.62194360  0.62194360  1
  O  O1  1  0.37805640  0.37805640  0.37805640  1
  F  F2  1  0.12985525  0.12985525  0.12985525  1
  F  F3  1  0.87014475  0.87014475  0.87014475  1
  Tb  Tb4  1  0.74100707  0.74100707  0.74100707  1
  Tb  Tb5  1  0.25899293  0.25899293  0.25899293  1
