# generated using pymatgen
data_TbCu2
_symmetry_space_group_name_H-M   'P 1'
_cell_length_a   4.31861189
_cell_length_b   5.47771012
_cell_length_c   5.47771012
_cell_angle_alpha   78.36980406
_cell_angle_beta   66.78399453
_cell_angle_gamma   66.78399453
_symmetry_Int_Tables_number   1
_chemical_formula_structural   TbCu2
_chemical_formula_sum   'Tb2 Cu4'
_cell_volume   109.28144253
_cell_formula_units_Z   2
loop_
 _symmetry_equiv_pos_site_id
 _symmetry_equiv_pos_as_xyz
  1  'x, y, z'
loop_
 _atom_site_type_symbol
 _atom_site_label
 _atom_site_symmetry_multiplicity
 _atom_site_fract_x
 _atom_site_fract_y
 _atom_site_fract_z
 _atom_site_occupancy
  Tb  Tb0  1  0.53836256  0.71163744  0.21163744  1
  Tb  Tb1  1  0.46163744  0.28836256  0.78836256  1
  Cu  Cu2  1  0.16521628  0.28439591  0.38517153  1
  Cu  Cu3  1  0.83478372  0.71560409  0.61482847  1
  Cu  Cu4  1  0.83478372  0.11482847  0.21560409  1
  Cu  Cu5  1  0.16521628  0.88517153  0.78439591  1
