# generated using pymatgen
data_EuAg2
_symmetry_space_group_name_H-M   'P 1'
_cell_length_a   4.82550790
_cell_length_b   6.09502957
_cell_length_c   6.09502926
_cell_angle_alpha   75.98935167
_cell_angle_beta   66.68063163
_cell_angle_gamma   66.68063499
_symmetry_Int_Tables_number   1
_chemical_formula_structural   EuAg2
_chemical_formula_sum   'Eu2 Ag4'
_cell_volume   150.39635357
_cell_formula_units_Z   2
loop_
 _symmetry_equiv_pos_site_id
 _symmetry_equiv_pos_as_xyz
  1  'x, y, z'
loop_
 _atom_site_type_symbol
 _atom_site_label
 _atom_site_symmetry_multiplicity
 _atom_site_fract_x
 _atom_site_fract_y
 _atom_site_fract_z
 _atom_site_occupancy
  Ag  Ag0  1  0.83663169  0.11183915  0.21489747  1
  Ag  Ag1  1  0.16336831  0.88816085  0.78510253  1
  Ag  Ag2  1  0.16336831  0.28510253  0.38816085  1
  Ag  Ag3  1  0.83663169  0.71489747  0.61183915  1
  Eu  Eu4  1  0.45638759  0.29361241  0.79361241  1
  Eu  Eu5  1  0.54361241  0.70638759  0.20638759  1
