# generated using pymatgen
data_CsErSiS4
_symmetry_space_group_name_H-M   'P 1'
_cell_length_a   6.38744381
_cell_length_b   6.72162232
_cell_length_c   17.96404975
_cell_angle_alpha   90.00000000
_cell_angle_beta   90.00000000
_cell_angle_gamma   90.00000000
_symmetry_Int_Tables_number   1
_chemical_formula_structural   CsErSiS4
_chemical_formula_sum   'Cs4 Er4 Si4 S16'
_cell_volume   771.26824037
_cell_formula_units_Z   4
loop_
 _symmetry_equiv_pos_site_id
 _symmetry_equiv_pos_as_xyz
  1  'x, y, z'
loop_
 _atom_site_type_symbol
 _atom_site_label
 _atom_site_symmetry_multiplicity
 _atom_site_fract_x
 _atom_site_fract_y
 _atom_site_fract_z
 _atom_site_occupancy
  Si  Si0  1  0.70908683  0.48255624  0.67027800  1
  Si  Si1  1  0.29091317  0.98255624  0.82972200  1
  Si  Si2  1  0.79091317  0.51744376  0.17027800  1
  Si  Si3  1  0.20908683  0.01744376  0.32972200  1
  S  S4  1  0.06608983  0.75327396  0.85070304  1
  S  S5  1  0.56608983  0.74672604  0.14929696  1
  S  S6  1  0.93391017  0.25327396  0.64929696  1
  S  S7  1  0.43391017  0.24672604  0.35070304  1
  S  S8  1  0.39615291  0.75327644  0.34018741  1
  S  S9  1  0.10384709  0.24672356  0.84018741  1
  S  S10  1  0.89615291  0.74672356  0.65981259  1
  S  S11  1  0.60384709  0.25327644  0.15981259  1
  S  S12  1  0.94529609  0.01144577  0.40084618  1
  S  S13  1  0.44529609  0.48855423  0.59915382  1
  S  S14  1  0.05470391  0.51144577  0.09915382  1
  S  S15  1  0.55470391  0.98855423  0.90084618  1
  S  S16  1  0.39835241  0.91922051  0.72007042  1
  S  S17  1  0.89835241  0.58077949  0.27992958  1
  S  S18  1  0.60164759  0.41922051  0.77992958  1
  S  S19  1  0.10164759  0.08077949  0.22007042  1
  Cs  Cs20  1  0.51261980  0.99409717  0.53232820  1
  Cs  Cs21  1  0.01261980  0.50590283  0.46767180  1
  Cs  Cs22  1  0.48738020  0.49409717  0.96767180  1
  Cs  Cs23  1  0.98738020  0.00590283  0.03232820  1
  Er  Er24  1  0.70877987  0.97762980  0.27163749  1
  Er  Er25  1  0.20877987  0.52237020  0.72836251  1
  Er  Er26  1  0.29122013  0.47762980  0.22836251  1
  Er  Er27  1  0.79122013  0.02237020  0.77163749  1
