# generated using pymatgen
data_SbH2CS(OF3)3
_symmetry_space_group_name_H-M   'P 1'
_cell_length_a   7.66022154
_cell_length_b   8.00558747
_cell_length_c   9.27896819
_cell_angle_alpha   68.62672679
_cell_angle_beta   73.58394276
_cell_angle_gamma   84.85680863
_symmetry_Int_Tables_number   1
_chemical_formula_structural   SbH2CS(OF3)3
_chemical_formula_sum   'Sb2 H4 C2 S2 O6 F18'
_cell_volume   508.23632407
_cell_formula_units_Z   2
loop_
 _symmetry_equiv_pos_site_id
 _symmetry_equiv_pos_as_xyz
  1  'x, y, z'
loop_
 _atom_site_type_symbol
 _atom_site_label
 _atom_site_symmetry_multiplicity
 _atom_site_fract_x
 _atom_site_fract_y
 _atom_site_fract_z
 _atom_site_occupancy
  Sb  Sb0  1  0.63070636  0.89858178  0.74891419  1
  Sb  Sb1  1  0.36929364  0.10141822  0.25108581  1
  H  H2  1  0.71741374  0.26429304  0.47412165  1
  H  H3  1  0.28258626  0.73570696  0.52587835  1
  H  H4  1  0.59390020  0.68272437  0.12999195  1
  H  H5  1  0.40609980  0.31727563  0.87000805  1
  C  C6  1  0.96627386  0.67479239  0.22483870  1
  C  C7  1  0.03372614  0.32520761  0.77516130  1
  S  S8  1  0.78011995  0.51510187  0.25403201  1
  S  S9  1  0.21988005  0.48489813  0.74596799  1
  O  O10  1  0.61242201  0.63511350  0.24430082  1
  O  O11  1  0.38757799  0.36488650  0.75569918  1
  O  O12  1  0.74894978  0.40639075  0.43030441  1
  O  O13  1  0.25105022  0.59360925  0.56969559  1
  O  O14  1  0.83131836  0.42740896  0.14054255  1
  O  O15  1  0.16868164  0.57259104  0.85945745  1
  F  F16  1  0.92319485  0.74108962  0.34339436  1
  F  F17  1  0.07680515  0.25891038  0.65660564  1
  F  F18  1  0.98248798  0.80611332  0.08218861  1
  F  F19  1  0.01751202  0.19388668  0.91781139  1
  F  F20  1  0.11927151  0.58000020  0.22685946  1
  F  F21  1  0.88072849  0.41999980  0.77314054  1
  F  F22  1  0.58283604  0.71724213  0.96520761  1
  F  F23  1  0.41716396  0.28275787  0.03479239  1
  F  F24  1  0.38134868  0.96013868  0.78458742  1
  F  F25  1  0.61865132  0.03986132  0.21541258  1
  F  F26  1  0.87940535  0.83385550  0.70488191  1
  F  F27  1  0.12059465  0.16614450  0.29511809  1
  F  F28  1  0.58039098  0.73155472  0.66273078  1
  F  F29  1  0.41960902  0.26844528  0.33726922  1
  F  F30  1  0.68267385  0.07218330  0.82797595  1
  F  F31  1  0.31732615  0.92781670  0.17202405  1
  F  F32  1  0.68424029  0.09027732  0.53314191  1
  F  F33  1  0.31575971  0.90972268  0.46685809  1
