# generated using pymatgen
data_Al12Co4Cu
_symmetry_space_group_name_H-M   'P 1'
_cell_length_a   8.03225282
_cell_length_b   8.61262236
_cell_length_c   12.37677094
_cell_angle_alpha   106.04188709
_cell_angle_beta   90.00000000
_cell_angle_gamma   117.79484406
_symmetry_Int_Tables_number   1
_chemical_formula_structural   Al12Co4Cu
_chemical_formula_sum   'Al36 Co12 Cu3'
_cell_volume   719.51875679
_cell_formula_units_Z   3
loop_
 _symmetry_equiv_pos_site_id
 _symmetry_equiv_pos_as_xyz
  1  'x, y, z'
loop_
 _atom_site_type_symbol
 _atom_site_label
 _atom_site_symmetry_multiplicity
 _atom_site_fract_x
 _atom_site_fract_y
 _atom_site_fract_z
 _atom_site_occupancy
  Al  Al0  1  0.60331224  0.63868933  0.65919370  1
  Al  Al1  1  0.03537709  0.63868933  0.65919370  1
  Al  Al2  1  0.59872796  0.62590804  0.88166027  1
  Al  Al3  1  0.02718008  0.62590804  0.88166027  1
  Al  Al4  1  0.40471993  0.25461164  0.88516417  1
  Al  Al5  1  0.84989171  0.25461164  0.88516417  1
  Al  Al6  1  0.27436427  0.01416792  0.66925337  1
  Al  Al7  1  0.73980365  0.01416792  0.66925337  1
  Al  Al8  1  0.42036098  0.25734776  0.51698302  1
  Al  Al9  1  0.83698678  0.25734776  0.51698302  1
  Al  Al10  1  0.24932059  0.99681274  0.99613417  1
  Al  Al11  1  0.74749215  0.99681274  0.99613417  1
  Al  Al12  1  0.39344933  0.35472891  0.33290022  1
  Al  Al13  1  0.96127958  0.35472891  0.33290022  1
  Al  Al14  1  0.39795642  0.36782854  0.11053654  1
  Al  Al15  1  0.47783318  0.95566636  0.82764726  1
  Al  Al16  1  0.75968557  0.51937113  0.03429928  1
  Al  Al17  1  0.94175160  0.88350321  0.82062031  1
  Al  Al18  1  0.76269758  0.52539515  0.46277370  1
  Al  Al19  1  0.51903660  0.03807319  0.16445567  1
  Al  Al20  1  0.23705070  0.47410140  0.95761095  1
  Al  Al21  1  0.05497194  0.10994388  0.17146406  1
  Al  Al22  1  0.23402440  0.46804880  0.52924217  1
  Al  Al23  1  0.92299938  0.84599875  0.40838095  1
  Al  Al24  1  0.69872270  0.39744540  0.22668031  1
  Al  Al25  1  0.07377455  0.14754909  0.58365764  1
  Al  Al26  1  0.29818250  0.59636500  0.76533798  1
  Al  Al27  1  0.33021294  0.66042589  0.27650069  1
  Al  Al28  1  0.66698633  0.33397265  0.71619200  1
  Al  Al29  1  0.15945429  0.73609609  0.47521088  1
  Al  Al30  1  0.57664181  0.73609609  0.47521088  1
  Al  Al31  1  0.25687572  0.97945886  0.32280452  1
  Al  Al32  1  0.72258314  0.97945886  0.32280452  1
  Al  Al33  1  0.14706069  0.73891346  0.10702731  1
  Al  Al34  1  0.59185278  0.73891346  0.10702731  1
  Al  Al35  1  0.96987212  0.36782854  0.11053654  1
  Co  Co36  1  0.39957538  0.36076324  0.71534338  1
  Co  Co37  1  0.96118785  0.36076324  0.71534338  1
  Co  Co38  1  0.59718796  0.63282549  0.27682175  1
  Co  Co39  1  0.03563753  0.63282549  0.27682175  1
  Co  Co40  1  0.08509368  0.17018736  0.38600629  1
  Co  Co41  1  0.09064189  0.18128377  0.99210612  1
  Co  Co42  1  0.39748385  0.79496770  0.97869928  1
  Co  Co43  1  0.60170574  0.20341148  0.36535864  1
  Co  Co44  1  0.91165224  0.82330447  0.60605824  1
  Co  Co45  1  0.90614894  0.81229788  0.99998143  1
  Co  Co46  1  0.59930947  0.19861894  0.01339568  1
  Co  Co47  1  0.39505092  0.79010184  0.62671418  1
  Cu  Cu48  1  0.08813961  0.17627922  0.78325637  1
  Cu  Cu49  1  0.90848501  0.81697001  0.20873041  1
  Cu  Cu50  1  0.49820667  0.99641334  0.49576378  1
