# generated using pymatgen
data_K4GeO4
_symmetry_space_group_name_H-M   'P 1'
_cell_length_a   6.65846398
_cell_length_b   10.60092902
_cell_length_c   10.66955981
_cell_angle_alpha   111.43265895
_cell_angle_beta   90.00000000
_cell_angle_gamma   90.00000000
_symmetry_Int_Tables_number   1
_chemical_formula_structural   K4GeO4
_chemical_formula_sum   'K16 Ge4 O16'
_cell_volume   701.04049511
_cell_formula_units_Z   4
loop_
 _symmetry_equiv_pos_site_id
 _symmetry_equiv_pos_as_xyz
  1  'x, y, z'
loop_
 _atom_site_type_symbol
 _atom_site_label
 _atom_site_symmetry_multiplicity
 _atom_site_fract_x
 _atom_site_fract_y
 _atom_site_fract_z
 _atom_site_occupancy
  O  O0  1  0.00270960  0.72576850  0.84182315  1
  O  O1  1  0.25613943  0.41922965  0.53339459  1
  O  O2  1  0.75613943  0.58077035  0.96660541  1
  O  O3  1  0.02945057  0.79967509  0.13797605  1
  O  O4  1  0.52945057  0.20032491  0.36202395  1
  O  O5  1  0.97054943  0.20032491  0.86202395  1
  O  O6  1  0.47054943  0.79967509  0.63797605  1
  O  O7  1  0.66696323  0.86585729  0.02163881  1
  O  O8  1  0.16696323  0.13414271  0.47836119  1
  O  O9  1  0.33303677  0.13414271  0.97836119  1
  O  O10  1  0.83303677  0.86585729  0.52163881  1
  O  O11  1  0.49729040  0.72576850  0.34182315  1
  O  O12  1  0.74386057  0.58077035  0.46660541  1
  O  O13  1  0.99729040  0.27423150  0.15817685  1
  O  O14  1  0.50270960  0.27423150  0.65817685  1
  O  O15  1  0.24386057  0.41922965  0.03339459  1
  K  K16  1  0.19385362  0.07057658  0.20182722  1
  K  K17  1  0.30614638  0.07057658  0.70182722  1
  K  K18  1  0.60528598  0.33865869  0.91164534  1
  K  K19  1  0.90922195  0.55623618  0.19192811  1
  K  K20  1  0.40922195  0.44376382  0.30807189  1
  K  K21  1  0.09077805  0.44376382  0.80807189  1
  K  K22  1  0.59077805  0.55623618  0.69192811  1
  K  K23  1  0.16427070  0.86557148  0.38932500  1
  K  K24  1  0.66427070  0.13442852  0.11067500  1
  K  K25  1  0.83572930  0.13442852  0.61067500  1
  K  K26  1  0.33572930  0.86557148  0.88932500  1
  K  K27  1  0.89471402  0.33865869  0.41164534  1
  K  K28  1  0.39471402  0.66134131  0.08835466  1
  K  K29  1  0.10528598  0.66134131  0.58835466  1
  K  K30  1  0.69385362  0.92942342  0.29817278  1
  K  K31  1  0.80614638  0.92942342  0.79817278  1
  Ge  Ge32  1  0.63374253  0.74302944  0.49237606  1
  Ge  Ge33  1  0.36625747  0.25697056  0.50762394  1
  Ge  Ge34  1  0.86625747  0.74302944  0.99237606  1
  Ge  Ge35  1  0.13374253  0.25697056  0.00762394  1
