# generated using pymatgen
data_TiTl2(GeO3)3
_symmetry_space_group_name_H-M   'P 1'
_cell_length_a   7.10262359
_cell_length_b   7.10262359
_cell_length_c   10.48469028
_cell_angle_alpha   90.00000000
_cell_angle_beta   90.00000000
_cell_angle_gamma   120.00000006
_symmetry_Int_Tables_number   1
_chemical_formula_structural   TiTl2(GeO3)3
_chemical_formula_sum   'Ti2 Tl4 Ge6 O18'
_cell_volume   458.06154745
_cell_formula_units_Z   2
loop_
 _symmetry_equiv_pos_site_id
 _symmetry_equiv_pos_as_xyz
  1  'x, y, z'
loop_
 _atom_site_type_symbol
 _atom_site_label
 _atom_site_symmetry_multiplicity
 _atom_site_fract_x
 _atom_site_fract_y
 _atom_site_fract_z
 _atom_site_occupancy
  O  O0  1  0.23285087  0.22469661  0.39251301  1
  O  O1  1  0.00815426  0.23285087  0.89251301  1
  O  O2  1  0.22469661  0.99184574  0.89251301  1
  O  O3  1  0.77530339  0.00815426  0.39251301  1
  O  O4  1  0.99184574  0.76714913  0.39251301  1
  O  O5  1  0.76714913  0.77530339  0.89251301  1
  O  O6  1  0.76714913  0.77530339  0.60748699  1
  O  O7  1  0.99184574  0.76714913  0.10748699  1
  O  O8  1  0.77530339  0.00815426  0.10748699  1
  O  O9  1  0.22469661  0.99184574  0.60748699  1
  O  O10  1  0.00815426  0.23285087  0.60748699  1
  O  O11  1  0.23285087  0.22469661  0.10748699  1
  O  O12  1  0.47804666  0.06432395  0.25000000  1
  O  O13  1  0.41372271  0.47804666  0.75000000  1
  O  O14  1  0.06432395  0.58627729  0.75000000  1
  O  O15  1  0.93567605  0.41372271  0.25000000  1
  O  O16  1  0.58627729  0.52195334  0.25000000  1
  O  O17  1  0.52195334  0.93567605  0.75000000  1
  Ti  Ti18  1  0.00000000  0.00000000  0.50000000  1
  Ti  Ti19  1  0.00000000  0.00000000  0.00000000  1
  Ge  Ge20  1  0.24196042  0.87450368  0.75000000  1
  Ge  Ge21  1  0.63254326  0.75803958  0.75000000  1
  Ge  Ge22  1  0.12549632  0.36745674  0.75000000  1
  Ge  Ge23  1  0.36745674  0.24196042  0.25000000  1
  Ge  Ge24  1  0.87450368  0.63254326  0.25000000  1
  Ge  Ge25  1  0.75803958  0.12549632  0.25000000  1
  Tl  Tl26  1  0.33333333  0.66666667  0.44253113  1
  Tl  Tl27  1  0.66666667  0.33333333  0.94253113  1
  Tl  Tl28  1  0.66666667  0.33333333  0.55746887  1
  Tl  Tl29  1  0.33333333  0.66666667  0.05746887  1
