# generated using pymatgen
data_Nb6CuSe8
_symmetry_space_group_name_H-M   'P 1'
_cell_length_a   3.47619511
_cell_length_b   10.05263348
_cell_length_c   10.05405454
_cell_angle_alpha   60.02828193
_cell_angle_beta   90.00073807
_cell_angle_gamma   89.99972952
_symmetry_Int_Tables_number   1
_chemical_formula_structural   Nb6CuSe8
_chemical_formula_sum   'Nb6 Cu1 Se8'
_cell_volume   304.35438219
_cell_formula_units_Z   1
loop_
 _symmetry_equiv_pos_site_id
 _symmetry_equiv_pos_as_xyz
  1  'x, y, z'
loop_
 _atom_site_type_symbol
 _atom_site_label
 _atom_site_symmetry_multiplicity
 _atom_site_fract_x
 _atom_site_fract_y
 _atom_site_fract_z
 _atom_site_occupancy
  Nb  Nb0  1  0.75021692  0.37958390  0.51243495  1
  Nb  Nb1  1  0.75019877  0.10802133  0.37961908  1
  Nb  Nb2  1  0.75021252  0.51247443  0.10795732  1
  Nb  Nb3  1  0.24978308  0.62041610  0.48756505  1
  Nb  Nb4  1  0.24980123  0.89197867  0.62038092  1
  Nb  Nb5  1  0.24978748  0.48752557  0.89204268  1
  Cu  Cu6  1  0.50000000  -0.00000000  0.00000000  1
  Se  Se7  1  0.74830296  0.05778316  0.66594875  1
  Se  Se8  1  0.74828646  0.27624532  0.05784021  1
  Se  Se9  1  0.74830034  0.66591329  0.27628158  1
  Se  Se10  1  0.25169704  0.94221684  0.33405125  1
  Se  Se11  1  0.25171354  0.72375468  0.94215979  1
  Se  Se12  1  0.25169966  0.33408671  0.72371842  1
  Se  Se13  1  0.75040907  0.66665667  0.66666592  1
  Se  Se14  1  0.24959093  0.33334333  0.33333408  1
