# generated using pymatgen
data_Cs3TaS4
_symmetry_space_group_name_H-M   'P 1'
_cell_length_a   10.07824696
_cell_length_b   10.19941917
_cell_length_c   11.83322306
_cell_angle_alpha   90.00000000
_cell_angle_beta   90.00000000
_cell_angle_gamma   90.00000000
_symmetry_Int_Tables_number   1
_chemical_formula_structural   Cs3TaS4
_chemical_formula_sum   'Cs12 Ta4 S16'
_cell_volume   1216.36380347
_cell_formula_units_Z   4
loop_
 _symmetry_equiv_pos_site_id
 _symmetry_equiv_pos_as_xyz
  1  'x, y, z'
loop_
 _atom_site_type_symbol
 _atom_site_label
 _atom_site_symmetry_multiplicity
 _atom_site_fract_x
 _atom_site_fract_y
 _atom_site_fract_z
 _atom_site_occupancy
  S  S0  1  0.20426981  0.73885712  0.25000000  1
  S  S1  1  0.70426981  0.76114288  0.25000000  1
  S  S2  1  0.29573019  0.23885712  0.75000000  1
  S  S3  1  0.79573019  0.26114288  0.75000000  1
  S  S4  1  0.01231367  0.42591453  0.25000000  1
  S  S5  1  0.51231367  0.07408547  0.25000000  1
  S  S6  1  0.48768633  0.92591453  0.75000000  1
  S  S7  1  0.98768633  0.57408547  0.75000000  1
  S  S8  1  0.66781756  0.54850138  0.59034354  1
  S  S9  1  0.16781756  0.95149862  0.90965646  1
  S  S10  1  0.83218244  0.04850138  0.40965646  1
  S  S11  1  0.33218244  0.45149862  0.09034354  1
  S  S12  1  0.33218244  0.45149862  0.40965646  1
  S  S13  1  0.66781756  0.54850138  0.90965646  1
  S  S14  1  0.16781756  0.95149862  0.59034354  1
  S  S15  1  0.83218244  0.04850138  0.09034354  1
  Cs  Cs16  1  0.94955676  0.71066012  0.04183483  1
  Cs  Cs17  1  0.44955676  0.78933988  0.04183483  1
  Cs  Cs18  1  0.55044324  0.21066012  0.54183483  1
  Cs  Cs19  1  0.05044324  0.28933988  0.95816517  1
  Cs  Cs20  1  0.14537498  0.07957738  0.25000000  1
  Cs  Cs21  1  0.64537498  0.42042262  0.25000000  1
  Cs  Cs22  1  0.35462502  0.57957738  0.75000000  1
  Cs  Cs23  1  0.85462502  0.92042262  0.75000000  1
  Cs  Cs24  1  0.05044324  0.28933988  0.54183483  1
  Cs  Cs25  1  0.44955676  0.78933988  0.45816517  1
  Cs  Cs26  1  0.55044324  0.21066012  0.95816517  1
  Cs  Cs27  1  0.94955676  0.71066012  0.45816517  1
  Ta  Ta28  1  0.77864788  0.48525574  0.75000000  1
  Ta  Ta29  1  0.27864788  0.01474426  0.75000000  1
  Ta  Ta30  1  0.72135212  0.98525574  0.25000000  1
  Ta  Ta31  1  0.22135212  0.51474426  0.25000000  1
