# generated using pymatgen
data_KAlP2O7
_symmetry_space_group_name_H-M   'P 1'
_cell_length_a   7.45339839
_cell_length_b   8.16213483
_cell_length_c   9.78207664
_cell_angle_alpha   90.00000000
_cell_angle_beta   90.00000000
_cell_angle_gamma   107.11053963
_symmetry_Int_Tables_number   1
_chemical_formula_structural   KAlP2O7
_chemical_formula_sum   'K4 Al4 P8 O28'
_cell_volume   568.75919132
_cell_formula_units_Z   4
loop_
 _symmetry_equiv_pos_site_id
 _symmetry_equiv_pos_as_xyz
  1  'x, y, z'
loop_
 _atom_site_type_symbol
 _atom_site_label
 _atom_site_symmetry_multiplicity
 _atom_site_fract_x
 _atom_site_fract_y
 _atom_site_fract_z
 _atom_site_occupancy
  O  O0  1  0.55717211  0.25428709  0.28085027  1
  O  O1  1  0.44282789  0.24571291  0.78085027  1
  O  O2  1  0.44282789  0.74571291  0.71914973  1
  O  O3  1  0.55717211  0.75428709  0.21914973  1
  O  O4  1  0.02232022  0.27555408  0.99911016  1
  O  O5  1  0.97767978  0.22444592  0.49911016  1
  O  O6  1  0.97767978  0.72444592  0.00088984  1
  O  O7  1  0.02232022  0.77555408  0.50088984  1
  O  O8  1  0.67740113  0.49694499  0.10423728  1
  O  O9  1  0.32259887  0.00305501  0.60423728  1
  O  O10  1  0.32259887  0.50305501  0.89576272  1
  O  O11  1  0.67740113  0.99694499  0.39576272  1
  O  O12  1  0.84982998  0.97956987  0.09195113  1
  O  O13  1  0.15017002  0.52043013  0.59195113  1
  O  O14  1  0.15017002  0.02043013  0.90804887  1
  O  O15  1  0.84982998  0.47956987  0.40804887  1
  O  O16  1  0.67678494  0.19731339  0.04674706  1
  O  O17  1  0.32321506  0.30268661  0.54674706  1
  O  O18  1  0.32321506  0.80268661  0.95325294  1
  O  O19  1  0.67678494  0.69731339  0.45325294  1
  O  O20  1  0.91447551  0.74523984  0.25904926  1
  O  O21  1  0.08552449  0.75476016  0.75904926  1
  O  O22  1  0.08552449  0.25476016  0.74095074  1
  O  O23  1  0.91447551  0.24523984  0.24095074  1
  O  O24  1  0.36877221  0.76129134  0.43058244  1
  O  O25  1  0.63122779  0.73870866  0.93058244  1
  O  O26  1  0.63122779  0.23870866  0.56941756  1
  O  O27  1  0.36877221  0.26129134  0.06941756  1
  Al  Al28  1  0.76147441  0.74063296  0.10042432  1
  Al  Al29  1  0.23852559  0.75936704  0.60042432  1
  Al  Al30  1  0.23852559  0.25936704  0.89957568  1
  Al  Al31  1  0.76147441  0.24063296  0.39957568  1
  P  P32  1  0.87357404  0.66864798  0.40301344  1
  P  P33  1  0.12642596  0.83135202  0.90301344  1
  P  P34  1  0.12642596  0.33135202  0.59698656  1
  P  P35  1  0.87357404  0.16864798  0.09698656  1
  P  P36  1  0.56582564  0.31166707  0.13078277  1
  P  P37  1  0.43417436  0.18833293  0.63078277  1
  P  P38  1  0.43417436  0.68833293  0.86921723  1
  P  P39  1  0.56582564  0.81166707  0.36921723  1
  K  K40  1  0.81908367  0.44182705  0.81795082  1
  K  K41  1  0.18091633  0.05817295  0.31795082  1
  K  K42  1  0.18091633  0.55817295  0.18204918  1
  K  K43  1  0.81908367  0.94182705  0.68204918  1
