# generated using pymatgen
data_K2YF5
_symmetry_space_group_name_H-M   'P 1'
_cell_length_a   6.71001315
_cell_length_b   7.34664006
_cell_length_c   10.99937028
_cell_angle_alpha   90.00000000
_cell_angle_beta   90.00000000
_cell_angle_gamma   90.00000000
_symmetry_Int_Tables_number   1
_chemical_formula_structural   K2YF5
_chemical_formula_sum   'K8 Y4 F20'
_cell_volume   542.22552281
_cell_formula_units_Z   4
loop_
 _symmetry_equiv_pos_site_id
 _symmetry_equiv_pos_as_xyz
  1  'x, y, z'
loop_
 _atom_site_type_symbol
 _atom_site_label
 _atom_site_symmetry_multiplicity
 _atom_site_fract_x
 _atom_site_fract_y
 _atom_site_fract_z
 _atom_site_occupancy
  F  F0  1  0.85298378  0.78712090  0.07513770  1
  F  F1  1  0.14701622  0.28712090  0.92486230  1
  F  F2  1  0.64701622  0.78712090  0.57513770  1
  F  F3  1  0.35298378  0.28712090  0.42486230  1
  F  F4  1  0.85319553  0.21711107  0.07520521  1
  F  F5  1  0.14680447  0.71711107  0.92479479  1
  F  F6  1  0.64680447  0.21711107  0.57520521  1
  F  F7  1  0.35319553  0.71711107  0.42479479  1
  F  F8  1  0.62678971  0.00223927  0.33345483  1
  F  F9  1  0.37321029  0.50223927  0.66654517  1
  F  F10  1  0.87321029  0.00223927  0.83345483  1
  F  F11  1  0.12678971  0.50223927  0.16654517  1
  F  F12  1  0.10659373  0.00209589  0.48665695  1
  F  F13  1  0.89340627  0.50209589  0.51334305  1
  F  F14  1  0.39340627  0.00209589  0.98665695  1
  F  F15  1  0.60659373  0.50209589  0.01334305  1
  F  F16  1  0.16028389  0.00183499  0.19108038  1
  F  F17  1  0.83971611  0.50183499  0.80891962  1
  F  F18  1  0.33971611  0.00183499  0.69108038  1
  F  F19  1  0.66028389  0.50183499  0.30891962  1
  K  K20  1  0.96755751  0.75479047  0.32887645  1
  K  K21  1  0.03244249  0.25479047  0.67112355  1
  K  K22  1  0.53244249  0.75479047  0.82887645  1
  K  K23  1  0.46755751  0.25479047  0.17112355  1
  K  K24  1  0.96746284  0.24913157  0.32871422  1
  K  K25  1  0.03253716  0.74913157  0.67128578  1
  K  K26  1  0.53253716  0.24913157  0.82871422  1
  K  K27  1  0.46746284  0.74913157  0.17128578  1
  Y  Y28  1  0.93578627  0.50207585  0.00253808  1
  Y  Y29  1  0.06421373  0.00207585  0.99746192  1
  Y  Y30  1  0.56421373  0.50207585  0.50253808  1
  Y  Y31  1  0.43578627  0.00207585  0.49746192  1
