# generated using pymatgen
data_Rb2Ti(SiO3)3
_symmetry_space_group_name_H-M   'P 1'
_cell_length_a   7.00224811
_cell_length_b   7.00224811
_cell_length_c   10.10434420
_cell_angle_alpha   90.00000000
_cell_angle_beta   90.00000000
_cell_angle_gamma   120.00000003
_symmetry_Int_Tables_number   1
_chemical_formula_structural   Rb2Ti(SiO3)3
_chemical_formula_sum   'Rb4 Ti2 Si6 O18'
_cell_volume   429.05577657
_cell_formula_units_Z   2
loop_
 _symmetry_equiv_pos_site_id
 _symmetry_equiv_pos_as_xyz
  1  'x, y, z'
loop_
 _atom_site_type_symbol
 _atom_site_label
 _atom_site_symmetry_multiplicity
 _atom_site_fract_x
 _atom_site_fract_y
 _atom_site_fract_z
 _atom_site_occupancy
  O  O0  1  0.24751431  0.20764711  0.38703186  1
  O  O1  1  0.03986720  0.24751431  0.88703186  1
  O  O2  1  0.20764711  0.96013280  0.88703186  1
  O  O3  1  0.79235289  0.03986720  0.38703186  1
  O  O4  1  0.96013280  0.75248569  0.38703186  1
  O  O5  1  0.75248569  0.79235289  0.88703186  1
  O  O6  1  0.75248569  0.79235289  0.61296814  1
  O  O7  1  0.96013280  0.75248569  0.11296814  1
  O  O8  1  0.79235289  0.03986720  0.11296814  1
  O  O9  1  0.20764711  0.96013280  0.61296814  1
  O  O10  1  0.03986720  0.24751431  0.61296814  1
  O  O11  1  0.24751431  0.20764711  0.11296814  1
  O  O12  1  0.49882836  0.08445153  0.25000000  1
  O  O13  1  0.41437683  0.49882836  0.75000000  1
  O  O14  1  0.08445153  0.58562317  0.75000000  1
  O  O15  1  0.91554847  0.41437683  0.25000000  1
  O  O16  1  0.58562317  0.50117164  0.25000000  1
  O  O17  1  0.50117164  0.91554847  0.75000000  1
  Si  Si18  1  0.62109839  0.76163539  0.75000000  1
  Si  Si19  1  0.85946300  0.62109839  0.25000000  1
  Si  Si20  1  0.76163539  0.14053700  0.25000000  1
  Si  Si21  1  0.23836461  0.85946300  0.75000000  1
  Si  Si22  1  0.14053700  0.37890161  0.75000000  1
  Si  Si23  1  0.37890161  0.23836461  0.25000000  1
  Ti  Ti24  1  0.00000000  0.00000000  0.50000000  1
  Ti  Ti25  1  0.00000000  0.00000000  0.00000000  1
  Rb  Rb26  1  0.33333333  0.66666667  0.43999456  1
  Rb  Rb27  1  0.66666667  0.33333333  0.93999456  1
  Rb  Rb28  1  0.66666667  0.33333333  0.56000544  1
  Rb  Rb29  1  0.33333333  0.66666667  0.06000544  1
