# generated using pymatgen
data_Tb2Si3Rh
_symmetry_space_group_name_H-M   'P 1'
_cell_length_a   7.96687942
_cell_length_b   8.18083957
_cell_length_c   8.18083957
_cell_angle_alpha   120.00046526
_cell_angle_beta   90.00000000
_cell_angle_gamma   90.00000000
_symmetry_Int_Tables_number   1
_chemical_formula_structural   Tb2Si3Rh
_chemical_formula_sum   'Tb8 Si12 Rh4'
_cell_volume   461.75604733
_cell_formula_units_Z   4
loop_
 _symmetry_equiv_pos_site_id
 _symmetry_equiv_pos_as_xyz
  1  'x, y, z'
loop_
 _atom_site_type_symbol
 _atom_site_label
 _atom_site_symmetry_multiplicity
 _atom_site_fract_x
 _atom_site_fract_y
 _atom_site_fract_z
 _atom_site_occupancy
  Tb  Tb0  1  0.75000000  0.99998303  0.00001697  1
  Tb  Tb1  1  0.25000000  0.00001697  0.99998303  1
  Tb  Tb2  1  0.75000000  0.49195305  0.98392635  1
  Tb  Tb3  1  0.75000000  0.49194531  0.50805469  1
  Tb  Tb4  1  0.75000000  0.01607365  0.50804695  1
  Tb  Tb5  1  0.25000000  0.50804695  0.01607365  1
  Tb  Tb6  1  0.25000000  0.50805469  0.49194531  1
  Tb  Tb7  1  0.25000000  0.98392635  0.49195305  1
  Si  Si8  1  0.49964995  0.83319598  0.66639202  1
  Si  Si9  1  0.49959389  0.83318592  0.16681408  1
  Si  Si10  1  0.49964995  0.33360798  0.16680402  1
  Si  Si11  1  0.50035005  0.16680402  0.33360798  1
  Si  Si12  1  0.50040611  0.16681408  0.83318592  1
  Si  Si13  1  0.50035005  0.66639202  0.83319598  1
  Si  Si14  1  0.99964995  0.16680402  0.33360798  1
  Si  Si15  1  0.99959389  0.16681408  0.83318592  1
  Si  Si16  1  0.99964995  0.66639202  0.83319598  1
  Si  Si17  1  0.00035005  0.83319598  0.66639202  1
  Si  Si18  1  0.00040611  0.83318592  0.16681408  1
  Si  Si19  1  0.00035005  0.33360798  0.16680402  1
  Rh  Rh20  1  0.52968638  0.66666446  0.33333554  1
  Rh  Rh21  1  0.47031362  0.33333554  0.66666446  1
  Rh  Rh22  1  0.02968638  0.33333554  0.66666446  1
  Rh  Rh23  1  0.97031362  0.66666446  0.33333554  1
