# generated using pymatgen
data_CoP2H10(NO4)2
_symmetry_space_group_name_H-M   'P 1'
_cell_length_a   6.51604719
_cell_length_b   10.52898102
_cell_length_c   12.98490061
_cell_angle_alpha   90.00000000
_cell_angle_beta   104.58932349
_cell_angle_gamma   90.00000000
_symmetry_Int_Tables_number   1
_chemical_formula_structural   CoP2H10(NO4)2
_chemical_formula_sum   'Co4 P8 H40 N8 O32'
_cell_volume   862.13469297
_cell_formula_units_Z   4
loop_
 _symmetry_equiv_pos_site_id
 _symmetry_equiv_pos_as_xyz
  1  'x, y, z'
loop_
 _atom_site_type_symbol
 _atom_site_label
 _atom_site_symmetry_multiplicity
 _atom_site_fract_x
 _atom_site_fract_y
 _atom_site_fract_z
 _atom_site_occupancy
  Co  Co0  1  0.04813543  0.30242697  0.65387137  1
  Co  Co1  1  0.95186457  0.80242697  0.84612863  1
  Co  Co2  1  0.95186457  0.69757303  0.34612863  1
  Co  Co3  1  0.04813543  0.19757303  0.15387137  1
  P  P4  1  0.26946068  0.02937045  0.60787196  1
  P  P5  1  0.73053932  0.52937045  0.89212804  1
  P  P6  1  0.73053932  0.97062955  0.39212804  1
  P  P7  1  0.26946068  0.47062955  0.10787196  1
  P  P8  1  0.04009943  0.31028653  0.91921641  1
  P  P9  1  0.95990057  0.81028653  0.58078359  1
  P  P10  1  0.95990057  0.68971347  0.08078359  1
  P  P11  1  0.04009943  0.18971347  0.41921641  1
  H  H12  1  0.30783487  0.45362346  0.93525242  1
  H  H13  1  0.69216513  0.95362346  0.56474758  1
  H  H14  1  0.69216513  0.54637654  0.06474758  1
  H  H15  1  0.30783487  0.04637654  0.43525242  1
  H  H16  1  0.31838433  0.81058316  0.61149075  1
  H  H17  1  0.68161567  0.31058316  0.88850925  1
  H  H18  1  0.68161567  0.18941684  0.38850925  1
  H  H19  1  0.31838433  0.68941684  0.11149075  1
  H  H20  1  0.03600766  0.05413208  0.90040280  1
  H  H21  1  0.96399234  0.55413208  0.59959720  1
  H  H22  1  0.96399234  0.94586792  0.09959720  1
  H  H23  1  0.03600766  0.44586792  0.40040280  1
  H  H24  1  0.08398666  0.03321665  0.78741730  1
  H  H25  1  0.91601334  0.53321665  0.71258270  1
  H  H26  1  0.91601334  0.96678335  0.21258270  1
  H  H27  1  0.08398666  0.46678335  0.28741730  1
  H  H28  1  0.65671578  0.16617299  0.63504092  1
  H  H29  1  0.34328422  0.66617299  0.86495908  1
  H  H30  1  0.34328422  0.83382701  0.36495908  1
  H  H31  1  0.65671578  0.33382701  0.13504092  1
  H  H32  1  0.64040295  0.27649707  0.54911144  1
  H  H33  1  0.35959705  0.77649707  0.95088856  1
  H  H34  1  0.35959705  0.72350293  0.45088856  1
  H  H35  1  0.64040295  0.22350293  0.04911144  1
  H  H36  1  0.40029458  0.43599219  0.74021073  1
  H  H37  1  0.59970542  0.93599219  0.75978927  1
  H  H38  1  0.59970542  0.56400781  0.25978927  1
  H  H39  1  0.40029458  0.06400781  0.24021073  1
  H  H40  1  0.47372291  0.33799679  0.66290829  1
  H  H41  1  0.52627709  0.83799679  0.83709171  1
  H  H42  1  0.52627709  0.66200321  0.33709171  1
  H  H43  1  0.47372291  0.16200321  0.16290829  1
  H  H44  1  0.55864077  0.08588861  0.89896173  1
  H  H45  1  0.44135923  0.58588861  0.60103827  1
  H  H46  1  0.44135923  0.91411139  0.10103827  1
  H  H47  1  0.55864077  0.41411139  0.39896173  1
  H  H48  1  0.37561750  0.18919588  0.87640408  1
  H  H49  1  0.62438250  0.68919588  0.62359592  1
  H  H50  1  0.62438250  0.81080412  0.12359592  1
  H  H51  1  0.37561750  0.31080412  0.37640408  1
  N  N52  1  0.21525026  0.41788228  0.98213283  1
  N  N53  1  0.78474974  0.91788228  0.51786717  1
  N  N54  1  0.78474974  0.58211772  0.01786717  1
  N  N55  1  0.21525026  0.08211772  0.48213283  1
  N  N56  1  0.20042617  0.87719209  0.60854689  1
  N  N57  1  0.79957383  0.37719209  0.89145311  1
  N  N58  1  0.79957383  0.12280791  0.39145311  1
  N  N59  1  0.20042617  0.62280791  0.10854689  1
  O  O60  1  0.13477188  0.10703118  0.66425856  1
  O  O61  1  0.86522812  0.60703118  0.83574144  1
  O  O62  1  0.86522812  0.89296882  0.33574144  1
  O  O63  1  0.13477188  0.39296882  0.16425856  1
  O  O64  1  0.51078585  0.02849957  0.65011021  1
  O  O65  1  0.48921415  0.52849957  0.84988979  1
  O  O66  1  0.48921415  0.97150043  0.34988979  1
  O  O67  1  0.51078585  0.47150043  0.15011021  1
  O  O68  1  0.02761300  0.19455206  0.98804088  1
  O  O69  1  0.97238700  0.69455206  0.51195912  1
  O  O70  1  0.97238700  0.80544794  0.01195912  1
  O  O71  1  0.02761300  0.30544794  0.48804088  1
  O  O72  1  0.10985047  0.27986184  0.81900033  1
  O  O73  1  0.89014953  0.77986184  0.68099967  1
  O  O74  1  0.89014953  0.72013816  0.18099967  1
  O  O75  1  0.10985047  0.22013816  0.31900033  1
  O  O76  1  0.06908203  0.98882650  0.85223645  1
  O  O77  1  0.93091797  0.48882650  0.64776355  1
  O  O78  1  0.93091797  0.01117350  0.14776355  1
  O  O79  1  0.06908203  0.51117350  0.35223645  1
  O  O80  1  0.70586579  0.25374919  0.62461167  1
  O  O81  1  0.29413421  0.75374919  0.87538833  1
  O  O82  1  0.29413421  0.74625081  0.37538833  1
  O  O83  1  0.70586579  0.24625081  0.12461167  1
  O  O84  1  0.35180432  0.38907599  0.67137341  1
  O  O85  1  0.64819568  0.88907599  0.82862659  1
  O  O86  1  0.64819568  0.61092401  0.32862659  1
  O  O87  1  0.35180432  0.11092401  0.17137341  1
  O  O88  1  0.52444520  0.17323301  0.91471486  1
  O  O89  1  0.47555480  0.67323301  0.58528514  1
  O  O90  1  0.47555480  0.82676699  0.08528514  1
  O  O91  1  0.52444520  0.32676699  0.41471486  1
