# generated using pymatgen
data_NaAlSe2
_symmetry_space_group_name_H-M   'P 1'
_cell_length_a   7.65442035
_cell_length_b   7.65442034
_cell_length_c   14.30893203
_cell_angle_alpha   82.26648161
_cell_angle_beta   82.26648161
_cell_angle_gamma   90.00571084
_symmetry_Int_Tables_number   1
_chemical_formula_structural   NaAlSe2
_chemical_formula_sum   'Na8 Al8 Se16'
_cell_volume   823.03989343
_cell_formula_units_Z   8
loop_
 _symmetry_equiv_pos_site_id
 _symmetry_equiv_pos_as_xyz
  1  'x, y, z'
loop_
 _atom_site_type_symbol
 _atom_site_label
 _atom_site_symmetry_multiplicity
 _atom_site_fract_x
 _atom_site_fract_y
 _atom_site_fract_z
 _atom_site_occupancy
  Na  Na0  1  0.77858308  0.15353239  0.88075318  1
  Na  Na1  1  0.84646761  0.22141692  0.61924682  1
  Na  Na2  1  0.22141692  0.84646761  0.11924682  1
  Na  Na3  1  0.15353239  0.77858308  0.38075318  1
  Na  Na4  1  0.34240155  0.21919343  0.62726429  1
  Na  Na5  1  0.78080657  0.65759845  0.87273571  1
  Na  Na6  1  0.65759845  0.78080657  0.37273571  1
  Na  Na7  1  0.21919343  0.34240155  0.12726429  1
  Al  Al8  1  0.28765898  0.90950440  0.84818169  1
  Al  Al9  1  0.09049560  0.71234102  0.65181831  1
  Al  Al10  1  0.71234102  0.09049560  0.15181831  1
  Al  Al11  1  0.90950440  0.28765898  0.34818169  1
  Al  Al12  1  0.58365560  0.71227694  0.65166081  1
  Al  Al13  1  0.28772306  0.41634440  0.84833919  1
  Al  Al14  1  0.41634440  0.28772306  0.34833919  1
  Al  Al15  1  0.71227694  0.58365560  0.15166081  1
  Se  Se16  1  0.05397952  0.94602048  0.75000000  1
  Se  Se17  1  0.94602048  0.05397952  0.25000000  1
  Se  Se18  1  0.57032891  0.42967109  0.75000000  1
  Se  Se19  1  0.42967109  0.57032891  0.25000000  1
  Se  Se20  1  0.26300192  0.13738151  0.94988106  1
  Se  Se21  1  0.86261849  0.73699808  0.55011894  1
  Se  Se22  1  0.73699808  0.86261849  0.05011894  1
  Se  Se23  1  0.13738151  0.26300192  0.44988106  1
  Se  Se24  1  0.57039681  0.94584988  0.74986079  1
  Se  Se25  1  0.05415012  0.42960319  0.75013921  1
  Se  Se26  1  0.42960319  0.05415012  0.25013921  1
  Se  Se27  1  0.94584988  0.57039681  0.24986079  1
  Se  Se28  1  0.36363898  0.73929603  0.54637010  1
  Se  Se29  1  0.26070397  0.63636102  0.95362990  1
  Se  Se30  1  0.63636102  0.26070397  0.45362990  1
  Se  Se31  1  0.73929603  0.36363898  0.04637010  1
