# generated using pymatgen
data_Rb2Zr3OF12
_symmetry_space_group_name_H-M   'P 1'
_cell_length_a   11.10048943
_cell_length_b   11.10048943
_cell_length_c   11.10048943
_cell_angle_alpha   41.47961233
_cell_angle_beta   41.47961236
_cell_angle_gamma   41.47961232
_symmetry_Int_Tables_number   1
_chemical_formula_structural   Rb2Zr3OF12
_chemical_formula_sum   'Rb4 Zr6 O2 F24'
_cell_volume   542.24831638
_cell_formula_units_Z   2
loop_
 _symmetry_equiv_pos_site_id
 _symmetry_equiv_pos_as_xyz
  1  'x, y, z'
loop_
 _atom_site_type_symbol
 _atom_site_label
 _atom_site_symmetry_multiplicity
 _atom_site_fract_x
 _atom_site_fract_y
 _atom_site_fract_z
 _atom_site_occupancy
  O  O0  1  0.28662748  0.28662748  0.28662748  1
  O  O1  1  0.71337252  0.71337252  0.71337252  1
  F  F2  1  0.70684560  0.37084648  0.70684560  1
  F  F3  1  0.37084648  0.70684560  0.70684560  1
  F  F4  1  0.70684560  0.70684560  0.37084648  1
  F  F5  1  0.29315440  0.62915352  0.29315440  1
  F  F6  1  0.62915352  0.29315440  0.29315440  1
  F  F7  1  0.29315440  0.29315440  0.62915352  1
  F  F8  1  0.59772946  0.08959448  0.08959448  1
  F  F9  1  0.08959448  0.08959448  0.59772946  1
  F  F10  1  0.35214644  0.00000000  0.64785356  1
  F  F11  1  0.64785356  0.35214644  0.00000000  1
  F  F12  1  0.00000000  0.64785356  0.35214644  1
  F  F13  1  0.64785356  0.00000000  0.35214644  1
  F  F14  1  0.35214644  0.64785356  0.00000000  1
  F  F15  1  0.00000000  0.35214644  0.64785356  1
  F  F16  1  0.64811859  0.08361923  0.64811859  1
  F  F17  1  0.64811859  0.64811859  0.08361923  1
  F  F18  1  0.08361923  0.64811859  0.64811859  1
  F  F19  1  0.91638077  0.35188141  0.35188141  1
  F  F20  1  0.35188141  0.91638077  0.35188141  1
  F  F21  1  0.35188141  0.35188141  0.91638077  1
  F  F22  1  0.40227054  0.91040552  0.91040552  1
  F  F23  1  0.91040552  0.40227054  0.91040552  1
  F  F24  1  0.91040552  0.91040552  0.40227054  1
  F  F25  1  0.08959448  0.59772946  0.08959448  1
  Rb  Rb26  1  0.00000000  0.00000000  0.00000000  1
  Rb  Rb27  1  0.50000000  0.50000000  0.50000000  1
  Rb  Rb28  1  0.13805687  0.13805687  0.13805687  1
  Rb  Rb29  1  0.86194313  0.86194313  0.86194313  1
  Zr  Zr30  1  0.57580792  0.57580792  0.02908912  1
  Zr  Zr31  1  0.57580792  0.02908912  0.57580792  1
  Zr  Zr32  1  0.02908912  0.57580792  0.57580792  1
  Zr  Zr33  1  0.97091088  0.42419208  0.42419208  1
  Zr  Zr34  1  0.42419208  0.97091088  0.42419208  1
  Zr  Zr35  1  0.42419208  0.42419208  0.97091088  1
