# generated using pymatgen
data_K3Ge4Au
_symmetry_space_group_name_H-M   'P 1'
_cell_length_a   6.19527689
_cell_length_b   6.71184602
_cell_length_c   12.17578207
_cell_angle_alpha   90.00000000
_cell_angle_beta   90.00000000
_cell_angle_gamma   90.00000000
_symmetry_Int_Tables_number   1
_chemical_formula_structural   K3Ge4Au
_chemical_formula_sum   'K6 Ge8 Au2'
_cell_volume   506.29025957
_cell_formula_units_Z   2
loop_
 _symmetry_equiv_pos_site_id
 _symmetry_equiv_pos_as_xyz
  1  'x, y, z'
loop_
 _atom_site_type_symbol
 _atom_site_label
 _atom_site_symmetry_multiplicity
 _atom_site_fract_x
 _atom_site_fract_y
 _atom_site_fract_z
 _atom_site_occupancy
  K  K0  1  0.42165232  0.75000000  0.75000000  1
  K  K1  1  0.57834768  0.25000000  0.25000000  1
  K  K2  1  0.16880625  0.25000000  0.48720655  1
  K  K3  1  0.16880625  0.25000000  0.01279345  1
  K  K4  1  0.83119375  0.75000000  0.51279345  1
  K  K5  1  0.83119375  0.75000000  0.98720655  1
  Ge  Ge6  1  0.94227717  0.45736254  0.75000000  1
  Ge  Ge7  1  0.67274111  0.25000000  0.86445162  1
  Ge  Ge8  1  0.32725889  0.75000000  0.36445162  1
  Ge  Ge9  1  0.32725889  0.75000000  0.13554838  1
  Ge  Ge10  1  0.05772283  0.95736254  0.25000000  1
  Ge  Ge11  1  0.05772283  0.54263746  0.25000000  1
  Ge  Ge12  1  0.67274111  0.25000000  0.63554838  1
  Ge  Ge13  1  0.94227717  0.04263746  0.75000000  1
  Au  Au14  1  0.69082020  0.75000000  0.25000000  1
  Au  Au15  1  0.30917980  0.25000000  0.75000000  1
