# generated using pymatgen
data_K3Eu(PO4)2
_symmetry_space_group_name_H-M   'P 1'
_cell_length_a   5.74865169
_cell_length_b   7.55766163
_cell_length_c   9.68408414
_cell_angle_alpha   91.22656383
_cell_angle_beta   90.00000000
_cell_angle_gamma   90.00000000
_symmetry_Int_Tables_number   1
_chemical_formula_structural   K3Eu(PO4)2
_chemical_formula_sum   'K6 Eu2 P4 O16'
_cell_volume   420.64184255
_cell_formula_units_Z   2
loop_
 _symmetry_equiv_pos_site_id
 _symmetry_equiv_pos_as_xyz
  1  'x, y, z'
loop_
 _atom_site_type_symbol
 _atom_site_label
 _atom_site_symmetry_multiplicity
 _atom_site_fract_x
 _atom_site_fract_y
 _atom_site_fract_z
 _atom_site_occupancy
  O  O0  1  0.97212314  0.15386277  0.34195318  1
  O  O1  1  0.47212314  0.84613723  0.65804682  1
  O  O2  1  0.02787686  0.84613723  0.65804682  1
  O  O3  1  0.52787686  0.15386277  0.34195318  1
  O  O4  1  0.25000000  0.56288781  0.60390651  1
  O  O5  1  0.75000000  0.43711219  0.39609349  1
  O  O6  1  0.25000000  0.98942510  0.95344902  1
  O  O7  1  0.75000000  0.01057490  0.04655098  1
  O  O8  1  0.25000000  0.28546554  0.07341841  1
  O  O9  1  0.75000000  0.71453446  0.92658159  1
  O  O10  1  0.25000000  0.81742620  0.43299956  1
  O  O11  1  0.02914898  0.24469871  0.84512605  1
  O  O12  1  0.47085102  0.24469871  0.84512605  1
  O  O13  1  0.97085102  0.75530129  0.15487395  1
  O  O14  1  0.52914898  0.75530129  0.15487395  1
  O  O15  1  0.75000000  0.18257380  0.56700044  1
  P  P16  1  0.75000000  0.80857468  0.07185458  1
  P  P17  1  0.25000000  0.19142532  0.92814542  1
  P  P18  1  0.25000000  0.76536165  0.58803496  1
  P  P19  1  0.75000000  0.23463835  0.41196504  1
  K  K20  1  0.25000000  0.64250006  0.91139866  1
  K  K21  1  0.25000000  0.49341333  0.30779352  1
  K  K22  1  0.75000000  0.80010350  0.41490748  1
  K  K23  1  0.75000000  0.50658667  0.69220648  1
  K  K24  1  0.25000000  0.19989650  0.58509252  1
  K  K25  1  0.75000000  0.35749994  0.08860134  1
  Eu  Eu26  1  0.75000000  0.00594208  0.79007246  1
  Eu  Eu27  1  0.25000000  0.99405792  0.20992754  1
