# generated using pymatgen
data_ErSiPd
_symmetry_space_group_name_H-M   'P 1'
_cell_length_a   4.31588685
_cell_length_b   7.44681296
_cell_length_c   13.85322243
_cell_angle_alpha   90.00000000
_cell_angle_beta   90.00000000
_cell_angle_gamma   90.00000000
_symmetry_Int_Tables_number   1
_chemical_formula_structural   ErSiPd
_chemical_formula_sum   'Er8 Si8 Pd8'
_cell_volume   445.23705710
_cell_formula_units_Z   8
loop_
 _symmetry_equiv_pos_site_id
 _symmetry_equiv_pos_as_xyz
  1  'x, y, z'
loop_
 _atom_site_type_symbol
 _atom_site_label
 _atom_site_symmetry_multiplicity
 _atom_site_fract_x
 _atom_site_fract_y
 _atom_site_fract_z
 _atom_site_occupancy
  Si  Si0  1  0.25000000  0.09157373  0.84289449  1
  Si  Si1  1  0.75000000  0.90842627  0.15710551  1
  Si  Si2  1  0.25000000  0.09157373  0.65710551  1
  Si  Si3  1  0.75000000  0.90842627  0.34289449  1
  Si  Si4  1  0.25000000  0.40748075  0.39489613  1
  Si  Si5  1  0.75000000  0.59251925  0.60510387  1
  Si  Si6  1  0.25000000  0.40748075  0.10510387  1
  Si  Si7  1  0.75000000  0.59251925  0.89489613  1
  Pd  Pd8  1  0.75000000  0.92396800  0.85851508  1
  Pd  Pd9  1  0.25000000  0.07603200  0.14148492  1
  Pd  Pd10  1  0.75000000  0.92396800  0.64148492  1
  Pd  Pd11  1  0.25000000  0.07603200  0.35851508  1
  Pd  Pd12  1  0.75000000  0.58178908  0.40656627  1
  Pd  Pd13  1  0.25000000  0.41821092  0.59343373  1
  Pd  Pd14  1  0.75000000  0.58178908  0.09343373  1
  Pd  Pd15  1  0.25000000  0.41821092  0.90656627  1
  Er  Er16  1  0.25000000  0.69975368  0.25000000  1
  Er  Er17  1  0.75000000  0.30024632  0.75000000  1
  Er  Er18  1  0.25000000  0.70693206  0.75000000  1
  Er  Er19  1  0.75000000  0.29306794  0.25000000  1
  Er  Er20  1  0.25000000  0.79045116  0.49870614  1
  Er  Er21  1  0.75000000  0.20954884  0.50129386  1
  Er  Er22  1  0.25000000  0.79045116  0.00129386  1
  Er  Er23  1  0.75000000  0.20954884  0.99870614  1
