# generated using pymatgen
data_In2P2O7
_symmetry_space_group_name_H-M   'P 1'
_cell_length_a   7.65664689
_cell_length_b   8.61560007
_cell_length_c   10.62309388
_cell_angle_alpha   90.00000000
_cell_angle_beta   90.00000000
_cell_angle_gamma   106.37113607
_symmetry_Int_Tables_number   1
_chemical_formula_structural   In2P2O7
_chemical_formula_sum   'In8 P8 O28'
_cell_volume   672.35752880
_cell_formula_units_Z   4
loop_
 _symmetry_equiv_pos_site_id
 _symmetry_equiv_pos_as_xyz
  1  'x, y, z'
loop_
 _atom_site_type_symbol
 _atom_site_label
 _atom_site_symmetry_multiplicity
 _atom_site_fract_x
 _atom_site_fract_y
 _atom_site_fract_z
 _atom_site_occupancy
  O  O0  1  0.18345304  0.97888021  0.60473469  1
  O  O1  1  0.81654696  0.52111979  0.10473469  1
  O  O2  1  0.81654696  0.02111979  0.39526531  1
  O  O3  1  0.18345304  0.47888021  0.89526531  1
  O  O4  1  0.87380499  0.76530752  0.57674681  1
  O  O5  1  0.12619501  0.73469248  0.07674681  1
  O  O6  1  0.12619501  0.23469248  0.42325319  1
  O  O7  1  0.87380499  0.26530752  0.92325319  1
  O  O8  1  0.16596709  0.68660797  0.56875226  1
  O  O9  1  0.83403291  0.81339203  0.06875226  1
  O  O10  1  0.83403291  0.31339203  0.43124774  1
  O  O11  1  0.16596709  0.18660797  0.93124774  1
  O  O12  1  0.42732003  0.74987175  0.72910009  1
  O  O13  1  0.57267997  0.75012825  0.22910009  1
  O  O14  1  0.57267997  0.25012825  0.27089991  1
  O  O15  1  0.42732003  0.24987175  0.77089991  1
  O  O16  1  0.36412837  0.99853106  0.90768373  1
  O  O17  1  0.63587163  0.50146894  0.40768373  1
  O  O18  1  0.63587163  0.00146894  0.09231627  1
  O  O19  1  0.36412837  0.49853106  0.59231627  1
  O  O20  1  0.04498125  0.76627775  0.77601849  1
  O  O21  1  0.95501875  0.73372225  0.27601849  1
  O  O22  1  0.95501875  0.23372225  0.22398151  1
  O  O23  1  0.04498125  0.26627775  0.72398151  1
  O  O24  1  0.50723371  0.72124548  0.99601669  1
  O  O25  1  0.49276629  0.77875452  0.49601669  1
  O  O26  1  0.49276629  0.27875452  0.00398331  1
  O  O27  1  0.50723371  0.22124548  0.50398331  1
  P  P28  1  0.06400608  0.80914696  0.63495498  1
  P  P29  1  0.93599392  0.69085304  0.13495498  1
  P  P30  1  0.93599392  0.19085304  0.36504502  1
  P  P31  1  0.06400608  0.30914696  0.86504502  1
  P  P32  1  0.37004794  0.67449721  0.59786320  1
  P  P33  1  0.62995206  0.82550279  0.09786320  1
  P  P34  1  0.62995206  0.32550279  0.40213680  1
  P  P35  1  0.37004794  0.17449721  0.90213680  1
  In  In36  1  0.67186987  0.06470386  0.67978264  1
  In  In37  1  0.32813013  0.43529614  0.17978264  1
  In  In38  1  0.32813013  0.93529614  0.32021736  1
  In  In39  1  0.67186987  0.56470386  0.82021736  1
  In  In40  1  0.26083955  0.24165425  0.60079358  1
  In  In41  1  0.73916045  0.25834575  0.10079358  1
  In  In42  1  0.73916045  0.75834575  0.39920642  1
  In  In43  1  0.26083955  0.74165425  0.89920642  1
