# generated using pymatgen
data_Ba4Ir3O10
_symmetry_space_group_name_H-M   'P 1'
_cell_length_a   5.82780159
_cell_length_b   7.36315099
_cell_length_c   13.36581203
_cell_angle_alpha   90.00000000
_cell_angle_beta   90.00000000
_cell_angle_gamma   112.41388697
_symmetry_Int_Tables_number   1
_chemical_formula_structural   Ba4Ir3O10
_chemical_formula_sum   'Ba8 Ir6 O20'
_cell_volume   530.21126646
_cell_formula_units_Z   2
loop_
 _symmetry_equiv_pos_site_id
 _symmetry_equiv_pos_as_xyz
  1  'x, y, z'
loop_
 _atom_site_type_symbol
 _atom_site_label
 _atom_site_symmetry_multiplicity
 _atom_site_fract_x
 _atom_site_fract_y
 _atom_site_fract_z
 _atom_site_occupancy
  O  O0  1  0.06770911  0.77081995  0.72538565  1
  O  O1  1  0.43229089  0.22918005  0.22538565  1
  O  O2  1  0.93229089  0.22918005  0.27461435  1
  O  O3  1  0.56770911  0.77081995  0.77461435  1
  O  O4  1  0.23008343  0.46978212  0.65436910  1
  O  O5  1  0.26991657  0.53021788  0.15436910  1
  O  O6  1  0.76991657  0.53021788  0.34563090  1
  O  O7  1  0.73008343  0.46978212  0.84563090  1
  O  O8  1  0.63450677  0.78975594  0.54244166  1
  O  O9  1  0.86549323  0.21024406  0.04244166  1
  O  O10  1  0.36549323  0.21024406  0.45755834  1
  O  O11  1  0.13450677  0.78975594  0.95755834  1
  O  O12  1  0.16406649  0.77385902  0.52517960  1
  O  O13  1  0.33593351  0.22614098  0.02517960  1
  O  O14  1  0.02571014  0.07517282  0.85002629  1
  O  O15  1  0.47428986  0.92482718  0.35002629  1
  O  O16  1  0.97428986  0.92482718  0.14997371  1
  O  O17  1  0.52571014  0.07517282  0.64997371  1
  O  O18  1  0.66406649  0.77385902  0.97482040  1
  O  O19  1  0.83593351  0.22614098  0.47482040  1
  Ba  Ba20  1  0.96342791  0.91379739  0.36290867  1
  Ba  Ba21  1  0.53657209  0.08620261  0.86290867  1
  Ba  Ba22  1  0.03657209  0.08620261  0.63709133  1
  Ba  Ba23  1  0.46342791  0.91379739  0.13709133  1
  Ba  Ba24  1  0.26058286  0.51457079  0.38681476  1
  Ba  Ba25  1  0.23941714  0.48542921  0.88681476  1
  Ba  Ba26  1  0.76058286  0.51457079  0.11318524  1
  Ba  Ba27  1  0.73941714  0.48542921  0.61318524  1
  Ir  Ir28  1  0.00000000  0.00000000  0.00000000  1
  Ir  Ir29  1  0.50000000  0.00000000  0.50000000  1
  Ir  Ir30  1  0.13112432  0.24010981  0.15094895  1
  Ir  Ir31  1  0.36887568  0.75989019  0.65094895  1
  Ir  Ir32  1  0.86887568  0.75989019  0.84905105  1
  Ir  Ir33  1  0.63112432  0.24010981  0.34905105  1
