# generated using pymatgen
data_CaNb2O6
_symmetry_space_group_name_H-M   'P 1'
_cell_length_a   5.27429004
_cell_length_b   5.94337408
_cell_length_c   15.18019783
_cell_angle_alpha   90.00000000
_cell_angle_beta   90.00000000
_cell_angle_gamma   90.00000000
_symmetry_Int_Tables_number   1
_chemical_formula_structural   CaNb2O6
_chemical_formula_sum   'Ca4 Nb8 O24'
_cell_volume   475.85485627
_cell_formula_units_Z   4
loop_
 _symmetry_equiv_pos_site_id
 _symmetry_equiv_pos_as_xyz
  1  'x, y, z'
loop_
 _atom_site_type_symbol
 _atom_site_label
 _atom_site_symmetry_multiplicity
 _atom_site_fract_x
 _atom_site_fract_y
 _atom_site_fract_z
 _atom_site_occupancy
  O  O0  1  0.88561159  0.35913246  0.75636758  1
  O  O1  1  0.38561159  0.14086754  0.74363242  1
  O  O2  1  0.61438841  0.35913246  0.24363242  1
  O  O3  1  0.11438841  0.14086754  0.25636758  1
  O  O4  1  0.11438841  0.64086754  0.24363242  1
  O  O5  1  0.61438841  0.85913246  0.25636758  1
  O  O6  1  0.38561159  0.64086754  0.75636758  1
  O  O7  1  0.88561159  0.85913246  0.74363242  1
  O  O8  1  0.00666699  0.07471607  0.60136816  1
  O  O9  1  0.50666699  0.42528393  0.89863184  1
  O  O10  1  0.49333301  0.07471607  0.39863184  1
  O  O11  1  0.99333301  0.42528393  0.10136816  1
  O  O12  1  0.60076254  0.89494476  0.91292254  1
  O  O13  1  0.10076254  0.60505524  0.58707746  1
  O  O14  1  0.89923746  0.89494476  0.08707746  1
  O  O15  1  0.39923746  0.60505524  0.41292254  1
  O  O16  1  0.39923746  0.10505524  0.08707746  1
  O  O17  1  0.89923746  0.39494476  0.41292254  1
  O  O18  1  0.10076254  0.10505524  0.91292254  1
  O  O19  1  0.60076254  0.39494476  0.58707746  1
  O  O20  1  0.00666699  0.57471607  0.89863184  1
  O  O21  1  0.50666699  0.92528393  0.60136816  1
  O  O22  1  0.49333301  0.57471607  0.10136816  1
  O  O23  1  0.99333301  0.92528393  0.39863184  1
  Ca  Ca24  1  0.25000000  0.78586031  0.00000000  1
  Ca  Ca25  1  0.75000000  0.71413969  0.50000000  1
  Ca  Ca26  1  0.75000000  0.21413969  0.00000000  1
  Ca  Ca27  1  0.25000000  0.28586031  0.50000000  1
  Nb  Nb28  1  0.29018307  0.81521646  0.33468619  1
  Nb  Nb29  1  0.79018307  0.68478354  0.16531381  1
  Nb  Nb30  1  0.20981693  0.81521646  0.66531381  1
  Nb  Nb31  1  0.70981693  0.68478354  0.83468619  1
  Nb  Nb32  1  0.29018307  0.31521646  0.16531381  1
  Nb  Nb33  1  0.79018307  0.18478354  0.33468619  1
  Nb  Nb34  1  0.20981693  0.31521646  0.83468619  1
  Nb  Nb35  1  0.70981693  0.18478354  0.66531381  1
