# generated using pymatgen
data_KBaPS4
_symmetry_space_group_name_H-M   'P 1'
_cell_length_a   6.78621792
_cell_length_b   9.89302478
_cell_length_c   12.26911445
_cell_angle_alpha   90.00000000
_cell_angle_beta   90.00000000
_cell_angle_gamma   90.00000000
_symmetry_Int_Tables_number   1
_chemical_formula_structural   KBaPS4
_chemical_formula_sum   'K4 Ba4 P4 S16'
_cell_volume   823.70199201
_cell_formula_units_Z   4
loop_
 _symmetry_equiv_pos_site_id
 _symmetry_equiv_pos_as_xyz
  1  'x, y, z'
loop_
 _atom_site_type_symbol
 _atom_site_label
 _atom_site_symmetry_multiplicity
 _atom_site_fract_x
 _atom_site_fract_y
 _atom_site_fract_z
 _atom_site_occupancy
  P  P0  1  0.75000000  0.10242206  0.17377720  1
  P  P1  1  0.25000000  0.60242206  0.32622280  1
  P  P2  1  0.75000000  0.39757794  0.67377720  1
  P  P3  1  0.25000000  0.89757794  0.82622280  1
  S  S4  1  0.49412254  0.60399491  0.22763170  1
  S  S5  1  0.99412254  0.39600509  0.77236830  1
  S  S6  1  0.50587746  0.10399491  0.27236830  1
  S  S7  1  0.00587746  0.89600509  0.72763170  1
  S  S8  1  0.25000000  0.06973370  0.92103929  1
  S  S9  1  0.25000000  0.43026630  0.42103929  1
  S  S10  1  0.75000000  0.93026630  0.07896071  1
  S  S11  1  0.75000000  0.56973370  0.57896071  1
  S  S12  1  0.25000000  0.77799644  0.41589838  1
  S  S13  1  0.75000000  0.22200356  0.58410162  1
  S  S14  1  0.75000000  0.27799644  0.08410162  1
  S  S15  1  0.25000000  0.72200356  0.91589838  1
  S  S16  1  0.99412254  0.10399491  0.27236830  1
  S  S17  1  0.49412254  0.89600509  0.72763170  1
  S  S18  1  0.00587746  0.60399491  0.22763170  1
  S  S19  1  0.50587746  0.39600509  0.77236830  1
  K  K20  1  0.25000000  0.16838091  0.62229376  1
  K  K21  1  0.75000000  0.83161909  0.37770624  1
  K  K22  1  0.75000000  0.66838091  0.87770624  1
  K  K23  1  0.25000000  0.33161909  0.12229376  1
  Ba  Ba24  1  0.25000000  0.61989276  0.64164413  1
  Ba  Ba25  1  0.75000000  0.38010724  0.35835587  1
  Ba  Ba26  1  0.75000000  0.11989276  0.85835587  1
  Ba  Ba27  1  0.25000000  0.88010724  0.14164413  1
