# generated using pymatgen
data_K2Mo2H4C4O15
_symmetry_space_group_name_H-M   'P 1'
_cell_length_a   6.82410041
_cell_length_b   7.66285738
_cell_length_c   14.54142601
_cell_angle_alpha   90.00000000
_cell_angle_beta   90.00000000
_cell_angle_gamma   94.81653052
_symmetry_Int_Tables_number   1
_chemical_formula_structural   K2Mo2H4C4O15
_chemical_formula_sum   'K4 Mo4 H8 C8 O30'
_cell_volume   757.71659712
_cell_formula_units_Z   2
loop_
 _symmetry_equiv_pos_site_id
 _symmetry_equiv_pos_as_xyz
  1  'x, y, z'
loop_
 _atom_site_type_symbol
 _atom_site_label
 _atom_site_symmetry_multiplicity
 _atom_site_fract_x
 _atom_site_fract_y
 _atom_site_fract_z
 _atom_site_occupancy
  K  K0  1  0.85999930  0.69280069  0.36227960  1
  K  K1  1  0.64000070  0.30719931  0.86227960  1
  K  K2  1  0.14000070  0.30719931  0.63772040  1
  K  K3  1  0.35999930  0.69280069  0.13772040  1
  Mo  Mo4  1  0.37487477  0.39601961  0.39315381  1
  Mo  Mo5  1  0.12512523  0.60398039  0.89315381  1
  Mo  Mo6  1  0.62512523  0.60398039  0.60684619  1
  Mo  Mo7  1  0.87487477  0.39601961  0.10684619  1
  H  H8  1  0.72793467  0.24307199  0.32134456  1
  H  H9  1  0.77206533  0.75692801  0.82134456  1
  H  H10  1  0.27206533  0.75692801  0.67865544  1
  H  H11  1  0.22793467  0.24307199  0.17865544  1
  H  H12  1  0.73910814  0.22269451  0.43173400  1
  H  H13  1  0.76089186  0.77730549  0.93173400  1
  H  H14  1  0.26089186  0.77730549  0.56826600  1
  H  H15  1  0.23910814  0.22269451  0.06826600  1
  C  C16  1  0.24697398  0.01427015  0.43020819  1
  C  C17  1  0.25302602  0.98572985  0.93020819  1
  C  C18  1  0.75302602  0.98572985  0.56979181  1
  C  C19  1  0.74697398  0.01427015  0.06979181  1
  C  C20  1  0.23852602  0.03660439  0.32414672  1
  C  C21  1  0.26147398  0.96339561  0.82414672  1
  C  C22  1  0.76147398  0.96339561  0.67585328  1
  C  C23  1  0.73852602  0.03660439  0.17585328  1
  O  O24  1  0.32335972  0.15164890  0.47252702  1
  O  O25  1  0.17664028  0.84835110  0.97252702  1
  O  O26  1  0.67664028  0.84835110  0.52747298  1
  O  O27  1  0.82335972  0.15164890  0.02747298  1
  O  O28  1  0.30327377  0.19426189  0.29609518  1
  O  O29  1  0.19672623  0.80573811  0.79609518  1
  O  O30  1  0.69672623  0.80573811  0.70390482  1
  O  O31  1  0.80327377  0.19426189  0.20390482  1
  O  O32  1  0.50000000  0.50000000  0.50000000  1
  O  O33  1  -0.00000000  0.50000000  -0.00000000  1
  O  O34  1  0.45614713  0.53722727  0.30468309  1
  O  O35  1  0.04385287  0.46277273  0.80468309  1
  O  O36  1  0.54385287  0.46277273  0.69531691  1
  O  O37  1  0.95614713  0.53722727  0.19531691  1
  O  O38  1  0.13439920  0.44346163  0.41082907  1
  O  O39  1  0.36560080  0.55653837  0.91082907  1
  O  O40  1  0.86560080  0.55653837  0.58917093  1
  O  O41  1  0.63439920  0.44346163  0.08917093  1
  O  O42  1  0.18111404  0.87353058  0.46574047  1
  O  O43  1  0.31888596  0.12646942  0.96574047  1
  O  O44  1  0.81888596  0.12646942  0.53425953  1
  O  O45  1  0.68111404  0.87353058  0.03425953  1
  O  O46  1  0.17488103  0.91703148  0.27280399  1
  O  O47  1  0.32511897  0.08296852  0.77280399  1
  O  O48  1  0.82511897  0.08296852  0.72719601  1
  O  O49  1  0.67488103  0.91703148  0.22719601  1
  O  O50  1  0.68360916  0.28952821  0.38060086  1
  O  O51  1  0.81639084  0.71047179  0.88060086  1
  O  O52  1  0.31639084  0.71047179  0.61939914  1
  O  O53  1  0.18360916  0.28952821  0.11939914  1
