# generated using pymatgen
data_Ba3ZnRu2O9
_symmetry_space_group_name_H-M   'P 1'
_cell_length_a   5.86141737
_cell_length_b   5.86141738
_cell_length_c   14.43185571
_cell_angle_alpha   90.00000000
_cell_angle_beta   90.00000000
_cell_angle_gamma   120.00000002
_symmetry_Int_Tables_number   1
_chemical_formula_structural   Ba3ZnRu2O9
_chemical_formula_sum   'Ba6 Zn2 Ru4 O18'
_cell_volume   429.39610856
_cell_formula_units_Z   2
loop_
 _symmetry_equiv_pos_site_id
 _symmetry_equiv_pos_as_xyz
  1  'x, y, z'
loop_
 _atom_site_type_symbol
 _atom_site_label
 _atom_site_symmetry_multiplicity
 _atom_site_fract_x
 _atom_site_fract_y
 _atom_site_fract_z
 _atom_site_occupancy
  O  O0  1  0.17103515  0.82896485  0.08433510  1
  O  O1  1  0.17103515  0.34207031  0.08433510  1
  O  O2  1  0.65792969  0.82896485  0.08433510  1
  O  O3  1  0.34207031  0.17103515  0.58433510  1
  O  O4  1  0.82896485  0.65792969  0.91566490  1
  O  O5  1  0.82896485  0.17103515  0.58433510  1
  O  O6  1  0.82896485  0.65792969  0.58433510  1
  O  O7  1  0.17103515  0.82896485  0.41566490  1
  O  O8  1  0.65792969  0.82896485  0.41566490  1
  O  O9  1  0.34207031  0.17103515  0.91566490  1
  O  O10  1  0.82896485  0.17103515  0.91566490  1
  O  O11  1  0.17103515  0.34207031  0.41566490  1
  O  O12  1  0.48413404  0.96826807  0.25000000  1
  O  O13  1  0.51586596  0.48413404  0.75000000  1
  O  O14  1  0.96826807  0.48413404  0.75000000  1
  O  O15  1  0.03173193  0.51586596  0.25000000  1
  O  O16  1  0.48413404  0.51586596  0.25000000  1
  O  O17  1  0.51586596  0.03173193  0.75000000  1
  Zn  Zn18  1  0.00000000  0.00000000  0.00000000  1
  Zn  Zn19  1  0.00000000  0.00000000  0.50000000  1
  Ru  Ru20  1  0.66666667  0.33333333  0.65409378  1
  Ru  Ru21  1  0.33333333  0.66666667  0.15409378  1
  Ru  Ru22  1  0.66666667  0.33333333  0.84590622  1
  Ru  Ru23  1  0.33333333  0.66666667  0.34590622  1
  Ba  Ba24  1  0.33333333  0.66666667  0.59001692  1
  Ba  Ba25  1  0.66666667  0.33333333  0.09001692  1
  Ba  Ba26  1  0.66666667  0.33333333  0.40998308  1
  Ba  Ba27  1  0.33333333  0.66666667  0.90998308  1
  Ba  Ba28  1  0.00000000  0.00000000  0.75000000  1
  Ba  Ba29  1  0.00000000  0.00000000  0.25000000  1
