# generated using pymatgen
data_Rb3SbS4
_symmetry_space_group_name_H-M   'P 1'
_cell_length_a   9.73719003
_cell_length_b   10.13671229
_cell_length_c   11.32125872
_cell_angle_alpha   90.00000000
_cell_angle_beta   90.00000000
_cell_angle_gamma   90.00000000
_symmetry_Int_Tables_number   1
_chemical_formula_structural   Rb3SbS4
_chemical_formula_sum   'Rb12 Sb4 S16'
_cell_volume   1117.44326191
_cell_formula_units_Z   4
loop_
 _symmetry_equiv_pos_site_id
 _symmetry_equiv_pos_as_xyz
  1  'x, y, z'
loop_
 _atom_site_type_symbol
 _atom_site_label
 _atom_site_symmetry_multiplicity
 _atom_site_fract_x
 _atom_site_fract_y
 _atom_site_fract_z
 _atom_site_occupancy
  S  S0  1  0.84429640  0.03659647  0.57699526  1
  S  S1  1  0.34429640  0.46340353  0.92300474  1
  S  S2  1  0.65570360  0.53659647  0.42300474  1
  S  S3  1  0.15570360  0.96340353  0.07699526  1
  S  S4  1  0.15570360  0.96340353  0.42300474  1
  S  S5  1  0.65570360  0.53659647  0.07699526  1
  S  S6  1  0.34429640  0.46340353  0.57699526  1
  S  S7  1  0.84429640  0.03659647  0.92300474  1
  S  S8  1  0.49365398  0.90446710  0.25000000  1
  S  S9  1  0.99365398  0.59553290  0.25000000  1
  S  S10  1  0.00634602  0.40446710  0.75000000  1
  S  S11  1  0.50634602  0.09553290  0.75000000  1
  S  S12  1  0.31812204  0.24648853  0.25000000  1
  S  S13  1  0.68187796  0.75351147  0.75000000  1
  S  S14  1  0.18187796  0.74648853  0.75000000  1
  S  S15  1  0.81812204  0.25351147  0.25000000  1
  Rb  Rb16  1  0.36354524  0.57134525  0.25000000  1
  Rb  Rb17  1  0.93543443  0.70520605  0.95615792  1
  Rb  Rb18  1  0.06456557  0.29479395  0.45615792  1
  Rb  Rb19  1  0.56456557  0.20520605  0.04384208  1
  Rb  Rb20  1  0.56456557  0.20520605  0.45615792  1
  Rb  Rb21  1  0.06456557  0.29479395  0.04384208  1
  Rb  Rb22  1  0.93543443  0.70520605  0.54384208  1
  Rb  Rb23  1  0.43543443  0.79479395  0.95615792  1
  Rb  Rb24  1  0.63645476  0.42865475  0.75000000  1
  Rb  Rb25  1  0.86354524  0.92865475  0.25000000  1
  Rb  Rb26  1  0.13645476  0.07134525  0.75000000  1
  Rb  Rb27  1  0.43543443  0.79479395  0.54384208  1
  Sb  Sb28  1  0.27945710  0.01573729  0.25000000  1
  Sb  Sb29  1  0.77945710  0.48426271  0.25000000  1
  Sb  Sb30  1  0.22054290  0.51573729  0.75000000  1
  Sb  Sb31  1  0.72054290  0.98426271  0.75000000  1
