# generated using pymatgen
data_BaGd2O4
_symmetry_space_group_name_H-M   'P 1'
_cell_length_a   3.53952466
_cell_length_b   10.60070075
_cell_length_c   12.35742583
_cell_angle_alpha   90.00000000
_cell_angle_beta   90.00000000
_cell_angle_gamma   90.00000000
_symmetry_Int_Tables_number   1
_chemical_formula_structural   BaGd2O4
_chemical_formula_sum   'Ba4 Gd8 O16'
_cell_volume   463.66843306
_cell_formula_units_Z   4
loop_
 _symmetry_equiv_pos_site_id
 _symmetry_equiv_pos_as_xyz
  1  'x, y, z'
loop_
 _atom_site_type_symbol
 _atom_site_label
 _atom_site_symmetry_multiplicity
 _atom_site_fract_x
 _atom_site_fract_y
 _atom_site_fract_z
 _atom_site_occupancy
  O  O0  1  0.25000000  0.07107535  0.07451586  1
  O  O1  1  0.75000000  0.92892465  0.92548414  1
  O  O2  1  0.25000000  0.57107535  0.42548414  1
  O  O3  1  0.75000000  0.42892465  0.57451586  1
  O  O4  1  0.25000000  0.98169692  0.71714320  1
  O  O5  1  0.75000000  0.01830308  0.28285680  1
  O  O6  1  0.25000000  0.48169692  0.78285680  1
  O  O7  1  0.75000000  0.51830308  0.21714320  1
  O  O8  1  0.25000000  0.38287570  0.01890916  1
  O  O9  1  0.75000000  0.61712430  0.98109084  1
  O  O10  1  0.25000000  0.88287570  0.48109084  1
  O  O11  1  0.75000000  0.11712430  0.51890916  1
  O  O12  1  0.75000000  0.20974908  0.83708558  1
  O  O13  1  0.25000000  0.79025092  0.16291442  1
  O  O14  1  0.75000000  0.70974908  0.66291442  1
  O  O15  1  0.25000000  0.29025092  0.33708558  1
  Ba  Ba16  1  0.75000000  0.75297215  0.35161465  1
  Ba  Ba17  1  0.25000000  0.24702785  0.64838535  1
  Ba  Ba18  1  0.75000000  0.25297215  0.14838535  1
  Ba  Ba19  1  0.25000000  0.74702785  0.85161465  1
  Gd  Gd20  1  0.25000000  0.07500978  0.88867073  1
  Gd  Gd21  1  0.75000000  0.92499022  0.11132927  1
  Gd  Gd22  1  0.25000000  0.57500978  0.61132927  1
  Gd  Gd23  1  0.75000000  0.42499022  0.38867073  1
  Gd  Gd24  1  0.75000000  0.42249942  0.88996667  1
  Gd  Gd25  1  0.25000000  0.57750058  0.11003333  1
  Gd  Gd26  1  0.75000000  0.92249942  0.61003333  1
  Gd  Gd27  1  0.25000000  0.07750058  0.38996667  1
