# generated using pymatgen
data_CeI4O13
_symmetry_space_group_name_H-M   'P 1'
_cell_length_a   8.01280083
_cell_length_b   9.86173095
_cell_length_c   15.22145398
_cell_angle_alpha   90.00000000
_cell_angle_beta   90.00000000
_cell_angle_gamma   96.36473962
_symmetry_Int_Tables_number   1
_chemical_formula_structural   CeI4O13
_chemical_formula_sum   'Ce4 I16 O52'
_cell_volume   1195.38693511
_cell_formula_units_Z   4
loop_
 _symmetry_equiv_pos_site_id
 _symmetry_equiv_pos_as_xyz
  1  'x, y, z'
loop_
 _atom_site_type_symbol
 _atom_site_label
 _atom_site_symmetry_multiplicity
 _atom_site_fract_x
 _atom_site_fract_y
 _atom_site_fract_z
 _atom_site_occupancy
  Ce  Ce0  1  0.46907180  0.88057834  0.73660201  1
  Ce  Ce1  1  0.96907180  0.38057834  0.76339799  1
  Ce  Ce2  1  0.53092820  0.11942166  0.26339799  1
  Ce  Ce3  1  0.03092820  0.61942166  0.23660201  1
  I  I4  1  0.23311470  0.13033321  0.61501795  1
  I  I5  1  0.73311470  0.63033321  0.88498205  1
  I  I6  1  0.76688530  0.86966679  0.38498205  1
  I  I7  1  0.26688530  0.36966679  0.11501795  1
  I  I8  1  0.23955381  0.67035543  0.92165041  1
  I  I9  1  0.73955381  0.17035543  0.57834959  1
  I  I10  1  0.76044619  0.32964457  0.07834959  1
  I  I11  1  0.26044619  0.82964457  0.42165041  1
  I  I12  1  0.29832862  0.57185905  0.58511894  1
  I  I13  1  0.79832862  0.07185905  0.91488106  1
  I  I14  1  0.70167138  0.42814095  0.41488106  1
  I  I15  1  0.20167138  0.92814095  0.08511894  1
  I  I16  1  0.34865159  0.20587688  0.88148163  1
  I  I17  1  0.84865159  0.70587688  0.61851837  1
  I  I18  1  0.65134841  0.79412312  0.11851837  1
  I  I19  1  0.15134841  0.29412312  0.38148163  1
  O  O20  1  0.17393980  0.10797212  0.49956583  1
  O  O21  1  0.67393980  0.60797212  0.00043417  1
  O  O22  1  0.82606020  0.89202788  0.50043417  1
  O  O23  1  0.32606020  0.39202788  -0.00043417  1
  O  O24  1  0.26136235  0.94997922  0.63706899  1
  O  O25  1  0.76136235  0.44997922  0.86293101  1
  O  O26  1  0.73863765  0.05002078  0.36293101  1
  O  O27  1  0.23863765  0.55002078  0.13706899  1
  O  O28  1  0.02571884  0.13968266  0.66400370  1
  O  O29  1  0.52571884  0.63968266  0.83599630  1
  O  O30  1  0.97428116  0.86031734  0.33599630  1
  O  O31  1  0.47428116  0.36031734  0.16400370  1
  O  O32  1  0.06131516  0.72815636  0.98061021  1
  O  O33  1  0.56131516  0.22815636  0.51938979  1
  O  O34  1  0.93868484  0.27184364  0.01938979  1
  O  O35  1  0.43868484  0.77184364  0.48061021  1
  O  O36  1  0.11524035  0.54969930  0.84851729  1
  O  O37  1  0.61524035  0.04969930  0.65148271  1
  O  O38  1  0.88475965  0.45030070  0.15148271  1
  O  O39  1  0.38475965  0.95030070  0.34851729  1
  O  O40  1  0.27673305  0.81586050  0.84498055  1
  O  O41  1  0.77673305  0.31586050  0.65501945  1
  O  O42  1  0.72326695  0.18413950  0.15501945  1
  O  O43  1  0.22326695  0.68413950  0.34498055  1
  O  O44  1  0.11415165  0.64275590  0.53814001  1
  O  O45  1  0.61415165  0.14275590  0.96185999  1
  O  O46  1  0.88584835  0.35724410  0.46185999  1
  O  O47  1  0.38584835  0.85724410  0.03814001  1
  O  O48  1  0.17777835  0.42423651  0.64567741  1
  O  O49  1  0.67777835  0.92423651  0.85432259  1
  O  O50  1  0.82222165  0.57576349  0.35432259  1
  O  O51  1  0.32222165  0.07576349  0.14567741  1
  O  O52  1  0.32209234  0.68989820  0.67921712  1
  O  O53  1  0.82209234  0.18989820  0.82078288  1
  O  O54  1  0.67790766  0.31010180  0.32078288  1
  O  O55  1  0.17790766  0.81010180  0.17921712  1
  O  O56  1  0.21982337  0.09324225  0.95447784  1
  O  O57  1  0.71982337  0.59324225  0.54552216  1
  O  O58  1  0.78017663  0.90675775  0.04552216  1
  O  O59  1  0.28017663  0.40675775  0.45447784  1
  O  O60  1  0.17524077  0.27594882  0.82169550  1
  O  O61  1  0.67524077  0.77594882  0.67830450  1
  O  O62  1  0.82475923  0.72405118  0.17830450  1
  O  O63  1  0.32475923  0.22405118  0.32169550  1
  O  O64  1  0.39390589  0.08824435  0.79166660  1
  O  O65  1  0.89390589  0.58824435  0.70833340  1
  O  O66  1  0.60609411  0.91175565  0.20833340  1
  O  O67  1  0.10609411  0.41175565  0.29166660  1
  O  O68  1  0.44317020  0.43752095  0.68967088  1
  O  O69  1  0.94317020  0.93752095  0.81032912  1
  O  O70  1  0.55682980  0.56247905  0.31032912  1
  O  O71  1  0.05682980  0.06247905  0.18967088  1
