# generated using pymatgen
data_DyPtF7
_symmetry_space_group_name_H-M   'P 1'
_cell_length_a   5.54934200
_cell_length_b   8.89106148
_cell_length_c   11.14857739
_cell_angle_alpha   107.41627848
_cell_angle_beta   90.00000000
_cell_angle_gamma   90.00000000
_symmetry_Int_Tables_number   1
_chemical_formula_structural   DyPtF7
_chemical_formula_sum   'Dy4 Pt4 F28'
_cell_volume   524.84810902
_cell_formula_units_Z   4
loop_
 _symmetry_equiv_pos_site_id
 _symmetry_equiv_pos_as_xyz
  1  'x, y, z'
loop_
 _atom_site_type_symbol
 _atom_site_label
 _atom_site_symmetry_multiplicity
 _atom_site_fract_x
 _atom_site_fract_y
 _atom_site_fract_z
 _atom_site_occupancy
  F  F0  1  0.56391041  0.38114441  0.08467792  1
  F  F1  1  0.06391041  0.11885559  0.41532208  1
  F  F2  1  0.43608959  0.61885559  0.91532208  1
  F  F3  1  0.93608959  0.88114441  0.58467792  1
  F  F4  1  0.55971335  0.17946687  0.45732293  1
  F  F5  1  0.05971335  0.32053313  0.04267707  1
  F  F6  1  0.44028665  0.82053313  0.54267707  1
  F  F7  1  0.94028665  0.67946687  0.95732293  1
  F  F8  1  0.22573661  0.61988564  0.14129135  1
  F  F9  1  0.72573661  0.88011436  0.35870865  1
  F  F10  1  0.77426339  0.38011436  0.85870865  1
  F  F11  1  0.27426339  0.11988564  0.64129135  1
  F  F12  1  0.24558637  0.92610257  0.94957926  1
  F  F13  1  0.74558637  0.57389743  0.55042074  1
  F  F14  1  0.75441363  0.07389743  0.05042074  1
  F  F15  1  0.25441363  0.42610257  0.44957926  1
  F  F16  1  0.03420562  0.63870800  0.36397129  1
  F  F17  1  0.53420562  0.86129200  0.13602871  1
  F  F18  1  0.96579438  0.36129200  0.63602871  1
  F  F19  1  0.46579438  0.13870800  0.86397129  1
  F  F20  1  0.94805768  0.07897580  0.82467543  1
  F  F21  1  0.44805768  0.42102420  0.67532457  1
  F  F22  1  0.05194232  0.92102420  0.17532457  1
  F  F23  1  0.55194232  0.57897580  0.32467543  1
  F  F24  1  0.58503461  0.79762225  0.76745294  1
  F  F25  1  0.08503461  0.70237775  0.73254706  1
  F  F26  1  0.41496539  0.20237775  0.23254706  1
  F  F27  1  0.91496539  0.29762225  0.26745294  1
  Dy  Dy28  1  0.23910111  0.42180507  0.23566793  1
  Dy  Dy29  1  0.73910111  0.07819493  0.26433207  1
  Dy  Dy30  1  0.76089889  0.57819493  0.76433207  1
  Dy  Dy31  1  0.26089889  0.92180507  0.73566793  1
  Pt  Pt32  1  0.24122277  0.77061672  0.04300401  1
  Pt  Pt33  1  0.74122277  0.72938328  0.45699599  1
  Pt  Pt34  1  0.75877723  0.22938328  0.95699599  1
  Pt  Pt35  1  0.25877723  0.27061672  0.54300401  1
