# generated using pymatgen
data_Sr3ErRhO6
_symmetry_space_group_name_H-M   'P 1'
_cell_length_a   6.84441030
_cell_length_b   6.84441030
_cell_length_c   6.84441031
_cell_angle_alpha   92.22870311
_cell_angle_beta   92.22870312
_cell_angle_gamma   92.22870315
_symmetry_Int_Tables_number   1
_chemical_formula_structural   Sr3ErRhO6
_chemical_formula_sum   'Sr6 Er2 Rh2 O12'
_cell_volume   319.88584838
_cell_formula_units_Z   2
loop_
 _symmetry_equiv_pos_site_id
 _symmetry_equiv_pos_as_xyz
  1  'x, y, z'
loop_
 _atom_site_type_symbol
 _atom_site_label
 _atom_site_symmetry_multiplicity
 _atom_site_fract_x
 _atom_site_fract_y
 _atom_site_fract_z
 _atom_site_occupancy
  O  O0  1  0.79212982  0.59249774  0.45797712  1
  O  O1  1  0.59249774  0.45797712  0.79212982  1
  O  O2  1  0.45797712  0.79212982  0.59249774  1
  O  O3  1  0.04202288  0.90750226  0.70787018  1
  O  O4  1  0.90750226  0.70787018  0.04202288  1
  O  O5  1  0.70787018  0.04202288  0.90750226  1
  O  O6  1  0.20787018  0.40750226  0.54202288  1
  O  O7  1  0.40750226  0.54202288  0.20787018  1
  O  O8  1  0.54202288  0.20787018  0.40750226  1
  O  O9  1  0.95797712  0.09249774  0.29212982  1
  O  O10  1  0.29212982  0.95797712  0.09249774  1
  O  O11  1  0.09249774  0.29212982  0.95797712  1
  Sr  Sr12  1  0.61870740  0.88129260  0.25000000  1
  Sr  Sr13  1  0.25000000  0.61870740  0.88129260  1
  Sr  Sr14  1  0.88129260  0.25000000  0.61870740  1
  Sr  Sr15  1  0.38129260  0.11870740  0.75000000  1
  Sr  Sr16  1  0.11870740  0.75000000  0.38129260  1
  Sr  Sr17  1  0.75000000  0.38129260  0.11870740  1
  Rh  Rh18  1  0.50000000  0.50000000  0.50000000  1
  Rh  Rh19  1  0.00000000  0.00000000  0.00000000  1
  Er  Er20  1  0.75000000  0.75000000  0.75000000  1
  Er  Er21  1  0.25000000  0.25000000  0.25000000  1
