# generated using pymatgen
data_Na2BeSiO4
_symmetry_space_group_name_H-M   'P 1'
_cell_length_a   5.01644874
_cell_length_b   7.08723292
_cell_length_c   10.03672652
_cell_angle_alpha   89.91566952
_cell_angle_beta   90.00000000
_cell_angle_gamma   90.00000000
_symmetry_Int_Tables_number   1
_chemical_formula_structural   Na2BeSiO4
_chemical_formula_sum   'Na8 Be4 Si4 O16'
_cell_volume   356.83274843
_cell_formula_units_Z   4
loop_
 _symmetry_equiv_pos_site_id
 _symmetry_equiv_pos_as_xyz
  1  'x, y, z'
loop_
 _atom_site_type_symbol
 _atom_site_label
 _atom_site_symmetry_multiplicity
 _atom_site_fract_x
 _atom_site_fract_y
 _atom_site_fract_z
 _atom_site_occupancy
  Be  Be0  1  0.84169772  0.49885160  0.91204026  1
  Be  Be1  1  0.34169772  0.50114840  0.58795974  1
  Be  Be2  1  0.15830228  0.50114840  0.08795974  1
  Be  Be3  1  0.65830228  0.49885160  0.41204026  1
  O  O4  1  0.83482375  0.56292345  0.07371815  1
  O  O5  1  0.83925520  0.31580520  0.38056291  1
  O  O6  1  0.33925520  0.68419480  0.11943709  1
  O  O7  1  0.16074480  0.68419480  0.61943709  1
  O  O8  1  0.66074480  0.31580520  0.88056291  1
  O  O9  1  0.76511409  0.93927392  0.62452594  1
  O  O10  1  0.33482375  0.43707655  0.42628185  1
  O  O11  1  0.16517625  0.43707655  0.92628185  1
  O  O12  1  0.66517625  0.56292345  0.57371815  1
  O  O13  1  0.70554264  0.68068408  0.31800740  1
  O  O14  1  0.20554264  0.31931592  0.18199260  1
  O  O15  1  0.29445736  0.31931592  0.68199260  1
  O  O16  1  0.23488591  0.06072608  0.37547406  1
  O  O17  1  0.26511409  0.06072608  0.87547406  1
  O  O18  1  0.73488591  0.93927392  0.12452594  1
  O  O19  1  0.79445736  0.68068408  0.81800740  1
  Na  Na20  1  0.20807117  0.00166937  0.10970701  1
  Na  Na21  1  0.68153601  0.26526453  0.14096691  1
  Na  Na22  1  0.18153601  0.73473547  0.35903309  1
  Na  Na23  1  0.31846399  0.73473547  0.85903309  1
  Na  Na24  1  0.81846399  0.26526453  0.64096691  1
  Na  Na25  1  0.70807117  0.99833063  0.39029299  1
  Na  Na26  1  0.29192883  0.00166937  0.60970701  1
  Na  Na27  1  0.79192883  0.99833063  0.89029299  1
  Si  Si28  1  0.84384222  0.72125433  0.65734668  1
  Si  Si29  1  0.65615778  0.72125433  0.15734668  1
  Si  Si30  1  0.15615778  0.27874567  0.34265332  1
  Si  Si31  1  0.34384222  0.27874567  0.84265332  1
