# generated using pymatgen
data_Tl2TeS3
_symmetry_space_group_name_H-M   'P 1'
_cell_length_a   6.23882990
_cell_length_b   8.81875106
_cell_length_c   13.39413641
_cell_angle_alpha   90.00000000
_cell_angle_beta   90.00000000
_cell_angle_gamma   90.00000000
_symmetry_Int_Tables_number   1
_chemical_formula_structural   Tl2TeS3
_chemical_formula_sum   'Tl8 Te4 S12'
_cell_volume   736.92780941
_cell_formula_units_Z   4
loop_
 _symmetry_equiv_pos_site_id
 _symmetry_equiv_pos_as_xyz
  1  'x, y, z'
loop_
 _atom_site_type_symbol
 _atom_site_label
 _atom_site_symmetry_multiplicity
 _atom_site_fract_x
 _atom_site_fract_y
 _atom_site_fract_z
 _atom_site_occupancy
  S  S0  1  0.78190748  0.91277931  0.89119388  1
  S  S1  1  0.28190748  0.58722069  0.10880612  1
  S  S2  1  0.71809252  0.41277931  0.60880612  1
  S  S3  1  0.21809252  0.08722069  0.39119388  1
  S  S4  1  0.21809252  0.08722069  0.10880612  1
  S  S5  1  0.71809252  0.41277931  0.89119388  1
  S  S6  1  0.28190748  0.58722069  0.39119388  1
  S  S7  1  0.32796394  0.07889608  0.75000000  1
  S  S8  1  0.67203606  0.92110392  0.25000000  1
  S  S9  1  0.17203606  0.57889608  0.75000000  1
  S  S10  1  0.82796394  0.42110392  0.25000000  1
  S  S11  1  0.78190748  0.91277931  0.60880612  1
  Te  Te12  1  0.71458714  0.07349161  0.75000000  1
  Te  Te13  1  0.78541286  0.57349161  0.75000000  1
  Te  Te14  1  0.21458714  0.42650839  0.25000000  1
  Te  Te15  1  0.28541286  0.92650839  0.25000000  1
  Tl  Tl16  1  0.23569017  0.34261773  0.57921632  1
  Tl  Tl17  1  0.76430983  0.65738227  0.07921632  1
  Tl  Tl18  1  0.26430983  0.84261773  0.92078368  1
  Tl  Tl19  1  0.73569017  0.15738227  0.42078368  1
  Tl  Tl20  1  0.73569017  0.15738227  0.07921632  1
  Tl  Tl21  1  0.23569017  0.34261773  0.92078368  1
  Tl  Tl22  1  0.76430983  0.65738227  0.42078368  1
  Tl  Tl23  1  0.26430983  0.84261773  0.57921632  1
