# generated using pymatgen
data_K6CdO4
_symmetry_space_group_name_H-M   'P 1'
_cell_length_a   8.83173285
_cell_length_b   8.83173285
_cell_length_c   6.73896576
_cell_angle_alpha   90.00000000
_cell_angle_beta   90.00000000
_cell_angle_gamma   120.00000002
_symmetry_Int_Tables_number   1
_chemical_formula_structural   K6CdO4
_chemical_formula_sum   'K12 Cd2 O8'
_cell_volume   455.21412443
_cell_formula_units_Z   2
loop_
 _symmetry_equiv_pos_site_id
 _symmetry_equiv_pos_as_xyz
  1  'x, y, z'
loop_
 _atom_site_type_symbol
 _atom_site_label
 _atom_site_symmetry_multiplicity
 _atom_site_fract_x
 _atom_site_fract_y
 _atom_site_fract_z
 _atom_site_occupancy
  O  O0  1  0.19192354  0.80807646  0.36175532  1
  O  O1  1  0.38384708  0.19192354  0.86175532  1
  O  O2  1  0.80807646  0.61615292  0.86175532  1
  O  O3  1  0.19192354  0.38384708  0.36175532  1
  O  O4  1  0.61615292  0.80807646  0.36175532  1
  O  O5  1  0.80807646  0.19192354  0.86175532  1
  O  O6  1  0.66666667  0.33333333  0.41534818  1
  O  O7  1  0.33333333  0.66666667  0.91534818  1
  K  K8  1  0.53811324  0.07622648  0.13916312  1
  K  K9  1  0.46188676  0.53811324  0.63916312  1
  K  K10  1  0.92377352  0.46188676  0.13916312  1
  K  K11  1  0.53811324  0.46188676  0.13916312  1
  K  K12  1  0.14334201  0.85665799  0.97557374  1
  K  K13  1  0.28668401  0.14334201  0.47557374  1
  K  K14  1  0.07622648  0.53811324  0.63916312  1
  K  K15  1  0.85665799  0.71331599  0.47557374  1
  K  K16  1  0.85665799  0.14334201  0.47557374  1
  K  K17  1  0.71331599  0.85665799  0.97557374  1
  K  K18  1  0.14334201  0.28668401  0.97557374  1
  K  K19  1  0.46188676  0.92377352  0.63916312  1
  Cd  Cd20  1  0.66666667  0.33333333  0.74757529  1
  Cd  Cd21  1  0.33333333  0.66666667  0.24757529  1
