# generated using pymatgen
data_K2B4O7
_symmetry_space_group_name_H-M   'P 1'
_cell_length_a   6.56693983
_cell_length_b   9.79715390
_cell_length_c   10.54912211
_cell_angle_alpha   89.18969345
_cell_angle_beta   77.37170691
_cell_angle_gamma   79.00617527
_symmetry_Int_Tables_number   1
_chemical_formula_structural   K2B4O7
_chemical_formula_sum   'K8 B16 O28'
_cell_volume   649.86035345
_cell_formula_units_Z   4
loop_
 _symmetry_equiv_pos_site_id
 _symmetry_equiv_pos_as_xyz
  1  'x, y, z'
loop_
 _atom_site_type_symbol
 _atom_site_label
 _atom_site_symmetry_multiplicity
 _atom_site_fract_x
 _atom_site_fract_y
 _atom_site_fract_z
 _atom_site_occupancy
  B  B0  1  0.67465207  0.29541106  0.54401571  1
  B  B1  1  0.32534793  0.70458894  0.45598429  1
  B  B2  1  0.13460734  0.19468395  0.84194694  1
  B  B3  1  0.86539266  0.80531605  0.15805306  1
  B  B4  1  0.12795479  0.44469844  0.19090098  1
  B  B5  1  0.87204521  0.55530156  0.80909902  1
  B  B6  1  0.19528157  0.09002318  0.26754861  1
  B  B7  1  0.80471843  0.90997682  0.73245139  1
  B  B8  1  0.54979912  0.15390272  0.73068533  1
  B  B9  1  0.45020088  0.84609728  0.26931467  1
  B  B10  1  0.89093882  0.29601900  0.31407219  1
  B  B11  1  0.10906118  0.70398100  0.68592781  1
  B  B12  1  0.06381019  0.22714181  0.09413002  1
  B  B13  1  0.93618981  0.77285819  0.90586998  1
  B  B14  1  0.81264531  0.31266691  0.74712271  1
  B  B15  1  0.18735469  0.68733309  0.25287729  1
  O  O16  1  0.85910827  0.25689094  0.18883714  1
  O  O17  1  0.05125492  0.18344519  0.35797472  1
  O  O18  1  0.31120990  0.68558638  0.58798914  1
  O  O19  1  0.68879010  0.31441362  0.41201086  1
  O  O20  1  0.02197028  0.57042996  0.69716178  1
  O  O21  1  0.94874508  0.81655481  0.64202528  1
  O  O22  1  0.32219360  0.98667791  0.31963176  1
  O  O23  1  0.67780640  0.01332209  0.68036824  1
  O  O24  1  0.65287364  0.86887521  0.18574944  1
  O  O25  1  0.34712636  0.13112479  0.81425056  1
  O  O26  1  0.34809561  0.76662497  0.19630143  1
  O  O27  1  0.65190439  0.23337503  0.80369857  1
  O  O28  1  0.23269738  0.55466844  0.17393975  1
  O  O29  1  0.76730262  0.44533156  0.82606025  1
  O  O30  1  0.48217085  0.77463941  0.39338551  1
  O  O31  1  0.51782915  0.22536059  0.60661449  1
  O  O32  1  0.19527710  0.65299538  0.39157522  1
  O  O33  1  0.80472290  0.34700462  0.60842478  1
  O  O34  1  0.96308711  0.76228523  0.25918506  1
  O  O35  1  0.03691289  0.23771477  0.74081494  1
  O  O36  1  0.17712263  0.34842276  0.08878939  1
  O  O37  1  0.82287737  0.65157724  0.91121061  1
  O  O38  1  0.20692781  0.10287675  0.13588977  1
  O  O39  1  0.79307219  0.89712325  0.86411023  1
  O  O40  1  0.01874220  0.20483448  0.96771156  1
  O  O41  1  0.98125780  0.79516552  0.03228844  1
  O  O42  1  0.97802972  0.42957004  0.30283822  1
  O  O43  1  0.14089173  0.74310906  0.81116286  1
  K  K44  1  0.75821027  0.99646924  0.40838827  1
  K  K45  1  0.24178973  0.00353076  0.59161173  1
  K  K46  1  0.21334991  0.37466371  0.49879367  1
  K  K47  1  0.78665009  0.62533629  0.50120633  1
  K  K48  1  0.66432396  0.51862225  0.12437025  1
  K  K49  1  0.33567604  0.48137775  0.87562975  1
  K  K50  1  0.64106284  0.12300350  0.03916819  1
  K  K51  1  0.35893716  0.87699650  0.96083181  1
