# generated using pymatgen
data_Ca4Si3Pd4
_symmetry_space_group_name_H-M   'P 1'
_cell_length_a   5.70510065
_cell_length_b   7.87657126
_cell_length_c   10.88275752
_cell_angle_alpha   108.45079321
_cell_angle_beta   105.19568497
_cell_angle_gamma   90.00000002
_symmetry_Int_Tables_number   1
_chemical_formula_structural   Ca4Si3Pd4
_chemical_formula_sum   'Ca8 Si6 Pd8'
_cell_volume   445.83450411
_cell_formula_units_Z   2
loop_
 _symmetry_equiv_pos_site_id
 _symmetry_equiv_pos_as_xyz
  1  'x, y, z'
loop_
 _atom_site_type_symbol
 _atom_site_label
 _atom_site_symmetry_multiplicity
 _atom_site_fract_x
 _atom_site_fract_y
 _atom_site_fract_z
 _atom_site_occupancy
  Si  Si0  1  0.03938917  0.56491686  0.34362978  1
  Si  Si1  1  0.61530906  0.75000000  0.00000000  1
  Si  Si2  1  0.30424061  0.06491686  0.34362978  1
  Si  Si3  1  0.96061083  0.43508314  0.65637022  1
  Si  Si4  1  0.69575939  0.93508314  0.65637022  1
  Si  Si5  1  0.38469094  0.25000000  0.00000000  1
  Ca  Ca6  1  0.20051500  0.67330472  0.13567310  1
  Ca  Ca7  1  0.79948500  0.32669528  0.86432690  1
  Ca  Ca8  1  0.06484190  0.82669528  0.86432690  1
  Ca  Ca9  1  0.20536168  0.09453012  0.66155020  1
  Ca  Ca10  1  0.54381148  0.40546988  0.33844980  1
  Ca  Ca11  1  0.45618852  0.59453012  0.66155020  1
  Ca  Ca12  1  0.93515810  0.17330472  0.13567310  1
  Ca  Ca13  1  0.79463832  0.90546988  0.33844980  1
  Pd  Pd14  1  0.30192738  0.47581970  0.87636679  1
  Pd  Pd15  1  0.42556060  0.02418030  0.12363321  1
  Pd  Pd16  1  0.57443940  0.97581970  0.87636679  1
  Pd  Pd17  1  0.69807262  0.52418030  0.12363321  1
  Pd  Pd18  1  0.91426664  0.68110674  0.55610779  1
  Pd  Pd19  1  0.64184115  0.18110674  0.55610779  1
  Pd  Pd20  1  0.08573336  0.31889326  0.44389221  1
  Pd  Pd21  1  0.35815885  0.81889326  0.44389221  1
