# generated using pymatgen
data_Na2CaZr2Si10O27
_symmetry_space_group_name_H-M   'P 1'
_cell_length_a   9.35933607
_cell_length_b   9.35933607
_cell_length_c   19.03028936
_cell_angle_alpha   98.02094811
_cell_angle_beta   98.02094811
_cell_angle_gamma   112.79875806
_symmetry_Int_Tables_number   1
_chemical_formula_structural   Na2CaZr2Si10O27
_chemical_formula_sum   'Na4 Ca2 Zr4 Si20 O54'
_cell_volume   1487.10739413
_cell_formula_units_Z   2
loop_
 _symmetry_equiv_pos_site_id
 _symmetry_equiv_pos_as_xyz
  1  'x, y, z'
loop_
 _atom_site_type_symbol
 _atom_site_label
 _atom_site_symmetry_multiplicity
 _atom_site_fract_x
 _atom_site_fract_y
 _atom_site_fract_z
 _atom_site_occupancy
  Na  Na0  1  0.02813131  0.05046834  0.15345606  1
  Na  Na1  1  0.94953166  0.97186869  0.34654394  1
  Na  Na2  1  0.97186869  0.94953166  0.84654394  1
  Na  Na3  1  0.05046834  0.02813131  0.65345606  1
  Ca  Ca4  1  0.62595385  0.37404615  0.25000000  1
  Ca  Ca5  1  0.37404615  0.62595385  0.75000000  1
  Zr  Zr6  1  0.02480710  0.49493591  0.24455022  1
  Zr  Zr7  1  0.50506409  0.97519290  0.25544978  1
  Zr  Zr8  1  0.97519290  0.50506409  0.75544978  1
  Zr  Zr9  1  0.49493591  0.02480710  0.74455022  1
  Si  Si10  1  0.84409975  0.24271825  0.86308535  1
  Si  Si11  1  0.75728175  0.15590025  0.63691465  1
  Si  Si12  1  0.15590025  0.75728175  0.13691465  1
  Si  Si13  1  0.24271825  0.84409975  0.36308535  1
  Si  Si14  1  0.25258726  0.85523293  0.86266911  1
  Si  Si15  1  0.14476707  0.74741274  0.63733089  1
  Si  Si16  1  0.74741274  0.14476707  0.13733089  1
  Si  Si17  1  0.85523293  0.25258726  0.36266911  1
  Si  Si18  1  0.71123370  0.29734254  0.00143008  1
  Si  Si19  1  0.70265746  0.28876630  0.49856992  1
  Si  Si20  1  0.28876630  0.70265746  0.99856992  1
  Si  Si21  1  0.29734254  0.71123370  0.50143008  1
  Si  Si22  1  0.81347401  0.60196009  0.11975861  1
  Si  Si23  1  0.39803991  0.18652599  0.38024139  1
  Si  Si24  1  0.18652599  0.39803991  0.88024139  1
  Si  Si25  1  0.60196009  0.81347401  0.61975861  1
  Si  Si26  1  0.60193249  0.79155605  0.11610939  1
  Si  Si27  1  0.20844395  0.39806751  0.38389061  1
  Si  Si28  1  0.39806751  0.20844395  0.88389061  1
  Si  Si29  1  0.79155605  0.60193249  0.61610939  1
  O  O30  1  0.66766478  0.65488913  0.11039116  1
  O  O31  1  0.34511087  0.33233522  0.38960884  1
  O  O32  1  0.33233522  0.34511087  0.88960884  1
  O  O33  1  0.65488913  0.66766478  0.61039116  1
  O  O34  1  0.81187071  0.51747561  0.18921981  1
  O  O35  1  0.48252439  0.18812929  0.31078019  1
  O  O36  1  0.18812929  0.48252439  0.81078019  1
  O  O37  1  0.51747561  0.81187071  0.68921981  1
  O  O38  1  0.97807716  0.76634256  0.13035314  1
  O  O39  1  0.23365744  0.02192284  0.36964686  1
  O  O40  1  0.02192284  0.23365744  0.86964686  1
  O  O41  1  0.76634256  0.97807716  0.63035314  1
  O  O42  1  0.79339466  0.48249559  0.04426646  1
  O  O43  1  0.51750441  0.20660534  0.45573354  1
  O  O44  1  0.20660534  0.51750441  0.95573354  1
  O  O45  1  0.48249559  0.79339466  0.54426646  1
  O  O46  1  0.54075784  0.80478164  0.19106851  1
  O  O47  1  0.19521836  0.45924216  0.30893149  1
  O  O48  1  0.45924216  0.19521836  0.80893149  1
  O  O49  1  0.80478164  0.54075784  0.69106851  1
  O  O50  1  0.74916522  0.96455189  0.11812627  1
  O  O51  1  0.03544811  0.25083478  0.38187373  1
  O  O52  1  0.25083478  0.03544811  0.88187373  1
  O  O53  1  0.96455189  0.74916522  0.61812627  1
  O  O54  1  0.46638508  0.74640105  0.04348081  1
  O  O55  1  0.25359895  0.53361492  0.45651919  1
  O  O56  1  0.53361492  0.25359895  0.95651919  1
  O  O57  1  0.74640105  0.46638508  0.54348081  1
  O  O58  1  0.17976791  0.73176573  0.05310343  1
  O  O59  1  0.26823427  0.82023209  0.44689657  1
  O  O60  1  0.82023209  0.26823427  0.94689657  1
  O  O61  1  0.73176573  0.17976791  0.55310343  1
  O  O62  1  0.69497344  0.18274332  0.05902406  1
  O  O63  1  0.81725668  0.30502656  0.44097594  1
  O  O64  1  0.30502656  0.81725668  0.94097594  1
  O  O65  1  0.18274332  0.69497344  0.55902406  1
  O  O66  1  0.85953068  0.39630092  0.82875631  1
  O  O67  1  0.60369908  0.14046932  0.67124369  1
  O  O68  1  0.14046932  0.60369908  0.17124369  1
  O  O69  1  0.39630092  0.85953068  0.32875631  1
  O  O70  1  0.38380038  0.85849628  0.81376252  1
  O  O71  1  0.14150372  0.61619962  0.68623748  1
  O  O72  1  0.61619962  0.14150372  0.18623748  1
  O  O73  1  0.85849628  0.38380038  0.31376252  1
  O  O74  1  0.71434240  0.07442213  0.81418563  1
  O  O75  1  0.92557787  0.28565760  0.68581437  1
  O  O76  1  0.28565760  0.92557787  0.18581437  1
  O  O77  1  0.07442213  0.71434240  0.31418563  1
  O  O78  1  0.93081668  0.25990020  0.17731794  1
  O  O79  1  0.74009980  0.06918332  0.32268206  1
  O  O80  1  0.06918332  0.74009980  0.82268206  1
  O  O81  1  0.25990020  0.93081668  0.67731794  1
  O  O82  1  0.46950071  0.53049929  0.25000000  1
  O  O83  1  0.53049929  0.46950071  0.75000000  1
