# generated using pymatgen
data_Er3Ni7B2
_symmetry_space_group_name_H-M   'P 1'
_cell_length_a   5.04100201
_cell_length_b   5.04100201
_cell_length_c   14.25531244
_cell_angle_alpha   90.00000000
_cell_angle_beta   90.00000000
_cell_angle_gamma   120.00000006
_symmetry_Int_Tables_number   1
_chemical_formula_structural   Er3Ni7B2
_chemical_formula_sum   'Er6 Ni14 B4'
_cell_volume   313.71921033
_cell_formula_units_Z   2
loop_
 _symmetry_equiv_pos_site_id
 _symmetry_equiv_pos_as_xyz
  1  'x, y, z'
loop_
 _atom_site_type_symbol
 _atom_site_label
 _atom_site_symmetry_multiplicity
 _atom_site_fract_x
 _atom_site_fract_y
 _atom_site_fract_z
 _atom_site_occupancy
  B  B0  1  0.66666667  0.33333333  0.25000000  1
  B  B1  1  0.33333333  0.66666667  0.75000000  1
  B  B2  1  0.00000000  0.00000000  0.75000000  1
  B  B3  1  0.00000000  0.00000000  0.25000000  1
  Ni  Ni4  1  0.83428897  0.16571103  0.35145063  1
  Ni  Ni5  1  0.83428897  0.66857795  0.35145063  1
  Ni  Ni6  1  0.00000000  0.00000000  0.00000000  1
  Ni  Ni7  1  0.00000000  0.00000000  0.50000000  1
  Ni  Ni8  1  0.83428897  0.66857795  0.14854937  1
  Ni  Ni9  1  0.16571103  0.83428897  0.64854937  1
  Ni  Ni10  1  0.66857795  0.83428897  0.64854937  1
  Ni  Ni11  1  0.33142205  0.16571103  0.14854937  1
  Ni  Ni12  1  0.83428897  0.16571103  0.14854937  1
  Ni  Ni13  1  0.16571103  0.33142205  0.85145063  1
  Ni  Ni14  1  0.16571103  0.83428897  0.85145063  1
  Ni  Ni15  1  0.16571103  0.33142205  0.64854937  1
  Ni  Ni16  1  0.66857795  0.83428897  0.85145063  1
  Ni  Ni17  1  0.33142205  0.16571103  0.35145063  1
  Er  Er18  1  0.33333333  0.66666667  0.46762460  1
  Er  Er19  1  0.66666667  0.33333333  0.96762460  1
  Er  Er20  1  0.66666667  0.33333333  0.53237540  1
  Er  Er21  1  0.33333333  0.66666667  0.03237540  1
  Er  Er22  1  0.66666667  0.33333333  0.75000000  1
  Er  Er23  1  0.33333333  0.66666667  0.25000000  1
