# generated using pymatgen
data_NaNbGeO5
_symmetry_space_group_name_H-M   'P 1'
_cell_length_a   6.94461538
_cell_length_b   7.69789724
_cell_length_c   9.01559958
_cell_angle_alpha   90.00000000
_cell_angle_beta   90.00000000
_cell_angle_gamma   115.80999014
_symmetry_Int_Tables_number   1
_chemical_formula_structural   NaNbGeO5
_chemical_formula_sum   'Na4 Nb4 Ge4 O20'
_cell_volume   433.88497657
_cell_formula_units_Z   4
loop_
 _symmetry_equiv_pos_site_id
 _symmetry_equiv_pos_as_xyz
  1  'x, y, z'
loop_
 _atom_site_type_symbol
 _atom_site_label
 _atom_site_symmetry_multiplicity
 _atom_site_fract_x
 _atom_site_fract_y
 _atom_site_fract_z
 _atom_site_occupancy
  O  O0  1  0.15480314  0.88771059  0.54781850  1
  O  O1  1  0.84519686  0.61228941  0.04781850  1
  O  O2  1  0.84519686  0.11228941  0.45218150  1
  O  O3  1  0.15480314  0.38771059  0.95218150  1
  O  O4  1  0.35782438  0.12449715  0.95401098  1
  O  O5  1  0.64217562  0.37550285  0.45401098  1
  O  O6  1  0.64217562  0.87550285  0.04598902  1
  O  O7  1  0.35782438  0.62449715  0.54598902  1
  O  O8  1  0.95363278  0.41449921  0.68252544  1
  O  O9  1  0.04636722  0.08550079  0.18252544  1
  O  O10  1  0.04636722  0.58550079  0.31747456  1
  O  O11  1  0.95363278  0.91449921  0.81747456  1
  O  O12  1  0.25342075  0.24837274  0.67856607  1
  O  O13  1  0.74657925  0.25162726  0.17856607  1
  O  O14  1  0.74657925  0.75162726  0.32143393  1
  O  O15  1  0.25342075  0.74837274  0.82143393  1
  O  O16  1  0.56218568  0.09401973  0.69003608  1
  O  O17  1  0.43781432  0.40598027  0.19003608  1
  O  O18  1  0.43781432  0.90598027  0.30996392  1
  O  O19  1  0.56218568  0.59401973  0.80996392  1
  Na  Na20  1  0.75887628  0.79599229  0.58072083  1
  Na  Na21  1  0.24112372  0.20400771  0.41927917  1
  Na  Na22  1  0.24112372  0.70400771  0.08072083  1
  Na  Na23  1  0.75887628  0.29599229  0.91927917  1
  Ge  Ge24  1  0.24580352  0.24818724  0.06367603  1
  Ge  Ge25  1  0.24580352  0.74818724  0.43632397  1
  Ge  Ge26  1  0.75419648  0.75181276  0.93632397  1
  Ge  Ge27  1  0.75419648  0.25181276  0.56367603  1
  Nb  Nb28  1  0.25910281  0.47813692  0.73856328  1
  Nb  Nb29  1  0.74089719  0.52186308  0.26143672  1
  Nb  Nb30  1  0.25910281  0.97813692  0.76143672  1
  Nb  Nb31  1  0.74089719  0.02186308  0.23856328  1
