# generated using pymatgen
data_K3(Cu4S3)2
_symmetry_space_group_name_H-M   'P 1'
_cell_length_a   3.85599007
_cell_length_b   8.87928530
_cell_length_c   9.87058665
_cell_angle_alpha   106.11285525
_cell_angle_beta   90.00000000
_cell_angle_gamma   102.54075659
_symmetry_Int_Tables_number   1
_chemical_formula_structural   K3(Cu4S3)2
_chemical_formula_sum   'K3 Cu8 S6'
_cell_volume   316.27636571
_cell_formula_units_Z   1
loop_
 _symmetry_equiv_pos_site_id
 _symmetry_equiv_pos_as_xyz
  1  'x, y, z'
loop_
 _atom_site_type_symbol
 _atom_site_label
 _atom_site_symmetry_multiplicity
 _atom_site_fract_x
 _atom_site_fract_y
 _atom_site_fract_z
 _atom_site_occupancy
  S  S0  1  0.65294230  0.30588459  0.65319059  1
  S  S1  1  0.16104145  0.32208290  0.02371395  1
  S  S2  1  0.83895855  0.67791710  0.97628605  1
  S  S3  1  0.34705770  0.69411541  0.34680941  1
  S  S4  1  0.95563843  0.91127687  0.70349104  1
  S  S5  1  0.04436157  0.08872313  0.29650896  1
  K  K6  1  0.30689522  0.61379043  0.70507192  1
  K  K7  1  0.69310478  0.38620957  0.29492808  1
  K  K8  1  0.50000000  0.00000000  0.00000000  1
  Cu  Cu9  1  0.48623035  0.97246070  0.35985154  1
  Cu  Cu10  1  0.51376965  0.02753930  0.64014846  1
  Cu  Cu11  1  0.30386072  0.60772143  0.08715552  1
  Cu  Cu12  1  0.09006062  0.18012124  0.53566787  1
  Cu  Cu13  1  0.90993938  0.81987876  0.46433213  1
  Cu  Cu14  1  0.09273111  0.18546222  0.79706033  1
  Cu  Cu15  1  0.90726889  0.81453778  0.20293967  1
  Cu  Cu16  1  0.69613928  0.39227857  0.91284448  1
