# generated using pymatgen
data_Tl3GeTe3
_symmetry_space_group_name_H-M   'P 1'
_cell_length_a   9.84268645
_cell_length_b   10.00682114
_cell_length_c   10.73058210
_cell_angle_alpha   89.59538480
_cell_angle_beta   82.83555553
_cell_angle_gamma   79.15278438
_symmetry_Int_Tables_number   1
_chemical_formula_structural   Tl3GeTe3
_chemical_formula_sum   'Tl12 Ge4 Te12'
_cell_volume   1029.76332277
_cell_formula_units_Z   4
loop_
 _symmetry_equiv_pos_site_id
 _symmetry_equiv_pos_as_xyz
  1  'x, y, z'
loop_
 _atom_site_type_symbol
 _atom_site_label
 _atom_site_symmetry_multiplicity
 _atom_site_fract_x
 _atom_site_fract_y
 _atom_site_fract_z
 _atom_site_occupancy
  Ge  Ge0  1  0.57642999  0.98532191  0.58550785  1
  Ge  Ge1  1  0.90889506  0.42806514  0.01654324  1
  Ge  Ge2  1  0.09110494  0.57193486  0.98345676  1
  Ge  Ge3  1  0.42357001  0.01467809  0.41449215  1
  Te  Te4  1  0.12920288  0.61546981  0.74185405  1
  Te  Te5  1  0.68728348  0.55797878  0.92364122  1
  Te  Te6  1  0.99646673  0.20181848  0.88759101  1
  Te  Te7  1  0.31271652  0.44202122  0.07635878  1
  Te  Te8  1  0.67147941  0.21404791  0.59116367  1
  Te  Te9  1  0.32852059  0.78595209  0.40883633  1
  Te  Te10  1  0.57641105  0.06392294  0.20844082  1
  Te  Te11  1  0.42358895  0.93607706  0.79155918  1
  Te  Te12  1  0.87079712  0.38453019  0.25814595  1
  Te  Te13  1  0.78129260  0.77735519  0.52888117  1
  Te  Te14  1  0.21870740  0.22264481  0.47111883  1
  Te  Te15  1  0.00353327  0.79818152  0.11240899  1
  Tl  Tl16  1  0.18520649  0.16414518  0.16276762  1
  Tl  Tl17  1  0.81479351  0.83585482  0.83723238  1
  Tl  Tl18  1  0.30867323  0.28419594  0.75915566  1
  Tl  Tl19  1  0.69132677  0.71580406  0.24084434  1
  Tl  Tl20  1  0.51143013  0.36920554  0.34916488  1
  Tl  Tl21  1  0.48856987  0.63079446  0.65083512  1
  Tl  Tl22  1  0.87775355  0.04814537  0.34820891  1
  Tl  Tl23  1  0.12224645  0.95185463  0.65179109  1
  Tl  Tl24  1  0.90162265  0.42733556  0.65986164  1
  Tl  Tl25  1  0.09837735  0.57266444  0.34013836  1
  Tl  Tl26  1  0.64430106  0.22847386  0.91061824  1
  Tl  Tl27  1  0.35569894  0.77152614  0.08938176  1
