# generated using pymatgen
data_U(Al10V)2
_symmetry_space_group_name_H-M   'P 1'
_cell_length_a   10.21380826
_cell_length_b   10.21380826
_cell_length_c   10.21380826
_cell_angle_alpha   59.99999999
_cell_angle_beta   59.99999999
_cell_angle_gamma   60.00000001
_symmetry_Int_Tables_number   1
_chemical_formula_structural   U(Al10V)2
_chemical_formula_sum   'U2 Al40 V4'
_cell_volume   753.43901296
_cell_formula_units_Z   2
loop_
 _symmetry_equiv_pos_site_id
 _symmetry_equiv_pos_as_xyz
  1  'x, y, z'
loop_
 _atom_site_type_symbol
 _atom_site_label
 _atom_site_symmetry_multiplicity
 _atom_site_fract_x
 _atom_site_fract_y
 _atom_site_fract_z
 _atom_site_occupancy
  Al  Al0  1  0.00000000  0.00000000  0.00000000  1
  Al  Al1  1  0.00000000  0.00000000  0.50000000  1
  Al  Al2  1  0.50000000  0.00000000  0.00000000  1
  Al  Al3  1  0.00000000  0.50000000  0.00000000  1
  Al  Al4  1  0.76201490  0.48798510  0.48798510  1
  Al  Al5  1  0.51201490  0.51201490  0.23798510  1
  Al  Al6  1  0.23798510  0.23798510  0.51201490  1
  Al  Al7  1  0.51201490  0.23798510  0.23798510  1
  Al  Al8  1  0.51201490  0.23798510  0.51201490  1
  Al  Al9  1  0.23798510  0.51201490  0.23798510  1
  Al  Al10  1  0.48798510  0.76201490  0.48798510  1
  Al  Al11  1  0.48798510  0.48798510  0.76201490  1
  Al  Al12  1  0.76201490  0.76201490  0.48798510  1
  Al  Al13  1  0.76201490  0.48798510  0.76201490  1
  Al  Al14  1  0.23798510  0.51201490  0.51201490  1
  Al  Al15  1  0.48798510  0.76201490  0.76201490  1
  Al  Al16  1  0.32408650  0.32408650  0.79511091  1
  Al  Al17  1  0.67591350  0.20488909  0.94328392  1
  Al  Al18  1  0.94328392  0.67591350  0.67591350  1
  Al  Al19  1  0.67591350  0.94328392  0.67591350  1
  Al  Al20  1  0.20488909  0.67591350  0.94328392  1
  Al  Al21  1  0.20488909  0.94328392  0.67591350  1
  Al  Al22  1  0.94328392  0.20488909  0.67591350  1
  Al  Al23  1  0.79511091  0.32408650  0.32408650  1
  Al  Al24  1  0.32408650  0.79511091  0.32408650  1
  Al  Al25  1  0.05671608  0.32408650  0.79511091  1
  Al  Al26  1  0.32408650  0.05671608  0.79511091  1
  Al  Al27  1  0.05671608  0.32408650  0.32408650  1
  Al  Al28  1  0.79511091  0.32408650  0.05671608  1
  Al  Al29  1  0.32408650  0.79511091  0.05671608  1
  Al  Al30  1  0.32408650  0.05671608  0.32408650  1
  Al  Al31  1  0.94328392  0.67591350  0.20488909  1
  Al  Al32  1  0.67591350  0.94328392  0.20488909  1
  Al  Al33  1  0.67591350  0.67591350  0.94328392  1
  Al  Al34  1  0.67591350  0.67591350  0.20488909  1
  Al  Al35  1  0.20488909  0.67591350  0.67591350  1
  Al  Al36  1  0.67591350  0.20488909  0.67591350  1
  Al  Al37  1  0.79511091  0.05671608  0.32408650  1
  Al  Al38  1  0.05671608  0.79511091  0.32408650  1
  Al  Al39  1  0.32408650  0.32408650  0.05671608  1
  V  V40  1  0.50000000  0.50000000  0.50000000  1
  V  V41  1  0.50000000  0.50000000  0.00000000  1
  V  V42  1  0.00000000  0.50000000  0.50000000  1
  V  V43  1  0.50000000  0.00000000  0.50000000  1
  U  U44  1  0.12500000  0.12500000  0.12500000  1
  U  U45  1  0.87500000  0.87500000  0.87500000  1
