# generated using pymatgen
data_Ca3GeO
_symmetry_space_group_name_H-M   'P 1'
_cell_length_a   6.72936387
_cell_length_b   6.70106362
_cell_length_c   9.48002131
_cell_angle_alpha   90.00000000
_cell_angle_beta   90.00000000
_cell_angle_gamma   90.00000000
_symmetry_Int_Tables_number   1
_chemical_formula_structural   Ca3GeO
_chemical_formula_sum   'Ca12 Ge4 O4'
_cell_volume   427.49108949
_cell_formula_units_Z   4
loop_
 _symmetry_equiv_pos_site_id
 _symmetry_equiv_pos_as_xyz
  1  'x, y, z'
loop_
 _atom_site_type_symbol
 _atom_site_label
 _atom_site_symmetry_multiplicity
 _atom_site_fract_x
 _atom_site_fract_y
 _atom_site_fract_z
 _atom_site_occupancy
  O  O0  1  0.50000000  0.00000000  0.50000000  1
  O  O1  1  0.00000000  0.50000000  0.50000000  1
  O  O2  1  0.00000000  0.50000000  0.00000000  1
  O  O3  1  0.50000000  0.00000000  0.00000000  1
  Ca  Ca4  1  0.24989808  0.75010107  0.47786201  1
  Ca  Ca5  1  0.25010192  0.25010107  0.02213799  1
  Ca  Ca6  1  0.74989808  0.74989893  0.52213799  1
  Ca  Ca7  1  0.25010192  0.25010107  0.47786201  1
  Ca  Ca8  1  0.24989808  0.75010107  0.02213799  1
  Ca  Ca9  1  0.74989808  0.74989893  0.97786201  1
  Ca  Ca10  1  0.95681155  0.49990463  0.25000000  1
  Ca  Ca11  1  0.75010192  0.24989893  0.52213799  1
  Ca  Ca12  1  0.04318845  0.50009537  0.75000000  1
  Ca  Ca13  1  0.45681155  0.00009537  0.75000000  1
  Ca  Ca14  1  0.54318845  0.99990463  0.25000000  1
  Ca  Ca15  1  0.75010192  0.24989893  0.97786201  1
  Ge  Ge16  1  0.99842090  0.00009199  0.75000000  1
  Ge  Ge17  1  0.49842090  0.49990801  0.25000000  1
  Ge  Ge18  1  0.50157910  0.50009199  0.75000000  1
  Ge  Ge19  1  0.00157910  0.99990801  0.25000000  1
