# generated using pymatgen
data_Cs4SnO4
_symmetry_space_group_name_H-M   'P 1'
_cell_length_a   7.49224235
_cell_length_b   11.89173580
_cell_length_c   11.91791022
_cell_angle_alpha   111.13249838
_cell_angle_beta   90.00000000
_cell_angle_gamma   90.00000000
_symmetry_Int_Tables_number   1
_chemical_formula_structural   Cs4SnO4
_chemical_formula_sum   'Cs16 Sn4 O16'
_cell_volume   990.42606270
_cell_formula_units_Z   4
loop_
 _symmetry_equiv_pos_site_id
 _symmetry_equiv_pos_as_xyz
  1  'x, y, z'
loop_
 _atom_site_type_symbol
 _atom_site_label
 _atom_site_symmetry_multiplicity
 _atom_site_fract_x
 _atom_site_fract_y
 _atom_site_fract_z
 _atom_site_occupancy
  O  O0  1  0.76000403  0.02863582  0.91739080  1
  O  O1  1  0.98907132  0.84421535  0.22248975  1
  O  O2  1  0.48907132  0.65578465  0.77751025  1
  O  O3  1  0.01092868  0.15578465  0.77751025  1
  O  O4  1  0.26000403  0.47136418  0.08260920  1
  O  O5  1  0.23999597  0.97136418  0.08260920  1
  O  O6  1  0.73999597  0.52863582  0.91739080  1
  O  O7  1  0.67721789  0.98253879  0.63444452  1
  O  O8  1  0.17721789  0.51746121  0.36555548  1
  O  O9  1  0.32278211  0.01746121  0.36555548  1
  O  O10  1  0.82278211  0.48253879  0.63444452  1
  O  O11  1  0.97561013  0.14298407  0.29797063  1
  O  O12  1  0.47561013  0.35701593  0.70202937  1
  O  O13  1  0.02438987  0.85701593  0.70202937  1
  O  O14  1  0.52438987  0.64298407  0.29797063  1
  O  O15  1  0.51092868  0.34421535  0.22248975  1
  Sn  Sn16  1  0.62910524  0.50586029  0.75724765  1
  Sn  Sn17  1  0.12910524  0.99413971  0.24275235  1
  Sn  Sn18  1  0.87089476  0.00586029  0.75724765  1
  Sn  Sn19  1  0.37089476  0.49413971  0.24275235  1
  Cs  Cs20  1  0.34372870  0.10880350  0.63370808  1
  Cs  Cs21  1  0.65627130  0.89119650  0.36629192  1
  Cs  Cs22  1  0.15627130  0.60880350  0.63370808  1
  Cs  Cs23  1  0.41045224  0.69456031  0.05719691  1
  Cs  Cs24  1  0.91045224  0.80543969  0.94280309  1
  Cs  Cs25  1  0.58954776  0.30543969  0.94280309  1
  Cs  Cs26  1  0.08954776  0.19456031  0.05719691  1
  Cs  Cs27  1  0.38848989  0.90954651  0.84393799  1
  Cs  Cs28  1  0.88848989  0.59045349  0.15606201  1
  Cs  Cs29  1  0.61151011  0.09045349  0.15606201  1
  Cs  Cs30  1  0.11151011  0.40954651  0.84393799  1
  Cs  Cs31  1  0.32421449  0.29577109  0.42661582  1
  Cs  Cs32  1  0.82421449  0.20422891  0.57338418  1
  Cs  Cs33  1  0.67578551  0.70422891  0.57338418  1
  Cs  Cs34  1  0.17578551  0.79577109  0.42661582  1
  Cs  Cs35  1  0.84372870  0.39119650  0.36629192  1
