# generated using pymatgen
data_Cu(PO3)2
_symmetry_space_group_name_H-M   'P 1'
_cell_length_a   7.72405924
_cell_length_b   7.72405924
_cell_length_c   9.60202641
_cell_angle_alpha   92.72390885
_cell_angle_beta   113.41089123
_cell_angle_gamma   116.55124358
_symmetry_Int_Tables_number   1
_chemical_formula_structural   Cu(PO3)2
_chemical_formula_sum   'Cu4 P8 O24'
_cell_volume   452.23471492
_cell_formula_units_Z   4
loop_
 _symmetry_equiv_pos_site_id
 _symmetry_equiv_pos_as_xyz
  1  'x, y, z'
loop_
 _atom_site_type_symbol
 _atom_site_label
 _atom_site_symmetry_multiplicity
 _atom_site_fract_x
 _atom_site_fract_y
 _atom_site_fract_z
 _atom_site_occupancy
  Cu  Cu0  1  0.19682309  0.44682309  0.75000000  1
  Cu  Cu1  1  0.80317691  0.55317691  0.25000000  1
  Cu  Cu2  1  0.00000000  0.00000000  0.50000000  1
  Cu  Cu3  1  0.00000000  0.50000000  0.00000000  1
  P  P4  1  0.71001258  0.25412182  0.47729148  1
  P  P5  1  0.98664766  0.81242351  0.80687024  1
  P  P6  1  0.28998742  0.74587818  0.52270852  1
  P  P7  1  0.01335234  0.18757649  0.19312976  1
  P  P8  1  0.27683034  0.23272110  0.02270852  1
  P  P9  1  0.50555326  0.17977742  0.69312976  1
  P  P10  1  0.49444674  0.82022258  0.30687024  1
  P  P11  1  0.72316966  0.76727890  0.97729148  1
  O  O12  1  0.30141656  0.18428500  0.66714819  1
  O  O13  1  0.89711505  0.23293385  0.59281186  1
  O  O14  1  0.45464311  0.95035339  0.66501070  1
  O  O15  1  0.14012199  0.30430319  0.90718814  1
  O  O16  1  0.51909747  0.34438473  0.08870831  1
  O  O17  1  0.21465731  0.21036760  0.16501070  1
  O  O18  1  0.19926435  0.00436201  0.94715916  1
  O  O19  1  0.54535689  0.04964661  0.33498930  1
  O  O20  1  0.98286319  0.36573164  0.16714819  1
  O  O21  1  0.44279715  0.74789481  0.44715916  1
  O  O22  1  0.24432359  0.56961084  0.58870831  1
  O  O23  1  0.55720285  0.25210519  0.55284084  1
  O  O24  1  0.10288495  0.76706615  0.40718814  1
  O  O25  1  0.48090253  0.65561527  0.91129169  1
  O  O26  1  0.85987801  0.69569681  0.09281186  1
  O  O27  1  0.69858344  0.81571500  0.33285181  1
  O  O28  1  0.30317292  0.70626959  0.14777810  1
  O  O29  1  0.80073565  0.99563799  0.05284084  1
  O  O30  1  0.69682708  0.29373041  0.85222190  1
  O  O31  1  0.75567641  0.43038916  0.41129169  1
  O  O32  1  0.05849148  0.15539481  0.35222190  1
  O  O33  1  0.78534269  0.78963240  0.83498930  1
  O  O34  1  0.94150852  0.84460519  0.64777810  1
  O  O35  1  0.01713681  0.63426836  0.83285181  1
