# generated using pymatgen
data_CdH5Br3N2
_symmetry_space_group_name_H-M   'P 1'
_cell_length_a   3.90295204
_cell_length_b   10.09902121
_cell_length_c   18.61879093
_cell_angle_alpha   90.00000000
_cell_angle_beta   90.00000000
_cell_angle_gamma   90.98606617
_symmetry_Int_Tables_number   1
_chemical_formula_structural   CdH5Br3N2
_chemical_formula_sum   'Cd4 H20 Br12 N8'
_cell_volume   733.76949783
_cell_formula_units_Z   4
loop_
 _symmetry_equiv_pos_site_id
 _symmetry_equiv_pos_as_xyz
  1  'x, y, z'
loop_
 _atom_site_type_symbol
 _atom_site_label
 _atom_site_symmetry_multiplicity
 _atom_site_fract_x
 _atom_site_fract_y
 _atom_site_fract_z
 _atom_site_occupancy
  Cd  Cd0  1  0.72005029  0.35002229  0.07279294  1
  Cd  Cd1  1  0.27994971  0.14997771  0.57279294  1
  Cd  Cd2  1  0.27994971  0.64997771  0.92720706  1
  Cd  Cd3  1  0.72005029  0.85002229  0.42720706  1
  H  H4  1  0.38373199  0.96195797  0.08910299  1
  H  H5  1  0.61626801  0.53804203  0.58910299  1
  H  H6  1  0.61626801  0.03804203  0.91089701  1
  H  H7  1  0.38373199  0.46195797  0.41089701  1
  H  H8  1  0.40973832  0.82385735  0.13754758  1
  H  H9  1  0.59026168  0.67614265  0.63754758  1
  H  H10  1  0.59026168  0.17614265  0.86245242  1
  H  H11  1  0.40973832  0.32385735  0.36245242  1
  H  H12  1  0.18996458  0.92562883  0.23538481  1
  H  H13  1  0.81003542  0.57437117  0.73538481  1
  H  H14  1  0.81003542  0.07437117  0.76461519  1
  H  H15  1  0.18996458  0.42562883  0.26461519  1
  H  H16  1  0.19309706  0.07331456  0.19316322  1
  H  H17  1  0.80690294  0.42668544  0.69316322  1
  H  H18  1  0.80690294  0.92668544  0.80683678  1
  H  H19  1  0.19309706  0.57331456  0.30683678  1
  H  H20  1  0.90733750  0.95206441  0.16816935  1
  H  H21  1  0.09266250  0.54793559  0.66816935  1
  H  H22  1  0.09266250  0.04793559  0.83183065  1
  H  H23  1  0.90733750  0.45206441  0.33183065  1
  Br  Br24  1  0.69918697  0.25390234  0.20975500  1
  Br  Br25  1  0.30081303  0.24609766  0.70975500  1
  Br  Br26  1  0.30081303  0.74609766  0.79024500  1
  Br  Br27  1  0.69918697  0.75390234  0.29024500  1
  Br  Br28  1  0.20337768  0.17934227  0.01890041  1
  Br  Br29  1  0.79662232  0.32065773  0.51890041  1
  Br  Br30  1  0.79662232  0.82065773  0.98109959  1
  Br  Br31  1  0.20337768  0.67934227  0.48109959  1
  Br  Br32  1  0.76505281  0.45738046  0.90958265  1
  Br  Br33  1  0.23494719  0.04261954  0.40958265  1
  Br  Br34  1  0.23494719  0.54261954  0.09041735  1
  Br  Br35  1  0.76505281  0.95738046  0.59041735  1
  N  N36  1  0.43308491  0.92518666  0.13950235  1
  N  N37  1  0.56691509  0.57481334  0.63950235  1
  N  N38  1  0.56691509  0.07481334  0.86049765  1
  N  N39  1  0.43308491  0.42518666  0.36049765  1
  N  N40  1  0.16218703  0.97122318  0.18606293  1
  N  N41  1  0.83781297  0.52877682  0.68606293  1
  N  N42  1  0.83781297  0.02877682  0.81393707  1
  N  N43  1  0.16218703  0.47122318  0.31393707  1
