# generated using pymatgen
data_K3Nd(PO4)2
_symmetry_space_group_name_H-M   'P 1'
_cell_length_a   5.74439768
_cell_length_b   7.57874510
_cell_length_c   9.64281173
_cell_angle_alpha   91.01833657
_cell_angle_beta   90.00000000
_cell_angle_gamma   90.00000000
_symmetry_Int_Tables_number   1
_chemical_formula_structural   K3Nd(PO4)2
_chemical_formula_sum   'K6 Nd2 P4 O16'
_cell_volume   419.73664559
_cell_formula_units_Z   2
loop_
 _symmetry_equiv_pos_site_id
 _symmetry_equiv_pos_as_xyz
  1  'x, y, z'
loop_
 _atom_site_type_symbol
 _atom_site_label
 _atom_site_symmetry_multiplicity
 _atom_site_fract_x
 _atom_site_fract_y
 _atom_site_fract_z
 _atom_site_occupancy
  O  O0  1  0.97154594  0.75402656  0.15575628  1
  O  O1  1  0.47154594  0.24597344  0.84424372  1
  O  O2  1  0.02845406  0.24597344  0.84424372  1
  O  O3  1  0.52845406  0.75402656  0.15575628  1
  O  O4  1  0.97136359  0.15466665  0.34024233  1
  O  O5  1  0.47136359  0.84533335  0.65975767  1
  O  O6  1  0.02863641  0.84533335  0.65975767  1
  O  O7  1  0.52863641  0.15466665  0.34024233  1
  O  O8  1  0.75000000  0.00994146  0.04838843  1
  O  O9  1  0.25000000  0.99005854  0.95161157  1
  O  O10  1  0.75000000  0.71647728  0.92624571  1
  O  O11  1  0.25000000  0.28352272  0.07375429  1
  O  O12  1  0.25000000  0.82187126  0.43146138  1
  O  O13  1  0.75000000  0.17812874  0.56853862  1
  O  O14  1  0.25000000  0.56467646  0.60052869  1
  O  O15  1  0.75000000  0.43532354  0.39947131  1
  P  P16  1  0.75000000  0.23331804  0.41328094  1
  P  P17  1  0.25000000  0.76668196  0.58671906  1
  P  P18  1  0.75000000  0.80773725  0.07308549  1
  P  P19  1  0.25000000  0.19226275  0.92691451  1
  K  K20  1  0.75000000  0.35866855  0.09133639  1
  K  K21  1  0.25000000  0.49497386  0.30949838  1
  K  K22  1  0.75000000  0.79638812  0.41647738  1
  K  K23  1  0.25000000  0.64133145  0.90866361  1
  K  K24  1  0.25000000  0.20361188  0.58352262  1
  K  K25  1  0.75000000  0.50502614  0.69050162  1
  Nd  Nd26  1  0.75000000  0.00496279  0.79048389  1
  Nd  Nd27  1  0.25000000  0.99503721  0.20951611  1
