# generated using pymatgen
data_Rb3TaS4
_symmetry_space_group_name_H-M   'P 1'
_cell_length_a   9.71423604
_cell_length_b   9.87259718
_cell_length_c   11.30675815
_cell_angle_alpha   90.00000000
_cell_angle_beta   90.00000000
_cell_angle_gamma   90.00000000
_symmetry_Int_Tables_number   1
_chemical_formula_structural   Rb3TaS4
_chemical_formula_sum   'Rb12 Ta4 S16'
_cell_volume   1084.37169309
_cell_formula_units_Z   4
loop_
 _symmetry_equiv_pos_site_id
 _symmetry_equiv_pos_as_xyz
  1  'x, y, z'
loop_
 _atom_site_type_symbol
 _atom_site_label
 _atom_site_symmetry_multiplicity
 _atom_site_fract_x
 _atom_site_fract_y
 _atom_site_fract_z
 _atom_site_occupancy
  S  S0  1  0.30266553  0.24449406  0.25000000  1
  S  S1  1  0.80266553  0.25550594  0.25000000  1
  S  S2  1  0.19733447  0.74449406  0.75000000  1
  S  S3  1  0.69733447  0.75550594  0.75000000  1
  S  S4  1  0.99808109  0.58078305  0.25000000  1
  S  S5  1  0.49808109  0.91921695  0.25000000  1
  S  S6  1  0.50191891  0.08078305  0.75000000  1
  S  S7  1  0.00191891  0.41921695  0.75000000  1
  S  S8  1  0.83312359  0.05054364  0.91713204  1
  S  S9  1  0.33312359  0.44945636  0.58286796  1
  S  S10  1  0.66687641  0.55054364  0.08286796  1
  S  S11  1  0.16687641  0.94945636  0.41713204  1
  S  S12  1  0.16687641  0.94945636  0.08286796  1
  S  S13  1  0.83312359  0.05054364  0.58286796  1
  S  S14  1  0.33312359  0.44945636  0.91713204  1
  S  S15  1  0.66687641  0.55054364  0.41713204  1
  Rb  Rb16  1  0.05439407  0.28863899  0.45621264  1
  Rb  Rb17  1  0.86038556  0.92289288  0.25000000  1
  Rb  Rb18  1  0.13961444  0.07710712  0.75000000  1
  Rb  Rb19  1  0.63961444  0.42289288  0.75000000  1
  Rb  Rb20  1  0.94560593  0.71136101  0.54378736  1
  Rb  Rb21  1  0.44560593  0.78863899  0.95621264  1
  Rb  Rb22  1  0.55439407  0.21136101  0.45621264  1
  Rb  Rb23  1  0.05439407  0.28863899  0.04378736  1
  Rb  Rb24  1  0.94560593  0.71136101  0.95621264  1
  Rb  Rb25  1  0.55439407  0.21136101  0.04378736  1
  Rb  Rb26  1  0.44560593  0.78863899  0.54378736  1
  Rb  Rb27  1  0.36038556  0.57710712  0.25000000  1
  Ta  Ta28  1  0.28228582  0.01327283  0.25000000  1
  Ta  Ta29  1  0.78228582  0.48672717  0.25000000  1
  Ta  Ta30  1  0.21771418  0.51327283  0.75000000  1
  Ta  Ta31  1  0.71771418  0.98672717  0.75000000  1
