# generated using pymatgen
data_Tl4GeS4
_symmetry_space_group_name_H-M   'P 1'
_cell_length_a   7.83423189
_cell_length_b   8.77234383
_cell_length_c   8.77234383
_cell_angle_alpha   83.52405401
_cell_angle_beta   72.76142636
_cell_angle_gamma   72.76142634
_symmetry_Int_Tables_number   1
_chemical_formula_structural   Tl4GeS4
_chemical_formula_sum   'Tl8 Ge2 S8'
_cell_volume   549.72272199
_cell_formula_units_Z   2
loop_
 _symmetry_equiv_pos_site_id
 _symmetry_equiv_pos_as_xyz
  1  'x, y, z'
loop_
 _atom_site_type_symbol
 _atom_site_label
 _atom_site_symmetry_multiplicity
 _atom_site_fract_x
 _atom_site_fract_y
 _atom_site_fract_z
 _atom_site_occupancy
  S  S0  1  0.20335046  0.79583534  0.08874078  1
  S  S1  1  0.70335046  0.08874078  0.79583534  1
  S  S2  1  0.22401516  0.38055601  0.23550495  1
  S  S3  1  0.72401516  0.23550495  0.38055601  1
  S  S4  1  0.34737153  0.43920600  0.71531988  1
  S  S5  1  0.84737153  0.71531988  0.43920600  1
  S  S6  1  0.35807363  0.04857362  0.60884094  1
  S  S7  1  0.85807363  0.60884094  0.04857362  1
  Ge  Ge8  1  0.53658670  0.20114660  0.62419498  1
  Ge  Ge9  1  0.03658670  0.62419498  0.20114660  1
  Tl  Tl10  1  0.08046099  0.79497143  0.80022416  1
  Tl  Tl11  1  0.58046099  0.80022416  0.79497143  1
  Tl  Tl12  1  0.05525101  0.96344219  0.41360555  1
  Tl  Tl13  1  0.55525101  0.41360555  0.96344219  1
  Tl  Tl14  1  0.08937739  0.26744553  0.98979868  1
  Tl  Tl15  1  0.58937739  0.98979868  0.26744553  1
  Tl  Tl16  1  0.01881313  0.36433594  0.57985743  1
  Tl  Tl17  1  0.51881313  0.57985743  0.36433594  1
