# generated using pymatgen
data_TiAs2O7
_symmetry_space_group_name_H-M   'P 1'
_cell_length_a   5.23651163
_cell_length_b   8.44762836
_cell_length_c   13.19610188
_cell_angle_alpha   90.00000000
_cell_angle_beta   90.00000000
_cell_angle_gamma   91.22494320
_symmetry_Int_Tables_number   1
_chemical_formula_structural   TiAs2O7
_chemical_formula_sum   'Ti4 As8 O28'
_cell_volume   583.61073475
_cell_formula_units_Z   4
loop_
 _symmetry_equiv_pos_site_id
 _symmetry_equiv_pos_as_xyz
  1  'x, y, z'
loop_
 _atom_site_type_symbol
 _atom_site_label
 _atom_site_symmetry_multiplicity
 _atom_site_fract_x
 _atom_site_fract_y
 _atom_site_fract_z
 _atom_site_occupancy
  O  O0  1  0.31289020  0.12939862  0.56388243  1
  O  O1  1  0.18710980  0.37060138  0.06388243  1
  O  O2  1  0.68710980  0.87060138  0.43611757  1
  O  O3  1  0.81289020  0.62939862  0.93611757  1
  O  O4  1  0.59694194  0.23919337  0.96574269  1
  O  O5  1  0.90305806  0.26080663  0.46574269  1
  O  O6  1  0.40305806  0.76080663  0.03425731  1
  O  O7  1  0.09694194  0.73919337  0.53425731  1
  O  O8  1  0.97828737  0.07601647  0.72761913  1
  O  O9  1  0.52171263  0.42398353  0.22761913  1
  O  O10  1  0.02171263  0.92398353  0.27238087  1
  O  O11  1  0.47828737  0.57601647  0.77238087  1
  O  O12  1  0.99525585  0.67425696  0.73997619  1
  O  O13  1  0.50474415  0.82574304  0.23997619  1
  O  O14  1  0.00474415  0.32574304  0.26002381  1
  O  O15  1  0.49525585  0.17425696  0.76002381  1
  O  O16  1  0.39303558  0.87240929  0.68035185  1
  O  O17  1  0.10696442  0.62759071  0.18035185  1
  O  O18  1  0.60696442  0.12759071  0.31964815  1
  O  O19  1  0.89303558  0.37240929  0.81964815  1
  O  O20  1  0.16489317  0.43842504  0.61541326  1
  O  O21  1  0.33510683  0.06157496  0.11541326  1
  O  O22  1  0.83510683  0.56157496  0.38458674  1
  O  O23  1  0.66489317  0.93842504  0.88458674  1
  O  O24  1  0.59430306  0.62539692  0.57150493  1
  O  O25  1  0.90569694  0.87460308  0.07150493  1
  O  O26  1  0.40569694  0.37460308  0.42849507  1
  O  O27  1  0.09430306  0.12539692  0.92849507  1
  Ti  Ti28  1  0.28984574  0.65532401  0.65190520  1
  Ti  Ti29  1  0.21015426  0.84467599  0.15190520  1
  Ti  Ti30  1  0.71015426  0.34467599  0.34809480  1
  Ti  Ti31  1  0.78984574  0.15532401  0.84809480  1
  As  As32  1  0.28752713  0.06010471  0.69130083  1
  As  As33  1  0.21247287  0.43989529  0.19130083  1
  As  As34  1  0.71247287  0.93989529  0.30869917  1
  As  As35  1  0.78752713  0.56010471  0.80869917  1
  As  As36  1  0.19178017  0.30997916  0.51679441  1
  As  As37  1  0.30821983  0.19002084  0.01679441  1
  As  As38  1  0.80821983  0.69002084  0.48320559  1
  As  As39  1  0.69178017  0.80997916  0.98320559  1
