# generated using pymatgen
data_K2Li14Zr3O14
_symmetry_space_group_name_H-M   'P 1'
_cell_length_a   7.35848185
_cell_length_b   7.90361120
_cell_length_c   8.31551800
_cell_angle_alpha   118.37449853
_cell_angle_beta   116.26061279
_cell_angle_gamma   89.99999995
_symmetry_Int_Tables_number   1
_chemical_formula_structural   K2Li14Zr3O14
_chemical_formula_sum   'K2 Li14 Zr3 O14'
_cell_volume   367.80075347
_cell_formula_units_Z   1
loop_
 _symmetry_equiv_pos_site_id
 _symmetry_equiv_pos_as_xyz
  1  'x, y, z'
loop_
 _atom_site_type_symbol
 _atom_site_label
 _atom_site_symmetry_multiplicity
 _atom_site_fract_x
 _atom_site_fract_y
 _atom_site_fract_z
 _atom_site_occupancy
  Li  Li0  1  0.13622319  0.70576613  0.72904660  1
  Li  Li1  1  0.86377681  0.97671953  0.27095340  1
  Li  Li2  1  0.59282341  0.02328047  0.72904660  1
  Li  Li3  1  0.40717659  0.29423387  0.27095340  1
  Li  Li4  1  0.13622319  0.02328047  0.72904660  1
  Li  Li5  1  0.50000000  0.84555179  0.00000000  1
  Li  Li6  1  0.50000000  0.15444821  0.00000000  1
  Li  Li7  1  0.77092378  0.41345373  0.54184757  1
  Li  Li8  1  0.22907622  0.58654627  0.45815243  1
  Li  Li9  1  0.22907622  0.87160616  0.45815243  1
  Li  Li10  1  0.77092378  0.12839384  0.54184757  1
  Li  Li11  1  0.59282341  0.70576613  0.72904660  1
  Li  Li12  1  0.86377681  0.29423387  0.27095340  1
  Li  Li13  1  0.40717659  0.97671953  0.27095340  1
  O  O14  1  0.87243026  0.05172116  0.74486052  1
  O  O15  1  0.62933708  0.42065912  0.25867415  1
  O  O16  1  0.62933708  0.83801504  0.25867415  1
  O  O17  1  0.37066292  0.57934088  0.74132585  1
  O  O18  1  0.37066292  0.16198496  0.74132585  1
  O  O19  1  0.03041575  0.74466458  0.48932917  1
  O  O20  1  0.54108658  0.25533542  0.51067083  1
  O  O21  1  0.96958425  0.25533542  0.51067083  1
  O  O22  1  0.45891342  0.74466458  0.48932917  1
  O  O23  1  0.71225686  0.00000000  0.00000000  1
  O  O24  1  0.28774314  0.00000000  0.00000000  1
  O  O25  1  0.87243026  0.69313936  0.74486052  1
  O  O26  1  0.12756974  0.30686064  0.25513948  1
  O  O27  1  0.12756974  0.94827884  0.25513948  1
  K  K28  1  0.75922132  0.50000000  0.00000000  1
  K  K29  1  0.24077868  0.50000000  0.00000000  1
  Zr  Zr30  1  0.00000000  0.00000000  0.00000000  1
  Zr  Zr31  1  0.27214800  0.27214800  0.54429601  1
  Zr  Zr32  1  0.72785200  0.72785200  0.45570399  1
