# generated using pymatgen
data_RbBe3ZnF9
_symmetry_space_group_name_H-M   'P 1'
_cell_length_a   6.78528334
_cell_length_b   6.78528334
_cell_length_c   9.81390134
_cell_angle_alpha   90.00000000
_cell_angle_beta   90.00000000
_cell_angle_gamma   120.00000002
_symmetry_Int_Tables_number   1
_chemical_formula_structural   RbBe3ZnF9
_chemical_formula_sum   'Rb2 Be6 Zn2 F18'
_cell_volume   391.29860025
_cell_formula_units_Z   2
loop_
 _symmetry_equiv_pos_site_id
 _symmetry_equiv_pos_as_xyz
  1  'x, y, z'
loop_
 _atom_site_type_symbol
 _atom_site_label
 _atom_site_symmetry_multiplicity
 _atom_site_fract_x
 _atom_site_fract_y
 _atom_site_fract_z
 _atom_site_occupancy
  Be  Be0  1  0.20940509  0.93339961  0.25000000  1
  Be  Be1  1  0.20940509  0.27600548  0.75000000  1
  Be  Be2  1  0.72399452  0.93339961  0.75000000  1
  Be  Be3  1  0.06660039  0.79059491  0.75000000  1
  Be  Be4  1  0.06660039  0.27600548  0.25000000  1
  Be  Be5  1  0.72399452  0.79059491  0.25000000  1
  F  F6  1  0.08746148  0.67469945  0.61958073  1
  F  F7  1  0.58723797  0.91253852  0.61958073  1
  F  F8  1  0.32530055  0.41276203  0.61958073  1
  F  F9  1  0.32530055  0.91253852  0.38041927  1
  F  F10  1  0.24005950  0.18367015  0.25000000  1
  F  F11  1  0.94361065  0.75994050  0.25000000  1
  F  F12  1  0.81632985  0.05638935  0.25000000  1
  F  F13  1  0.81632985  0.75994050  0.75000000  1
  F  F14  1  0.94361065  0.18367015  0.75000000  1
  F  F15  1  0.24005950  0.05638935  0.75000000  1
  F  F16  1  0.32530055  0.91253852  0.11958073  1
  F  F17  1  0.58723797  0.67469945  0.38041927  1
  F  F18  1  0.08746148  0.41276203  0.38041927  1
  F  F19  1  0.08746148  0.41276203  0.11958073  1
  F  F20  1  0.58723797  0.67469945  0.11958073  1
  F  F21  1  0.08746148  0.67469945  0.88041927  1
  F  F22  1  0.58723797  0.91253852  0.88041927  1
  F  F23  1  0.32530055  0.41276203  0.88041927  1
  Zn  Zn24  1  0.33333333  0.66666667  0.50000000  1
  Zn  Zn25  1  0.33333333  0.66666667  0.00000000  1
  Rb  Rb26  1  0.66666667  0.33333333  0.50000000  1
  Rb  Rb27  1  0.66666667  0.33333333  0.00000000  1
