# generated using pymatgen
data_Sm2Si2O7
_symmetry_space_group_name_H-M   'P 1'
_cell_length_a   5.47479362
_cell_length_b   8.61160269
_cell_length_c   13.08010735
_cell_angle_alpha   90.46475670
_cell_angle_beta   92.39049999
_cell_angle_gamma   92.51043348
_symmetry_Int_Tables_number   1
_chemical_formula_structural   Sm2Si2O7
_chemical_formula_sum   'Sm8 Si8 O28'
_cell_volume   615.52600173
_cell_formula_units_Z   4
loop_
 _symmetry_equiv_pos_site_id
 _symmetry_equiv_pos_as_xyz
  1  'x, y, z'
loop_
 _atom_site_type_symbol
 _atom_site_label
 _atom_site_symmetry_multiplicity
 _atom_site_fract_x
 _atom_site_fract_y
 _atom_site_fract_z
 _atom_site_occupancy
  O  O0  1  0.70312796  0.57758363  0.92649652  1
  O  O1  1  0.29687204  0.42241637  0.07350348  1
  O  O2  1  0.95338740  0.85317843  0.95246088  1
  O  O3  1  0.04661260  0.14682157  0.04753912  1
  O  O4  1  0.55021742  0.48391004  0.73780845  1
  O  O5  1  0.44978258  0.51608996  0.26219155  1
  O  O6  1  0.44009995  0.65085861  0.47556389  1
  O  O7  1  0.55990005  0.34914139  0.52443611  1
  O  O8  1  0.24489061  0.92757470  0.43178212  1
  O  O9  1  0.75510939  0.07242530  0.56821788  1
  O  O10  1  0.09821077  0.77222832  0.59568736  1
  O  O11  1  0.90178923  0.22777168  0.40431264  1
  O  O12  1  0.89472961  0.32563333  0.84289560  1
  O  O13  1  0.10527039  0.67436667  0.15710440  1
  O  O14  1  0.62159867  0.75307118  0.09175492  1
  O  O15  1  0.37840133  0.24692882  0.90824508  1
  O  O16  1  0.01858242  0.35393770  0.58277112  1
  O  O17  1  0.98141758  0.64606230  0.41722888  1
  O  O18  1  0.52035368  0.14088123  0.08184453  1
  O  O19  1  0.47964632  0.85911877  0.91815547  1
  O  O20  1  0.48497979  0.08450377  0.73880923  1
  O  O21  1  0.51502021  0.91549623  0.26119077  1
  O  O22  1  0.60914821  0.81679649  0.67774363  1
  O  O23  1  0.39085179  0.18320351  0.32225637  1
  O  O24  1  0.95635954  0.02825046  0.75534658  1
  O  O25  1  0.04364046  0.97174954  0.24465342  1
  O  O26  1  0.99390670  0.40892790  0.23635397  1
  O  O27  1  0.00609330  0.59107210  0.76364603  1
  Si  Si28  1  0.78528457  0.49564965  0.82077335  1
  Si  Si29  1  0.21471543  0.50435035  0.17922665  1
  Si  Si30  1  0.19878403  0.75469925  0.48099868  1
  Si  Si31  1  0.80121597  0.24530075  0.51900132  1
  Si  Si32  1  0.69804826  0.75338422  0.97293024  1
  Si  Si33  1  0.30195174  0.24661578  0.02706976  1
  Si  Si34  1  0.29508189  0.00092571  0.31950723  1
  Si  Si35  1  0.70491811  0.99907429  0.68049277  1
  Sm  Sm36  1  0.25706231  0.89534911  0.08553843  1
  Sm  Sm37  1  0.74293769  0.10465089  0.91446157  1
  Sm  Sm38  1  0.76456872  0.70197616  0.25936188  1
  Sm  Sm39  1  0.23543128  0.29802384  0.74063812  1
  Sm  Sm40  1  0.74985991  0.59740204  0.59230942  1
  Sm  Sm41  1  0.25014009  0.40259796  0.40769058  1
  Sm  Sm42  1  0.22884715  0.82573324  0.76397550  1
  Sm  Sm43  1  0.77115285  0.17426676  0.23602450  1
