# generated using pymatgen
data_Nb5GaSn2
_symmetry_space_group_name_H-M   'P 1'
_cell_length_a   5.20320780
_cell_length_b   8.01614139
_cell_length_c   8.01614138
_cell_angle_alpha   83.95382698
_cell_angle_beta   71.06194883
_cell_angle_gamma   71.06194873
_symmetry_Int_Tables_number   1
_chemical_formula_structural   Nb5GaSn2
_chemical_formula_sum   'Nb10 Ga2 Sn4'
_cell_volume   299.13335247
_cell_formula_units_Z   2
loop_
 _symmetry_equiv_pos_site_id
 _symmetry_equiv_pos_as_xyz
  1  'x, y, z'
loop_
 _atom_site_type_symbol
 _atom_site_label
 _atom_site_symmetry_multiplicity
 _atom_site_fract_x
 _atom_site_fract_y
 _atom_site_fract_z
 _atom_site_occupancy
  Ga  Ga0  1  0.25000000  0.00000000  0.00000000  1
  Ga  Ga1  1  0.75000000  0.00000000  0.00000000  1
  Nb  Nb2  1  0.25000000  0.50000000  0.50000000  1
  Nb  Nb3  1  0.75000000  0.50000000  0.50000000  1
  Nb  Nb4  1  0.07082051  0.14675623  0.71160276  1
  Nb  Nb5  1  0.78242327  0.28839724  0.14675623  1
  Nb  Nb6  1  0.21757673  0.71160276  0.85324377  1
  Nb  Nb7  1  0.92917949  0.85324377  0.28839724  1
  Nb  Nb8  1  0.28242327  0.14675623  0.28839724  1
  Nb  Nb9  1  0.71757673  0.85324377  0.71160276  1
  Nb  Nb10  1  0.42917949  0.28839724  0.85324377  1
  Nb  Nb11  1  0.57082051  0.71160276  0.14675623  1
  Sn  Sn12  1  0.16874955  0.50000000  0.16250089  1
  Sn  Sn13  1  0.33125045  0.83749911  0.50000000  1
  Sn  Sn14  1  0.66874955  0.16250089  0.50000000  1
  Sn  Sn15  1  0.83125045  0.50000000  0.83749911  1
