# generated using pymatgen
data_Pr3CuSnSe7
_symmetry_space_group_name_H-M   'P 1'
_cell_length_a   10.70830192
_cell_length_b   10.70830192
_cell_length_c   6.36492702
_cell_angle_alpha   90.00000000
_cell_angle_beta   90.00000000
_cell_angle_gamma   120.00000002
_symmetry_Int_Tables_number   1
_chemical_formula_structural   Pr3CuSnSe7
_chemical_formula_sum   'Pr6 Cu2 Sn2 Se14'
_cell_volume   632.07014155
_cell_formula_units_Z   2
loop_
 _symmetry_equiv_pos_site_id
 _symmetry_equiv_pos_as_xyz
  1  'x, y, z'
loop_
 _atom_site_type_symbol
 _atom_site_label
 _atom_site_symmetry_multiplicity
 _atom_site_fract_x
 _atom_site_fract_y
 _atom_site_fract_z
 _atom_site_occupancy
  Cu  Cu0  1  0.00000000  0.00000000  0.50874612  1
  Cu  Cu1  1  0.00000000  0.00000000  0.00874612  1
  Se  Se2  1  0.48695212  0.57229611  0.21297412  1
  Se  Se3  1  0.91465601  0.48695212  0.71297412  1
  Se  Se4  1  0.57229611  0.08534399  0.71297412  1
  Se  Se5  1  0.42770389  0.91465601  0.21297412  1
  Se  Se6  1  0.33333333  0.66666667  0.78291043  1
  Se  Se7  1  0.66666667  0.33333333  0.28291043  1
  Se  Se8  1  0.08534399  0.51304788  0.21297412  1
  Se  Se9  1  0.51304788  0.42770389  0.71297412  1
  Se  Se10  1  0.25622811  0.09982474  0.99600805  1
  Se  Se11  1  0.15640337  0.25622811  0.49600805  1
  Se  Se12  1  0.09982474  0.84359663  0.49600805  1
  Se  Se13  1  0.90017526  0.15640337  0.99600805  1
  Se  Se14  1  0.84359663  0.74377189  0.99600805  1
  Se  Se15  1  0.74377189  0.90017526  0.49600805  1
  Sn  Sn16  1  0.66666667  0.33333333  0.88643891  1
  Sn  Sn17  1  0.33333333  0.66666667  0.38643891  1
  Pr  Pr18  1  0.64483351  0.86437212  0.96398601  1
  Pr  Pr19  1  0.78046138  0.64483351  0.46398601  1
  Pr  Pr20  1  0.86437212  0.21953862  0.46398601  1
  Pr  Pr21  1  0.13562788  0.78046138  0.96398601  1
  Pr  Pr22  1  0.21953862  0.35516649  0.96398601  1
  Pr  Pr23  1  0.35516649  0.13562788  0.46398601  1
