# generated using pymatgen
data_Ba2ZnGe2S6O
_symmetry_space_group_name_H-M   'P 1'
_cell_length_a   6.52762152
_cell_length_b   9.74641102
_cell_length_c   9.74641102
_cell_angle_alpha   90.00000000
_cell_angle_beta   90.00000000
_cell_angle_gamma   90.00000000
_symmetry_Int_Tables_number   1
_chemical_formula_structural   Ba2ZnGe2S6O
_chemical_formula_sum   'Ba4 Zn2 Ge4 S12 O2'
_cell_volume   620.07526852
_cell_formula_units_Z   2
loop_
 _symmetry_equiv_pos_site_id
 _symmetry_equiv_pos_as_xyz
  1  'x, y, z'
loop_
 _atom_site_type_symbol
 _atom_site_label
 _atom_site_symmetry_multiplicity
 _atom_site_fract_x
 _atom_site_fract_y
 _atom_site_fract_z
 _atom_site_occupancy
  O  O0  1  0.82349896  0.50000000  0.00000000  1
  O  O1  1  0.17650104  0.00000000  0.50000000  1
  S  S2  1  0.22473095  0.93776253  0.81978778  1
  S  S3  1  0.22473095  0.06223747  0.18021222  1
  S  S4  1  0.77526905  0.18021222  0.93776253  1
  S  S5  1  0.77526905  0.81978778  0.06223747  1
  S  S6  1  0.22473095  0.68021222  0.56223747  1
  S  S7  1  0.77526905  0.56223747  0.31978778  1
  S  S8  1  0.77526905  0.43776253  0.68021222  1
  S  S9  1  0.22473095  0.31978778  0.43776253  1
  S  S10  1  0.26649820  0.36639374  0.86639374  1
  S  S11  1  0.73350180  0.86639374  0.63360626  1
  S  S12  1  0.73350180  0.13360626  0.36639374  1
  S  S13  1  0.26649820  0.63360626  0.13360626  1
  Zn  Zn14  1  0.00000000  0.00000000  0.00000000  1
  Zn  Zn15  1  0.00000000  0.50000000  0.50000000  1
  Ge  Ge16  1  0.93452144  0.62493003  0.12493003  1
  Ge  Ge17  1  0.93452144  0.37506997  0.87506997  1
  Ge  Ge18  1  0.06547856  0.12493003  0.37506997  1
  Ge  Ge19  1  0.06547856  0.87506997  0.62493003  1
  Ba  Ba20  1  0.50138902  0.83926517  0.33926517  1
  Ba  Ba21  1  0.49861098  0.33926517  0.16073483  1
  Ba  Ba22  1  0.49861098  0.66073483  0.83926517  1
  Ba  Ba23  1  0.50138902  0.16073483  0.66073483  1
