# generated using pymatgen
data_Nb2(PO4)3
_symmetry_space_group_name_H-M   'P 1'
_cell_length_a   9.11067961
_cell_length_b   9.11067961
_cell_length_c   9.11067962
_cell_angle_alpha   58.00913016
_cell_angle_beta   58.00913018
_cell_angle_gamma   58.00913016
_symmetry_Int_Tables_number   1
_chemical_formula_structural   Nb2(PO4)3
_chemical_formula_sum   'Nb4 P6 O24'
_cell_volume   510.31426537
_cell_formula_units_Z   2
loop_
 _symmetry_equiv_pos_site_id
 _symmetry_equiv_pos_as_xyz
  1  'x, y, z'
loop_
 _atom_site_type_symbol
 _atom_site_label
 _atom_site_symmetry_multiplicity
 _atom_site_fract_x
 _atom_site_fract_y
 _atom_site_fract_z
 _atom_site_occupancy
  O  O0  1  0.79481446  0.42122177  0.56163903  1
  O  O1  1  0.42122177  0.56163903  0.79481446  1
  O  O2  1  0.56163903  0.79481446  0.42122177  1
  O  O3  1  0.93836097  0.07877823  0.70518554  1
  O  O4  1  0.07877823  0.70518554  0.93836097  1
  O  O5  1  0.70518554  0.93836097  0.07877823  1
  O  O6  1  0.20518554  0.57877823  0.43836097  1
  O  O7  1  0.57877823  0.43836097  0.20518554  1
  O  O8  1  0.43836097  0.20518554  0.57877823  1
  O  O9  1  0.06163903  0.92122177  0.29481446  1
  O  O10  1  0.36270430  0.99580733  0.22660188  1
  O  O11  1  0.22660188  0.36270430  0.99580733  1
  O  O12  1  0.99580733  0.22660188  0.36270430  1
  O  O13  1  0.50419267  0.13729570  0.27339812  1
  O  O14  1  0.27339812  0.50419267  0.13729570  1
  O  O15  1  0.13729570  0.27339812  0.50419267  1
  O  O16  1  0.63729570  0.00419267  0.77339812  1
  O  O17  1  0.77339812  0.63729570  0.00419267  1
  O  O18  1  0.00419267  0.77339812  0.63729570  1
  O  O19  1  0.49580733  0.86270430  0.72660188  1
  O  O20  1  0.72660188  0.49580733  0.86270430  1
  O  O21  1  0.86270430  0.72660188  0.49580733  1
  O  O22  1  0.29481446  0.06163903  0.92122177  1
  O  O23  1  0.92122177  0.29481446  0.06163903  1
  P  P24  1  0.03213118  0.75000000  0.46786882  1
  P  P25  1  0.75000000  0.46786882  0.03213118  1
  P  P26  1  0.46786882  0.03213118  0.75000000  1
  P  P27  1  0.96786882  0.25000000  0.53213118  1
  P  P28  1  0.25000000  0.53213118  0.96786882  1
  P  P29  1  0.53213118  0.96786882  0.25000000  1
  Nb  Nb30  1  0.64204728  0.64204728  0.64204728  1
  Nb  Nb31  1  0.85795272  0.85795272  0.85795272  1
  Nb  Nb32  1  0.35795272  0.35795272  0.35795272  1
  Nb  Nb33  1  0.14204728  0.14204728  0.14204728  1
