# generated using pymatgen
data_Ba(Ni2B)6
_symmetry_space_group_name_H-M   'P 1'
_cell_length_a   6.11471679
_cell_length_b   6.11471679
_cell_length_c   6.11471679
_cell_angle_alpha   104.60375977
_cell_angle_beta   104.60375984
_cell_angle_gamma   104.60375974
_symmetry_Int_Tables_number   1
_chemical_formula_structural   Ba(Ni2B)6
_chemical_formula_sum   'Ba1 Ni12 B6'
_cell_volume   201.55980503
_cell_formula_units_Z   1
loop_
 _symmetry_equiv_pos_site_id
 _symmetry_equiv_pos_as_xyz
  1  'x, y, z'
loop_
 _atom_site_type_symbol
 _atom_site_label
 _atom_site_symmetry_multiplicity
 _atom_site_fract_x
 _atom_site_fract_y
 _atom_site_fract_z
 _atom_site_occupancy
  B  B0  1  0.76829124  0.76829124  0.35037029  1
  B  B1  1  0.64962971  0.23170876  0.23170876  1
  B  B2  1  0.23170876  0.23170876  0.64962971  1
  B  B3  1  0.23170876  0.64962971  0.23170876  1
  B  B4  1  0.76829124  0.35037029  0.76829124  1
  B  B5  1  0.35037029  0.76829124  0.76829124  1
  Ni  Ni6  1  0.50000000  0.13233340  0.86766660  1
  Ni  Ni7  1  0.46514759  0.18771452  0.46514759  1
  Ni  Ni8  1  0.86766660  0.50000000  0.13233340  1
  Ni  Ni9  1  0.18771452  0.46514759  0.46514759  1
  Ni  Ni10  1  0.81228548  0.53485241  0.53485241  1
  Ni  Ni11  1  0.53485241  0.81228548  0.53485241  1
  Ni  Ni12  1  0.53485241  0.53485241  0.81228548  1
  Ni  Ni13  1  0.13233340  0.50000000  0.86766660  1
  Ni  Ni14  1  0.50000000  0.86766660  0.13233340  1
  Ni  Ni15  1  0.86766660  0.13233340  0.50000000  1
  Ni  Ni16  1  0.46514759  0.46514759  0.18771452  1
  Ni  Ni17  1  0.13233340  0.86766660  0.50000000  1
  Ba  Ba18  1  0.00000000  0.00000000  0.00000000  1
