# generated using pymatgen
data_RbNa3Li12(SiO4)4
_symmetry_space_group_name_H-M   'P 1'
_cell_length_a   6.37503089
_cell_length_b   8.42532355
_cell_length_c   8.42532355
_cell_angle_alpha   81.77097915
_cell_angle_beta   67.76999599
_cell_angle_gamma   67.76999607
_symmetry_Int_Tables_number   1
_chemical_formula_structural   RbNa3Li12(SiO4)4
_chemical_formula_sum   'Rb1 Na3 Li12 Si4 O16'
_cell_volume   387.76649515
_cell_formula_units_Z   1
loop_
 _symmetry_equiv_pos_site_id
 _symmetry_equiv_pos_as_xyz
  1  'x, y, z'
loop_
 _atom_site_type_symbol
 _atom_site_label
 _atom_site_symmetry_multiplicity
 _atom_site_fract_x
 _atom_site_fract_y
 _atom_site_fract_z
 _atom_site_occupancy
  Li  Li0  1  0.92757065  0.35830372  0.78655498  1
  Li  Li1  1  0.28587437  0.78655498  0.64169628  1
  Li  Li2  1  0.07242935  0.64169628  0.21344502  1
  Li  Li3  1  0.71412563  0.21344502  0.35830372  1
  Li  Li4  1  0.49104208  0.65857659  0.87354291  1
  Li  Li5  1  0.36458499  0.12645709  0.65857659  1
  Li  Li6  1  0.50895792  0.34142341  0.12645709  1
  Li  Li7  1  0.02316159  0.34142341  0.12645709  1
  Li  Li8  1  0.97683841  0.65857659  0.87354291  1
  Li  Li9  1  0.85038133  0.12645709  0.65857659  1
  Li  Li10  1  0.63541501  0.87354291  0.34142341  1
  Li  Li11  1  0.14961867  0.87354291  0.34142341  1
  O  O12  1  0.08749709  0.11346599  0.28000867  1
  O  O13  1  0.20096308  0.28000867  0.88653401  1
  O  O14  1  0.48097176  0.88653401  0.71999133  1
  O  O15  1  0.36750576  0.71999133  0.11346599  1
  O  O16  1  0.79903692  0.71999133  0.11346599  1
  O  O17  1  0.91250291  0.88653401  0.71999133  1
  O  O18  1  0.63249424  0.28000867  0.88653401  1
  O  O19  1  0.51902824  0.11346599  0.28000867  1
  O  O20  1  0.43585633  0.72459986  0.40368747  1
  O  O21  1  0.83954381  0.59631253  0.72459986  1
  O  O22  1  0.16045619  0.40368747  0.27540014  1
  O  O23  1  0.56414367  0.27540014  0.59631253  1
  O  O24  1  0.89150298  0.78286492  0.43412912  1
  O  O25  1  0.32563210  0.56587088  0.78286492  1
  O  O26  1  0.67436790  0.43412912  0.21713508  1
  O  O27  1  0.10849702  0.21713508  0.56587088  1
  Na  Na28  1  0.25000000  0.50000000  0.50000000  1
  Na  Na29  1  0.75000000  0.50000000  0.50000000  1
  Na  Na30  1  0.50000000  0.00000000  0.00000000  1
  Si  Si31  1  0.78023654  0.79447972  0.64504720  1
  Si  Si32  1  0.57471626  0.64504720  0.20552028  1
  Si  Si33  1  0.42528374  0.35495280  0.79447972  1
  Si  Si34  1  0.21976346  0.20552028  0.35495280  1
  Rb  Rb35  1  0.00000000  0.00000000  0.00000000  1
