# generated using pymatgen
data_Mn8Si6ClO24
_symmetry_space_group_name_H-M   'P 1'
_cell_length_a   7.94921068
_cell_length_b   13.00799986
_cell_length_c   13.08687901
_cell_angle_alpha   119.80081448
_cell_angle_beta   103.73269982
_cell_angle_gamma   90.00000000
_symmetry_Int_Tables_number   1
_chemical_formula_structural   Mn8Si6ClO24
_chemical_formula_sum   'Mn16 Si12 Cl2 O48'
_cell_volume   1129.47792049
_cell_formula_units_Z   2
loop_
 _symmetry_equiv_pos_site_id
 _symmetry_equiv_pos_as_xyz
  1  'x, y, z'
loop_
 _atom_site_type_symbol
 _atom_site_label
 _atom_site_symmetry_multiplicity
 _atom_site_fract_x
 _atom_site_fract_y
 _atom_site_fract_z
 _atom_site_occupancy
  Mn  Mn0  1  1.00000000  0.88358721  1.00000000  1
  Mn  Mn1  1  0.00000000  0.11641279  0.00000000  1
  Mn  Mn2  1  1.00000000  0.65550391  0.00000000  1
  Mn  Mn3  1  0.00000000  0.34449609  1.00000000  1
  Mn  Mn4  1  0.01430451  0.12737167  0.25474334  1
  Mn  Mn5  1  0.98569549  0.87262833  0.74525666  1
  Mn  Mn6  1  0.00320543  0.87022374  0.24371055  1
  Mn  Mn7  1  0.00320543  0.37348680  0.24371055  1
  Mn  Mn8  1  0.99679457  0.12977626  0.75628945  1
  Mn  Mn9  1  0.99679457  0.62651320  0.75628945  1
  Mn  Mn10  1  -0.00021200  0.62074911  0.24149822  1
  Mn  Mn11  1  0.00021200  0.37925089  0.75850178  1
  Mn  Mn12  1  0.04906521  0.13822879  0.49963313  1
  Mn  Mn13  1  0.04906521  0.36140433  0.49963313  1
  Mn  Mn14  1  0.95093479  0.86177121  0.50036687  1
  Mn  Mn15  1  0.95093479  0.63859567  0.50036687  1
  Si  Si16  1  0.35921337  0.82345889  0.40774053  1
  Si  Si17  1  0.35921337  0.58428164  0.40774053  1
  Si  Si18  1  0.64078663  0.17654111  0.59225947  1
  Si  Si19  1  0.64078663  0.41571836  0.59225947  1
  Si  Si20  1  0.37078991  0.06670377  0.64460275  1
  Si  Si21  1  0.37078991  0.57789898  0.64460275  1
  Si  Si22  1  0.62921009  0.93329623  0.35539725  1
  Si  Si23  1  0.62921009  0.42210102  0.35539725  1
  Si  Si24  1  0.36917333  0.05866257  0.87729209  1
  Si  Si25  1  0.36917333  0.81862952  0.87729209  1
  Si  Si26  1  0.63082667  0.94133743  0.12270791  1
  Si  Si27  1  0.63082667  0.18137048  0.12270791  1
  Cl  Cl28  1  0.19163790  0.55352064  0.10704128  1
  Cl  Cl29  1  0.80836210  0.44647936  0.89295872  1
  O  O30  1  0.50000000  0.83109078  0.00000000  1
  O  O31  1  0.50000000  0.16890922  1.00000000  1
  O  O32  1  0.58195533  0.06532075  0.13064151  1
  O  O33  1  0.41804467  0.93467925  0.86935849  1
  O  O34  1  0.58221765  0.93653559  0.23198276  1
  O  O35  1  0.58221765  0.29544717  0.23198276  1
  O  O36  1  0.41778235  0.06346441  0.76801724  1
  O  O37  1  0.41778235  0.70455283  0.76801724  1
  O  O38  1  0.49031126  0.82610519  0.33043881  1
  O  O39  1  0.49031126  0.50433362  0.33043881  1
  O  O40  1  0.50968874  0.17389481  0.66956119  1
  O  O41  1  0.50968874  0.49566638  0.66956119  1
  O  O42  1  0.58881094  0.05803936  0.45875571  1
  O  O43  1  0.58881094  0.40071636  0.45875571  1
  O  O44  1  0.41118906  0.94196064  0.54124429  1
  O  O45  1  0.41118906  0.59928364  0.54124429  1
  O  O46  1  0.59568433  0.28583884  0.57167768  1
  O  O47  1  0.40431567  0.71416116  0.42832232  1
  O  O48  1  0.14778422  0.80460581  0.34495728  1
  O  O49  1  0.14778422  0.54035147  0.34495728  1
  O  O50  1  0.85221578  0.19539419  0.65504272  1
  O  O51  1  0.85221578  0.45964853  0.65504272  1
  O  O52  1  0.16178081  0.08018210  0.60718915  1
  O  O53  1  0.16178081  0.52700705  0.60718915  1
  O  O54  1  0.83821919  0.91981790  0.39281085  1
  O  O55  1  0.83821919  0.47299295  0.39281085  1
  O  O56  1  0.15692809  0.05933518  0.85835112  1
  O  O57  1  0.15692809  0.79901594  0.85835112  1
  O  O58  1  0.84307191  0.94066482  0.14164888  1
  O  O59  1  0.84307191  0.20098406  0.14164888  1
  O  O60  1  0.10352058  0.05596528  0.11193057  1
  O  O61  1  0.89647942  0.94403472  0.88806943  1
  O  O62  1  0.12168886  0.81286664  0.09577489  1
  O  O63  1  0.12168886  0.28290825  0.09577489  1
  O  O64  1  0.87831114  0.18713336  0.90422511  1
  O  O65  1  0.87831114  0.71709175  0.90422511  1
  O  O66  1  0.11305368  0.03417956  0.34868219  1
  O  O67  1  0.11305368  0.31450263  0.34868219  1
  O  O68  1  0.88694632  0.96582044  0.65131781  1
  O  O69  1  0.88694632  0.68549737  0.65131781  1
  O  O70  1  0.11185210  0.31356760  0.62713520  1
  O  O71  1  0.88814790  0.68643240  0.37286480  1
  O  O72  1  0.07616943  0.79916475  0.59832949  1
  O  O73  1  0.92383057  0.20083525  0.40167051  1
  O  O74  1  0.09918775  0.29566246  0.86267448  1
  O  O75  1  0.09918775  0.56701203  0.86267448  1
  O  O76  1  0.90081225  0.70433754  0.13732552  1
  O  O77  1  0.90081225  0.43298797  0.13732552  1
