# generated using pymatgen
data_Ba2UNiO6
_symmetry_space_group_name_H-M   'P 1'
_cell_length_a   5.96624607
_cell_length_b   5.96624608
_cell_length_c   5.96624607
_cell_angle_alpha   59.99999998
_cell_angle_beta   59.99999995
_cell_angle_gamma   59.99999996
_symmetry_Int_Tables_number   1
_chemical_formula_structural   Ba2UNiO6
_chemical_formula_sum   'Ba2 U1 Ni1 O6'
_cell_volume   150.17183451
_cell_formula_units_Z   1
loop_
 _symmetry_equiv_pos_site_id
 _symmetry_equiv_pos_as_xyz
  1  'x, y, z'
loop_
 _atom_site_type_symbol
 _atom_site_label
 _atom_site_symmetry_multiplicity
 _atom_site_fract_x
 _atom_site_fract_y
 _atom_site_fract_z
 _atom_site_occupancy
  O  O0  1  0.24807814  0.75192243  0.75192167  1
  O  O1  1  0.24807814  0.75192243  0.24807850  1
  O  O2  1  0.75192027  0.24807952  0.75192206  1
  O  O3  1  0.24807853  0.24807952  0.75192135  1
  O  O4  1  0.75192027  0.24807952  0.24807889  1
  O  O5  1  0.75192183  0.75192243  0.24807824  1
  Ni  Ni6  1  0.49999955  0.49999994  0.50000063  1
  Ba  Ba7  1  0.24999943  0.25000100  0.24999997  1
  Ba  Ba8  1  0.74999898  0.75000095  0.75000060  1
  U  U9  1  0.00000000  0.00000000  0.00000000  1
