# generated using pymatgen
data_EuSnP
_symmetry_space_group_name_H-M   'P 1'
_cell_length_a   4.26987281
_cell_length_b   4.26987281
_cell_length_c   8.73492391
_cell_angle_alpha   90.00000000
_cell_angle_beta   90.00000000
_cell_angle_gamma   90.00000000
_symmetry_Int_Tables_number   1
_chemical_formula_structural   EuSnP
_chemical_formula_sum   'Eu2 Sn2 P2'
_cell_volume   159.25350640
_cell_formula_units_Z   2
loop_
 _symmetry_equiv_pos_site_id
 _symmetry_equiv_pos_as_xyz
  1  'x, y, z'
loop_
 _atom_site_type_symbol
 _atom_site_label
 _atom_site_symmetry_multiplicity
 _atom_site_fract_x
 _atom_site_fract_y
 _atom_site_fract_z
 _atom_site_occupancy
  P  P0  1  0.75000000  0.75000000  0.83634750  1
  P  P1  1  0.25000000  0.25000000  0.16365250  1
  Sn  Sn2  1  0.25000000  0.25000000  0.45038631  1
  Sn  Sn3  1  0.75000000  0.75000000  0.54961369  1
  Eu  Eu4  1  0.75000000  0.75000000  0.16851325  1
  Eu  Eu5  1  0.25000000  0.25000000  0.83148675  1
