# generated using pymatgen
data_Tb2Ge2Ru
_symmetry_space_group_name_H-M   'P 1'
_cell_length_a   4.30480190
_cell_length_b   5.84136153
_cell_length_c   9.28766531
_cell_angle_alpha   82.03685466
_cell_angle_beta   76.59997470
_cell_angle_gamma   68.37834730
_symmetry_Int_Tables_number   1
_chemical_formula_structural   Tb2Ge2Ru
_chemical_formula_sum   'Tb4 Ge4 Ru2'
_cell_volume   210.83802395
_cell_formula_units_Z   2
loop_
 _symmetry_equiv_pos_site_id
 _symmetry_equiv_pos_as_xyz
  1  'x, y, z'
loop_
 _atom_site_type_symbol
 _atom_site_label
 _atom_site_symmetry_multiplicity
 _atom_site_fract_x
 _atom_site_fract_y
 _atom_site_fract_z
 _atom_site_occupancy
  Ge  Ge0  1  0.14584362  0.77275193  0.93556084  1
  Ge  Ge1  1  0.85415638  0.22724807  0.06443916  1
  Ge  Ge2  1  0.01052623  0.35399422  0.62495332  1
  Ge  Ge3  1  0.98947377  0.64600578  0.37504668  1
  Ru  Ru4  1  0.22855135  0.41496333  0.12793396  1
  Ru  Ru5  1  0.77144865  0.58503667  0.87206604  1
  Tb  Tb6  1  0.31578223  0.75638716  0.61204838  1
  Tb  Tb7  1  0.68421777  0.24361284  0.38795162  1
  Tb  Tb8  1  0.50195507  0.16976560  0.82632427  1
  Tb  Tb9  1  0.49804493  0.83023440  0.17367573  1
