# generated using pymatgen
data_In(SeO3)2
_symmetry_space_group_name_H-M   'P 1'
_cell_length_a   6.86379764
_cell_length_b   8.72567880
_cell_length_c   10.22050820
_cell_angle_alpha   90.00000000
_cell_angle_beta   90.00000000
_cell_angle_gamma   89.56473900
_symmetry_Int_Tables_number   1
_chemical_formula_structural   In(SeO3)2
_chemical_formula_sum   'In4 Se8 O24'
_cell_volume   612.10179402
_cell_formula_units_Z   4
loop_
 _symmetry_equiv_pos_site_id
 _symmetry_equiv_pos_as_xyz
  1  'x, y, z'
loop_
 _atom_site_type_symbol
 _atom_site_label
 _atom_site_symmetry_multiplicity
 _atom_site_fract_x
 _atom_site_fract_y
 _atom_site_fract_z
 _atom_site_occupancy
  In  In0  1  0.95091813  0.30007235  0.99102494  1
  In  In1  1  0.04908187  0.19992765  0.49102494  1
  In  In2  1  0.04908187  0.69992765  0.00897506  1
  In  In3  1  0.95091813  0.80007235  0.50897506  1
  Se  Se4  1  0.08383067  0.01173840  0.79152255  1
  Se  Se5  1  0.91616933  0.48826160  0.29152255  1
  Se  Se6  1  0.91616933  0.98826160  0.20847745  1
  Se  Se7  1  0.08383067  0.51173840  0.70847745  1
  Se  Se8  1  0.44435291  0.27795852  0.07641219  1
  Se  Se9  1  0.55564709  0.22204148  0.57641219  1
  Se  Se10  1  0.55564709  0.72204148  0.92358781  1
  Se  Se11  1  0.44435291  0.77795852  0.42358781  1
  O  O12  1  0.26769363  0.26775125  0.95804330  1
  O  O13  1  0.73230637  0.23224875  0.45804330  1
  O  O14  1  0.73230637  0.73224875  0.04195670  1
  O  O15  1  0.26769363  0.76775125  0.54195670  1
  O  O16  1  0.04719113  0.32144374  0.67603261  1
  O  O17  1  0.95280887  0.17855626  0.17603261  1
  O  O18  1  0.95280887  0.67855626  0.32396739  1
  O  O19  1  0.04719113  0.82144374  0.82396739  1
  O  O20  1  0.02299436  0.99187896  0.36871919  1
  O  O21  1  0.97700564  0.50812104  0.86871919  1
  O  O22  1  0.97700564  0.00812104  0.63128081  1
  O  O23  1  0.02299436  0.49187896  0.13128081  1
  O  O24  1  0.63928846  0.85382358  0.50529394  1
  O  O25  1  0.36071154  0.64617642  0.00529394  1
  O  O26  1  0.36071154  0.14617642  0.49470606  1
  O  O27  1  0.63928846  0.35382358  0.99470606  1
  O  O28  1  0.10107143  0.90278117  0.12027689  1
  O  O29  1  0.89892857  0.59721883  0.62027689  1
  O  O30  1  0.89892857  0.09721883  0.87972311  1
  O  O31  1  0.10107143  0.40278117  0.37972311  1
  O  O32  1  0.50565375  0.89399119  0.86180198  1
  O  O33  1  0.49434625  0.60600881  0.36180198  1
  O  O34  1  0.49434625  0.10600881  0.13819802  1
  O  O35  1  0.50565375  0.39399119  0.63819802  1
