# generated using pymatgen
data_TaNiTe2
_symmetry_space_group_name_H-M   'P 1'
_cell_length_a   6.26406038
_cell_length_b   7.53305990
_cell_length_c   7.97655577
_cell_angle_alpha   90.00000000
_cell_angle_beta   90.00000000
_cell_angle_gamma   90.00000000
_symmetry_Int_Tables_number   1
_chemical_formula_structural   TaNiTe2
_chemical_formula_sum   'Ta4 Ni4 Te8'
_cell_volume   376.39406089
_cell_formula_units_Z   4
loop_
 _symmetry_equiv_pos_site_id
 _symmetry_equiv_pos_as_xyz
  1  'x, y, z'
loop_
 _atom_site_type_symbol
 _atom_site_label
 _atom_site_symmetry_multiplicity
 _atom_site_fract_x
 _atom_site_fract_y
 _atom_site_fract_z
 _atom_site_occupancy
  Ni  Ni0  1  0.10567561  0.34947989  0.75000000  1
  Ni  Ni1  1  0.89432439  0.34947989  0.25000000  1
  Ni  Ni2  1  0.60522256  0.57872015  0.25000000  1
  Ni  Ni3  1  0.39477744  0.57872015  0.75000000  1
  Te  Te4  1  0.50316299  0.24426536  0.75000000  1
  Te  Te5  1  0.00000000  0.15262998  0.50000000  1
  Te  Te6  1  0.00279727  0.68393767  0.25000000  1
  Te  Te7  1  0.99720273  0.68393767  0.75000000  1
  Te  Te8  1  0.50000000  0.77578188  0.50000000  1
  Te  Te9  1  0.50000000  0.77578188  0.00000000  1
  Te  Te10  1  0.00000000  0.15262998  0.00000000  1
  Te  Te11  1  0.49683701  0.24426536  0.25000000  1
  Ta  Ta12  1  0.75004071  0.46419254  0.95615693  1
  Ta  Ta13  1  0.24995929  0.46419254  0.04384307  1
  Ta  Ta14  1  0.24995929  0.46419254  0.45615693  1
  Ta  Ta15  1  0.75004071  0.46419254  0.54384307  1
