# generated using pymatgen
data_DySiRu
_symmetry_space_group_name_H-M   'P 1'
_cell_length_a   4.34137619
_cell_length_b   7.00278468
_cell_length_c   7.10908576
_cell_angle_alpha   90.00000000
_cell_angle_beta   90.00000000
_cell_angle_gamma   90.00000000
_symmetry_Int_Tables_number   1
_chemical_formula_structural   DySiRu
_chemical_formula_sum   'Dy4 Si4 Ru4'
_cell_volume   216.12845374
_cell_formula_units_Z   4
loop_
 _symmetry_equiv_pos_site_id
 _symmetry_equiv_pos_as_xyz
  1  'x, y, z'
loop_
 _atom_site_type_symbol
 _atom_site_label
 _atom_site_symmetry_multiplicity
 _atom_site_fract_x
 _atom_site_fract_y
 _atom_site_fract_z
 _atom_site_occupancy
  Si  Si0  1  0.25000000  0.30425071  0.89387983  1
  Si  Si1  1  0.75000000  0.69574929  0.10612017  1
  Si  Si2  1  0.25000000  0.80425071  0.60612017  1
  Si  Si3  1  0.75000000  0.19574929  0.39387983  1
  Ru  Ru4  1  0.75000000  0.84704233  0.43266599  1
  Ru  Ru5  1  0.25000000  0.15295767  0.56733401  1
  Ru  Ru6  1  0.75000000  0.34704233  0.06733401  1
  Ru  Ru7  1  0.25000000  0.65295767  0.93266599  1
  Dy  Dy8  1  0.25000000  0.98598361  0.18662537  1
  Dy  Dy9  1  0.75000000  0.01401639  0.81337463  1
  Dy  Dy10  1  0.25000000  0.48598361  0.31337463  1
  Dy  Dy11  1  0.75000000  0.51401639  0.68662537  1
