# generated using pymatgen
data_ErGeRu
_symmetry_space_group_name_H-M   'P 1'
_cell_length_a   4.39550164
_cell_length_b   6.99815623
_cell_length_c   7.25655269
_cell_angle_alpha   90.00000000
_cell_angle_beta   90.00000000
_cell_angle_gamma   90.00000000
_symmetry_Int_Tables_number   1
_chemical_formula_structural   ErGeRu
_chemical_formula_sum   'Er4 Ge4 Ru4'
_cell_volume   223.21451551
_cell_formula_units_Z   4
loop_
 _symmetry_equiv_pos_site_id
 _symmetry_equiv_pos_as_xyz
  1  'x, y, z'
loop_
 _atom_site_type_symbol
 _atom_site_label
 _atom_site_symmetry_multiplicity
 _atom_site_fract_x
 _atom_site_fract_y
 _atom_site_fract_z
 _atom_site_occupancy
  Ge  Ge0  1  0.25000000  0.79570451  0.10710248  1
  Ge  Ge1  1  0.75000000  0.20429549  0.89289752  1
  Ge  Ge2  1  0.25000000  0.29570451  0.39289752  1
  Ge  Ge3  1  0.75000000  0.70429549  0.60710248  1
  Ru  Ru4  1  0.75000000  0.84408726  0.93730925  1
  Ru  Ru5  1  0.25000000  0.15591274  0.06269075  1
  Ru  Ru6  1  0.75000000  0.34408726  0.56269075  1
  Ru  Ru7  1  0.25000000  0.65591274  0.43730925  1
  Er  Er8  1  0.25000000  0.48784314  0.80780636  1
  Er  Er9  1  0.75000000  0.51215686  0.19219364  1
  Er  Er10  1  0.25000000  0.98784314  0.69219364  1
  Er  Er11  1  0.75000000  0.01215686  0.30780636  1
