# generated using pymatgen
data_UTeS
_symmetry_space_group_name_H-M   'P 1'
_cell_length_a   4.21473496
_cell_length_b   7.68406058
_cell_length_c   8.96113208
_cell_angle_alpha   90.00000000
_cell_angle_beta   90.00000000
_cell_angle_gamma   90.00000000
_symmetry_Int_Tables_number   1
_chemical_formula_structural   UTeS
_chemical_formula_sum   'U4 Te4 S4'
_cell_volume   290.21772156
_cell_formula_units_Z   4
loop_
 _symmetry_equiv_pos_site_id
 _symmetry_equiv_pos_as_xyz
  1  'x, y, z'
loop_
 _atom_site_type_symbol
 _atom_site_label
 _atom_site_symmetry_multiplicity
 _atom_site_fract_x
 _atom_site_fract_y
 _atom_site_fract_z
 _atom_site_occupancy
  S  S0  1  0.75000000  0.64930766  0.57228665  1
  S  S1  1  0.25000000  0.85069234  0.07228665  1
  S  S2  1  0.75000000  0.14930766  0.92771335  1
  S  S3  1  0.25000000  0.35069234  0.42771335  1
  Te  Te4  1  0.25000000  0.47539680  0.84055059  1
  Te  Te5  1  0.75000000  0.02460320  0.34055059  1
  Te  Te6  1  0.25000000  0.97539680  0.65944941  1
  Te  Te7  1  0.75000000  0.52460320  0.15944941  1
  U  U8  1  0.25000000  0.70379458  0.37899996  1
  U  U9  1  0.75000000  0.29620542  0.62100004  1
  U  U10  1  0.25000000  0.20379458  0.12100004  1
  U  U11  1  0.75000000  0.79620542  0.87899996  1
