# generated using pymatgen
data_Eu2TeO2
_symmetry_space_group_name_H-M   'P 1'
_cell_length_a   4.03484158
_cell_length_b   4.03484158
_cell_length_c   7.38573333
_cell_angle_alpha   105.85185879
_cell_angle_beta   105.85185883
_cell_angle_gamma   90.00000008
_symmetry_Int_Tables_number   1
_chemical_formula_structural   Eu2TeO2
_chemical_formula_sum   'Eu2 Te1 O2'
_cell_volume   110.90585423
_cell_formula_units_Z   1
loop_
 _symmetry_equiv_pos_site_id
 _symmetry_equiv_pos_as_xyz
  1  'x, y, z'
loop_
 _atom_site_type_symbol
 _atom_site_label
 _atom_site_symmetry_multiplicity
 _atom_site_fract_x
 _atom_site_fract_y
 _atom_site_fract_z
 _atom_site_occupancy
  O  O0  1  0.25000000  0.75000000  0.50000000  1
  O  O1  1  0.75000000  0.25000000  0.50000000  1
  Te  Te2  1  0.00000000  0.00000000  0.00000000  1
  Eu  Eu3  1  0.66841277  0.66841277  0.33682554  1
  Eu  Eu4  1  0.33158723  0.33158723  0.66317446  1
