# generated using pymatgen
data_PPd3
_symmetry_space_group_name_H-M   'P 1'
_cell_length_a   5.26246298
_cell_length_b   6.05427525
_cell_length_c   7.55283157
_cell_angle_alpha   90.00000000
_cell_angle_beta   90.00000000
_cell_angle_gamma   90.00000000
_symmetry_Int_Tables_number   1
_chemical_formula_structural   PPd3
_chemical_formula_sum   'P4 Pd12'
_cell_volume   240.63623022
_cell_formula_units_Z   4
loop_
 _symmetry_equiv_pos_site_id
 _symmetry_equiv_pos_as_xyz
  1  'x, y, z'
loop_
 _atom_site_type_symbol
 _atom_site_label
 _atom_site_symmetry_multiplicity
 _atom_site_fract_x
 _atom_site_fract_y
 _atom_site_fract_z
 _atom_site_occupancy
  P  P0  1  0.45742036  0.88162769  0.25000000  1
  P  P1  1  0.95742036  0.61837231  0.75000000  1
  P  P2  1  0.04257964  0.38162769  0.25000000  1
  P  P3  1  0.54257964  0.11837231  0.75000000  1
  Pd  Pd4  1  0.86866958  0.02776571  0.25000000  1
  Pd  Pd5  1  0.36866958  0.47223429  0.75000000  1
  Pd  Pd6  1  0.63133042  0.52776571  0.25000000  1
  Pd  Pd7  1  0.13133042  0.97223429  0.75000000  1
  Pd  Pd8  1  0.33695293  0.17479769  0.06313253  1
  Pd  Pd9  1  0.83695293  0.32520231  0.93686747  1
  Pd  Pd10  1  0.16304707  0.67479769  0.43686747  1
  Pd  Pd11  1  0.66304707  0.82520231  0.56313253  1
  Pd  Pd12  1  0.66304707  0.82520231  0.93686747  1
  Pd  Pd13  1  0.16304707  0.67479769  0.06313253  1
  Pd  Pd14  1  0.83695293  0.32520231  0.56313253  1
  Pd  Pd15  1  0.33695293  0.17479769  0.43686747  1
