# generated using pymatgen
data_EuInAu
_symmetry_space_group_name_H-M   'P 1'
_cell_length_a   4.75311658
_cell_length_b   7.58103683
_cell_length_c   8.57330252
_cell_angle_alpha   90.00000000
_cell_angle_beta   90.00000000
_cell_angle_gamma   90.00000000
_symmetry_Int_Tables_number   1
_chemical_formula_structural   EuInAu
_chemical_formula_sum   'Eu4 In4 Au4'
_cell_volume   308.92654088
_cell_formula_units_Z   4
loop_
 _symmetry_equiv_pos_site_id
 _symmetry_equiv_pos_as_xyz
  1  'x, y, z'
loop_
 _atom_site_type_symbol
 _atom_site_label
 _atom_site_symmetry_multiplicity
 _atom_site_fract_x
 _atom_site_fract_y
 _atom_site_fract_z
 _atom_site_occupancy
  In  In0  1  0.25000000  0.65717006  0.43454316  1
  In  In1  1  0.25000000  0.15717006  0.06545684  1
  In  In2  1  0.75000000  0.34282994  0.56545684  1
  In  In3  1  0.75000000  0.84282994  0.93454316  1
  Eu  Eu4  1  0.75000000  0.47469286  0.18445665  1
  Eu  Eu5  1  0.25000000  0.02530714  0.68445665  1
  Eu  Eu6  1  0.75000000  0.97469286  0.31554335  1
  Eu  Eu7  1  0.25000000  0.52530714  0.81554335  1
  Au  Au8  1  0.25000000  0.77393236  0.11677479  1
  Au  Au9  1  0.25000000  0.27393236  0.38322521  1
  Au  Au10  1  0.75000000  0.72606764  0.61677479  1
  Au  Au11  1  0.75000000  0.22606764  0.88322521  1
