# generated using pymatgen
data_KLiSi2H30C12N2O
_symmetry_space_group_name_H-M   'P 1'
_cell_length_a   11.79820180
_cell_length_b   13.69915849
_cell_length_c   13.69915849
_cell_angle_alpha   99.21027312
_cell_angle_beta   90.00000000
_cell_angle_gamma   90.00000000
_symmetry_Int_Tables_number   1
_chemical_formula_structural   KLiSi2H30C12N2O
_chemical_formula_sum   'K4 Li4 Si8 H120 C48 N8 O4'
_cell_volume   2185.58694711
_cell_formula_units_Z   4
loop_
 _symmetry_equiv_pos_site_id
 _symmetry_equiv_pos_as_xyz
  1  'x, y, z'
loop_
 _atom_site_type_symbol
 _atom_site_label
 _atom_site_symmetry_multiplicity
 _atom_site_fract_x
 _atom_site_fract_y
 _atom_site_fract_z
 _atom_site_occupancy
  K  K0  1  0.52888495  0.62155685  0.01731563  1
  K  K1  1  0.47111505  0.98268437  0.37844315  1
  K  K2  1  0.97111505  0.12155685  0.51731563  1
  K  K3  1  0.02888495  0.48268437  0.87844315  1
  Li  Li4  1  0.50000000  0.72806551  0.27193449  1
  Li  Li5  1  -0.00000000  0.22806551  0.77193449  1
  Li  Li6  1  0.50000000  0.87913745  0.12086255  1
  Li  Li7  1  -0.00000000  0.37913745  0.62086255  1
  Si  Si8  1  0.29611398  0.78567968  0.06174509  1
  Si  Si9  1  0.70388602  0.93825491  0.21432032  1
  Si  Si10  1  0.20388602  0.28567968  0.56174509  1
  Si  Si11  1  0.79611398  0.43825491  0.71432032  1
  Si  Si12  1  0.27333472  0.79324745  0.29348199  1
  Si  Si13  1  0.72666528  0.70651801  0.20675255  1
  Si  Si14  1  0.22666528  0.29324745  0.79348199  1
  Si  Si15  1  0.77333472  0.20651801  0.70675255  1
  H  H16  1  0.10010255  0.85554212  0.09007379  1
  H  H17  1  0.89989745  0.90992621  0.14445788  1
  H  H18  1  0.39989745  0.35554212  0.59007379  1
  H  H19  1  0.60010255  0.40992621  0.64445788  1
  H  H20  1  0.19789635  0.95224592  0.07968852  1
  H  H21  1  0.80210365  0.92031148  0.04775408  1
  H  H22  1  0.30210365  0.45224592  0.57968852  1
  H  H23  1  0.69789635  0.42031148  0.54775408  1
  H  H24  1  0.15198618  0.87151210  0.97294630  1
  H  H25  1  0.84801382  0.02705370  0.12848790  1
  H  H26  1  0.34801382  0.37151210  0.47294630  1
  H  H27  1  0.65198618  0.52705370  0.62848790  1
  H  H28  1  0.10114454  0.69446613  0.23184275  1
  H  H29  1  0.89885546  0.76815725  0.30553387  1
  H  H30  1  0.39885546  0.19446613  0.73184275  1
  H  H31  1  0.60114454  0.26815725  0.80553387  1
  H  H32  1  0.21377618  0.61436206  0.25456403  1
  H  H33  1  0.78622382  0.74543597  0.38563794  1
  H  H34  1  0.28622382  0.11436206  0.75456403  1
  H  H35  1  0.71377618  0.24543597  0.88563794  1
  H  H36  1  0.13406403  0.67910983  0.35402003  1
  H  H37  1  0.86593597  0.64597997  0.32089017  1
  H  H38  1  0.36593597  0.17910983  0.85402003  1
  H  H39  1  0.63406403  0.14597997  0.82089017  1
  H  H40  1  0.14243529  0.65847956  0.06277972  1
  H  H41  1  0.85756471  0.93722028  0.34152044  1
  H  H42  1  0.35756471  0.15847956  0.56277972  1
  H  H43  1  0.64243529  0.43722028  0.84152044  1
  H  H44  1  0.20673564  0.65231068  0.94394395  1
  H  H45  1  0.79326436  0.05605605  0.34768932  1
  H  H46  1  0.29326436  0.15231068  0.44394395  1
  H  H47  1  0.70673564  0.55605605  0.84768932  1
  H  H48  1  0.27387243  0.59647843  0.03785458  1
  H  H49  1  0.72612757  0.96214542  0.40352157  1
  H  H50  1  0.22612757  0.09647843  0.53785458  1
  H  H51  1  0.77387243  0.46214542  0.90352157  1
  H  H52  1  0.10306756  0.89656039  0.26768718  1
  H  H53  1  0.89693244  0.73231282  0.10343961  1
  H  H54  1  0.39693244  0.39656039  0.76768718  1
  H  H55  1  0.60306756  0.23231282  0.60343961  1
  H  H56  1  0.14035056  0.90854762  0.39461798  1
  H  H57  1  0.85964944  0.60538202  0.09145238  1
  H  H58  1  0.35964944  0.40854762  0.89461798  1
  H  H59  1  0.64035056  0.10538202  0.59145238  1
  H  H60  1  0.21576590  0.97590973  0.31431825  1
  H  H61  1  0.78423410  0.68568175  0.02409027  1
  H  H62  1  0.28423410  0.47590973  0.81431825  1
  H  H63  1  0.71576590  0.18568175  0.52409027  1
  H  H64  1  0.42990494  0.65533046  0.83493460  1
  H  H65  1  0.57009506  0.16506540  0.34466954  1
  H  H66  1  0.07009506  0.15533046  0.33493460  1
  H  H67  1  0.92990494  0.66506540  0.84466954  1
  H  H68  1  0.30400013  0.72434669  0.82497895  1
  H  H69  1  0.69599987  0.17502105  0.27565331  1
  H  H70  1  0.19599987  0.22434669  0.32497895  1
  H  H71  1  0.80400013  0.67502105  0.77565331  1
  H  H72  1  0.42332069  0.74075935  0.75090664  1
  H  H73  1  0.57667931  0.24909336  0.25924065  1
  H  H74  1  0.07667931  0.24075935  0.25090664  1
  H  H75  1  0.92332069  0.74909336  0.75924065  1
  H  H76  1  0.42011812  0.97480512  0.92979184  1
  H  H77  1  0.57988188  0.07020816  0.02519488  1
  H  H78  1  0.07988188  0.47480512  0.42979184  1
  H  H79  1  0.92011812  0.57020816  0.52519488  1
  H  H80  1  0.41754912  0.92056137  0.80260077  1
  H  H81  1  0.58245088  0.19739923  0.07943863  1
  H  H82  1  0.08245088  0.42056137  0.30260077  1
  H  H83  1  0.91754912  0.69739923  0.57943863  1
  H  H84  1  0.29827821  0.90936196  0.87886308  1
  H  H85  1  0.70172179  0.12113692  0.09063804  1
  H  H86  1  0.20172179  0.40936196  0.37886308  1
  H  H87  1  0.79827821  0.62113692  0.59063804  1
  H  H88  1  0.61497338  0.75194025  0.90139378  1
  H  H89  1  0.38502662  0.09860622  0.24805975  1
  H  H90  1  0.88502662  0.25194025  0.40139378  1
  H  H91  1  0.11497338  0.59860622  0.74805975  1
  H  H92  1  0.59035676  0.82830177  0.81052464  1
  H  H93  1  0.40964324  0.18947536  0.17169823  1
  H  H94  1  0.90964324  0.32830177  0.31052464  1
  H  H95  1  0.09035676  0.68947536  0.67169823  1
  H  H96  1  0.60832171  0.88227451  0.93699017  1
  H  H97  1  0.39167829  0.06300983  0.11772549  1
  H  H98  1  0.89167829  0.38227451  0.43699017  1
  H  H99  1  0.10832171  0.56300983  0.61772549  1
  H  H100  1  0.31905517  0.92365657  0.54034474  1
  H  H101  1  0.68094483  0.45965526  0.07634343  1
  H  H102  1  0.18094483  0.42365657  0.04034474  1
  H  H103  1  0.81905517  0.95965526  0.57634343  1
  H  H104  1  0.21516287  0.82845981  0.51964189  1
  H  H105  1  0.78483713  0.48035811  0.17154019  1
  H  H106  1  0.28483713  0.32845981  0.01964189  1
  H  H107  1  0.71516287  0.98035811  0.67154019  1
  H  H108  1  0.31387963  0.83104247  0.61724383  1
  H  H109  1  0.68612037  0.38275617  0.16895753  1
  H  H110  1  0.18612037  0.33104247  0.11724383  1
  H  H111  1  0.81387963  0.88275617  0.66895753  1
  H  H112  1  0.41232815  0.61601632  0.43940471  1
  H  H113  1  0.58767185  0.56059529  0.38398368  1
  H  H114  1  0.08767185  0.11601632  0.93940471  1
  H  H115  1  0.91232815  0.06059529  0.88398368  1
  H  H116  1  0.36489710  0.65960824  0.56201992  1
  H  H117  1  0.63510290  0.43798008  0.34039176  1
  H  H118  1  0.13510290  0.15960824  0.06201992  1
  H  H119  1  0.86489710  0.93798008  0.84039176  1
  H  H120  1  0.26844781  0.65090480  0.46163969  1
  H  H121  1  0.73155219  0.53836031  0.34909520  1
  H  H122  1  0.23155219  0.15090480  0.96163969  1
  H  H123  1  0.76844781  0.03836031  0.84909520  1
  H  H124  1  0.53635428  0.87169035  0.51361802  1
  H  H125  1  0.46364572  0.48638198  0.12830965  1
  H  H126  1  0.96364572  0.37169035  0.01361802  1
  H  H127  1  0.03635428  0.98638198  0.62830965  1
  H  H128  1  0.50951435  0.78462621  0.59317257  1
  H  H129  1  0.49048565  0.40682743  0.21537379  1
  H  H130  1  0.99048565  0.28462621  0.09317257  1
  H  H131  1  0.00951435  0.90682743  0.71537379  1
  H  H132  1  0.56818073  0.74478447  0.47344672  1
  H  H133  1  0.43181927  0.52655328  0.25521553  1
  H  H134  1  0.93181927  0.24478447  0.97344672  1
  H  H135  1  0.06818073  0.02655328  0.75521553  1
  C  C136  1  0.17623197  0.87492284  0.05080656  1
  C  C137  1  0.82376803  0.94919344  0.12507716  1
  C  C138  1  0.32376803  0.37492284  0.55080656  1
  C  C139  1  0.67623197  0.44919344  0.62507716  1
  C  C140  1  0.17187195  0.68513741  0.28194331  1
  C  C141  1  0.82812805  0.71805669  0.31486259  1
  C  C142  1  0.32812805  0.18513741  0.78194331  1
  C  C143  1  0.67187195  0.21805669  0.81486259  1
  C  C144  1  0.22371571  0.66067924  0.02373822  1
  C  C145  1  0.77628429  0.97626178  0.33932076  1
  C  C146  1  0.27628429  0.16067924  0.52373822  1
  C  C147  1  0.72371571  0.47626178  0.83932076  1
  C  C148  1  0.17492791  0.90458862  0.31959733  1
  C  C149  1  0.82507209  0.68040267  0.09541138  1
  C  C150  1  0.32507209  0.40458862  0.81959733  1
  C  C151  1  0.67492791  0.18040267  0.59541138  1
  C  C152  1  0.44221185  0.81361961  0.90358116  1
  C  C153  1  0.55778815  0.09641884  0.18638039  1
  C  C154  1  0.05778815  0.31361961  0.40358116  1
  C  C155  1  0.94221185  0.59641884  0.68638039  1
  C  C156  1  0.39702475  0.72836490  0.82496257  1
  C  C157  1  0.60297525  0.17503743  0.27163510  1
  C  C158  1  0.10297525  0.22836490  0.32496257  1
  C  C159  1  0.89702475  0.67503743  0.77163510  1
  C  C160  1  0.39132745  0.91040227  0.87744037  1
  C  C161  1  0.60867255  0.12255963  0.08959773  1
  C  C162  1  0.10867255  0.41040227  0.37744037  1
  C  C163  1  0.89132745  0.62255963  0.58959773  1
  C  C164  1  0.57144610  0.81940333  0.88729745  1
  C  C165  1  0.42855390  0.11270255  0.18059667  1
  C  C166  1  0.92855390  0.31940333  0.38729745  1
  C  C167  1  0.07144610  0.61270255  0.68059667  1
  C  C168  1  0.38654035  0.77679063  0.47232327  1
  C  C169  1  0.61345965  0.52767673  0.22320937  1
  C  C170  1  0.11345965  0.27679063  0.97232327  1
  C  C171  1  0.88654035  0.02767673  0.72320937  1
  C  C172  1  0.30408949  0.84444226  0.54064868  1
  C  C173  1  0.69591051  0.45935132  0.15555774  1
  C  C174  1  0.19591051  0.34444226  0.04064868  1
  C  C175  1  0.80408949  0.95935132  0.65555774  1
  C  C176  1  0.35606823  0.66925788  0.48409308  1
  C  C177  1  0.64393177  0.51590692  0.33074212  1
  C  C178  1  0.14393177  0.16925788  0.98409308  1
  C  C179  1  0.85606823  0.01590692  0.83074212  1
  C  C180  1  0.50700823  0.79574936  0.51542023  1
  C  C181  1  0.49299177  0.48457977  0.20425064  1
  C  C182  1  0.99299177  0.29574936  0.01542023  1
  C  C183  1  0.00700823  0.98457977  0.70425064  1
  N  N184  1  0.42122831  0.80028630  0.00609002  1
  N  N185  1  0.57877169  0.99390998  0.19971370  1
  N  N186  1  0.07877169  0.30028630  0.50609002  1
  N  N187  1  0.92122831  0.49390998  0.69971370  1
  N  N188  1  0.38688295  0.79316126  0.36892924  1
  N  N189  1  0.61311705  0.63107076  0.20683874  1
  N  N190  1  0.11311705  0.29316126  0.86892924  1
  N  N191  1  0.88688295  0.13107076  0.70683874  1
  O  O192  1  0.33593442  0.79493715  0.18199749  1
  O  O193  1  0.66406558  0.81800251  0.20506285  1
  O  O194  1  0.16406558  0.29493715  0.68199749  1
  O  O195  1  0.83593442  0.31800251  0.70506285  1
