# generated using pymatgen
data_Ba3(InP2)2
_symmetry_space_group_name_H-M   'P 1'
_cell_length_a   7.17690935
_cell_length_b   8.95361660
_cell_length_c   8.95361660
_cell_angle_alpha   75.64605208
_cell_angle_beta   89.88478702
_cell_angle_gamma   89.88478698
_symmetry_Int_Tables_number   1
_chemical_formula_structural   Ba3(InP2)2
_chemical_formula_sum   'Ba6 In4 P8'
_cell_volume   557.39033211
_cell_formula_units_Z   2
loop_
 _symmetry_equiv_pos_site_id
 _symmetry_equiv_pos_as_xyz
  1  'x, y, z'
loop_
 _atom_site_type_symbol
 _atom_site_label
 _atom_site_symmetry_multiplicity
 _atom_site_fract_x
 _atom_site_fract_y
 _atom_site_fract_z
 _atom_site_occupancy
  P  P0  1  0.06851948  0.25684773  0.42757691  1
  P  P1  1  0.43148052  0.57242309  0.74315227  1
  P  P2  1  0.93148052  0.74315227  0.57242309  1
  P  P3  1  0.56851948  0.42757691  0.25684773  1
  P  P4  1  0.47339755  0.94156607  0.29088886  1
  P  P5  1  0.02660245  0.70911114  0.05843393  1
  P  P6  1  0.97339755  0.29088886  0.94156607  1
  P  P7  1  0.52660245  0.05843393  0.70911114  1
  In  In8  1  0.08454235  0.58077050  0.82617326  1
  In  In9  1  0.41545765  0.17382674  0.41922950  1
  In  In10  1  0.91545765  0.41922950  0.17382674  1
  In  In11  1  0.58454235  0.82617326  0.58077050  1
  Ba  Ba12  1  0.25000000  0.59830468  0.40169532  1
  Ba  Ba13  1  0.75000000  0.40169532  0.59830468  1
  Ba  Ba14  1  0.95505105  0.99428122  0.25284251  1
  Ba  Ba15  1  0.54494895  0.74715749  0.00571878  1
  Ba  Ba16  1  0.04494895  0.00571878  0.74715749  1
  Ba  Ba17  1  0.45505105  0.25284251  0.99428122  1
