# generated using pymatgen
data_CuH6C2O7
_symmetry_space_group_name_H-M   'P 1'
_cell_length_a   6.58992358
_cell_length_b   9.60043789
_cell_length_c   10.33766686
_cell_angle_alpha   90.00000000
_cell_angle_beta   90.00000000
_cell_angle_gamma   90.00000000
_symmetry_Int_Tables_number   1
_chemical_formula_structural   CuH6C2O7
_chemical_formula_sum   'Cu4 H24 C8 O28'
_cell_volume   654.02440320
_cell_formula_units_Z   4
loop_
 _symmetry_equiv_pos_site_id
 _symmetry_equiv_pos_as_xyz
  1  'x, y, z'
loop_
 _atom_site_type_symbol
 _atom_site_label
 _atom_site_symmetry_multiplicity
 _atom_site_fract_x
 _atom_site_fract_y
 _atom_site_fract_z
 _atom_site_occupancy
  Cu  Cu0  1  0.50000000  0.75000000  0.36572089  1
  Cu  Cu1  1  0.50000000  0.25000000  0.13427911  1
  Cu  Cu2  1  0.50000000  0.25000000  0.63427911  1
  Cu  Cu3  1  0.50000000  0.75000000  0.86572089  1
  H  H4  1  0.81806951  0.86663793  0.22987478  1
  H  H5  1  0.18193049  0.63336207  0.22987478  1
  H  H6  1  0.18193049  0.36663793  0.27012522  1
  H  H7  1  0.81806951  0.13336207  0.27012522  1
  H  H8  1  0.18193049  0.13336207  0.77012522  1
  H  H9  1  0.81806951  0.36663793  0.77012522  1
  H  H10  1  0.81806951  0.63336207  0.72987478  1
  H  H11  1  0.18193049  0.86663793  0.72987478  1
  H  H12  1  0.71803005  0.74133601  0.14559265  1
  H  H13  1  0.28196995  0.75866399  0.14559265  1
  H  H14  1  0.28196995  0.24133601  0.35440735  1
  H  H15  1  0.71803005  0.25866399  0.35440735  1
  H  H16  1  0.28196995  0.25866399  0.85440735  1
  H  H17  1  0.71803005  0.24133601  0.85440735  1
  H  H18  1  0.71803005  0.75866399  0.64559265  1
  H  H19  1  0.28196995  0.74133601  0.64559265  1
  H  H20  1  0.08532273  0.97703273  0.32118712  1
  H  H21  1  0.91467727  0.52296727  0.32118712  1
  H  H22  1  0.91467727  0.47703273  0.17881288  1
  H  H23  1  0.08532273  0.02296727  0.17881288  1
  H  H24  1  0.91467727  0.02296727  0.67881288  1
  H  H25  1  0.08532273  0.47703273  0.67881288  1
  H  H26  1  0.08532273  0.52296727  0.82118712  1
  H  H27  1  0.91467727  0.97703273  0.82118712  1
  C  C28  1  0.39677785  0.01892434  0.47073229  1
  C  C29  1  0.60322215  0.48107566  0.47073229  1
  C  C30  1  0.60322215  0.51892434  0.02926771  1
  C  C31  1  0.39677785  0.98107566  0.02926771  1
  C  C32  1  0.60322215  0.98107566  0.52926771  1
  C  C33  1  0.39677785  0.51892434  0.52926771  1
  C  C34  1  0.39677785  0.48107566  0.97073229  1
  C  C35  1  0.60322215  0.01892434  0.97073229  1
  O  O36  1  0.31528505  0.92989416  0.39705498  1
  O  O37  1  0.68471495  0.57010584  0.39705498  1
  O  O38  1  0.68471495  0.42989416  0.10294502  1
  O  O39  1  0.31528505  0.07010584  0.10294502  1
  O  O40  1  0.68471495  0.07010584  0.60294502  1
  O  O41  1  0.31528505  0.42989416  0.60294502  1
  O  O42  1  0.31528505  0.57010584  0.89705498  1
  O  O43  1  0.68471495  0.92989416  0.89705498  1
  O  O44  1  0.67880828  0.86311494  0.50027062  1
  O  O45  1  0.32119172  0.63688506  0.50027062  1
  O  O46  1  0.32119172  0.36311494  0.99972938  1
  O  O47  1  0.67880828  0.13688506  0.99972938  1
  O  O48  1  0.32119172  0.13688506  0.49972938  1
  O  O49  1  0.67880828  0.36311494  0.49972938  1
  O  O50  1  0.67880828  0.63688506  0.00027062  1
  O  O51  1  0.32119172  0.86311494  0.00027062  1
  O  O52  1  0.69490332  0.80757637  0.21708948  1
  O  O53  1  0.30509668  0.69242363  0.21708948  1
  O  O54  1  0.30509668  0.30757637  0.28291052  1
  O  O55  1  0.69490332  0.19242363  0.28291052  1
  O  O56  1  0.30509668  0.19242363  0.78291052  1
  O  O57  1  0.69490332  0.30757637  0.78291052  1
  O  O58  1  0.69490332  0.69242363  0.71708948  1
  O  O59  1  0.30509668  0.80757637  0.71708948  1
  O  O60  1  0.98927064  -0.00000000  0.25000000  1
  O  O61  1  0.01072936  0.50000000  0.25000000  1
  O  O62  1  0.01072936  -0.00000000  0.75000000  1
  O  O63  1  0.98927064  0.50000000  0.75000000  1
