# generated using pymatgen
data_Sr4In2N
_symmetry_space_group_name_H-M   'P 1'
_cell_length_a   5.27806141
_cell_length_b   5.27806141
_cell_length_c   15.87712353
_cell_angle_alpha   99.56787702
_cell_angle_beta   99.56787701
_cell_angle_gamma   89.99999996
_symmetry_Int_Tables_number   1
_chemical_formula_structural   Sr4In2N
_chemical_formula_sum   'Sr8 In4 N2'
_cell_volume   429.91034556
_cell_formula_units_Z   2
loop_
 _symmetry_equiv_pos_site_id
 _symmetry_equiv_pos_as_xyz
  1  'x, y, z'
loop_
 _atom_site_type_symbol
 _atom_site_label
 _atom_site_symmetry_multiplicity
 _atom_site_fract_x
 _atom_site_fract_y
 _atom_site_fract_z
 _atom_site_occupancy
  N  N0  1  0.62500000  0.87500000  0.75000000  1
  N  N1  1  0.37500000  0.12500000  0.25000000  1
  Sr  Sr2  1  0.54297286  0.79297286  0.58594571  1
  Sr  Sr3  1  0.37497076  0.62497076  0.24994152  1
  Sr  Sr4  1  0.70702714  0.95702714  0.91405429  1
  Sr  Sr5  1  0.29297286  0.04297286  0.08594571  1
  Sr  Sr6  1  0.45702714  0.20702714  0.41405429  1
  Sr  Sr7  1  0.87502924  0.12502924  0.25005848  1
  Sr  Sr8  1  0.62502924  0.37502924  0.75005848  1
  Sr  Sr9  1  0.12497076  0.87497076  0.74994152  1
  In  In10  1  0.78356616  0.53356616  0.06713232  1
  In  In11  1  0.03356616  0.28356616  0.56713232  1
  In  In12  1  0.96643384  0.71643384  0.43286768  1
  In  In13  1  0.21643384  0.46643384  0.93286768  1
