# generated using pymatgen
data_LuNiGe
_symmetry_space_group_name_H-M   'P 1'
_cell_length_a   4.17461443
_cell_length_b   6.74009611
_cell_length_c   7.21571150
_cell_angle_alpha   90.00000000
_cell_angle_beta   90.00000000
_cell_angle_gamma   90.00000000
_symmetry_Int_Tables_number   1
_chemical_formula_structural   LuNiGe
_chemical_formula_sum   'Lu4 Ni4 Ge4'
_cell_volume   203.03065709
_cell_formula_units_Z   4
loop_
 _symmetry_equiv_pos_site_id
 _symmetry_equiv_pos_as_xyz
  1  'x, y, z'
loop_
 _atom_site_type_symbol
 _atom_site_label
 _atom_site_symmetry_multiplicity
 _atom_site_fract_x
 _atom_site_fract_y
 _atom_site_fract_z
 _atom_site_occupancy
  Ni  Ni0  1  0.25000000  0.80762208  0.58133700  1
  Ni  Ni1  1  0.75000000  0.69237792  0.08133700  1
  Ni  Ni2  1  0.25000000  0.30762208  0.91866300  1
  Ni  Ni3  1  0.75000000  0.19237792  0.41866300  1
  Ge  Ge4  1  0.25000000  0.19939061  0.58989332  1
  Ge  Ge5  1  0.75000000  0.30060939  0.08989332  1
  Ge  Ge6  1  0.25000000  0.69939061  0.91010668  1
  Ge  Ge7  1  0.75000000  0.80060939  0.41010668  1
  Lu  Lu8  1  0.25000000  0.50673657  0.29311243  1
  Lu  Lu9  1  0.75000000  0.49326343  0.70688757  1
  Lu  Lu10  1  0.25000000  0.00673657  0.20688757  1
  Lu  Lu11  1  0.75000000  0.99326343  0.79311243  1
