# generated using pymatgen
data_USeS
_symmetry_space_group_name_H-M   'P 1'
_cell_length_a   4.07951815
_cell_length_b   7.31692918
_cell_length_c   8.66768761
_cell_angle_alpha   90.00000000
_cell_angle_beta   90.00000000
_cell_angle_gamma   90.00000000
_symmetry_Int_Tables_number   1
_chemical_formula_structural   USeS
_chemical_formula_sum   'U4 Se4 S4'
_cell_volume   258.72653476
_cell_formula_units_Z   4
loop_
 _symmetry_equiv_pos_site_id
 _symmetry_equiv_pos_as_xyz
  1  'x, y, z'
loop_
 _atom_site_type_symbol
 _atom_site_label
 _atom_site_symmetry_multiplicity
 _atom_site_fract_x
 _atom_site_fract_y
 _atom_site_fract_z
 _atom_site_occupancy
  S  S0  1  0.25000000  0.35463756  0.42961670  1
  S  S1  1  0.75000000  0.64536244  0.57038330  1
  S  S2  1  0.25000000  0.85463756  0.07038330  1
  S  S3  1  0.75000000  0.14536244  0.92961670  1
  Se  Se4  1  0.75000000  0.52959130  0.16407490  1
  Se  Se5  1  0.25000000  0.47040870  0.83592510  1
  Se  Se6  1  0.75000000  0.02959130  0.33592510  1
  Se  Se7  1  0.25000000  0.97040870  0.66407490  1
  U  U8  1  0.25000000  0.72664425  0.37305121  1
  U  U9  1  0.75000000  0.27335575  0.62694879  1
  U  U10  1  0.25000000  0.22664425  0.12694879  1
  U  U11  1  0.75000000  0.77335575  0.87305121  1
