# generated using pymatgen
data_Fe(SeO3)2
_symmetry_space_group_name_H-M   'P 1'
_cell_length_a   6.63390463
_cell_length_b   8.17886847
_cell_length_c   10.04115342
_cell_angle_alpha   90.00000000
_cell_angle_beta   90.00000000
_cell_angle_gamma   90.58669790
_symmetry_Int_Tables_number   1
_chemical_formula_structural   Fe(SeO3)2
_chemical_formula_sum   'Fe4 Se8 O24'
_cell_volume   544.78266676
_cell_formula_units_Z   4
loop_
 _symmetry_equiv_pos_site_id
 _symmetry_equiv_pos_as_xyz
  1  'x, y, z'
loop_
 _atom_site_type_symbol
 _atom_site_label
 _atom_site_symmetry_multiplicity
 _atom_site_fract_x
 _atom_site_fract_y
 _atom_site_fract_z
 _atom_site_occupancy
  Fe  Fe0  1  0.55202650  0.19786585  0.00632438  1
  Fe  Fe1  1  0.44797350  0.30213415  0.50632438  1
  Fe  Fe2  1  0.44797350  0.80213415  0.99367562  1
  Fe  Fe3  1  0.55202650  0.69786585  0.49367562  1
  Se  Se4  1  0.94047710  0.27971511  0.41650544  1
  Se  Se5  1  0.05952290  0.22028489  0.91650544  1
  Se  Se6  1  0.05952290  0.72028489  0.58349456  1
  Se  Se7  1  0.94047710  0.77971511  0.08349456  1
  Se  Se8  1  0.40788912  0.47847906  0.21085500  1
  Se  Se9  1  0.59211088  0.02152094  0.71085500  1
  Se  Se10  1  0.59211088  0.52152094  0.78914500  1
  Se  Se11  1  0.40788912  0.97847906  0.28914500  1
  O  O12  1  0.75374890  0.26986187  0.53406892  1
  O  O13  1  0.24625110  0.23013813  0.03406892  1
  O  O14  1  0.24625110  0.73013813  0.46593108  1
  O  O15  1  0.75374890  0.76986187  0.96593108  1
  O  O16  1  0.97886058  0.09584801  0.35089830  1
  O  O17  1  0.02113942  0.40415199  0.85089830  1
  O  O18  1  0.02113942  0.90415199  0.64910170  1
  O  O19  1  0.97886058  0.59584801  0.14910170  1
  O  O20  1  0.14715161  0.35025336  0.50293474  1
  O  O21  1  0.85284839  0.14974664  0.00293474  1
  O  O22  1  0.85284839  0.64974664  0.49706526  1
  O  O23  1  0.14715161  0.85025336  0.99706526  1
  O  O24  1  0.59883093  0.38559397  0.12451158  1
  O  O25  1  0.40116907  0.11440603  0.62451158  1
  O  O26  1  0.40116907  0.61440603  0.87548842  1
  O  O27  1  0.59883093  0.88559397  0.37548842  1
  O  O28  1  0.52133437  0.49666575  0.37166897  1
  O  O29  1  0.47866563  0.00333425  0.87166897  1
  O  O30  1  0.47866563  0.50333425  0.62833103  1
  O  O31  1  0.52133437  0.99666575  0.12833103  1
  O  O32  1  0.43761713  0.67825682  0.16308997  1
  O  O33  1  0.56238287  0.82174318  0.66308997  1
  O  O34  1  0.56238287  0.32174318  0.83691003  1
  O  O35  1  0.43761713  0.17825682  0.33691003  1
