# generated using pymatgen
data_Dy2Ti3Si4
_symmetry_space_group_name_H-M   'P 1'
_cell_length_a   7.05436565
_cell_length_b   7.05436565
_cell_length_c   12.96791779
_cell_angle_alpha   90.00000000
_cell_angle_beta   90.00000000
_cell_angle_gamma   90.00000000
_symmetry_Int_Tables_number   1
_chemical_formula_structural   Dy2Ti3Si4
_chemical_formula_sum   'Dy8 Ti12 Si16'
_cell_volume   645.33642991
_cell_formula_units_Z   4
loop_
 _symmetry_equiv_pos_site_id
 _symmetry_equiv_pos_as_xyz
  1  'x, y, z'
loop_
 _atom_site_type_symbol
 _atom_site_label
 _atom_site_symmetry_multiplicity
 _atom_site_fract_x
 _atom_site_fract_y
 _atom_site_fract_z
 _atom_site_occupancy
  Si  Si0  1  0.04660863  0.70874364  0.43508876  1
  Si  Si1  1  0.95339137  0.29125636  0.93508876  1
  Si  Si2  1  0.70874364  0.04660863  0.56491124  1
  Si  Si3  1  0.20874364  0.45339137  0.18508876  1
  Si  Si4  1  0.79125636  0.54660863  0.68508876  1
  Si  Si5  1  0.45339137  0.20874364  0.81491124  1
  Si  Si6  1  0.54660863  0.79125636  0.31491124  1
  Si  Si7  1  0.29125636  0.95339137  0.06491124  1
  Si  Si8  1  0.79771354  0.86933861  0.18472747  1
  Si  Si9  1  0.29771354  0.63066139  0.56527253  1
  Si  Si10  1  0.70228646  0.36933861  0.06527253  1
  Si  Si11  1  0.63066139  0.29771354  0.43472747  1
  Si  Si12  1  0.36933861  0.70228646  0.93472747  1
  Si  Si13  1  0.13066139  0.20228646  0.31527253  1
  Si  Si14  1  0.20228646  0.13066139  0.68472747  1
  Si  Si15  1  0.86933861  0.79771354  0.81527253  1
  Ti  Ti16  1  0.34746973  0.50763234  0.37326511  1
  Ti  Ti17  1  0.84746973  0.99236766  0.37673489  1
  Ti  Ti18  1  0.00763234  0.15253027  0.12326511  1
  Ti  Ti19  1  0.99236766  0.84746973  0.62326511  1
  Ti  Ti20  1  0.50763234  0.34746973  0.62673489  1
  Ti  Ti21  1  0.15253027  0.00763234  0.87673489  1
  Ti  Ti22  1  0.67247462  0.67247462  0.50000000  1
  Ti  Ti23  1  0.82752538  0.17247462  0.75000000  1
  Ti  Ti24  1  0.17247462  0.82752538  0.25000000  1
  Ti  Ti25  1  0.32752538  0.32752538  0.00000000  1
  Ti  Ti26  1  0.49236766  0.65253027  0.12673489  1
  Ti  Ti27  1  0.65253027  0.49236766  0.87326511  1
  Dy  Dy28  1  0.99755034  0.65981607  0.03349546  1
  Dy  Dy29  1  0.00244966  0.34018393  0.53349546  1
  Dy  Dy30  1  0.65981607  0.99755034  0.96650454  1
  Dy  Dy31  1  0.15981607  0.50244966  0.78349546  1
  Dy  Dy32  1  0.84018393  0.49755034  0.28349546  1
  Dy  Dy33  1  0.50244966  0.15981607  0.21650454  1
  Dy  Dy34  1  0.49755034  0.84018393  0.71650454  1
  Dy  Dy35  1  0.34018393  0.00244966  0.46650454  1
