# generated using pymatgen
data_BaGdAuSe3
_symmetry_space_group_name_H-M   'P 1'
_cell_length_a   4.28030467
_cell_length_b   7.49363264
_cell_length_c   10.84506816
_cell_angle_alpha   90.00000000
_cell_angle_beta   90.00000000
_cell_angle_gamma   106.59448431
_symmetry_Int_Tables_number   1
_chemical_formula_structural   BaGdAuSe3
_chemical_formula_sum   'Ba2 Gd2 Au2 Se6'
_cell_volume   333.36772210
_cell_formula_units_Z   2
loop_
 _symmetry_equiv_pos_site_id
 _symmetry_equiv_pos_as_xyz
  1  'x, y, z'
loop_
 _atom_site_type_symbol
 _atom_site_label
 _atom_site_symmetry_multiplicity
 _atom_site_fract_x
 _atom_site_fract_y
 _atom_site_fract_z
 _atom_site_occupancy
  Se  Se0  1  0.92105506  0.84211012  0.25000000  1
  Se  Se1  1  0.07894494  0.15788988  0.75000000  1
  Se  Se2  1  0.36206982  0.72413964  0.55090293  1
  Se  Se3  1  0.36206982  0.72413964  0.94909707  1
  Se  Se4  1  0.63793018  0.27586036  0.05090293  1
  Se  Se5  1  0.63793018  0.27586036  0.44909707  1
  Ba  Ba6  1  0.24782540  0.49565079  0.25000000  1
  Ba  Ba7  1  0.75217460  0.50434921  0.75000000  1
  Gd  Gd8  1  0.00000000  0.00000000  0.50000000  1
  Gd  Gd9  1  0.00000000  0.00000000  0.00000000  1
  Au  Au10  1  0.46474176  0.92948351  0.75000000  1
  Au  Au11  1  0.53525824  0.07051649  0.25000000  1
