# generated using pymatgen
data_Gd(SiRh)2
_symmetry_space_group_name_H-M   'P 1'
_cell_length_a   4.07850597
_cell_length_b   4.07850598
_cell_length_c   5.79715350
_cell_angle_alpha   110.59549095
_cell_angle_beta   110.59549096
_cell_angle_gamma   89.99999998
_symmetry_Int_Tables_number   1
_chemical_formula_structural   Gd(SiRh)2
_chemical_formula_sum   'Gd1 Si2 Rh2'
_cell_volume   83.65186299
_cell_formula_units_Z   1
loop_
 _symmetry_equiv_pos_site_id
 _symmetry_equiv_pos_as_xyz
  1  'x, y, z'
loop_
 _atom_site_type_symbol
 _atom_site_label
 _atom_site_symmetry_multiplicity
 _atom_site_fract_x
 _atom_site_fract_y
 _atom_site_fract_z
 _atom_site_occupancy
  Si  Si0  1  0.62256526  0.62256526  0.24513053  1
  Si  Si1  1  0.37743474  0.37743474  0.75486947  1
  Rh  Rh2  1  0.25000000  0.75000000  0.50000000  1
  Rh  Rh3  1  0.75000000  0.25000000  0.50000000  1
  Gd  Gd4  1  0.00000000  0.00000000  0.00000000  1
