# generated using pymatgen
data_HoZn2
_symmetry_space_group_name_H-M   'P 1'
_cell_length_a   4.45799239
_cell_length_b   5.64511173
_cell_length_c   5.64511173
_cell_angle_alpha   77.52278402
_cell_angle_beta   66.74311762
_cell_angle_gamma   66.74311759
_symmetry_Int_Tables_number   1
_chemical_formula_structural   HoZn2
_chemical_formula_sum   'Ho2 Zn4'
_cell_volume   119.61015813
_cell_formula_units_Z   2
loop_
 _symmetry_equiv_pos_site_id
 _symmetry_equiv_pos_as_xyz
  1  'x, y, z'
loop_
 _atom_site_type_symbol
 _atom_site_label
 _atom_site_symmetry_multiplicity
 _atom_site_fract_x
 _atom_site_fract_y
 _atom_site_fract_z
 _atom_site_occupancy
  Zn  Zn0  1  0.83407918  0.70661908  0.62522256  1
  Zn  Zn1  1  0.16592082  0.29338092  0.37477744  1
  Zn  Zn2  1  0.83407918  0.12522256  0.20661908  1
  Zn  Zn3  1  0.16592082  0.87477744  0.79338092  1
  Ho  Ho4  1  0.52791777  0.72208223  0.22208223  1
  Ho  Ho5  1  0.47208223  0.27791777  0.77791777  1
