# generated using pymatgen
data_Ba2Pb
_symmetry_space_group_name_H-M   'P 1'
_cell_length_a   5.80297506
_cell_length_b   8.80246357
_cell_length_c   10.82705736
_cell_angle_alpha   90.00000000
_cell_angle_beta   90.00000000
_cell_angle_gamma   90.00000000
_symmetry_Int_Tables_number   1
_chemical_formula_structural   Ba2Pb
_chemical_formula_sum   'Ba8 Pb4'
_cell_volume   553.05124973
_cell_formula_units_Z   4
loop_
 _symmetry_equiv_pos_site_id
 _symmetry_equiv_pos_as_xyz
  1  'x, y, z'
loop_
 _atom_site_type_symbol
 _atom_site_label
 _atom_site_symmetry_multiplicity
 _atom_site_fract_x
 _atom_site_fract_y
 _atom_site_fract_z
 _atom_site_occupancy
  Ba  Ba0  1  0.25000000  0.51875109  0.81705916  1
  Ba  Ba1  1  0.75000000  0.48124891  0.18294084  1
  Ba  Ba2  1  0.25000000  0.01875109  0.68294084  1
  Ba  Ba3  1  0.75000000  0.98124891  0.31705916  1
  Ba  Ba4  1  0.75000000  0.83998644  0.92089589  1
  Ba  Ba5  1  0.25000000  0.16001356  0.07910411  1
  Ba  Ba6  1  0.75000000  0.33998644  0.57910411  1
  Ba  Ba7  1  0.25000000  0.66001356  0.42089589  1
  Pb  Pb8  1  0.25000000  0.74717571  0.10151138  1
  Pb  Pb9  1  0.75000000  0.25282429  0.89848862  1
  Pb  Pb10  1  0.25000000  0.24717571  0.39848862  1
  Pb  Pb11  1  0.75000000  0.75282429  0.60151138  1
