# generated using pymatgen
data_PuSi2
_symmetry_space_group_name_H-M   'P 1'
_cell_length_a   4.01322952
_cell_length_b   4.01322952
_cell_length_c   7.56876806
_cell_angle_alpha   105.37394452
_cell_angle_beta   105.37394452
_cell_angle_gamma   90.00000000
_symmetry_Int_Tables_number   1
_chemical_formula_structural   PuSi2
_chemical_formula_sum   'Pu2 Si4'
_cell_volume   113.01009694
_cell_formula_units_Z   2
loop_
 _symmetry_equiv_pos_site_id
 _symmetry_equiv_pos_as_xyz
  1  'x, y, z'
loop_
 _atom_site_type_symbol
 _atom_site_label
 _atom_site_symmetry_multiplicity
 _atom_site_fract_x
 _atom_site_fract_y
 _atom_site_fract_z
 _atom_site_occupancy
  Pu  Pu0  1  0.25000000  0.75000000  0.50000000  1
  Pu  Pu1  1  0.00000000  0.00000000  -0.00000000  1
  Si  Si2  1  0.66688386  0.16688386  0.33376773  1
  Si  Si3  1  0.58311614  0.58311614  0.16623227  1
  Si  Si4  1  0.83311614  0.33311614  0.66623227  1
  Si  Si5  1  0.41688386  0.41688386  0.83376773  1
