# generated using pymatgen
data_CePt
_symmetry_space_group_name_H-M   'P 1'
_cell_length_a   3.85541338
_cell_length_b   4.42833903
_cell_length_c   5.87411808
_cell_angle_alpha   90.00000000
_cell_angle_beta   109.15771225
_cell_angle_gamma   90.00000000
_symmetry_Int_Tables_number   1
_chemical_formula_structural   CePt
_chemical_formula_sum   'Ce2 Pt2'
_cell_volume   94.73513684
_cell_formula_units_Z   2
loop_
 _symmetry_equiv_pos_site_id
 _symmetry_equiv_pos_as_xyz
  1  'x, y, z'
loop_
 _atom_site_type_symbol
 _atom_site_label
 _atom_site_symmetry_multiplicity
 _atom_site_fract_x
 _atom_site_fract_y
 _atom_site_fract_z
 _atom_site_occupancy
  Ce  Ce0  1  0.86361297  0.25000000  0.72722593  1
  Ce  Ce1  1  0.13638703  0.75000000  0.27277407  1
  Pt  Pt2  1  0.59471018  0.25000000  0.18942037  1
  Pt  Pt3  1  0.40528982  0.75000000  0.81057963  1
