# generated using pymatgen
data_GdSi2
_symmetry_space_group_name_H-M   'P 1'
_cell_length_a   4.06805350
_cell_length_b   4.06805350
_cell_length_c   7.68881104
_cell_angle_alpha   105.33984825
_cell_angle_beta   105.33984825
_cell_angle_gamma   90.00000000
_symmetry_Int_Tables_number   1
_chemical_formula_structural   GdSi2
_chemical_formula_sum   'Gd2 Si4'
_cell_volume   118.00219654
_cell_formula_units_Z   2
loop_
 _symmetry_equiv_pos_site_id
 _symmetry_equiv_pos_as_xyz
  1  'x, y, z'
loop_
 _atom_site_type_symbol
 _atom_site_label
 _atom_site_symmetry_multiplicity
 _atom_site_fract_x
 _atom_site_fract_y
 _atom_site_fract_z
 _atom_site_occupancy
  Gd  Gd0  1  0.25000000  0.75000000  0.50000000  1
  Gd  Gd1  1  -0.00000000  0.00000000  0.00000000  1
  Si  Si2  1  0.66686762  0.16686762  0.33373523  1
  Si  Si3  1  0.58313238  0.58313238  0.16626477  1
  Si  Si4  1  0.83313238  0.33313238  0.66626477  1
  Si  Si5  1  0.41686762  0.41686762  0.83373523  1
