# generated using pymatgen
data_MgH12C4(S2O3)2
_symmetry_space_group_name_H-M   'P 1'
_cell_length_a   5.91265950
_cell_length_b   9.23623697
_cell_length_c   13.46445108
_cell_angle_alpha   103.02557240
_cell_angle_beta   90.00000000
_cell_angle_gamma   108.66773040
_symmetry_Int_Tables_number   1
_chemical_formula_structural   MgH12C4(S2O3)2
_chemical_formula_sum   'Mg2 H24 C8 S8 O12'
_cell_volume   676.61913553
_cell_formula_units_Z   2
loop_
 _symmetry_equiv_pos_site_id
 _symmetry_equiv_pos_as_xyz
  1  'x, y, z'
loop_
 _atom_site_type_symbol
 _atom_site_label
 _atom_site_symmetry_multiplicity
 _atom_site_fract_x
 _atom_site_fract_y
 _atom_site_fract_z
 _atom_site_occupancy
  Mg  Mg0  1  0.58937472  0.00000000  0.75000000  1
  Mg  Mg1  1  0.41062528  0.00000000  0.25000000  1
  H  H2  1  0.73552888  0.81507713  0.84209636  1
  H  H3  1  0.92045175  0.18492287  0.65790364  1
  H  H4  1  0.26447112  0.18492287  0.15790364  1
  H  H5  1  0.07954825  0.81507713  0.34209636  1
  H  H6  1  0.70624609  0.72989901  0.72329246  1
  H  H7  1  0.97634708  0.27010099  0.77670754  1
  H  H8  1  0.29375391  0.27010099  0.27670754  1
  H  H9  1  0.02365292  0.72989901  0.22329246  1
  H  H10  1  0.48921191  0.24053705  0.69284531  1
  H  H11  1  0.24867486  0.75946295  0.80715469  1
  H  H12  1  0.51078809  0.75946295  0.30715469  1
  H  H13  1  0.75132514  0.24053705  0.19284531  1
  H  H14  1  0.24353165  0.14426327  0.73023829  1
  H  H15  1  0.09926838  0.85573673  0.76976171  1
  H  H16  1  0.75646835  0.85573673  0.26976171  1
  H  H17  1  0.90073162  0.14426327  0.23023829  1
  H  H18  1  0.65810542  0.83704230  0.55804550  1
  H  H19  1  0.82106313  0.16295770  0.94195450  1
  H  H20  1  0.34189458  0.16295770  0.44195450  1
  H  H21  1  0.17893687  0.83704230  0.05804550  1
  H  H22  1  0.40209544  0.86335140  0.55373668  1
  H  H23  1  0.53874404  0.13664860  0.94626332  1
  H  H24  1  0.59790456  0.13664860  0.44626332  1
  H  H25  1  0.46125596  0.86335140  0.05373668  1
  C  C26  1  0.38384558  0.50752985  0.94486618  1
  C  C27  1  0.87631574  0.49247015  0.55513382  1
  C  C28  1  0.61615442  0.49247015  0.05513382  1
  C  C29  1  0.12368426  0.50752985  0.44486618  1
  C  C30  1  0.38688781  0.38927693  0.00061905  1
  C  C31  1  0.99761087  0.61072307  0.49938095  1
  C  C32  1  0.61311219  0.61072307  0.99938095  1
  C  C33  1  0.00238913  0.38927693  0.50061905  1
  S  S34  1  0.20694313  0.20964089  0.00154028  1
  S  S35  1  0.99730223  0.79035911  0.49845972  1
  S  S36  1  0.79305687  0.79035911  0.99845972  1
  S  S37  1  0.00269777  0.20964089  0.50154028  1
  S  S38  1  0.19749906  0.51887702  0.85731406  1
  S  S39  1  0.67862204  0.48112298  0.64268594  1
  S  S40  1  0.80250094  0.48112298  0.14268594  1
  S  S41  1  0.32137796  0.51887702  0.35731406  1
  O  O42  1  0.75540083  0.83553446  0.77230801  1
  O  O43  1  0.91986638  0.16446554  0.72769199  1
  O  O44  1  0.24459917  0.16446554  0.22769199  1
  O  O45  1  0.08013362  0.83553446  0.27230801  1
  O  O46  1  0.40962942  0.14756650  0.71961943  1
  O  O47  1  0.26206292  0.85243350  0.78038057  1
  O  O48  1  0.59037058  0.85243350  0.28038057  1
  O  O49  1  0.73793708  0.14756650  0.21961943  1
  O  O50  1  0.55617222  0.89574584  0.59398442  1
  O  O51  1  0.66042638  0.10425416  0.90601558  1
  O  O52  1  0.44382778  0.10425416  0.40601558  1
  O  O53  1  0.33957362  0.89574584  0.09398442  1
