# generated using pymatgen
data_Gd(SiAg)2
_symmetry_space_group_name_H-M   'P 1'
_cell_length_a   4.19529101
_cell_length_b   4.19741923
_cell_length_c   6.14388404
_cell_angle_alpha   109.97450176
_cell_angle_beta   109.96341786
_cell_angle_gamma   89.99999996
_symmetry_Int_Tables_number   1
_chemical_formula_structural   Gd(SiAg)2
_chemical_formula_sum   'Gd1 Si2 Ag2'
_cell_volume   94.73525637
_cell_formula_units_Z   1
loop_
 _symmetry_equiv_pos_site_id
 _symmetry_equiv_pos_as_xyz
  1  'x, y, z'
loop_
 _atom_site_type_symbol
 _atom_site_label
 _atom_site_symmetry_multiplicity
 _atom_site_fract_x
 _atom_site_fract_y
 _atom_site_fract_z
 _atom_site_occupancy
  Si  Si0  1  0.60715670  0.60713333  0.21431340  1
  Si  Si1  1  0.39284330  0.39286667  0.78568660  1
  Ag  Ag2  1  0.24989398  0.74992631  0.49978797  1
  Ag  Ag3  1  0.75010602  0.25007369  0.50021203  1
  Gd  Gd4  1  0.00000000  0.00000000  0.00000000  1
