# generated using pymatgen
data_EuSi
_symmetry_space_group_name_H-M   'P 1'
_cell_length_a   3.94981692
_cell_length_b   4.60652386
_cell_length_c   6.01305426
_cell_angle_alpha   112.52233790
_cell_angle_beta   90.00000000
_cell_angle_gamma   90.00000000
_symmetry_Int_Tables_number   1
_chemical_formula_structural   EuSi
_chemical_formula_sum   'Eu2 Si2'
_cell_volume   101.06262784
_cell_formula_units_Z   2
loop_
 _symmetry_equiv_pos_site_id
 _symmetry_equiv_pos_as_xyz
  1  'x, y, z'
loop_
 _atom_site_type_symbol
 _atom_site_label
 _atom_site_symmetry_multiplicity
 _atom_site_fract_x
 _atom_site_fract_y
 _atom_site_fract_z
 _atom_site_occupancy
  Si  Si0  1  0.25000000  0.56619687  0.13239375  1
  Si  Si1  1  0.75000000  0.43380313  0.86760625  1
  Eu  Eu2  1  0.25000000  0.85935743  0.71871485  1
  Eu  Eu3  1  0.75000000  0.14064257  0.28128515  1
