# generated using pymatgen
data_Th(MnGe)2
_symmetry_space_group_name_H-M   'P 1'
_cell_length_a   4.03392141
_cell_length_b   4.03392141
_cell_length_c   6.14400288
_cell_angle_alpha   109.16448515
_cell_angle_beta   109.16448517
_cell_angle_gamma   89.99999999
_symmetry_Int_Tables_number   1
_chemical_formula_structural   Th(MnGe)2
_chemical_formula_sum   'Th1 Mn2 Ge2'
_cell_volume   88.55079786
_cell_formula_units_Z   1
loop_
 _symmetry_equiv_pos_site_id
 _symmetry_equiv_pos_as_xyz
  1  'x, y, z'
loop_
 _atom_site_type_symbol
 _atom_site_label
 _atom_site_symmetry_multiplicity
 _atom_site_fract_x
 _atom_site_fract_y
 _atom_site_fract_z
 _atom_site_occupancy
  Mn  Mn0  1  0.25000000  0.75000000  0.50000000  1
  Mn  Mn1  1  0.75000000  0.25000000  0.50000000  1
  Ge  Ge2  1  0.62257232  0.62257232  0.24514464  1
  Ge  Ge3  1  0.37742768  0.37742768  0.75485536  1
  Th  Th4  1  0.00000000  0.00000000  0.00000000  1
