# generated using pymatgen
data_Yb5Ge4
_symmetry_space_group_name_H-M   'P 1'
_cell_length_a   7.49618779
_cell_length_b   7.86745552
_cell_length_c   15.51623575
_cell_angle_alpha   90.00000000
_cell_angle_beta   90.00000000
_cell_angle_gamma   90.00000000
_symmetry_Int_Tables_number   1
_chemical_formula_structural   Yb5Ge4
_chemical_formula_sum   'Yb20 Ge16'
_cell_volume   915.08434047
_cell_formula_units_Z   4
loop_
 _symmetry_equiv_pos_site_id
 _symmetry_equiv_pos_as_xyz
  1  'x, y, z'
loop_
 _atom_site_type_symbol
 _atom_site_label
 _atom_site_symmetry_multiplicity
 _atom_site_fract_x
 _atom_site_fract_y
 _atom_site_fract_z
 _atom_site_occupancy
  Ge  Ge0  1  0.85018779  0.52595057  0.46178323  1
  Ge  Ge1  1  0.35018779  0.97404943  0.03821677  1
  Ge  Ge2  1  0.64981221  0.02595057  0.53821677  1
  Ge  Ge3  1  0.14981221  0.47404943  0.96178323  1
  Ge  Ge4  1  0.14981221  0.47404943  0.53821677  1
  Ge  Ge5  1  0.64981221  0.02595057  0.96178323  1
  Ge  Ge6  1  0.35018779  0.97404943  0.46178323  1
  Ge  Ge7  1  0.85018779  0.52595057  0.03821677  1
  Ge  Ge8  1  0.97189177  0.89764324  0.25000000  1
  Ge  Ge9  1  0.47189177  0.60235676  0.25000000  1
  Ge  Ge10  1  0.52810823  0.39764324  0.75000000  1
  Ge  Ge11  1  0.02810823  0.10235676  0.75000000  1
  Ge  Ge12  1  0.23895985  0.37242423  0.25000000  1
  Ge  Ge13  1  0.73895985  0.12757577  0.25000000  1
  Ge  Ge14  1  0.26104015  0.87242423  0.75000000  1
  Ge  Ge15  1  0.76104015  0.62757577  0.75000000  1
  Yb  Yb16  1  0.32168827  0.17684164  0.87768228  1
  Yb  Yb17  1  0.82168827  0.32315836  0.62231772  1
  Yb  Yb18  1  0.17831173  0.67684164  0.12231772  1
  Yb  Yb19  1  0.67831173  0.82315836  0.37768228  1
  Yb  Yb20  1  0.32168827  0.17684164  0.62231772  1
  Yb  Yb21  1  0.82168827  0.32315836  0.87768228  1
  Yb  Yb22  1  0.17831173  0.67684164  0.37768228  1
  Yb  Yb23  1  0.67831173  0.82315836  0.12231772  1
  Yb  Yb24  1  0.97806413  0.82089887  0.59753063  1
  Yb  Yb25  1  0.47806413  0.67910113  0.90246937  1
  Yb  Yb26  1  0.52193587  0.32089887  0.40246937  1
  Yb  Yb27  1  0.02193587  0.17910113  0.09753063  1
  Yb  Yb28  1  0.02193587  0.17910113  0.40246937  1
  Yb  Yb29  1  0.52193587  0.32089887  0.09753063  1
  Yb  Yb30  1  0.47806413  0.67910113  0.59753063  1
  Yb  Yb31  1  0.97806413  0.82089887  0.90246937  1
  Yb  Yb32  1  0.35110859  0.00837426  0.25000000  1
  Yb  Yb33  1  0.85110859  0.49162574  0.25000000  1
  Yb  Yb34  1  0.14889141  0.50837426  0.75000000  1
  Yb  Yb35  1  0.64889141  0.99162574  0.75000000  1
