# generated using pymatgen
data_Ca(Ni2B)6
_symmetry_space_group_name_H-M   'P 1'
_cell_length_a   6.02047017
_cell_length_b   6.02047018
_cell_length_c   6.02047017
_cell_angle_alpha   104.35243018
_cell_angle_beta   104.35243015
_cell_angle_gamma   104.35243014
_symmetry_Int_Tables_number   1
_chemical_formula_structural   Ca(Ni2B)6
_chemical_formula_sum   'Ca1 Ni12 B6'
_cell_volume   193.36586347
_cell_formula_units_Z   1
loop_
 _symmetry_equiv_pos_site_id
 _symmetry_equiv_pos_as_xyz
  1  'x, y, z'
loop_
 _atom_site_type_symbol
 _atom_site_label
 _atom_site_symmetry_multiplicity
 _atom_site_fract_x
 _atom_site_fract_y
 _atom_site_fract_z
 _atom_site_occupancy
  B  B0  1  0.76454531  0.76454531  0.33481236  1
  B  B1  1  0.76454531  0.33481236  0.76454531  1
  B  B2  1  0.33481236  0.76454531  0.76454531  1
  B  B3  1  0.23545469  0.66518764  0.23545469  1
  B  B4  1  0.23545469  0.23545469  0.66518764  1
  B  B5  1  0.66518764  0.23545469  0.23545469  1
  Ca  Ca6  1  0.00000000  0.00000000  0.00000000  1
  Ni  Ni7  1  0.86938010  0.50000000  0.13061990  1
  Ni  Ni8  1  0.45636976  0.45636976  0.18662960  1
  Ni  Ni9  1  0.45636976  0.18662960  0.45636976  1
  Ni  Ni10  1  0.81337040  0.54363024  0.54363024  1
  Ni  Ni11  1  0.54363024  0.81337040  0.54363024  1
  Ni  Ni12  1  0.54363024  0.54363024  0.81337040  1
  Ni  Ni13  1  0.50000000  0.13061990  0.86938010  1
  Ni  Ni14  1  0.13061990  0.86938010  0.50000000  1
  Ni  Ni15  1  0.13061990  0.50000000  0.86938010  1
  Ni  Ni16  1  0.50000000  0.86938010  0.13061990  1
  Ni  Ni17  1  0.86938010  0.13061990  0.50000000  1
  Ni  Ni18  1  0.18662960  0.45636976  0.45636976  1
