# generated using pymatgen
data_UGaNi
_symmetry_space_group_name_H-M   'P 1'
_cell_length_a   6.58934012
_cell_length_b   6.58934012
_cell_length_c   4.08334881
_cell_angle_alpha   90.00000000
_cell_angle_beta   90.00000000
_cell_angle_gamma   119.99999999
_symmetry_Int_Tables_number   1
_chemical_formula_structural   UGaNi
_chemical_formula_sum   'U3 Ga3 Ni3'
_cell_volume   153.54333234
_cell_formula_units_Z   3
loop_
 _symmetry_equiv_pos_site_id
 _symmetry_equiv_pos_as_xyz
  1  'x, y, z'
loop_
 _atom_site_type_symbol
 _atom_site_label
 _atom_site_symmetry_multiplicity
 _atom_site_fract_x
 _atom_site_fract_y
 _atom_site_fract_z
 _atom_site_occupancy
  Ni  Ni0  1  0.33333333  0.66666667  0.00000000  1
  Ni  Ni1  1  0.66666667  0.33333333  0.00000000  1
  Ni  Ni2  1  0.00000000  0.00000000  0.50000000  1
  Ga  Ga3  1  0.23811492  0.00000000  0.00000000  1
  Ga  Ga4  1  0.76188508  0.76188508  0.00000000  1
  Ga  Ga5  1  0.00000000  0.23811492  0.00000000  1
  U  U6  1  0.57175930  0.00000000  0.50000000  1
  U  U7  1  0.42824070  0.42824070  0.50000000  1
  U  U8  1  0.00000000  0.57175930  0.50000000  1
