# generated using pymatgen
data_BaTiFe2(SiO5)2
_symmetry_space_group_name_H-M   'P 1'
_cell_length_a   5.35852401
_cell_length_b   6.94089651
_cell_length_c   11.44719864
_cell_angle_alpha   90.00000000
_cell_angle_beta   93.91114835
_cell_angle_gamma   90.00000000
_symmetry_Int_Tables_number   1
_chemical_formula_structural   BaTiFe2(SiO5)2
_chemical_formula_sum   'Ba2 Ti2 Fe4 Si4 O20'
_cell_volume   424.76363498
_cell_formula_units_Z   2
loop_
 _symmetry_equiv_pos_site_id
 _symmetry_equiv_pos_as_xyz
  1  'x, y, z'
loop_
 _atom_site_type_symbol
 _atom_site_label
 _atom_site_symmetry_multiplicity
 _atom_site_fract_x
 _atom_site_fract_y
 _atom_site_fract_z
 _atom_site_occupancy
  Ba  Ba0  1  0.77208996  0.25000000  0.56660001  1
  Ba  Ba1  1  0.22791004  0.75000000  0.43339999  1
  Ti  Ti2  1  0.77399028  0.75000000  0.65977164  1
  Ti  Ti3  1  0.22600972  0.25000000  0.34022836  1
  Fe  Fe4  1  0.00000000  0.50000000  0.00000000  1
  Fe  Fe5  1  0.00000000  -0.00000000  0.00000000  1
  Fe  Fe6  1  0.47208945  0.75000000  0.97998847  1
  Fe  Fe7  1  0.52791055  0.25000000  0.02001153  1
  Si  Si8  1  0.28762200  0.02010456  0.75101405  1
  Si  Si9  1  0.71237800  0.52010456  0.24898595  1
  Si  Si10  1  0.71237800  0.97989544  0.24898595  1
  Si  Si11  1  0.28762200  0.47989544  0.75101405  1
  O  O12  1  0.29818646  0.97207444  0.89381895  1
  O  O13  1  0.70181354  0.47207444  0.10618105  1
  O  O14  1  0.70181354  0.02792556  0.10618105  1
  O  O15  1  0.29818646  0.52792556  0.89381895  1
  O  O16  1  0.80590951  0.75000000  0.93287433  1
  O  O17  1  0.19409049  0.25000000  0.06712567  1
  O  O18  1  0.03562168  0.94372421  0.68062525  1
  O  O19  1  0.96437832  0.44372421  0.31937475  1
  O  O20  1  0.96437832  0.05627579  0.31937475  1
  O  O21  1  0.03562168  0.55627579  0.68062525  1
  O  O22  1  0.53405837  0.95108521  0.68954772  1
  O  O23  1  0.46594163  0.45108521  0.31045228  1
  O  O24  1  0.46594163  0.04891479  0.31045228  1
  O  O25  1  0.53405837  0.54891479  0.68954772  1
  O  O26  1  0.27387526  0.25000000  0.74199388  1
  O  O27  1  0.72612474  0.75000000  0.25800612  1
  O  O28  1  0.80630794  0.25000000  0.92305424  1
  O  O29  1  0.19369206  0.75000000  0.07694576  1
  O  O30  1  0.73843301  0.75000000  0.50857369  1
  O  O31  1  0.26156699  0.25000000  0.49142631  1
