# generated using pymatgen
data_TbGeRu
_symmetry_space_group_name_H-M   'P 1'
_cell_length_a   4.45582132
_cell_length_b   7.08296025
_cell_length_c   7.24994254
_cell_angle_alpha   90.00000000
_cell_angle_beta   90.00000000
_cell_angle_gamma   90.00000000
_symmetry_Int_Tables_number   1
_chemical_formula_structural   TbGeRu
_chemical_formula_sum   'Tb4 Ge4 Ru4'
_cell_volume   228.81112490
_cell_formula_units_Z   4
loop_
 _symmetry_equiv_pos_site_id
 _symmetry_equiv_pos_as_xyz
  1  'x, y, z'
loop_
 _atom_site_type_symbol
 _atom_site_label
 _atom_site_symmetry_multiplicity
 _atom_site_fract_x
 _atom_site_fract_y
 _atom_site_fract_z
 _atom_site_occupancy
  Ge  Ge0  1  0.25000000  0.29857144  0.89354611  1
  Ge  Ge1  1  0.75000000  0.70142856  0.10645389  1
  Ge  Ge2  1  0.25000000  0.79857144  0.60645389  1
  Ge  Ge3  1  0.75000000  0.20142856  0.39354611  1
  Ru  Ru4  1  0.75000000  0.84549912  0.43574043  1
  Ru  Ru5  1  0.25000000  0.15450088  0.56425957  1
  Ru  Ru6  1  0.75000000  0.34549912  0.06425957  1
  Ru  Ru7  1  0.25000000  0.65450088  0.93574043  1
  Tb  Tb8  1  0.25000000  0.48442934  0.30871030  1
  Tb  Tb9  1  0.75000000  0.51557066  0.69128970  1
  Tb  Tb10  1  0.25000000  0.98442934  0.19128970  1
  Tb  Tb11  1  0.75000000  0.01557066  0.80871030  1
