# generated using pymatgen
data_U2Fe2Sn
_symmetry_space_group_name_H-M   'P 1'
_cell_length_a   3.35550244
_cell_length_b   7.27432692
_cell_length_c   7.27432692
_cell_angle_alpha   90.00000000
_cell_angle_beta   90.00000000
_cell_angle_gamma   90.00000000
_symmetry_Int_Tables_number   1
_chemical_formula_structural   U2Fe2Sn
_chemical_formula_sum   'U4 Fe4 Sn2'
_cell_volume   177.55920386
_cell_formula_units_Z   2
loop_
 _symmetry_equiv_pos_site_id
 _symmetry_equiv_pos_as_xyz
  1  'x, y, z'
loop_
 _atom_site_type_symbol
 _atom_site_label
 _atom_site_symmetry_multiplicity
 _atom_site_fract_x
 _atom_site_fract_y
 _atom_site_fract_z
 _atom_site_occupancy
  Fe  Fe0  1  0.00000000  0.13509125  0.36490875  1
  Fe  Fe1  1  0.00000000  0.36490875  0.86490875  1
  Fe  Fe2  1  0.00000000  0.63509125  0.13509125  1
  Fe  Fe3  1  0.00000000  0.86490875  0.63509125  1
  Sn  Sn4  1  0.00000000  0.00000000  0.00000000  1
  Sn  Sn5  1  0.00000000  0.50000000  0.50000000  1
  U  U6  1  0.50000000  0.83485909  0.33485909  1
  U  U7  1  0.50000000  0.66514091  0.83485909  1
  U  U8  1  0.50000000  0.33485909  0.16514091  1
  U  U9  1  0.50000000  0.16514091  0.66514091  1
