# generated using pymatgen
data_NaIn2Au
_symmetry_space_group_name_H-M   'P 1'
_cell_length_a   4.59912013
_cell_length_b   5.71953893
_cell_length_c   8.04896430
_cell_angle_alpha   90.00000000
_cell_angle_beta   90.00000000
_cell_angle_gamma   113.70660931
_symmetry_Int_Tables_number   1
_chemical_formula_structural   NaIn2Au
_chemical_formula_sum   'Na2 In4 Au2'
_cell_volume   193.86046630
_cell_formula_units_Z   2
loop_
 _symmetry_equiv_pos_site_id
 _symmetry_equiv_pos_as_xyz
  1  'x, y, z'
loop_
 _atom_site_type_symbol
 _atom_site_label
 _atom_site_symmetry_multiplicity
 _atom_site_fract_x
 _atom_site_fract_y
 _atom_site_fract_z
 _atom_site_occupancy
  Na  Na0  1  0.57025682  0.14051364  0.25000000  1
  Na  Na1  1  0.42974318  0.85948636  0.75000000  1
  In  In2  1  0.14027527  0.28055053  0.94726948  1
  In  In3  1  0.85972473  0.71944947  0.05273052  1
  In  In4  1  0.85972473  0.71944947  0.44726948  1
  In  In5  1  0.14027527  0.28055053  0.55273052  1
  Au  Au6  1  0.28429160  0.56858319  0.25000000  1
  Au  Au7  1  0.71570840  0.43141681  0.75000000  1
