# generated using pymatgen
data_CeCoGe
_symmetry_space_group_name_H-M   'P 1'
_cell_length_a   4.19104547
_cell_length_b   4.19104547
_cell_length_c   6.56483984
_cell_angle_alpha   90.00000000
_cell_angle_beta   90.00000000
_cell_angle_gamma   90.00000000
_symmetry_Int_Tables_number   1
_chemical_formula_structural   CeCoGe
_chemical_formula_sum   'Ce2 Co2 Ge2'
_cell_volume   115.31050671
_cell_formula_units_Z   2
loop_
 _symmetry_equiv_pos_site_id
 _symmetry_equiv_pos_as_xyz
  1  'x, y, z'
loop_
 _atom_site_type_symbol
 _atom_site_label
 _atom_site_symmetry_multiplicity
 _atom_site_fract_x
 _atom_site_fract_y
 _atom_site_fract_z
 _atom_site_occupancy
  Co  Co0  1  0.75000000  0.25000000  0.00000000  1
  Co  Co1  1  0.25000000  0.75000000  0.00000000  1
  Ge  Ge2  1  0.25000000  0.25000000  0.80192583  1
  Ge  Ge3  1  0.75000000  0.75000000  0.19807417  1
  Ce  Ce4  1  0.75000000  0.75000000  0.69289932  1
  Ce  Ce5  1  0.25000000  0.25000000  0.30710068  1
