# generated using pymatgen
data_DyGeIr
_symmetry_space_group_name_H-M   'P 1'
_cell_length_a   4.33114005
_cell_length_b   6.90703207
_cell_length_c   7.61652863
_cell_angle_alpha   90.00000000
_cell_angle_beta   90.00000000
_cell_angle_gamma   90.00000000
_symmetry_Int_Tables_number   1
_chemical_formula_structural   DyGeIr
_chemical_formula_sum   'Dy4 Ge4 Ir4'
_cell_volume   227.85091582
_cell_formula_units_Z   4
loop_
 _symmetry_equiv_pos_site_id
 _symmetry_equiv_pos_as_xyz
  1  'x, y, z'
loop_
 _atom_site_type_symbol
 _atom_site_label
 _atom_site_symmetry_multiplicity
 _atom_site_fract_x
 _atom_site_fract_y
 _atom_site_fract_z
 _atom_site_occupancy
  Ge  Ge0  1  0.25000000  0.79218824  0.10921520  1
  Ge  Ge1  1  0.25000000  0.29218824  0.39078480  1
  Ge  Ge2  1  0.75000000  0.20781176  0.89078480  1
  Ge  Ge3  1  0.75000000  0.70781176  0.60921520  1
  Dy  Dy4  1  0.75000000  0.49705376  0.19230383  1
  Dy  Dy5  1  0.25000000  1.00294624  0.69230383  1
  Dy  Dy6  1  0.75000000  -0.00294624  0.30769617  1
  Dy  Dy7  1  0.25000000  0.50294624  0.80769617  1
  Ir  Ir8  1  0.25000000  0.66116343  0.43351672  1
  Ir  Ir9  1  0.25000000  0.16116343  0.06648328  1
  Ir  Ir10  1  0.75000000  0.83883657  0.93351672  1
  Ir  Ir11  1  0.75000000  0.33883657  0.56648328  1
