# generated using pymatgen
data_HgWO4
_symmetry_space_group_name_H-M   'P 1'
_cell_length_a   6.82137628
_cell_length_b   7.45255733
_cell_length_c   12.61914873
_cell_angle_alpha   90.00000000
_cell_angle_beta   91.02239244
_cell_angle_gamma   90.00000000
_symmetry_Int_Tables_number   1
_chemical_formula_structural   HgWO4
_chemical_formula_sum   'Hg8 W8 O32'
_cell_volume   641.41372027
_cell_formula_units_Z   8
loop_
 _symmetry_equiv_pos_site_id
 _symmetry_equiv_pos_as_xyz
  1  'x, y, z'
loop_
 _atom_site_type_symbol
 _atom_site_label
 _atom_site_symmetry_multiplicity
 _atom_site_fract_x
 _atom_site_fract_y
 _atom_site_fract_z
 _atom_site_occupancy
  Hg  Hg0  1  0.64562786  0.80535921  0.65756208  1
  Hg  Hg1  1  0.14562786  0.69464079  0.15756208  1
  Hg  Hg2  1  0.35437214  0.19464079  0.34243792  1
  Hg  Hg3  1  0.85437214  0.30535921  0.84243792  1
  Hg  Hg4  1  0.12639207  0.55603393  0.63528447  1
  Hg  Hg5  1  0.62639207  0.94396607  0.13528447  1
  Hg  Hg6  1  0.87360793  0.44396607  0.36471553  1
  Hg  Hg7  1  0.37360793  0.05603393  0.86471553  1
  W  W8  1  0.59811522  0.33136024  0.58452716  1
  W  W9  1  0.09811522  0.16863976  0.08452716  1
  W  W10  1  0.40188478  0.66863976  0.41547284  1
  W  W11  1  0.90188478  0.83136024  0.91547284  1
  W  W12  1  0.15610466  0.04475335  0.59192580  1
  W  W13  1  0.65610466  0.45524665  0.09192580  1
  W  W14  1  0.84389534  0.95524665  0.40807420  1
  W  W15  1  0.34389534  0.54475335  0.90807420  1
  O  O16  1  0.82727405  0.46510655  0.58366622  1
  O  O17  1  0.32727405  0.03489345  0.08366622  1
  O  O18  1  0.17272595  0.53489345  0.41633378  1
  O  O19  1  0.67272595  0.96510655  0.91633378  1
  O  O20  1  0.32907485  0.93327424  0.68894836  1
  O  O21  1  0.82907485  0.56672576  0.18894836  1
  O  O22  1  0.67092515  0.06672576  0.31105164  1
  O  O23  1  0.17092515  0.43327424  0.81105164  1
  O  O24  1  0.96506988  0.85677551  0.55109458  1
  O  O25  1  0.46506988  0.64322449  0.05109458  1
  O  O26  1  0.03493012  0.14322449  0.44890542  1
  O  O27  1  0.53493012  0.35677551  0.94890542  1
  O  O28  1  0.59766801  0.28133582  0.72738291  1
  O  O29  1  0.09766801  0.21866418  0.22738291  1
  O  O30  1  0.40233199  0.71866418  0.27261709  1
  O  O31  1  0.90233199  0.78133582  0.77261709  1
  O  O32  1  0.32151558  0.25066050  0.56907812  1
  O  O33  1  0.82151558  0.24933950  0.06907812  1
  O  O34  1  0.67848442  0.74933950  0.43092188  1
  O  O35  1  0.17848442  0.75066050  0.93092188  1
  O  O36  1  0.99906200  0.14748218  0.68322576  1
  O  O37  1  0.49906200  0.35251782  0.18322576  1
  O  O38  1  0.00093800  0.85251782  0.31677424  1
  O  O39  1  0.50093800  0.64748218  0.81677424  1
  O  O40  1  0.67585746  0.11333061  0.52728618  1
  O  O41  1  0.17585746  0.38666939  0.02728618  1
  O  O42  1  0.32414254  0.88666939  0.47271382  1
  O  O43  1  0.82414254  0.61333061  0.97271382  1
  O  O44  1  0.44354161  0.58191892  0.58375474  1
  O  O45  1  0.94354161  0.91808108  0.08375474  1
  O  O46  1  0.55645839  0.41808108  0.41624526  1
  O  O47  1  0.05645839  0.08191892  0.91624526  1
