# generated using pymatgen
data_LaIn2Pd
_symmetry_space_group_name_H-M   'P 1'
_cell_length_a   4.70555070
_cell_length_b   5.92346815
_cell_length_c   7.61864249
_cell_angle_alpha   90.00000000
_cell_angle_beta   90.00000000
_cell_angle_gamma   113.40297712
_symmetry_Int_Tables_number   1
_chemical_formula_structural   LaIn2Pd
_chemical_formula_sum   'La2 In4 Pd2'
_cell_volume   194.88612719
_cell_formula_units_Z   2
loop_
 _symmetry_equiv_pos_site_id
 _symmetry_equiv_pos_as_xyz
  1  'x, y, z'
loop_
 _atom_site_type_symbol
 _atom_site_label
 _atom_site_symmetry_multiplicity
 _atom_site_fract_x
 _atom_site_fract_y
 _atom_site_fract_z
 _atom_site_occupancy
  Pd  Pd0  1  0.70733160  0.41466321  0.75000000  1
  Pd  Pd1  1  0.29266840  0.58533679  0.25000000  1
  In  In2  1  0.13910075  0.27820150  0.55086609  1
  In  In3  1  0.86089925  0.72179850  0.44913391  1
  In  In4  1  0.13910075  0.27820150  0.94913391  1
  In  In5  1  0.86089925  0.72179850  0.05086609  1
  La  La6  1  0.57552147  0.15104295  0.25000000  1
  La  La7  1  0.42447853  0.84895705  0.75000000  1
