# generated using pymatgen
data_InSbS3
_symmetry_space_group_name_H-M   'P 1'
_cell_length_a   3.89272731
_cell_length_b   9.54115737
_cell_length_c   13.50801330
_cell_angle_alpha   90.00000000
_cell_angle_beta   90.00000000
_cell_angle_gamma   90.00000000
_symmetry_Int_Tables_number   1
_chemical_formula_structural   InSbS3
_chemical_formula_sum   'In4 Sb4 S12'
_cell_volume   501.70279512
_cell_formula_units_Z   4
loop_
 _symmetry_equiv_pos_site_id
 _symmetry_equiv_pos_as_xyz
  1  'x, y, z'
loop_
 _atom_site_type_symbol
 _atom_site_label
 _atom_site_symmetry_multiplicity
 _atom_site_fract_x
 _atom_site_fract_y
 _atom_site_fract_z
 _atom_site_occupancy
  S  S0  1  0.25000000  0.31297355  0.20081266  1
  S  S1  1  0.75000000  0.68702645  0.79918734  1
  S  S2  1  0.25000000  0.81297355  0.29918734  1
  S  S3  1  0.75000000  0.18702645  0.70081266  1
  S  S4  1  0.25000000  0.65924857  0.02020324  1
  S  S5  1  0.75000000  0.34075143  0.97979676  1
  S  S6  1  0.25000000  0.15924857  0.47979676  1
  S  S7  1  0.75000000  0.84075143  0.52020324  1
  S  S8  1  0.75000000  0.49963235  0.38391366  1
  S  S9  1  0.25000000  0.50036765  0.61608634  1
  S  S10  1  0.75000000  0.99963235  0.11608634  1
  S  S11  1  0.25000000  0.00036765  0.88391366  1
  In  In12  1  0.75000000  0.35160333  0.54424395  1
  In  In13  1  0.25000000  0.64839667  0.45575605  1
  In  In14  1  0.75000000  0.85160333  0.95575605  1
  In  In15  1  0.25000000  0.14839667  0.04424395  1
  Sb  Sb16  1  0.75000000  0.97266558  0.35826603  1
  Sb  Sb17  1  0.25000000  0.02733442  0.64173397  1
  Sb  Sb18  1  0.75000000  0.47266558  0.14173397  1
  Sb  Sb19  1  0.25000000  0.52733442  0.85826603  1
