# generated using pymatgen
data_H11CSO8F3
_symmetry_space_group_name_H-M   'P 1'
_cell_length_a   8.12045656
_cell_length_b   8.12115756
_cell_length_c   8.47665841
_cell_angle_alpha   102.79098684
_cell_angle_beta   93.99037435
_cell_angle_gamma   112.29323836
_symmetry_Int_Tables_number   1
_chemical_formula_structural   H11CSO8F3
_chemical_formula_sum   'H22 C2 S2 O16 F6'
_cell_volume   497.03542172
_cell_formula_units_Z   2
loop_
 _symmetry_equiv_pos_site_id
 _symmetry_equiv_pos_as_xyz
  1  'x, y, z'
loop_
 _atom_site_type_symbol
 _atom_site_label
 _atom_site_symmetry_multiplicity
 _atom_site_fract_x
 _atom_site_fract_y
 _atom_site_fract_z
 _atom_site_occupancy
  H  H0  1  0.10871584  0.75450322  0.68410392  1
  H  H1  1  0.89128416  0.24549678  0.31589608  1
  H  H2  1  0.13230829  0.75643315  0.88459814  1
  H  H3  1  0.86769171  0.24356685  0.11540186  1
  H  H4  1  0.94049923  0.59349505  0.74959026  1
  H  H5  1  0.05950077  0.40650495  0.25040974  1
  H  H6  1  0.24008010  0.71906473  0.09761347  1
  H  H7  1  0.75991990  0.28093527  0.90238653  1
  H  H8  1  0.32532039  0.92814485  0.09547004  1
  H  H9  1  0.67467961  0.07185515  0.90452996  1
  H  H10  1  0.32689491  0.57330377  0.27598353  1
  H  H11  1  0.67310509  0.42669623  0.72401647  1
  H  H12  1  0.22317646  0.67800426  0.38020762  1
  H  H13  1  0.77682354  0.32199574  0.61979238  1
  H  H14  1  0.36959161  0.85262491  0.63882565  1
  H  H15  1  0.63040839  0.14737509  0.36117435  1
  H  H16  1  0.26329063  0.95599338  0.56435526  1
  H  H17  1  0.73670937  0.04400662  0.43564474  1
  H  H18  1  0.62950274  0.84573681  0.66143438  1
  H  H19  1  0.37049726  0.15426319  0.33856562  1
  H  H20  1  0.52274671  0.74787726  0.78384357  1
  H  H21  1  0.47725329  0.25212274  0.21615643  1
  C  C22  1  0.81918676  0.74809705  0.18918209  1
  C  C23  1  0.18081324  0.25190295  0.81081791  1
  S  S24  1  0.70489002  0.65444838  0.35356634  1
  S  S25  1  0.29510998  0.34555162  0.64643366  1
  O  O26  1  0.81750740  0.57501409  0.41822707  1
  O  O27  1  0.18249260  0.42498591  0.58177293  1
  O  O28  1  0.52345127  0.52055112  0.26701430  1
  O  O29  1  0.47654873  0.47944888  0.73298570  1
  O  O30  1  0.70337074  0.82095274  0.46496648  1
  O  O31  1  0.29662926  0.17904726  0.53503352  1
  O  O32  1  0.03844046  0.72746023  0.77790092  1
  O  O33  1  0.96155954  0.27253977  0.22209908  1
  O  O34  1  0.27058008  0.79988199  0.02277118  1
  O  O35  1  0.72941992  0.20011801  0.97722882  1
  O  O36  1  0.21527199  0.59600166  0.27029543  1
  O  O37  1  0.78472801  0.40399834  0.72970457  1
  O  O38  1  0.25314408  0.83293284  0.57244086  1
  O  O39  1  0.74685592  0.16706716  0.42755914  1
  O  O40  1  0.56017347  0.86361212  0.75032230  1
  O  O41  1  0.43982653  0.13638788  0.24967770  1
  F  F42  1  0.72631479  0.82764809  0.11697898  1
  F  F43  1  0.27368521  0.17235191  0.88302102  1
  F  F44  1  0.98826836  0.87694960  0.25421434  1
  F  F45  1  0.01173164  0.12305040  0.74578566  1
  F  F46  1  0.83110327  0.61143712  0.07207506  1
  F  F47  1  0.16889673  0.38856288  0.92792494  1
