# generated using pymatgen
data_CeMgGa
_symmetry_space_group_name_H-M   'P 1'
_cell_length_a   7.43518298
_cell_length_b   7.43518299
_cell_length_c   4.52852676
_cell_angle_alpha   90.00000000
_cell_angle_beta   90.00000000
_cell_angle_gamma   119.99999997
_symmetry_Int_Tables_number   1
_chemical_formula_structural   CeMgGa
_chemical_formula_sum   'Ce3 Mg3 Ga3'
_cell_volume   216.80579816
_cell_formula_units_Z   3
loop_
 _symmetry_equiv_pos_site_id
 _symmetry_equiv_pos_as_xyz
  1  'x, y, z'
loop_
 _atom_site_type_symbol
 _atom_site_label
 _atom_site_symmetry_multiplicity
 _atom_site_fract_x
 _atom_site_fract_y
 _atom_site_fract_z
 _atom_site_occupancy
  Mg  Mg0  1  0.00000000  0.75762885  0.50000000  1
  Mg  Mg1  1  0.24237115  0.24237115  0.50000000  1
  Mg  Mg2  1  0.75762885  0.00000000  0.50000000  1
  Ga  Ga3  1  0.33333333  0.66666667  0.50000000  1
  Ga  Ga4  1  0.66666667  0.33333333  0.50000000  1
  Ga  Ga5  1  0.00000000  0.00000000  0.00000000  1
  Ce  Ce6  1  0.00000000  0.42213087  0.00000000  1
  Ce  Ce7  1  0.57786913  0.57786913  0.00000000  1
  Ce  Ce8  1  0.42213087  0.00000000  0.00000000  1
