# generated using pymatgen
data_SmInIr
_symmetry_space_group_name_H-M   'P 1'
_cell_length_a   7.58214124
_cell_length_b   7.58214124
_cell_length_c   4.04890011
_cell_angle_alpha   90.00000000
_cell_angle_beta   90.00000000
_cell_angle_gamma   120.00000000
_symmetry_Int_Tables_number   1
_chemical_formula_structural   SmInIr
_chemical_formula_sum   'Sm3 In3 Ir3'
_cell_volume   201.58185373
_cell_formula_units_Z   3
loop_
 _symmetry_equiv_pos_site_id
 _symmetry_equiv_pos_as_xyz
  1  'x, y, z'
loop_
 _atom_site_type_symbol
 _atom_site_label
 _atom_site_symmetry_multiplicity
 _atom_site_fract_x
 _atom_site_fract_y
 _atom_site_fract_z
 _atom_site_occupancy
  In  In0  1  0.00000000  0.74639909  0.50000000  1
  In  In1  1  0.25360091  0.25360091  0.50000000  1
  In  In2  1  0.74639909  0.00000000  0.50000000  1
  Sm  Sm3  1  0.59191473  0.59191473  0.00000000  1
  Sm  Sm4  1  0.40808527  0.00000000  0.00000000  1
  Sm  Sm5  1  0.00000000  0.40808527  0.00000000  1
  Ir  Ir6  1  0.00000000  0.00000000  0.00000000  1
  Ir  Ir7  1  0.66666667  0.33333333  0.50000000  1
  Ir  Ir8  1  0.33333333  0.66666667  0.50000000  1
