# generated using pymatgen
data_LiH4CSNO2
_symmetry_space_group_name_H-M   'P 1'
_cell_length_a   5.88895733
_cell_length_b   8.38154514
_cell_length_c   9.90513576
_cell_angle_alpha   90.00000000
_cell_angle_beta   90.00000000
_cell_angle_gamma   90.00000000
_symmetry_Int_Tables_number   1
_chemical_formula_structural   LiH4CSNO2
_chemical_formula_sum   'Li4 H16 C4 S4 N4 O8'
_cell_volume   488.90325445
_cell_formula_units_Z   4
loop_
 _symmetry_equiv_pos_site_id
 _symmetry_equiv_pos_as_xyz
  1  'x, y, z'
loop_
 _atom_site_type_symbol
 _atom_site_label
 _atom_site_symmetry_multiplicity
 _atom_site_fract_x
 _atom_site_fract_y
 _atom_site_fract_z
 _atom_site_occupancy
  Li  Li0  1  0.61506306  0.25000000  0.21314264  1
  Li  Li1  1  0.11506306  0.25000000  0.28685736  1
  Li  Li2  1  0.38493694  0.75000000  0.78685736  1
  Li  Li3  1  0.88493694  0.75000000  0.71314264  1
  H  H4  1  0.18712912  0.57144491  0.59113559  1
  H  H5  1  0.68712912  0.92855509  0.90886441  1
  H  H6  1  0.81287088  0.07144491  0.40886441  1
  H  H7  1  0.31287088  0.42855509  0.09113559  1
  H  H8  1  0.81287088  0.42855509  0.40886441  1
  H  H9  1  0.31287088  0.07144491  0.09113559  1
  H  H10  1  0.18712912  0.92855509  0.59113559  1
  H  H11  1  0.68712912  0.57144491  0.90886441  1
  H  H12  1  0.15291398  0.48309025  0.73061270  1
  H  H13  1  0.65291398  0.01690975  0.76938730  1
  H  H14  1  0.84708602  0.98309025  0.26938730  1
  H  H15  1  0.34708602  0.51690975  0.23061270  1
  H  H16  1  0.84708602  0.51690975  0.26938730  1
  H  H17  1  0.34708602  0.98309025  0.23061270  1
  H  H18  1  0.15291398  0.01690975  0.73061270  1
  H  H19  1  0.65291398  0.48309025  0.76938730  1
  C  C20  1  0.95919996  0.25000000  0.96800549  1
  C  C21  1  0.45919996  0.25000000  0.53199451  1
  C  C22  1  0.04080004  0.75000000  0.03199451  1
  C  C23  1  0.54080004  0.75000000  0.46800549  1
  S  S24  1  0.18695236  0.25000000  0.87214711  1
  S  S25  1  0.68695236  0.25000000  0.62785289  1
  S  S26  1  0.81304764  0.75000000  0.12785289  1
  S  S27  1  0.31304764  0.75000000  0.37214711  1
  N  N28  1  0.79943151  0.25000000  0.04023036  1
  N  N29  1  0.29943151  0.25000000  0.45976964  1
  N  N30  1  0.20056849  0.75000000  0.95976964  1
  N  N31  1  0.70056849  0.75000000  0.54023036  1
  O  O32  1  0.15836683  0.58886596  0.68728749  1
  O  O33  1  0.65836683  0.91113404  0.81271251  1
  O  O34  1  0.84163317  0.08886596  0.31271251  1
  O  O35  1  0.34163317  0.41113404  0.18728749  1
  O  O36  1  0.84163317  0.41113404  0.31271251  1
  O  O37  1  0.34163317  0.08886596  0.18728749  1
  O  O38  1  0.15836683  0.91113404  0.68728749  1
  O  O39  1  0.65836683  0.58886596  0.81271251  1
