# generated using pymatgen
data_TbSnPd
_symmetry_space_group_name_H-M   'P 1'
_cell_length_a   4.66105401
_cell_length_b   7.26300421
_cell_length_c   7.99791871
_cell_angle_alpha   90.00000000
_cell_angle_beta   90.00000000
_cell_angle_gamma   90.00000000
_symmetry_Int_Tables_number   1
_chemical_formula_structural   TbSnPd
_chemical_formula_sum   'Tb4 Sn4 Pd4'
_cell_volume   270.75558074
_cell_formula_units_Z   4
loop_
 _symmetry_equiv_pos_site_id
 _symmetry_equiv_pos_as_xyz
  1  'x, y, z'
loop_
 _atom_site_type_symbol
 _atom_site_label
 _atom_site_symmetry_multiplicity
 _atom_site_fract_x
 _atom_site_fract_y
 _atom_site_fract_z
 _atom_site_occupancy
  Pd  Pd0  1  0.75000000  0.79686071  0.41745374  1
  Pd  Pd1  1  0.25000000  0.20313929  0.58254626  1
  Pd  Pd2  1  0.75000000  0.29686071  0.08254626  1
  Pd  Pd3  1  0.25000000  0.70313929  0.91745374  1
  Sn  Sn4  1  0.75000000  0.19654779  0.41119574  1
  Sn  Sn5  1  0.25000000  0.80345221  0.58880426  1
  Sn  Sn6  1  0.75000000  0.69654779  0.08880426  1
  Sn  Sn7  1  0.25000000  0.30345221  0.91119574  1
  Tb  Tb8  1  0.75000000  0.01024926  0.79194481  1
  Tb  Tb9  1  0.25000000  0.98975074  0.20805519  1
  Tb  Tb10  1  0.75000000  0.51024926  0.70805519  1
  Tb  Tb11  1  0.25000000  0.48975074  0.29194481  1
