# generated using pymatgen
data_EuAl9Co2
_symmetry_space_group_name_H-M   'P 1'
_cell_length_a   7.89510263
_cell_length_b   7.89510262
_cell_length_c   3.90081971
_cell_angle_alpha   90.00000000
_cell_angle_beta   90.00000000
_cell_angle_gamma   119.99999998
_symmetry_Int_Tables_number   1
_chemical_formula_structural   EuAl9Co2
_chemical_formula_sum   'Eu1 Al9 Co2'
_cell_volume   210.57270184
_cell_formula_units_Z   1
loop_
 _symmetry_equiv_pos_site_id
 _symmetry_equiv_pos_as_xyz
  1  'x, y, z'
loop_
 _atom_site_type_symbol
 _atom_site_label
 _atom_site_symmetry_multiplicity
 _atom_site_fract_x
 _atom_site_fract_y
 _atom_site_fract_z
 _atom_site_occupancy
  Al  Al0  1  0.78684355  0.57368711  0.50000000  1
  Al  Al1  1  0.21315645  0.78684355  0.50000000  1
  Al  Al2  1  0.57368711  0.78684355  0.50000000  1
  Al  Al3  1  0.50000000  0.00000000  0.00000000  1
  Al  Al4  1  0.50000000  0.50000000  0.00000000  1
  Al  Al5  1  0.00000000  0.50000000  0.00000000  1
  Al  Al6  1  0.21315645  0.42631289  0.50000000  1
  Al  Al7  1  0.78684355  0.21315645  0.50000000  1
  Al  Al8  1  0.42631289  0.21315645  0.50000000  1
  Co  Co9  1  0.66666667  0.33333333  0.00000000  1
  Co  Co10  1  0.33333333  0.66666667  0.00000000  1
  Eu  Eu11  1  0.00000000  0.00000000  0.00000000  1
