# generated using pymatgen
data_CsCoPO4
_symmetry_space_group_name_H-M   'P 1'
_cell_length_a   5.56354229
_cell_length_b   9.51591174
_cell_length_c   18.72744154
_cell_angle_alpha   90.37260269
_cell_angle_beta   90.00000000
_cell_angle_gamma   90.00000000
_symmetry_Int_Tables_number   1
_chemical_formula_structural   CsCoPO4
_chemical_formula_sum   'Cs8 Co8 P8 O32'
_cell_volume   991.45056686
_cell_formula_units_Z   8
loop_
 _symmetry_equiv_pos_site_id
 _symmetry_equiv_pos_as_xyz
  1  'x, y, z'
loop_
 _atom_site_type_symbol
 _atom_site_label
 _atom_site_symmetry_multiplicity
 _atom_site_fract_x
 _atom_site_fract_y
 _atom_site_fract_z
 _atom_site_occupancy
  Cs  Cs0  1  0.25704548  0.20662713  0.50399828  1
  Cs  Cs1  1  0.75704548  0.79337287  0.99600172  1
  Cs  Cs2  1  0.74295452  0.79337287  0.49600172  1
  Cs  Cs3  1  0.24295452  0.20662713  0.00399828  1
  Cs  Cs4  1  0.76707434  0.69014086  0.74959297  1
  Cs  Cs5  1  0.26707434  0.30985914  0.75040703  1
  Cs  Cs6  1  0.23292566  0.30985914  0.25040703  1
  Cs  Cs7  1  0.73292566  0.69014086  0.24959297  1
  Co  Co8  1  0.24294085  0.58380059  0.58799497  1
  Co  Co9  1  0.74294085  0.41619941  0.91200503  1
  Co  Co10  1  0.75705915  0.41619941  0.41200503  1
  Co  Co11  1  0.25705915  0.58380059  0.08799497  1
  Co  Co12  1  0.77518256  0.08909059  0.66744916  1
  Co  Co13  1  0.27518256  0.91090941  0.83255084  1
  Co  Co14  1  0.22481744  0.91090941  0.33255084  1
  Co  Co15  1  0.72481744  0.08909059  0.16744916  1
  P  P16  1  0.74527076  0.41728370  0.59661679  1
  P  P17  1  0.24527076  0.58271630  0.90338321  1
  P  P18  1  0.25472924  0.58271630  0.40338321  1
  P  P19  1  0.75472924  0.41728370  0.09661679  1
  P  P20  1  0.77304304  0.09352710  0.84577034  1
  P  P21  1  0.27304304  0.90647290  0.65422966  1
  P  P22  1  0.22695696  0.90647290  0.15422966  1
  P  P23  1  0.72695696  0.09352710  0.34577034  1
  O  O24  1  0.24999747  0.56089874  0.48444119  1
  O  O25  1  0.74999747  0.43910126  0.01555881  1
  O  O26  1  0.75000253  0.43910126  0.51555881  1
  O  O27  1  0.25000253  0.56089874  0.98444119  1
  O  O28  1  0.29300284  0.74122361  0.38773539  1
  O  O29  1  0.79300284  0.25877639  0.11226461  1
  O  O30  1  0.70699716  0.25877639  0.61226461  1
  O  O31  1  0.20699716  0.74122361  0.88773539  1
  O  O32  1  0.46340428  0.49531627  0.36905065  1
  O  O33  1  0.96340428  0.50468373  0.13094935  1
  O  O34  1  0.53659572  0.50468373  0.63094935  1
  O  O35  1  0.03659572  0.49531627  0.86905065  1
  O  O36  1  0.48520709  0.53024724  0.86871462  1
  O  O37  1  0.98520709  0.46975276  0.63128538  1
  O  O38  1  0.51479291  0.46975276  0.13128538  1
  O  O39  1  0.01479291  0.53024724  0.36871462  1
  O  O40  1  0.75202134  0.14741372  0.76773674  1
  O  O41  1  0.25202134  0.85258628  0.73226326  1
  O  O42  1  0.24797866  0.85258628  0.23226326  1
  O  O43  1  0.74797866  0.14741372  0.26773674  1
  O  O44  1  0.30367795  0.78649293  0.10267923  1
  O  O45  1  0.80367795  0.21350707  0.39732077  1
  O  O46  1  0.69632205  0.21350707  0.89732077  1
  O  O47  1  0.19632205  0.78649293  0.60267923  1
  O  O48  1  0.60570064  0.96447517  0.85878521  1
  O  O49  1  0.10570064  0.03552483  0.64121479  1
  O  O50  1  0.39429936  0.03552483  0.14121479  1
  O  O51  1  0.89429936  0.96447517  0.35878521  1
  O  O52  1  0.03651949  0.05153839  0.86334351  1
  O  O53  1  0.53651949  0.94846161  0.63665649  1
  O  O54  1  0.96348051  0.94846161  0.13665649  1
  O  O55  1  0.46348051  0.05153839  0.36334351  1
