# generated using pymatgen
data_Eu2Si3Pd
_symmetry_space_group_name_H-M   'P 1'
_cell_length_a   8.33279888
_cell_length_b   8.33279888
_cell_length_c   4.32106606
_cell_angle_alpha   90.00000000
_cell_angle_beta   90.00000000
_cell_angle_gamma   120.00000002
_symmetry_Int_Tables_number   1
_chemical_formula_structural   Eu2Si3Pd
_chemical_formula_sum   'Eu4 Si6 Pd2'
_cell_volume   259.83840214
_cell_formula_units_Z   2
loop_
 _symmetry_equiv_pos_site_id
 _symmetry_equiv_pos_as_xyz
  1  'x, y, z'
loop_
 _atom_site_type_symbol
 _atom_site_label
 _atom_site_symmetry_multiplicity
 _atom_site_fract_x
 _atom_site_fract_y
 _atom_site_fract_z
 _atom_site_occupancy
  Si  Si0  1  0.83594057  0.67188114  0.50000000  1
  Si  Si1  1  0.16405943  0.83594057  0.50000000  1
  Si  Si2  1  0.67188114  0.83594057  0.50000000  1
  Si  Si3  1  0.16405943  0.32811886  0.50000000  1
  Si  Si4  1  0.83594057  0.16405943  0.50000000  1
  Si  Si5  1  0.32811886  0.16405943  0.50000000  1
  Pd  Pd6  1  0.33333333  0.66666667  0.50000000  1
  Pd  Pd7  1  0.66666667  0.33333333  0.50000000  1
  Eu  Eu8  1  0.50000000  0.50000000  0.00000000  1
  Eu  Eu9  1  0.00000000  0.50000000  0.00000000  1
  Eu  Eu10  1  0.50000000  0.00000000  0.00000000  1
  Eu  Eu11  1  0.00000000  0.00000000  0.00000000  1
