# generated using pymatgen
data_Rb4CdCl6
_symmetry_space_group_name_H-M   'P 1'
_cell_length_a   9.03787421
_cell_length_b   9.03787422
_cell_length_c   9.03787422
_cell_angle_alpha   89.42479089
_cell_angle_beta   89.42479088
_cell_angle_gamma   89.42479088
_symmetry_Int_Tables_number   1
_chemical_formula_structural   Rb4CdCl6
_chemical_formula_sum   'Rb8 Cd2 Cl12'
_cell_volume   738.13135331
_cell_formula_units_Z   2
loop_
 _symmetry_equiv_pos_site_id
 _symmetry_equiv_pos_as_xyz
  1  'x, y, z'
loop_
 _atom_site_type_symbol
 _atom_site_label
 _atom_site_symmetry_multiplicity
 _atom_site_fract_x
 _atom_site_fract_y
 _atom_site_fract_z
 _atom_site_occupancy
  Cl  Cl0  1  0.44230843  0.78505260  0.56859418  1
  Cl  Cl1  1  0.78505260  0.56859418  0.44230843  1
  Cl  Cl2  1  0.56859418  0.44230843  0.78505260  1
  Cl  Cl3  1  0.93140582  0.71494740  0.05769157  1
  Cl  Cl4  1  0.71494740  0.05769157  0.93140582  1
  Cl  Cl5  1  0.05769157  0.93140582  0.71494740  1
  Cl  Cl6  1  0.55769157  0.21494740  0.43140582  1
  Cl  Cl7  1  0.21494740  0.43140582  0.55769157  1
  Cl  Cl8  1  0.43140582  0.55769157  0.21494740  1
  Cl  Cl9  1  0.06859418  0.28505260  0.94230843  1
  Cl  Cl10  1  0.94230843  0.06859418  0.28505260  1
  Cl  Cl11  1  0.28505260  0.94230843  0.06859418  1
  Rb  Rb12  1  0.25000000  0.25000000  0.25000000  1
  Rb  Rb13  1  0.75000000  0.75000000  0.75000000  1
  Rb  Rb14  1  0.75000000  0.37359577  0.12640423  1
  Rb  Rb15  1  0.37359577  0.12640423  0.75000000  1
  Rb  Rb16  1  0.12640423  0.75000000  0.37359577  1
  Rb  Rb17  1  0.25000000  0.62640423  0.87359577  1
  Rb  Rb18  1  0.62640423  0.87359577  0.25000000  1
  Rb  Rb19  1  0.87359577  0.25000000  0.62640423  1
  Cd  Cd20  1  0.00000000  0.00000000  0.00000000  1
  Cd  Cd21  1  0.50000000  0.50000000  0.50000000  1
