# generated using pymatgen
data_KInBr4
_symmetry_space_group_name_H-M   'P 1'
_cell_length_a   8.05669794
_cell_length_b   10.88045709
_cell_length_c   10.82814585
_cell_angle_alpha   90.00000000
_cell_angle_beta   90.00000000
_cell_angle_gamma   90.00000000
_symmetry_Int_Tables_number   1
_chemical_formula_structural   KInBr4
_chemical_formula_sum   'K4 In4 Br16'
_cell_volume   949.20128808
_cell_formula_units_Z   4
loop_
 _symmetry_equiv_pos_site_id
 _symmetry_equiv_pos_as_xyz
  1  'x, y, z'
loop_
 _atom_site_type_symbol
 _atom_site_label
 _atom_site_symmetry_multiplicity
 _atom_site_fract_x
 _atom_site_fract_y
 _atom_site_fract_z
 _atom_site_occupancy
  K  K0  1  0.17835288  0.25000000  0.75000000  1
  K  K1  1  0.32164712  0.75000000  0.75000000  1
  K  K2  1  0.82164712  0.75000000  0.25000000  1
  K  K3  1  0.67835288  0.25000000  0.25000000  1
  Br  Br4  1  0.34409930  0.18379926  0.05121130  1
  Br  Br5  1  0.34409930  0.31620074  0.44878870  1
  Br  Br6  1  0.15590070  0.68379926  0.44878870  1
  Br  Br7  1  0.15590070  0.81620074  0.05121130  1
  Br  Br8  1  0.65590070  0.81620074  0.94878870  1
  Br  Br9  1  0.65590070  0.68379926  0.55121130  1
  Br  Br10  1  0.84409930  0.31620074  0.55121130  1
  Br  Br11  1  0.84409930  0.18379926  0.94878870  1
  Br  Br12  1  0.99728100  0.04160127  0.31640731  1
  Br  Br13  1  0.99728100  0.45839873  0.18359269  1
  Br  Br14  1  0.50271900  0.54160127  0.18359269  1
  Br  Br15  1  0.50271900  0.95839873  0.31640731  1
  Br  Br16  1  0.00271900  0.95839873  0.68359269  1
  Br  Br17  1  0.00271900  0.54160127  0.81640731  1
  Br  Br18  1  0.49728100  0.45839873  0.81640731  1
  Br  Br19  1  0.49728100  0.04160127  0.68359269  1
  In  In20  1  0.75000000  0.50000000  0.67966440  1
  In  In21  1  0.75000000  0.00000000  0.82033560  1
  In  In22  1  0.25000000  0.50000000  0.32033560  1
  In  In23  1  0.25000000  0.00000000  0.17966440  1
