# generated using pymatgen
data_Ca4Ge3O11
_symmetry_space_group_name_H-M   'P 1'
_cell_length_a   7.08387397
_cell_length_b   7.08387397
_cell_length_c   21.38945778
_cell_angle_alpha   90.00000000
_cell_angle_beta   90.00000000
_cell_angle_gamma   96.71604983
_symmetry_Int_Tables_number   1
_chemical_formula_structural   Ca4Ge3O11
_chemical_formula_sum   'Ca16 Ge12 O44'
_cell_volume   1065.98475997
_cell_formula_units_Z   4
loop_
 _symmetry_equiv_pos_site_id
 _symmetry_equiv_pos_as_xyz
  1  'x, y, z'
loop_
 _atom_site_type_symbol
 _atom_site_label
 _atom_site_symmetry_multiplicity
 _atom_site_fract_x
 _atom_site_fract_y
 _atom_site_fract_z
 _atom_site_occupancy
  Ca  Ca0  1  0.04003318  0.28898023  0.75000000  1
  Ca  Ca1  1  0.28898023  0.04003318  0.25000000  1
  Ca  Ca2  1  0.14192496  0.79154882  0.75000000  1
  Ca  Ca3  1  0.79154882  0.14192496  0.25000000  1
  Ca  Ca4  1  0.69085853  0.69085853  0.00000000  1
  Ca  Ca5  1  0.69085853  0.69085853  0.50000000  1
  Ca  Ca6  1  0.28526099  0.28526099  0.00000000  1
  Ca  Ca7  1  0.28526099  0.28526099  0.50000000  1
  Ca  Ca8  1  0.39740604  0.55182010  0.85911123  1
  Ca  Ca9  1  0.55182010  0.39740604  0.14088877  1
  Ca  Ca10  1  0.39740604  0.55182010  0.64088877  1
  Ca  Ca11  1  0.55182010  0.39740604  0.35911123  1
  Ca  Ca12  1  0.95479815  0.74501126  0.14816056  1
  Ca  Ca13  1  0.74501126  0.95479815  0.85183944  1
  Ca  Ca14  1  0.95479815  0.74501126  0.35183944  1
  Ca  Ca15  1  0.74501126  0.95479815  0.64816056  1
  Ge  Ge16  1  0.78284523  0.21339313  0.99619895  1
  Ge  Ge17  1  0.21339313  0.78284523  0.00380105  1
  Ge  Ge18  1  0.78284523  0.21339313  0.50380105  1
  Ge  Ge19  1  0.21339313  0.78284523  0.49619895  1
  Ge  Ge20  1  0.02972819  0.27090437  0.12742158  1
  Ge  Ge21  1  0.27090437  0.02972819  0.87257842  1
  Ge  Ge22  1  0.02972819  0.27090437  0.37257842  1
  Ge  Ge23  1  0.27090437  0.02972819  0.62742158  1
  Ge  Ge24  1  0.87138378  0.46236454  0.87165689  1
  Ge  Ge25  1  0.46236454  0.87138378  0.12834311  1
  Ge  Ge26  1  0.87138378  0.46236454  0.62834311  1
  Ge  Ge27  1  0.46236454  0.87138378  0.37165689  1
  O  O28  1  0.61615314  0.35120895  0.02806072  1
  O  O29  1  0.35120895  0.61615314  0.97193928  1
  O  O30  1  0.61615314  0.35120895  0.47193928  1
  O  O31  1  0.35120895  0.61615314  0.52806072  1
  O  O32  1  0.76181890  0.27465067  0.82424990  1
  O  O33  1  0.27465067  0.76181890  0.17575010  1
  O  O34  1  0.76181890  0.27465067  0.67575010  1
  O  O35  1  0.27465067  0.76181890  0.32424990  1
  O  O36  1  0.95775939  0.16298754  0.05306976  1
  O  O37  1  0.16298754  0.95775939  0.94693024  1
  O  O38  1  0.95775939  0.16298754  0.44693024  1
  O  O39  1  0.16298754  0.95775939  0.55306976  1
  O  O40  1  0.87306963  0.40819992  0.16477909  1
  O  O41  1  0.40819992  0.87306963  0.83522091  1
  O  O42  1  0.87306963  0.40819992  0.33522091  1
  O  O43  1  0.40819992  0.87306963  0.66477909  1
  O  O44  1  0.81281591  0.83714070  0.75000000  1
  O  O45  1  0.83714070  0.81281591  0.25000000  1
  O  O46  1  0.00027692  0.70229766  0.04056581  1
  O  O47  1  0.70229766  0.00027692  0.95943419  1
  O  O48  1  0.00027692  0.70229766  0.45943419  1
  O  O49  1  0.70229766  0.00027692  0.54056581  1
  O  O50  1  0.36058559  0.46954132  0.75000000  1
  O  O51  1  0.46954132  0.36058559  0.25000000  1
  O  O52  1  0.04525652  0.07558427  0.17887129  1
  O  O53  1  0.07558427  0.04525652  0.82112871  1
  O  O54  1  0.04525652  0.07558427  0.32112871  1
  O  O55  1  0.07558427  0.04525652  0.67887129  1
  O  O56  1  0.94597017  0.35940574  0.94404599  1
  O  O57  1  0.35940574  0.94597017  0.05595401  1
  O  O58  1  0.94597017  0.35940574  0.55595401  1
  O  O59  1  0.35940574  0.94597017  0.44404599  1
  O  O60  1  0.07538467  0.54742950  0.82767706  1
  O  O61  1  0.54742950  0.07538467  0.17232294  1
  O  O62  1  0.07538467  0.54742950  0.67232294  1
  O  O63  1  0.54742950  0.07538467  0.32767706  1
  O  O64  1  0.72125974  0.63459136  0.88982028  1
  O  O65  1  0.63459136  0.72125974  0.11017972  1
  O  O66  1  0.72125974  0.63459136  0.61017972  1
  O  O67  1  0.63459136  0.72125974  0.38982028  1
  O  O68  1  0.25139509  0.38774058  0.10521223  1
  O  O69  1  0.38774058  0.25139509  0.89478777  1
  O  O70  1  0.25139509  0.38774058  0.39478777  1
  O  O71  1  0.38774058  0.25139509  0.60521223  1
