# generated using pymatgen
data_TeRhCl
_symmetry_space_group_name_H-M   'P 1'
_cell_length_a   3.71958597
_cell_length_b   6.75683979
_cell_length_c   7.05483841
_cell_angle_alpha   116.59590607
_cell_angle_beta   105.28493948
_cell_angle_gamma   89.99999998
_symmetry_Int_Tables_number   1
_chemical_formula_structural   TeRhCl
_chemical_formula_sum   'Te2 Rh2 Cl2'
_cell_volume   151.49861591
_cell_formula_units_Z   2
loop_
 _symmetry_equiv_pos_site_id
 _symmetry_equiv_pos_as_xyz
  1  'x, y, z'
loop_
 _atom_site_type_symbol
 _atom_site_label
 _atom_site_symmetry_multiplicity
 _atom_site_fract_x
 _atom_site_fract_y
 _atom_site_fract_z
 _atom_site_occupancy
  Cl  Cl0  1  0.36243619  0.03181515  0.72487238  1
  Cl  Cl1  1  0.63756381  0.96818485  0.27512762  1
  Rh  Rh2  1  0.25077481  0.24684651  0.50154962  1
  Rh  Rh3  1  0.74922519  0.75315349  0.49845038  1
  Te  Te4  1  0.85979847  0.52737352  0.71959693  1
  Te  Te5  1  0.14020153  0.47262648  0.28040307  1
