# generated using pymatgen
data_B10Pb4O21
_symmetry_space_group_name_H-M   'P 1'
_cell_length_a   6.66552576
_cell_length_b   11.42659561
_cell_length_c   11.45481509
_cell_angle_alpha   90.00000000
_cell_angle_beta   90.00000000
_cell_angle_gamma   90.87382335
_symmetry_Int_Tables_number   1
_chemical_formula_structural   B10Pb4O21
_chemical_formula_sum   'B20 Pb8 O42'
_cell_volume   872.34613746
_cell_formula_units_Z   2
loop_
 _symmetry_equiv_pos_site_id
 _symmetry_equiv_pos_as_xyz
  1  'x, y, z'
loop_
 _atom_site_type_symbol
 _atom_site_label
 _atom_site_symmetry_multiplicity
 _atom_site_fract_x
 _atom_site_fract_y
 _atom_site_fract_z
 _atom_site_occupancy
  B  B0  1  0.32184655  0.53974937  0.78012818  1
  B  B1  1  0.17815345  0.96025063  0.28012818  1
  B  B2  1  0.67815345  0.46025063  0.21987182  1
  B  B3  1  0.82184655  0.03974937  0.71987182  1
  B  B4  1  0.50363646  0.24092041  0.99050690  1
  B  B5  1  0.99636354  0.25907959  0.49050690  1
  B  B6  1  0.49636354  0.75907959  0.00949310  1
  B  B7  1  0.00363646  0.74092041  0.50949310  1
  B  B8  1  0.28983314  0.77417923  0.19102712  1
  B  B9  1  0.21016686  0.72582077  0.69102712  1
  B  B10  1  0.71016686  0.22582077  0.80897288  1
  B  B11  1  0.78983314  0.27417923  0.30897288  1
  B  B12  1  0.44317803  0.28861578  0.21345423  1
  B  B13  1  0.05682197  0.21138422  0.71345423  1
  B  B14  1  0.55682197  0.71138422  0.78654577  1
  B  B15  1  0.94317803  0.78861578  0.28654577  1
  B  B16  1  0.36943026  0.31724447  0.79854925  1
  B  B17  1  0.13056974  0.18275553  0.29854925  1
  B  B18  1  0.63056974  0.68275553  0.20145075  1
  B  B19  1  0.86943026  0.81724447  0.70145075  1
  Pb  Pb20  1  0.83343541  0.47685386  0.73101797  1
  Pb  Pb21  1  0.66656459  0.02314614  0.23101797  1
  Pb  Pb22  1  0.16656459  0.52314614  0.26898203  1
  Pb  Pb23  1  0.33343541  0.97685386  0.76898203  1
  Pb  Pb24  1  0.48145571  0.17521777  0.51809239  1
  Pb  Pb25  1  0.01854429  0.32478223  0.01809239  1
  Pb  Pb26  1  0.51854429  0.82478223  0.48190761  1
  Pb  Pb27  1  0.98145571  0.67521777  0.98190761  1
  O  O28  1  0.41625046  0.67809044  0.23176751  1
  O  O29  1  0.08374954  0.82190956  0.73176751  1
  O  O30  1  0.58374954  0.32190956  0.76823249  1
  O  O31  1  0.91625046  0.17809044  0.26823249  1
  O  O32  1  0.42562758  0.76190835  0.69434481  1
  O  O33  1  0.07437242  0.73809165  0.19434481  1
  O  O34  1  0.57437242  0.23809165  0.30565519  1
  O  O35  1  0.92562758  0.26190835  0.80565519  1
  O  O36  1  0.26488818  0.42584739  0.77546438  1
  O  O37  1  0.23511182  0.07415261  0.27546438  1
  O  O38  1  0.73511182  0.57415261  0.22453562  1
  O  O39  1  0.76488818  0.92584739  0.72453562  1
  O  O40  1  0.27038157  0.21947789  0.73762976  1
  O  O41  1  0.22961843  0.28052211  0.23762976  1
  O  O42  1  0.72961843  0.78052211  0.26237024  1
  O  O43  1  0.77038157  0.71947789  0.76237024  1
  O  O44  1  0.33390618  0.80249002  0.06800582  1
  O  O45  1  0.16609382  0.69750998  0.56800582  1
  O  O46  1  0.66609382  0.19750998  0.93199418  1
  O  O47  1  0.83390618  0.30249002  0.43199418  1
  O  O48  1  0.35156371  0.29610336  0.93051976  1
  O  O49  1  0.14843629  0.20389664  0.43051976  1
  O  O50  1  0.64843629  0.70389664  0.06948024  1
  O  O51  1  0.85156371  0.79610336  0.56948024  1
  O  O52  1  0.32963492  0.87933802  0.26520856  1
  O  O53  1  0.17036508  0.62066198  0.76520856  1
  O  O54  1  0.67036508  0.12066198  0.73479144  1
  O  O55  1  0.82963492  0.37933802  0.23479144  1
  O  O56  1  0.48506909  0.41864410  0.20441451  1
  O  O57  1  0.01493091  0.08135590  0.70441451  1
  O  O58  1  0.51493091  0.58135590  0.79558549  1
  O  O59  1  0.98506909  0.91864410  0.29558549  1
  O  O60  1  0.36097698  0.98804413  0.56257259  1
  O  O61  1  0.13902302  0.51195587  0.06257259  1
  O  O62  1  0.63902302  0.01195587  0.43742741  1
  O  O63  1  0.86097698  0.48804413  0.93742741  1
  O  O64  1  0.50035304  0.22499295  0.10769048  1
  O  O65  1  0.99964696  0.27500705  0.60769048  1
  O  O66  1  0.49964696  0.77500705  0.89230952  1
  O  O67  1  0.00035304  0.72499295  0.39230952  1
  O  O68  1  0.50000000  0.50000000  0.50000000  1
  O  O69  1  -0.00000000  0.00000000  0.00000000  1
