# generated using pymatgen
data_K2TeBr6
_symmetry_space_group_name_H-M   'P 1'
_cell_length_a   7.68905693
_cell_length_b   8.03986967
_cell_length_c   10.83672196
_cell_angle_alpha   90.00000000
_cell_angle_beta   90.24581600
_cell_angle_gamma   90.00000000
_symmetry_Int_Tables_number   1
_chemical_formula_structural   K2TeBr6
_chemical_formula_sum   'K4 Te2 Br12'
_cell_volume   669.90931780
_cell_formula_units_Z   2
loop_
 _symmetry_equiv_pos_site_id
 _symmetry_equiv_pos_as_xyz
  1  'x, y, z'
loop_
 _atom_site_type_symbol
 _atom_site_label
 _atom_site_symmetry_multiplicity
 _atom_site_fract_x
 _atom_site_fract_y
 _atom_site_fract_z
 _atom_site_occupancy
  K  K0  1  0.48412318  0.07223067  0.75097729  1
  K  K1  1  0.01587682  0.57223067  0.74902271  1
  K  K2  1  0.51587682  0.92776933  0.24902271  1
  K  K3  1  0.98412318  0.42776933  0.25097729  1
  Br  Br4  1  0.41988135  0.51442742  0.25368939  1
  Br  Br5  1  0.58011865  0.48557258  0.74631061  1
  Br  Br6  1  0.29161573  0.81146945  0.95640819  1
  Br  Br7  1  0.91988135  0.98557258  0.75368939  1
  Br  Br8  1  0.70838427  0.18853055  0.04359181  1
  Br  Br9  1  0.79161573  0.68853055  0.45640819  1
  Br  Br10  1  0.18660708  0.28651249  0.96125800  1
  Br  Br11  1  0.31339292  0.78651249  0.53874200  1
  Br  Br12  1  0.81339292  0.71348751  0.03874200  1
  Br  Br13  1  0.68660708  0.21348751  0.46125800  1
  Br  Br14  1  0.20838427  0.31146945  0.54359181  1
  Br  Br15  1  0.08011865  0.01442742  0.24631061  1
  Te  Te16  1  0.50000000  0.50000000  0.50000000  1
  Te  Te17  1  0.00000000  0.00000000  0.00000000  1
