# generated using pymatgen
data_Rb2(NbCl3)3
_symmetry_space_group_name_H-M   'P 1'
_cell_length_a   9.93123404
_cell_length_b   10.07832232
_cell_length_c   10.07832232
_cell_angle_alpha   115.87767122
_cell_angle_beta   103.62010365
_cell_angle_gamma   103.62010368
_symmetry_Int_Tables_number   1
_chemical_formula_structural   Rb2(NbCl3)3
_chemical_formula_sum   'Rb4 Nb6 Cl18'
_cell_volume   813.39897129
_cell_formula_units_Z   2
loop_
 _symmetry_equiv_pos_site_id
 _symmetry_equiv_pos_as_xyz
  1  'x, y, z'
loop_
 _atom_site_type_symbol
 _atom_site_label
 _atom_site_symmetry_multiplicity
 _atom_site_fract_x
 _atom_site_fract_y
 _atom_site_fract_z
 _atom_site_occupancy
  Cl  Cl0  1  0.20737636  0.74431557  0.74431557  1
  Cl  Cl1  1  0.79262364  0.25568443  0.25568443  1
  Cl  Cl2  1  0.82423187  0.81578945  0.81578945  1
  Cl  Cl3  1  0.17576813  0.18421055  0.18421055  1
  Cl  Cl4  1  0.49196104  0.11354019  0.31869394  1
  Cl  Cl5  1  0.50803896  0.68130606  0.88645981  1
  Cl  Cl6  1  0.50803896  0.88645981  0.68130606  1
  Cl  Cl7  1  0.49196104  0.31869394  0.11354019  1
  Cl  Cl8  1  0.50000000  0.29618734  0.70381266  1
  Cl  Cl9  1  0.50000000  0.70381266  0.29618734  1
  Cl  Cl10  1  0.81479420  0.42754249  0.63135578  1
  Cl  Cl11  1  0.18520580  0.36864422  0.57245751  1
  Cl  Cl12  1  0.18520580  0.57245751  0.36864422  1
  Cl  Cl13  1  0.81479420  0.63135578  0.42754249  1
  Cl  Cl14  1  0.18438725  0.39294465  0.00290380  1
  Cl  Cl15  1  0.81561275  0.99709620  0.60705535  1
  Cl  Cl16  1  0.81561275  0.60705535  0.99709620  1
  Cl  Cl17  1  0.18438725  0.00290380  0.39294465  1
  Rb  Rb18  1  0.17947147  0.05269223  0.73517151  1
  Rb  Rb19  1  0.82052853  0.26482849  0.94730777  1
  Rb  Rb20  1  0.82052853  0.94730777  0.26482849  1
  Rb  Rb21  1  0.17947147  0.73517151  0.05269223  1
  Nb  Nb22  1  0.36859138  0.60840991  0.60840991  1
  Nb  Nb23  1  0.63140862  0.39159009  0.39159009  1
  Nb  Nb24  1  0.36201705  0.45312751  0.28056974  1
  Nb  Nb25  1  0.63798295  0.71943026  0.54687249  1
  Nb  Nb26  1  0.63798295  0.54687249  0.71943026  1
  Nb  Nb27  1  0.36201705  0.28056974  0.45312751  1
