# generated using pymatgen
data_NaClO4
_symmetry_space_group_name_H-M   'P 1'
_cell_length_a   4.87425159
_cell_length_b   4.87425158
_cell_length_c   7.17920379
_cell_angle_alpha   90.00000000
_cell_angle_beta   90.00000000
_cell_angle_gamma   94.95124784
_symmetry_Int_Tables_number   1
_chemical_formula_structural   NaClO4
_chemical_formula_sum   'Na2 Cl2 O8'
_cell_volume   169.92941524
_cell_formula_units_Z   2
loop_
 _symmetry_equiv_pos_site_id
 _symmetry_equiv_pos_as_xyz
  1  'x, y, z'
loop_
 _atom_site_type_symbol
 _atom_site_label
 _atom_site_symmetry_multiplicity
 _atom_site_fract_x
 _atom_site_fract_y
 _atom_site_fract_z
 _atom_site_occupancy
  O  O0  1  0.12666242  0.79707996  0.75000000  1
  O  O1  1  0.87333758  0.20292004  0.25000000  1
  O  O2  1  0.79707996  0.12666242  0.75000000  1
  O  O3  1  0.20292004  0.87333758  0.25000000  1
  O  O4  1  0.29899366  0.29899366  0.08598763  1
  O  O5  1  0.70100634  0.70100634  0.58598763  1
  O  O6  1  0.29899366  0.29899366  0.41401237  1
  O  O7  1  0.70100634  0.70100634  0.91401237  1
  Na  Na8  1  0.66365348  0.66365348  0.25000000  1
  Na  Na9  1  0.33634652  0.33634652  0.75000000  1
  Cl  Cl10  1  0.16813091  0.16813091  0.25000000  1
  Cl  Cl11  1  0.83186909  0.83186909  0.75000000  1
