# generated using pymatgen
data_Ca2BrN
_symmetry_space_group_name_H-M   'P 1'
_cell_length_a   7.25741097
_cell_length_b   7.25741097
_cell_length_c   7.25741098
_cell_angle_alpha   29.73564716
_cell_angle_beta   29.73564718
_cell_angle_gamma   29.73564715
_symmetry_Int_Tables_number   1
_chemical_formula_structural   Ca2BrN
_chemical_formula_sum   'Ca2 Br1 N1'
_cell_volume   83.26530907
_cell_formula_units_Z   1
loop_
 _symmetry_equiv_pos_site_id
 _symmetry_equiv_pos_as_xyz
  1  'x, y, z'
loop_
 _atom_site_type_symbol
 _atom_site_label
 _atom_site_symmetry_multiplicity
 _atom_site_fract_x
 _atom_site_fract_y
 _atom_site_fract_z
 _atom_site_occupancy
  N  N0  1  0.50000000  0.50000000  0.50000000  1
  Ca  Ca1  1  0.22542381  0.22542381  0.22542381  1
  Ca  Ca2  1  0.77457619  0.77457619  0.77457619  1
  Br  Br3  1  0.00000000  0.00000000  0.00000000  1
