# generated using pymatgen
data_NaIO3
_symmetry_space_group_name_H-M   'P 1'
_cell_length_a   5.80540715
_cell_length_b   6.53668846
_cell_length_c   8.33155339
_cell_angle_alpha   90.00000000
_cell_angle_beta   90.00000000
_cell_angle_gamma   90.00000000
_symmetry_Int_Tables_number   1
_chemical_formula_structural   NaIO3
_chemical_formula_sum   'Na4 I4 O12'
_cell_volume   316.16693716
_cell_formula_units_Z   4
loop_
 _symmetry_equiv_pos_site_id
 _symmetry_equiv_pos_as_xyz
  1  'x, y, z'
loop_
 _atom_site_type_symbol
 _atom_site_label
 _atom_site_symmetry_multiplicity
 _atom_site_fract_x
 _atom_site_fract_y
 _atom_site_fract_z
 _atom_site_occupancy
  O  O0  1  0.13487613  0.16594798  0.41502574  1
  O  O1  1  0.63487613  0.33405202  0.58497426  1
  O  O2  1  0.36512387  0.66594798  0.08497426  1
  O  O3  1  0.86512387  0.83405202  0.91502574  1
  O  O4  1  0.86512387  0.83405202  0.58497426  1
  O  O5  1  0.36512387  0.66594798  0.41502574  1
  O  O6  1  0.63487613  0.33405202  0.91502574  1
  O  O7  1  0.13487613  0.16594798  0.08497426  1
  O  O8  1  0.70812986  0.09642121  0.25000000  1
  O  O9  1  0.20812986  0.40357879  0.75000000  1
  O  O10  1  0.79187014  0.59642121  0.25000000  1
  O  O11  1  0.29187014  0.90357879  0.75000000  1
  Na  Na12  1  0.50000000  0.00000000  0.00000000  1
  Na  Na13  1  0.00000000  0.50000000  0.00000000  1
  Na  Na14  1  0.00000000  0.50000000  0.50000000  1
  Na  Na15  1  0.50000000  0.00000000  0.50000000  1
  I  I16  1  0.00982566  0.01589055  0.25000000  1
  I  I17  1  0.50982566  0.48410945  0.75000000  1
  I  I18  1  0.49017434  0.51589055  0.25000000  1
  I  I19  1  0.99017434  0.98410945  0.75000000  1
