# generated using pymatgen
data_Ce2BiO2
_symmetry_space_group_name_H-M   'P 1'
_cell_length_a   4.03315751
_cell_length_b   4.03315751
_cell_length_c   7.11814563
_cell_angle_alpha   106.45732613
_cell_angle_beta   106.45732615
_cell_angle_gamma   90.00000006
_symmetry_Int_Tables_number   1
_chemical_formula_structural   Ce2BiO2
_chemical_formula_sum   'Ce2 Bi1 O2'
_cell_volume   106.08711849
_cell_formula_units_Z   1
loop_
 _symmetry_equiv_pos_site_id
 _symmetry_equiv_pos_as_xyz
  1  'x, y, z'
loop_
 _atom_site_type_symbol
 _atom_site_label
 _atom_site_symmetry_multiplicity
 _atom_site_fract_x
 _atom_site_fract_y
 _atom_site_fract_z
 _atom_site_occupancy
  O  O0  1  0.25000000  0.75000000  0.50000000  1
  O  O1  1  0.75000000  0.25000000  0.50000000  1
  Ce  Ce2  1  0.65850210  0.65850210  0.31700421  1
  Ce  Ce3  1  0.34149790  0.34149790  0.68299579  1
  Bi  Bi4  1  0.00000000  0.00000000  0.00000000  1
