# generated using pymatgen
data_NaBiO2
_symmetry_space_group_name_H-M   'P 1'
_cell_length_a   5.20408143
_cell_length_b   5.20408143
_cell_length_c   5.96858463
_cell_angle_alpha   64.58844106
_cell_angle_beta   64.58844103
_cell_angle_gamma   89.43016995
_symmetry_Int_Tables_number   1
_chemical_formula_structural   NaBiO2
_chemical_formula_sum   'Na2 Bi2 O4'
_cell_volume   128.83748203
_cell_formula_units_Z   2
loop_
 _symmetry_equiv_pos_site_id
 _symmetry_equiv_pos_as_xyz
  1  'x, y, z'
loop_
 _atom_site_type_symbol
 _atom_site_label
 _atom_site_symmetry_multiplicity
 _atom_site_fract_x
 _atom_site_fract_y
 _atom_site_fract_z
 _atom_site_occupancy
  O  O0  1  0.86544011  0.70611032  0.24584709  1
  O  O1  1  0.29388968  0.13455989  0.25415291  1
  O  O2  1  0.70611032  0.86544011  0.74584709  1
  O  O3  1  0.13455989  0.29388968  0.75415291  1
  Na  Na4  1  0.62663498  0.37336502  0.75000000  1
  Na  Na5  1  0.37336502  0.62663498  0.25000000  1
  Bi  Bi6  1  0.88432445  0.11567555  0.25000000  1
  Bi  Bi7  1  0.11567555  0.88432445  0.75000000  1
