# generated using pymatgen
data_CuBiS2
_symmetry_space_group_name_H-M   'P 1'
_cell_length_a   3.94930382
_cell_length_b   6.29178647
_cell_length_c   14.39437613
_cell_angle_alpha   90.00000000
_cell_angle_beta   90.00000000
_cell_angle_gamma   90.00000000
_symmetry_Int_Tables_number   1
_chemical_formula_structural   CuBiS2
_chemical_formula_sum   'Cu4 Bi4 S8'
_cell_volume   357.67399639
_cell_formula_units_Z   4
loop_
 _symmetry_equiv_pos_site_id
 _symmetry_equiv_pos_as_xyz
  1  'x, y, z'
loop_
 _atom_site_type_symbol
 _atom_site_label
 _atom_site_symmetry_multiplicity
 _atom_site_fract_x
 _atom_site_fract_y
 _atom_site_fract_z
 _atom_site_occupancy
  S  S0  1  0.75000000  0.62090676  0.32052816  1
  S  S1  1  0.25000000  0.37909324  0.67947184  1
  S  S2  1  0.75000000  0.12090676  0.17947184  1
  S  S3  1  0.25000000  0.87909324  0.82052816  1
  S  S4  1  0.25000000  0.14088391  0.40186084  1
  S  S5  1  0.75000000  0.35911609  0.90186084  1
  S  S6  1  0.25000000  0.64088391  0.09813916  1
  S  S7  1  0.75000000  0.85911609  0.59813916  1
  Cu  Cu8  1  0.25000000  0.24403033  0.82888314  1
  Cu  Cu9  1  0.25000000  0.74403033  0.67111686  1
  Cu  Cu10  1  0.75000000  0.75596967  0.17111686  1
  Cu  Cu11  1  0.75000000  0.25596967  0.32888314  1
  Bi  Bi12  1  0.25000000  0.73551765  0.43879278  1
  Bi  Bi13  1  0.75000000  0.26448235  0.56120722  1
  Bi  Bi14  1  0.25000000  0.23551765  0.06120722  1
  Bi  Bi15  1  0.75000000  0.76448235  0.93879278  1
