# generated using pymatgen
data_CsICl2
_symmetry_space_group_name_H-M   'P 1'
_cell_length_a   5.62441827
_cell_length_b   5.62441827
_cell_length_c   5.62441826
_cell_angle_alpha   71.49935284
_cell_angle_beta   71.49935284
_cell_angle_gamma   71.49935286
_symmetry_Int_Tables_number   1
_chemical_formula_structural   CsICl2
_chemical_formula_sum   'Cs1 I1 Cl2'
_cell_volume   155.29690010
_cell_formula_units_Z   1
loop_
 _symmetry_equiv_pos_site_id
 _symmetry_equiv_pos_as_xyz
  1  'x, y, z'
loop_
 _atom_site_type_symbol
 _atom_site_label
 _atom_site_symmetry_multiplicity
 _atom_site_fract_x
 _atom_site_fract_y
 _atom_site_fract_z
 _atom_site_occupancy
  Cl  Cl0  1  0.70649313  0.70649313  0.70649313  1
  Cl  Cl1  1  0.29350687  0.29350687  0.29350687  1
  I  I2  1  0.50000000  0.50000000  0.50000000  1
  Cs  Cs3  1  0.00000000  0.00000000  0.00000000  1
