# generated using pymatgen
data_LiAlCl4
_symmetry_space_group_name_H-M   'P 1'
_cell_length_a   6.87493402
_cell_length_b   7.05592694
_cell_length_c   13.16839486
_cell_angle_alpha   92.61745310
_cell_angle_beta   90.00000000
_cell_angle_gamma   90.00000000
_symmetry_Int_Tables_number   1
_chemical_formula_structural   LiAlCl4
_chemical_formula_sum   'Li4 Al4 Cl16'
_cell_volume   638.11964714
_cell_formula_units_Z   4
loop_
 _symmetry_equiv_pos_site_id
 _symmetry_equiv_pos_as_xyz
  1  'x, y, z'
loop_
 _atom_site_type_symbol
 _atom_site_label
 _atom_site_symmetry_multiplicity
 _atom_site_fract_x
 _atom_site_fract_y
 _atom_site_fract_z
 _atom_site_occupancy
  Li  Li0  1  0.02008582  0.84565438  0.63199107  1
  Li  Li1  1  0.52008582  0.15434562  0.86800893  1
  Li  Li2  1  0.97991418  0.15434562  0.36800893  1
  Li  Li3  1  0.47991418  0.84565438  0.13199107  1
  Al  Al4  1  0.67476368  0.29318177  0.10129151  1
  Al  Al5  1  0.17476368  0.70681823  0.39870849  1
  Al  Al6  1  0.32523632  0.70681823  0.89870849  1
  Al  Al7  1  0.82523632  0.29318177  0.60129151  1
  Cl  Cl8  1  0.80690920  0.30399860  0.95347754  1
  Cl  Cl9  1  0.30690920  0.69600140  0.54652246  1
  Cl  Cl10  1  0.19309080  0.69600140  0.04652246  1
  Cl  Cl11  1  0.69309080  0.30399860  0.45347754  1
  Cl  Cl12  1  0.38223845  0.18546963  0.07298246  1
  Cl  Cl13  1  0.88223845  0.81453037  0.42701754  1
  Cl  Cl14  1  0.61776155  0.81453037  0.92701754  1
  Cl  Cl15  1  0.11776155  0.18546963  0.57298246  1
  Cl  Cl16  1  0.81180083  0.07664033  0.18955745  1
  Cl  Cl17  1  0.31180083  0.92335967  0.31044255  1
  Cl  Cl18  1  0.18819917  0.92335967  0.81044255  1
  Cl  Cl19  1  0.68819917  0.07664033  0.68955745  1
  Cl  Cl20  1  0.67715128  0.56325293  0.18323849  1
  Cl  Cl21  1  0.17715128  0.43674707  0.31676151  1
  Cl  Cl22  1  0.32284872  0.43674707  0.81676151  1
  Cl  Cl23  1  0.82284872  0.56325293  0.68323849  1
