# generated using pymatgen
data_B5TeH5C
_symmetry_space_group_name_H-M   'P 1'
_cell_length_a   7.18705398
_cell_length_b   8.95701298
_cell_length_c   10.22613682
_cell_angle_alpha   84.22285587
_cell_angle_beta   78.46579304
_cell_angle_gamma   81.78101805
_symmetry_Int_Tables_number   1
_chemical_formula_structural   B5TeH5C
_chemical_formula_sum   'B20 Te4 H20 C4'
_cell_volume   636.61812203
_cell_formula_units_Z   4
loop_
 _symmetry_equiv_pos_site_id
 _symmetry_equiv_pos_as_xyz
  1  'x, y, z'
loop_
 _atom_site_type_symbol
 _atom_site_label
 _atom_site_symmetry_multiplicity
 _atom_site_fract_x
 _atom_site_fract_y
 _atom_site_fract_z
 _atom_site_occupancy
  B  B0  1  0.09628463  0.15426061  0.26295799  1
  B  B1  1  0.90371537  0.84573939  0.73704201  1
  B  B2  1  0.05843996  0.34615203  0.19861622  1
  B  B3  1  0.94156004  0.65384797  0.80138378  1
  B  B4  1  0.28632904  0.40578126  0.13520128  1
  B  B5  1  0.71367096  0.59421874  0.86479872  1
  B  B6  1  0.46344657  0.24954267  0.16026730  1
  B  B7  1  0.53655343  0.75045733  0.83973270  1
  B  B8  1  0.40975922  0.39874212  0.27019572  1
  B  B9  1  0.59024078  0.60125788  0.72980428  1
  B  B10  1  0.44464673  0.20820397  0.33674711  1
  B  B11  1  0.55535327  0.79179603  0.66325289  1
  B  B12  1  0.21654885  0.14869768  0.40012185  1
  B  B13  1  0.78345115  0.85130232  0.59987815  1
  B  B14  1  0.03821814  0.30112450  0.37336287  1
  B  B15  1  0.96178186  0.69887550  0.62663713  1
  B  B16  1  0.15801468  0.45795422  0.29446086  1
  B  B17  1  0.84198532  0.54204578  0.70553914  1
  B  B18  1  0.25529209  0.33621169  0.41893439  1
  B  B19  1  0.74470791  0.66378831  0.58106561  1
  Te  Te20  1  0.21584943  0.15093336  0.93424847  1
  Te  Te21  1  0.78415057  0.84906664  0.06575153  1
  Te  Te22  1  0.56656534  0.13341063  0.77775892  1
  Te  Te23  1  0.43343466  0.86658937  0.22224108  1
  H  H24  1  0.00141466  0.06026719  0.24919241  1
  H  H25  1  0.99858534  0.93973281  0.75080759  1
  H  H26  1  0.92930020  0.38133725  0.14022639  1
  H  H27  1  0.07069980  0.61866275  0.85977361  1
  H  H28  1  0.31284272  0.48299602  0.03346274  1
  H  H29  1  0.68715728  0.51700398  0.96653726  1
  H  H30  1  0.60408679  0.21736861  0.08074740  1
  H  H31  1  0.39591321  0.78263139  0.91925260  1
  H  H32  1  0.52738622  0.48072042  0.26746296  1
  H  H33  1  0.47261378  0.51927958  0.73253704  1
  H  H34  1  0.58253177  0.14676219  0.37656856  1
  H  H35  1  0.41746823  0.85323781  0.62343144  1
  H  H36  1  0.19812375  0.04574713  0.48270794  1
  H  H37  1  0.80187625  0.95425287  0.51729206  1
  H  H38  1  0.88537774  0.31239994  0.44528342  1
  H  H39  1  0.11462226  0.68760006  0.55471658  1
  H  H40  1  0.09192384  0.58660851  0.30840074  1
  H  H41  1  0.90807616  0.41339149  0.69159926  1
  H  H42  1  0.26255658  0.37322177  0.52644826  1
  H  H43  1  0.73744342  0.62677823  0.47355174  1
  C  C44  1  0.24752529  0.22467178  0.12599657  1
  C  C45  1  0.75247471  0.77532822  0.87400343  1
  C  C46  1  0.34010576  0.10851669  0.24400143  1
  C  C47  1  0.65989424  0.89148331  0.75599857  1
