# generated using pymatgen
data_SbSeI
_symmetry_space_group_name_H-M   'P 1'
_cell_length_a   4.18734571
_cell_length_b   9.16371310
_cell_length_c   11.10048821
_cell_angle_alpha   90.00000000
_cell_angle_beta   90.00000000
_cell_angle_gamma   90.00000000
_symmetry_Int_Tables_number   1
_chemical_formula_structural   SbSeI
_chemical_formula_sum   'Sb4 Se4 I4'
_cell_volume   425.94387900
_cell_formula_units_Z   4
loop_
 _symmetry_equiv_pos_site_id
 _symmetry_equiv_pos_as_xyz
  1  'x, y, z'
loop_
 _atom_site_type_symbol
 _atom_site_label
 _atom_site_symmetry_multiplicity
 _atom_site_fract_x
 _atom_site_fract_y
 _atom_site_fract_z
 _atom_site_occupancy
  Se  Se0  1  0.75000000  0.33470592  0.53539239  1
  Se  Se1  1  0.25000000  0.66529408  0.46460761  1
  Se  Se2  1  0.25000000  0.16529408  0.03539239  1
  Se  Se3  1  0.75000000  0.83470592  0.96460761  1
  Sb  Sb4  1  0.75000000  0.09987395  0.87068939  1
  Sb  Sb5  1  0.75000000  0.59987395  0.62931061  1
  Sb  Sb6  1  0.25000000  0.90012605  0.12931061  1
  Sb  Sb7  1  0.25000000  0.40012605  0.37068939  1
  I  I8  1  0.75000000  0.52981023  0.18671148  1
  I  I9  1  0.25000000  0.47018977  0.81328852  1
  I  I10  1  0.75000000  0.02981023  0.31328852  1
  I  I11  1  0.25000000  0.97018977  0.68671148  1
