# generated using pymatgen
data_NaCeS2O9
_symmetry_space_group_name_H-M   'P 1'
_cell_length_a   6.99037741
_cell_length_b   6.99037741
_cell_length_c   13.06725316
_cell_angle_alpha   90.00000000
_cell_angle_beta   90.00000000
_cell_angle_gamma   120.00000559
_symmetry_Int_Tables_number   1
_chemical_formula_structural   NaCeS2O9
_chemical_formula_sum   'Na3 Ce3 S6 O27'
_cell_volume   552.98857689
_cell_formula_units_Z   3
loop_
 _symmetry_equiv_pos_site_id
 _symmetry_equiv_pos_as_xyz
  1  'x, y, z'
loop_
 _atom_site_type_symbol
 _atom_site_label
 _atom_site_symmetry_multiplicity
 _atom_site_fract_x
 _atom_site_fract_y
 _atom_site_fract_z
 _atom_site_occupancy
  Na  Na0  1  0.52955505  0.52955846  0.66665471  1
  Na  Na1  1  0.47044154  0.99999659  0.99998871  1
  Na  Na2  1  0.00000341  0.47044495  0.33332171  1
  Ce  Ce3  1  0.42495775  -0.00001015  0.50000785  1
  Ce  Ce4  1  0.00001015  0.42496791  0.83334185  1
  Ce  Ce5  1  0.57503210  0.57504225  0.16667485  1
  S  S6  1  0.98365171  0.44053706  0.59090658  1
  S  S7  1  0.55946294  0.54311464  0.92424058  1
  S  S8  1  0.45688536  0.01634829  0.25757358  1
  S  S9  1  0.01634041  0.45688495  0.07576517  1
  S  S10  1  0.54311505  0.55945546  0.40909917  1
  S  S11  1  0.44054454  0.98365959  0.74243217  1
  O  O12  1  0.82712164  0.24823173  0.52896330  1
  O  O13  1  0.75176827  0.57888991  0.86229730  1
  O  O14  1  0.42111009  0.17287836  0.19563030  1
  O  O15  1  0.17287454  0.42111307  0.13770426  1
  O  O16  1  0.57888693  0.75176146  0.47103826  1
  O  O17  1  0.24823854  0.82712546  0.80437126  1
  O  O18  1  0.11882610  0.62403720  0.51723807  1
  O  O19  1  0.37596280  0.49478891  0.85057207  1
  O  O20  1  0.50521109  0.88117390  0.18390507  1
  O  O21  1  0.88117705  0.50522454  0.14942948  1
  O  O22  1  0.49477546  0.37595251  0.48276348  1
  O  O23  1  0.62404749  0.11882295  0.81609648  1
  O  O24  1  0.86521075  0.50718311  0.66511850  1
  O  O25  1  0.49281689  0.35802765  0.99845250  1
  O  O26  1  0.64197235  0.13478925  0.33178550  1
  O  O27  1  0.13478768  0.64196983  0.00154716  1
  O  O28  1  0.35803017  0.49281785  0.33488116  1
  O  O29  1  0.50718215  0.86521232  0.66821416  1
  O  O30  1  0.12987759  0.39109726  0.65448273  1
  O  O31  1  0.60890274  0.73878033  0.98781673  1
  O  O32  1  0.26121967  0.87012241  0.32114973  1
  O  O33  1  0.87011043  0.26122124  0.01218837  1
  O  O34  1  0.73877876  0.60888920  0.34552237  1
  O  O35  1  0.39111080  0.12988957  0.67885537  1
  O  O36  1  0.12801357  0.99996710  0.50002281  1
  O  O37  1  0.00003290  0.12804646  0.83335681  1
  O  O38  1  0.87195354  0.87198643  0.16668981  1
