# generated using pymatgen
data_MnSnH16C6S3O11
_symmetry_space_group_name_H-M   'P 1'
_cell_length_a   10.05243651
_cell_length_b   10.83690977
_cell_length_c   16.18667076
_cell_angle_alpha   90.00000000
_cell_angle_beta   96.34628220
_cell_angle_gamma   90.00000000
_symmetry_Int_Tables_number   1
_chemical_formula_structural   MnSnH16C6S3O11
_chemical_formula_sum   'Mn4 Sn4 H64 C24 S12 O44'
_cell_volume   1752.52725425
_cell_formula_units_Z   4
loop_
 _symmetry_equiv_pos_site_id
 _symmetry_equiv_pos_as_xyz
  1  'x, y, z'
loop_
 _atom_site_type_symbol
 _atom_site_label
 _atom_site_symmetry_multiplicity
 _atom_site_fract_x
 _atom_site_fract_y
 _atom_site_fract_z
 _atom_site_occupancy
  Mn  Mn0  1  0.89931081  0.72793779  0.80163727  1
  Mn  Mn1  1  0.10068919  0.22793779  0.69836273  1
  Mn  Mn2  1  0.10068919  0.27206221  0.19836273  1
  Mn  Mn3  1  0.89931081  0.77206221  0.30163727  1
  Sn  Sn4  1  0.31424831  0.74845261  0.58233414  1
  Sn  Sn5  1  0.68575169  0.24845261  0.91766586  1
  Sn  Sn6  1  0.68575169  0.25154739  0.41766586  1
  Sn  Sn7  1  0.31424831  0.75154739  0.08233414  1
  H  H8  1  0.80762576  0.97444852  0.82264068  1
  H  H9  1  0.19237424  0.47444852  0.67735932  1
  H  H10  1  0.19237424  0.02555148  0.17735932  1
  H  H11  1  0.80762576  0.52555148  0.32264068  1
  H  H12  1  0.96451838  0.96325203  0.85060585  1
  H  H13  1  0.03548162  0.46325203  0.64939415  1
  H  H14  1  0.03548162  0.03674797  0.14939415  1
  H  H15  1  0.96451838  0.53674797  0.35060585  1
  H  H16  1  0.00973400  0.77209476  0.96236944  1
  H  H17  1  0.99026600  0.27209476  0.53763056  1
  H  H18  1  0.99026600  0.22790524  0.03763056  1
  H  H19  1  0.00973400  0.72790524  0.46236944  1
  H  H20  1  0.90177270  0.66687554  0.97696092  1
  H  H21  1  0.09822730  0.16687554  0.52303908  1
  H  H22  1  0.09822730  0.33312446  0.02303908  1
  H  H23  1  0.90177270  0.83312446  0.47696092  1
  H  H24  1  0.64542214  0.66892346  0.86106373  1
  H  H25  1  0.35457786  0.16892346  0.63893627  1
  H  H26  1  0.35457786  0.33107654  0.13893627  1
  H  H27  1  0.64542214  0.83107654  0.36106373  1
  H  H28  1  0.61195025  0.72939519  0.77260105  1
  H  H29  1  0.38804975  0.22939519  0.72739895  1
  H  H30  1  0.38804975  0.27060481  0.22739895  1
  H  H31  1  0.61195025  0.77060481  0.27260105  1
  H  H32  1  0.01686312  0.49460755  0.78090304  1
  H  H33  1  0.98313688  0.99460755  0.71909696  1
  H  H34  1  0.98313688  0.50539245  0.21909696  1
  H  H35  1  0.01686312  0.00539245  0.28090304  1
  H  H36  1  0.94464852  0.48764610  0.86378811  1
  H  H37  1  0.05535148  0.98764610  0.63621189  1
  H  H38  1  0.05535148  0.51235390  0.13621189  1
  H  H39  1  0.94464852  0.01235390  0.36378811  1
  H  H40  1  0.85618326  0.65609062  0.63291863  1
  H  H41  1  0.14381674  0.15609062  0.86708137  1
  H  H42  1  0.14381674  0.34390938  0.36708137  1
  H  H43  1  0.85618326  0.84390938  0.13291863  1
  H  H44  1  0.82998356  0.80084988  0.62980292  1
  H  H45  1  0.17001644  0.30084988  0.87019708  1
  H  H46  1  0.17001644  0.19915012  0.37019708  1
  H  H47  1  0.82998356  0.69915012  0.12980292  1
  H  H48  1  0.38993817  0.00544461  0.40591151  1
  H  H49  1  0.61006183  0.50544461  0.09408849  1
  H  H50  1  0.61006183  0.99455539  0.59408849  1
  H  H51  1  0.38993817  0.49455539  0.90591151  1
  H  H52  1  0.28350295  0.94807424  0.77681373  1
  H  H53  1  0.71649705  0.44807424  0.72318627  1
  H  H54  1  0.71649705  0.05192576  0.22318627  1
  H  H55  1  0.28350295  0.55192576  0.27681373  1
  H  H56  1  0.35419076  0.81726234  0.83108083  1
  H  H57  1  0.64580924  0.31726234  0.66891917  1
  H  H58  1  0.64580924  0.18273766  0.16891917  1
  H  H59  1  0.35419076  0.68273766  0.33108083  1
  H  H60  1  0.26763688  0.37603880  0.52047306  1
  H  H61  1  0.73236312  0.87603880  0.97952694  1
  H  H62  1  0.73236312  0.62396120  0.47952694  1
  H  H63  1  0.26763688  0.12396120  0.02047306  1
  H  H64  1  0.37332418  0.47019134  0.46564684  1
  H  H65  1  0.62667582  0.97019134  0.03435316  1
  H  H66  1  0.62667582  0.52980866  0.53435316  1
  H  H67  1  0.37332418  0.02980866  0.96564684  1
  H  H68  1  0.27443514  0.88945644  0.36630914  1
  H  H69  1  0.72556486  0.38945644  0.13369086  1
  H  H70  1  0.72556486  0.11054356  0.63369086  1
  H  H71  1  0.27443514  0.61054356  0.86630914  1
  C  C72  1  0.31485546  0.85184184  0.76931101  1
  C  C73  1  0.68514454  0.35184184  0.73068899  1
  C  C74  1  0.68514454  0.14815816  0.23068899  1
  C  C75  1  0.31485546  0.64815816  0.26931101  1
  C  C76  1  0.18697517  0.78129717  0.74102510  1
  C  C77  1  0.81302483  0.28129717  0.75897490  1
  C  C78  1  0.81302483  0.21870283  0.25897490  1
  C  C79  1  0.18697517  0.71870283  0.24102510  1
  C  C80  1  0.29936570  0.47147893  0.51112519  1
  C  C81  1  0.70063430  0.97147893  0.98887481  1
  C  C82  1  0.70063430  0.52852107  0.48887481  1
  C  C83  1  0.29936570  0.02852107  0.01112519  1
  C  C84  1  0.17701518  0.54181413  0.47200093  1
  C  C85  1  0.82298482  0.04181413  0.02799907  1
  C  C86  1  0.82298482  0.45818587  0.52799907  1
  C  C87  1  0.17701518  0.95818587  0.97200093  1
  C  C88  1  0.33082152  0.92622581  0.42312847  1
  C  C89  1  0.66917848  0.42622581  0.07687153  1
  C  C90  1  0.66917848  0.07377419  0.57687153  1
  C  C91  1  0.33082152  0.57377419  0.92312847  1
  C  C92  1  0.22587033  0.97448439  0.47602053  1
  C  C93  1  0.77412967  0.47448439  0.02397947  1
  C  C94  1  0.77412967  0.02551561  0.52397947  1
  C  C95  1  0.22587033  0.52551561  0.97602053  1
  S  S96  1  0.44799454  0.84872975  0.70191739  1
  S  S97  1  0.55200546  0.34872975  0.79808261  1
  S  S98  1  0.55200546  0.15127025  0.29808261  1
  S  S99  1  0.44799454  0.65127025  0.20191739  1
  S  S100  1  0.37798651  0.52952519  0.61016361  1
  S  S101  1  0.62201349  0.02952519  0.88983639  1
  S  S102  1  0.62201349  0.47047481  0.38983639  1
  S  S103  1  0.37798651  0.97047481  0.11016361  1
  S  S104  1  0.44755133  0.80997847  0.46843663  1
  S  S105  1  0.55244867  0.30997847  0.03156337  1
  S  S106  1  0.55244867  0.19002153  0.53156337  1
  S  S107  1  0.44755133  0.69002153  0.96843663  1
  O  O108  1  0.16057197  0.74243562  0.66582203  1
  O  O109  1  0.83942803  0.24243562  0.83417797  1
  O  O110  1  0.83942803  0.25756438  0.33417797  1
  O  O111  1  0.16057197  0.75756438  0.16582203  1
  O  O112  1  0.10818654  0.76546201  0.79538703  1
  O  O113  1  0.89181346  0.26546201  0.70461297  1
  O  O114  1  0.89181346  0.23453799  0.20461297  1
  O  O115  1  0.10818654  0.73453799  0.29538703  1
  O  O116  1  0.15587198  0.65304566  0.49666224  1
  O  O117  1  0.84412802  0.15304566  0.00333776  1
  O  O118  1  0.84412802  0.34695434  0.50333776  1
  O  O119  1  0.15587198  0.84695434  0.99666224  1
  O  O120  1  0.10221705  0.48812726  0.41577062  1
  O  O121  1  0.89778295  0.98812726  0.08422938  1
  O  O122  1  0.89778295  0.51187274  0.58422938  1
  O  O123  1  0.10221705  0.01187274  0.91577062  1
  O  O124  1  0.19878914  0.91443538  0.54111712  1
  O  O125  1  0.80121086  0.41443538  0.95888288  1
  O  O126  1  0.80121086  0.08556462  0.45888288  1
  O  O127  1  0.19878914  0.58556462  0.04111712  1
  O  O128  1  0.16536721  0.07229586  0.45239144  1
  O  O129  1  0.83463279  0.57229586  0.04760856  1
  O  O130  1  0.83463279  0.92770414  0.54760856  1
  O  O131  1  0.16536721  0.42770414  0.95239144  1
  O  O132  1  0.89147064  0.93731334  0.80653855  1
  O  O133  1  0.10852936  0.43731334  0.69346145  1
  O  O134  1  0.10852936  0.06268666  0.19346145  1
  O  O135  1  0.89147064  0.56268666  0.30653855  1
  O  O136  1  0.92506411  0.73265402  0.93795123  1
  O  O137  1  0.07493589  0.23265402  0.56204877  1
  O  O138  1  0.07493589  0.26734598  0.06204877  1
  O  O139  1  0.92506411  0.76734598  0.43795123  1
  O  O140  1  0.68475241  0.69171848  0.81077226  1
  O  O141  1  0.31524759  0.19171848  0.68922774  1
  O  O142  1  0.31524759  0.30828152  0.18922774  1
  O  O143  1  0.68475241  0.80828152  0.31077226  1
  O  O144  1  0.94290123  0.52798942  0.80959709  1
  O  O145  1  0.05709877  0.02798942  0.69040291  1
  O  O146  1  0.05709877  0.47201058  0.19040291  1
  O  O147  1  0.94290123  0.97201058  0.30959709  1
  O  O148  1  0.83152857  0.72788088  0.66631461  1
  O  O149  1  0.16847143  0.22788088  0.83368539  1
  O  O150  1  0.16847143  0.27211912  0.33368539  1
  O  O151  1  0.83152857  0.77211912  0.16631461  1
