# generated using pymatgen
data_NbSeI
_symmetry_space_group_name_H-M   'P 1'
_cell_length_a   7.74315986
_cell_length_b   7.74315986
_cell_length_c   7.74315986
_cell_angle_alpha   59.99999999
_cell_angle_beta   59.99999998
_cell_angle_gamma   60.00000002
_symmetry_Int_Tables_number   1
_chemical_formula_structural   NbSeI
_chemical_formula_sum   'Nb4 Se4 I4'
_cell_volume   328.27641222
_cell_formula_units_Z   4
loop_
 _symmetry_equiv_pos_site_id
 _symmetry_equiv_pos_as_xyz
  1  'x, y, z'
loop_
 _atom_site_type_symbol
 _atom_site_label
 _atom_site_symmetry_multiplicity
 _atom_site_fract_x
 _atom_site_fract_y
 _atom_site_fract_z
 _atom_site_occupancy
  Se  Se0  1  0.10732280  0.63089240  0.63089240  1
  Se  Se1  1  0.63089240  0.10732280  0.63089240  1
  Se  Se2  1  0.63089240  0.63089240  0.10732280  1
  Se  Se3  1  0.63089240  0.63089240  0.63089240  1
  Nb  Nb4  1  0.40182013  0.40182013  0.40182013  1
  Nb  Nb5  1  0.79453962  0.40182013  0.40182013  1
  Nb  Nb6  1  0.40182013  0.40182013  0.79453962  1
  Nb  Nb7  1  0.40182013  0.79453962  0.40182013  1
  I  I8  1  0.12780886  0.12780886  0.12780886  1
  I  I9  1  0.12780886  0.12780886  0.61657342  1
  I  I10  1  0.61657342  0.12780886  0.12780886  1
  I  I11  1  0.12780886  0.61657342  0.12780886  1
