# generated using pymatgen
data_Cs2UCl6
_symmetry_space_group_name_H-M   'P 1'
_cell_length_a   7.64304938
_cell_length_b   7.64304938
_cell_length_c   6.31889691
_cell_angle_alpha   90.00000000
_cell_angle_beta   90.00000000
_cell_angle_gamma   119.99999998
_symmetry_Int_Tables_number   1
_chemical_formula_structural   Cs2UCl6
_chemical_formula_sum   'Cs2 U1 Cl6'
_cell_volume   319.67246730
_cell_formula_units_Z   1
loop_
 _symmetry_equiv_pos_site_id
 _symmetry_equiv_pos_as_xyz
  1  'x, y, z'
loop_
 _atom_site_type_symbol
 _atom_site_label
 _atom_site_symmetry_multiplicity
 _atom_site_fract_x
 _atom_site_fract_y
 _atom_site_fract_z
 _atom_site_occupancy
  Cl  Cl0  1  0.83506999  0.16493001  0.76736056  1
  Cl  Cl1  1  0.83506999  0.67013999  0.76736056  1
  Cl  Cl2  1  0.32986001  0.16493001  0.76736056  1
  Cl  Cl3  1  0.16493001  0.83506999  0.23263944  1
  Cl  Cl4  1  0.16493001  0.32986001  0.23263944  1
  Cl  Cl5  1  0.67013999  0.83506999  0.23263944  1
  Cs  Cs6  1  0.66666667  0.33333333  0.26198235  1
  Cs  Cs7  1  0.33333333  0.66666667  0.73801765  1
  U  U8  1  0.00000000  0.00000000  0.00000000  1
