# generated using pymatgen
data_CsCu2Cl3
_symmetry_space_group_name_H-M   'P 1'
_cell_length_a   5.34507717
_cell_length_b   7.92486228
_cell_length_c   7.92486228
_cell_angle_alpha   104.19660664
_cell_angle_beta   90.00000000
_cell_angle_gamma   90.00000000
_symmetry_Int_Tables_number   1
_chemical_formula_structural   CsCu2Cl3
_chemical_formula_sum   'Cs2 Cu4 Cl6'
_cell_volume   325.43725364
_cell_formula_units_Z   2
loop_
 _symmetry_equiv_pos_site_id
 _symmetry_equiv_pos_as_xyz
  1  'x, y, z'
loop_
 _atom_site_type_symbol
 _atom_site_label
 _atom_site_symmetry_multiplicity
 _atom_site_fract_x
 _atom_site_fract_y
 _atom_site_fract_z
 _atom_site_occupancy
  Cl  Cl0  1  0.25000000  0.89256983  0.10743017  1
  Cl  Cl1  1  0.75000000  0.10743017  0.89256983  1
  Cl  Cl2  1  0.25000000  0.83929361  0.60128934  1
  Cl  Cl3  1  0.75000000  0.16070639  0.39871066  1
  Cl  Cl4  1  0.25000000  0.39871066  0.16070639  1
  Cl  Cl5  1  0.75000000  0.60128934  0.83929361  1
  Cu  Cu6  1  0.00000000  0.83369407  0.83369407  1
  Cu  Cu7  1  0.00000000  0.16630593  0.16630593  1
  Cu  Cu8  1  0.50000000  0.16630593  0.16630593  1
  Cu  Cu9  1  0.50000000  0.83369407  0.83369407  1
  Cs  Cs10  1  0.25000000  0.31240939  0.68759061  1
  Cs  Cs11  1  0.75000000  0.68759061  0.31240939  1
