# generated using pymatgen
data_YCI
_symmetry_space_group_name_H-M   'P 1'
_cell_length_a   3.91420654
_cell_length_b   4.15558871
_cell_length_c   10.78092923
_cell_angle_alpha   93.10864965
_cell_angle_beta   90.00000000
_cell_angle_gamma   118.09643035
_symmetry_Int_Tables_number   1
_chemical_formula_structural   YCI
_chemical_formula_sum   'Y2 C2 I2'
_cell_volume   154.40303234
_cell_formula_units_Z   2
loop_
 _symmetry_equiv_pos_site_id
 _symmetry_equiv_pos_as_xyz
  1  'x, y, z'
loop_
 _atom_site_type_symbol
 _atom_site_label
 _atom_site_symmetry_multiplicity
 _atom_site_fract_x
 _atom_site_fract_y
 _atom_site_fract_z
 _atom_site_occupancy
  C  C0  1  0.57661907  0.15323814  0.97000200  1
  C  C1  1  0.42338093  0.84676186  0.02999800  1
  Y  Y2  1  0.14659471  0.29318942  0.12842102  1
  Y  Y3  1  0.85340529  0.70681058  0.87157898  1
  I  I4  1  0.17485759  0.34971518  0.67557122  1
  I  I5  1  0.82514241  0.65028482  0.32442878  1
