# generated using pymatgen
data_U2Fe15Ge2
_symmetry_space_group_name_H-M   'P 1'
_cell_length_a   8.51111893
_cell_length_b   8.28975513
_cell_length_c   8.28975513
_cell_angle_alpha   119.94855012
_cell_angle_beta   90.00000000
_cell_angle_gamma   90.00000000
_symmetry_Int_Tables_number   1
_chemical_formula_structural   U2Fe15Ge2
_chemical_formula_sum   'U4 Fe30 Ge4'
_cell_volume   506.78717798
_cell_formula_units_Z   2
loop_
 _symmetry_equiv_pos_site_id
 _symmetry_equiv_pos_as_xyz
  1  'x, y, z'
loop_
 _atom_site_type_symbol
 _atom_site_label
 _atom_site_symmetry_multiplicity
 _atom_site_fract_x
 _atom_site_fract_y
 _atom_site_fract_z
 _atom_site_occupancy
  U  U0  1  0.75000000  0.99978676  0.00021324  1
  U  U1  1  0.25000000  0.00021324  0.99978676  1
  U  U2  1  0.25000000  0.66636618  0.33363382  1
  U  U3  1  0.75000000  0.33363382  0.66636618  1
  Fe  Fe4  1  0.50000000  0.50000000  0.00000000  1
  Fe  Fe5  1  0.50000000  0.50000000  0.50000000  1
  Fe  Fe6  1  0.50000000  -0.00000000  0.50000000  1
  Fe  Fe7  1  0.00000000  0.50000000  0.00000000  1
  Fe  Fe8  1  0.00000000  0.50000000  0.50000000  1
  Fe  Fe9  1  -0.00000000  -0.00000000  0.50000000  1
  Fe  Fe10  1  0.75000000  0.66842193  0.02046652  1
  Fe  Fe11  1  0.75000000  0.35223341  0.33166048  1
  Fe  Fe12  1  0.75000000  0.97937853  0.64780678  1
  Fe  Fe13  1  0.75000000  0.35219322  0.02062147  1
  Fe  Fe14  1  0.75000000  0.97953348  0.33157807  1
  Fe  Fe15  1  0.75000000  0.66833952  0.64776659  1
  Fe  Fe16  1  0.25000000  0.33157807  0.97953348  1
  Fe  Fe17  1  0.25000000  0.64776659  0.66833952  1
  Fe  Fe18  1  0.25000000  0.02062147  0.35219322  1
  Fe  Fe19  1  0.25000000  0.64780678  0.97937853  1
  Fe  Fe20  1  0.25000000  0.02046652  0.66842193  1
  Fe  Fe21  1  0.25000000  0.33166048  0.35223341  1
  Fe  Fe22  1  0.48830699  0.83598251  0.67210310  1
  Fe  Fe23  1  0.48830820  0.83613412  0.16386588  1
  Fe  Fe24  1  0.48830699  0.32789690  0.16401749  1
  Fe  Fe25  1  0.51169301  0.16401749  0.32789690  1
  Fe  Fe26  1  0.51169180  0.16386588  0.83613412  1
  Fe  Fe27  1  0.51169301  0.67210310  0.83598251  1
  Fe  Fe28  1  0.98830699  0.16401749  0.32789690  1
  Fe  Fe29  1  0.98830820  0.16386588  0.83613412  1
  Fe  Fe30  1  0.98830699  0.67210310  0.83598251  1
  Fe  Fe31  1  0.01169301  0.83598251  0.67210310  1
  Fe  Fe32  1  0.01169180  0.83613412  0.16386588  1
  Fe  Fe33  1  0.01169301  0.32789690  0.16401749  1
  Ge  Ge34  1  0.60087324  0.66661821  0.33338179  1
  Ge  Ge35  1  0.39912676  0.33338179  0.66661821  1
  Ge  Ge36  1  0.10087324  0.33338179  0.66661821  1
  Ge  Ge37  1  0.89912676  0.66661821  0.33338179  1
