# generated using pymatgen
data_Rb2CoCl4
_symmetry_space_group_name_H-M   'P 1'
_cell_length_a   7.34204142
_cell_length_b   9.45127848
_cell_length_c   13.03226723
_cell_angle_alpha   90.00000000
_cell_angle_beta   90.00000000
_cell_angle_gamma   90.00000000
_symmetry_Int_Tables_number   1
_chemical_formula_structural   Rb2CoCl4
_chemical_formula_sum   'Rb8 Co4 Cl16'
_cell_volume   904.33089217
_cell_formula_units_Z   4
loop_
 _symmetry_equiv_pos_site_id
 _symmetry_equiv_pos_as_xyz
  1  'x, y, z'
loop_
 _atom_site_type_symbol
 _atom_site_label
 _atom_site_symmetry_multiplicity
 _atom_site_fract_x
 _atom_site_fract_y
 _atom_site_fract_z
 _atom_site_occupancy
  Cl  Cl0  1  0.50016155  0.82111969  0.34883816  1
  Cl  Cl1  1  0.00016155  0.17888031  0.65116184  1
  Cl  Cl2  1  0.99983845  0.32111969  0.15116184  1
  Cl  Cl3  1  0.49983845  0.67888031  0.84883816  1
  Cl  Cl4  1  0.49983845  0.17888031  0.65116184  1
  Cl  Cl5  1  0.99983845  0.82111969  0.34883816  1
  Cl  Cl6  1  0.00016155  0.67888031  0.84883816  1
  Cl  Cl7  1  0.50016155  0.32111969  0.15116184  1
  Cl  Cl8  1  0.25000000  0.18615115  0.41323401  1
  Cl  Cl9  1  0.75000000  0.81384885  0.58676599  1
  Cl  Cl10  1  0.25000000  0.68615115  0.08676599  1
  Cl  Cl11  1  0.75000000  0.31384885  0.91323401  1
  Cl  Cl12  1  0.75000000  0.99178356  0.08796454  1
  Cl  Cl13  1  0.25000000  0.00821644  0.91203546  1
  Cl  Cl14  1  0.75000000  0.49178356  0.41203546  1
  Cl  Cl15  1  0.25000000  0.50821644  0.58796454  1
  Co  Co16  1  0.25000000  0.27034868  0.57601039  1
  Co  Co17  1  0.75000000  0.72965132  0.42398961  1
  Co  Co18  1  0.25000000  0.77034868  0.92398961  1
  Co  Co19  1  0.75000000  0.22965132  0.07601039  1
  Rb  Rb20  1  0.25000000  0.86732948  0.58496818  1
  Rb  Rb21  1  0.75000000  0.13267052  0.41503182  1
  Rb  Rb22  1  0.25000000  0.36732948  0.91503182  1
  Rb  Rb23  1  0.75000000  0.63267052  0.08496818  1
  Rb  Rb24  1  0.25000000  0.51717097  0.32639161  1
  Rb  Rb25  1  0.75000000  0.48282903  0.67360839  1
  Rb  Rb26  1  0.25000000  0.01717097  0.17360839  1
  Rb  Rb27  1  0.75000000  0.98282903  0.82639161  1
