# generated using pymatgen
data_Mg3B7ClO13
_symmetry_space_group_name_H-M   'P 1'
_cell_length_a   8.64309270
_cell_length_b   8.62880872
_cell_length_c   12.22371966
_cell_angle_alpha   90.00000000
_cell_angle_beta   90.00000000
_cell_angle_gamma   90.00000000
_symmetry_Int_Tables_number   1
_chemical_formula_structural   Mg3B7ClO13
_chemical_formula_sum   'Mg12 B28 Cl4 O52'
_cell_volume   911.64004523
_cell_formula_units_Z   4
loop_
 _symmetry_equiv_pos_site_id
 _symmetry_equiv_pos_as_xyz
  1  'x, y, z'
loop_
 _atom_site_type_symbol
 _atom_site_label
 _atom_site_symmetry_multiplicity
 _atom_site_fract_x
 _atom_site_fract_y
 _atom_site_fract_z
 _atom_site_occupancy
  B  B0  1  0.90584408  0.74990487  0.57229029  1
  B  B1  1  0.09415592  0.25009513  0.07229029  1
  B  B2  1  0.59415592  0.74990487  0.07229029  1
  B  B3  1  0.40584408  0.25009513  0.57229029  1
  B  B4  1  0.95706867  0.75086065  0.10208764  1
  B  B5  1  0.04293133  0.24913935  0.60208764  1
  B  B6  1  0.54293133  0.75086065  0.60208764  1
  B  B7  1  0.45706867  0.24913935  0.10208764  1
  B  B8  1  0.25320162  0.09634316  0.42002588  1
  B  B9  1  0.74679838  0.90365684  0.92002588  1
  B  B10  1  0.24679838  0.09634316  0.92002588  1
  B  B11  1  0.75320162  0.90365684  0.42002588  1
  B  B12  1  0.25279672  0.40333458  0.41925292  1
  B  B13  1  0.74720328  0.59666542  0.91925292  1
  B  B14  1  0.24720328  0.40333458  0.91925292  1
  B  B15  1  0.75279672  0.59666542  0.41925292  1
  B  B16  1  0.50287419  0.49623775  0.99983114  1
  B  B17  1  0.49712581  0.50376225  0.49983114  1
  B  B18  1  0.99712581  0.49623775  0.49983114  1
  B  B19  1  0.00287419  0.50376225  0.99983114  1
  B  B20  1  0.75665570  0.75311343  0.24739288  1
  B  B21  1  0.24334430  0.24688657  0.74739288  1
  B  B22  1  0.74334430  0.75311343  0.74739288  1
  B  B23  1  0.25665570  0.24688657  0.24739288  1
  B  B24  1  0.00202339  0.99737612  0.00064990  1
  B  B25  1  0.99797661  0.00262388  0.50064990  1
  B  B26  1  0.49797661  0.99737612  0.50064990  1
  B  B27  1  0.50202339  0.00262388  0.00064990  1
  O  O28  1  0.54417308  0.32986353  0.02638661  1
  O  O29  1  0.61513761  0.67137961  0.68598012  1
  O  O30  1  0.11513761  0.32862039  0.68598012  1
  O  O31  1  0.88486239  0.67137961  0.18598012  1
  O  O32  1  0.46493634  0.08938724  0.10501203  1
  O  O33  1  0.53506366  0.91061276  0.60501203  1
  O  O34  1  0.03506366  0.08938724  0.60501203  1
  O  O35  1  0.96493634  0.91061276  0.10501203  1
  O  O36  1  0.46674371  0.83808868  0.02222075  1
  O  O37  1  0.53325629  0.16191132  0.52222075  1
  O  O38  1  0.03325629  0.83808868  0.52222075  1
  O  O39  1  0.96674371  0.16191132  0.02222075  1
  O  O40  1  0.64060648  0.82371204  0.17463195  1
  O  O41  1  0.35939352  0.17628796  0.67463195  1
  O  O42  1  0.85939352  0.82371204  0.67463195  1
  O  O43  1  0.14060648  0.17628796  0.17463195  1
  O  O44  1  0.54803612  0.59101923  0.09414901  1
  O  O45  1  0.66285193  0.48144833  0.47884345  1
  O  O46  1  0.95196388  0.59101923  0.59414901  1
  O  O47  1  0.04803612  0.40898077  0.09414901  1
  O  O48  1  0.38486239  0.32862039  0.18598012  1
  O  O49  1  0.45582692  0.67013647  0.52638661  1
  O  O50  1  0.95582692  0.32986353  0.52638661  1
  O  O51  1  0.04417308  0.67013647  0.02638661  1
  O  O52  1  0.23080493  0.25038335  0.98819639  1
  O  O53  1  0.76919507  0.74961665  0.48819639  1
  O  O54  1  0.26919507  0.25038335  0.48819639  1
  O  O55  1  0.73080493  0.74961665  0.98819639  1
  O  O56  1  0.33299324  0.97244197  0.47744331  1
  O  O57  1  0.66700676  0.02755803  0.97744331  1
  O  O58  1  0.16700676  0.97244197  0.97744331  1
  O  O59  1  0.83299324  0.02755803  0.47744331  1
  O  O60  1  0.40948555  0.46288972  0.40103214  1
  O  O61  1  0.59051445  0.53711028  0.90103214  1
  O  O62  1  0.09051445  0.46288972  0.90103214  1
  O  O63  1  0.90948555  0.53711028  0.40103214  1
  O  O64  1  0.32632657  0.12389473  0.31389456  1
  O  O65  1  0.67367343  0.87610527  0.81389456  1
  O  O66  1  0.17367343  0.12389473  0.81389456  1
  O  O67  1  0.82632657  0.87610527  0.31389456  1
  O  O68  1  0.17869627  0.36487327  0.31541999  1
  O  O69  1  0.82130373  0.63512673  0.81541999  1
  O  O70  1  0.32130373  0.36487327  0.81541999  1
  O  O71  1  0.67869627  0.63512673  0.31541999  1
  O  O72  1  0.08948763  0.05719937  0.40599832  1
  O  O73  1  0.91051237  0.94280063  0.90599832  1
  O  O74  1  0.41051237  0.05719937  0.90599832  1
  O  O75  1  0.58948763  0.94280063  0.40599832  1
  O  O76  1  0.16285193  0.51855167  0.47884345  1
  O  O77  1  0.83714807  0.48144833  0.97884345  1
  O  O78  1  0.33714807  0.51855167  0.97884345  1
  O  O79  1  0.45196388  0.40898077  0.59414901  1
  Mg  Mg80  1  0.98374587  0.46853183  0.25051994  1
  Mg  Mg81  1  0.01625413  0.53146817  0.75051994  1
  Mg  Mg82  1  0.51625413  0.46853183  0.75051994  1
  Mg  Mg83  1  0.48374587  0.53146817  0.25051994  1
  Mg  Mg84  1  0.98418917  0.03192867  0.25343880  1
  Mg  Mg85  1  0.01581083  0.96807133  0.75343880  1
  Mg  Mg86  1  0.51581083  0.03192867  0.75343880  1
  Mg  Mg87  1  0.48418917  0.96807133  0.25343880  1
  Mg  Mg88  1  0.75905754  0.25138127  0.97497960  1
  Mg  Mg89  1  0.74094246  0.25138127  0.47497960  1
  Mg  Mg90  1  0.24094246  0.74861873  0.47497960  1
  Mg  Mg91  1  0.25905754  0.74861873  0.97497960  1
  Cl  Cl92  1  0.27848296  0.74975665  0.26332238  1
  Cl  Cl93  1  0.72151704  0.25024335  0.76332238  1
  Cl  Cl94  1  0.22151704  0.74975665  0.76332238  1
  Cl  Cl95  1  0.77848296  0.25024335  0.26332238  1
