# generated using pymatgen
data_Sr2NdBiO6
_symmetry_space_group_name_H-M   'P 1'
_cell_length_a   6.02212140
_cell_length_b   6.19697761
_cell_length_c   8.61710929
_cell_angle_alpha   90.00000000
_cell_angle_beta   90.28699381
_cell_angle_gamma   90.00000000
_symmetry_Int_Tables_number   1
_chemical_formula_structural   Sr2NdBiO6
_chemical_formula_sum   'Sr4 Nd2 Bi2 O12'
_cell_volume   321.57744896
_cell_formula_units_Z   2
loop_
 _symmetry_equiv_pos_site_id
 _symmetry_equiv_pos_as_xyz
  1  'x, y, z'
loop_
 _atom_site_type_symbol
 _atom_site_label
 _atom_site_symmetry_multiplicity
 _atom_site_fract_x
 _atom_site_fract_y
 _atom_site_fract_z
 _atom_site_occupancy
  O  O0  1  0.71423529  0.19394368  0.94709434  1
  O  O1  1  0.78576471  0.69394368  0.55290566  1
  O  O2  1  0.28576471  0.80605632  0.05290566  1
  O  O3  1  0.21423529  0.30605632  0.44709434  1
  O  O4  1  0.81065730  0.71597263  0.94032020  1
  O  O5  1  0.68934270  0.21597263  0.55967980  1
  O  O6  1  0.18934270  0.28402737  0.05967980  1
  O  O7  1  0.31065730  0.78402737  0.44032020  1
  O  O8  1  0.39515383  0.54354257  0.73700454  1
  O  O9  1  0.10484617  0.04354257  0.76299546  1
  O  O10  1  0.60484617  0.45645743  0.26299546  1
  O  O11  1  0.89515383  0.95645743  0.23700454  1
  Sr  Sr12  1  0.48605813  0.04740292  0.24893699  1
  Sr  Sr13  1  0.01394187  0.54740292  0.25106301  1
  Sr  Sr14  1  0.51394187  0.95259708  0.75106301  1
  Sr  Sr15  1  0.98605813  0.45259708  0.74893699  1
  Nd  Nd16  1  0.50000000  0.50000000  0.00000000  1
  Nd  Nd17  1  0.00000000  0.00000000  0.50000000  1
  Bi  Bi18  1  0.50000000  0.50000000  0.50000000  1
  Bi  Bi19  1  0.00000000  0.00000000  0.00000000  1
