# generated using pymatgen
data_SrTa2Bi2O9
_symmetry_space_group_name_H-M   'P 1'
_cell_length_a   5.61412479
_cell_length_b   5.60194078
_cell_length_c   13.06406754
_cell_angle_alpha   102.38048309
_cell_angle_beta   90.00000000
_cell_angle_gamma   90.00000000
_symmetry_Int_Tables_number   1
_chemical_formula_structural   SrTa2Bi2O9
_chemical_formula_sum   'Sr2 Ta4 Bi4 O18'
_cell_volume   401.31034299
_cell_formula_units_Z   2
loop_
 _symmetry_equiv_pos_site_id
 _symmetry_equiv_pos_as_xyz
  1  'x, y, z'
loop_
 _atom_site_type_symbol
 _atom_site_label
 _atom_site_symmetry_multiplicity
 _atom_site_fract_x
 _atom_site_fract_y
 _atom_site_fract_z
 _atom_site_occupancy
  O  O0  1  0.79605048  0.59954188  0.16912037  1
  O  O1  1  0.29605048  0.40045812  0.83087963  1
  O  O2  1  0.29605048  0.56957849  0.16912037  1
  O  O3  1  0.79605048  0.43042151  0.83087963  1
  O  O4  1  0.77287497  0.07720524  0.13227955  1
  O  O5  1  0.27287497  0.92279476  0.86772045  1
  O  O6  1  0.27287497  0.05507430  0.13227955  1
  O  O7  1  0.77287497  0.94492570  0.86772045  1
  O  O8  1  0.71195397  0.26893643  0.50145806  1
  O  O9  1  0.21195397  0.73106357  0.49854194  1
  O  O10  1  0.53770964  0.70104898  0.00000000  1
  O  O11  1  0.03770964  0.29895102  0.00000000  1
  O  O12  1  0.54161401  0.98207907  0.31038929  1
  O  O13  1  0.04161401  0.01792093  0.68961071  1
  O  O14  1  0.04161401  0.32831023  0.31038929  1
  O  O15  1  0.54161401  0.67168977  0.68961071  1
  O  O16  1  0.71195397  0.76747837  0.49854194  1
  O  O17  1  0.21195397  0.23252163  0.50145806  1
  Sr  Sr18  1  0.01661079  0.74933241  0.00000000  1
  Sr  Sr19  1  0.51661079  0.25066759  0.00000000  1
  Ta  Ta20  1  0.02210298  0.33045334  0.16519545  1
  Ta  Ta21  1  0.52210298  0.83474212  0.16519545  1
  Ta  Ta22  1  0.02210298  0.16525788  0.83480455  1
  Ta  Ta23  1  0.52210298  0.66954666  0.83480455  1
  Bi  Bi24  1  0.92674336  0.98486012  0.40029247  1
  Bi  Bi25  1  0.42674336  0.01513988  0.59970753  1
  Bi  Bi26  1  0.42674336  0.41543235  0.40029247  1
  Bi  Bi27  1  0.92674336  0.58456765  0.59970753  1
