# generated using pymatgen
data_LuSeClO3
_symmetry_space_group_name_H-M   'P 1'
_cell_length_a   6.86236948
_cell_length_b   7.23855031
_cell_length_c   8.71198332
_cell_angle_alpha   90.00000000
_cell_angle_beta   90.00000000
_cell_angle_gamma   90.00000000
_symmetry_Int_Tables_number   1
_chemical_formula_structural   LuSeClO3
_chemical_formula_sum   'Lu4 Se4 Cl4 O12'
_cell_volume   432.75563325
_cell_formula_units_Z   4
loop_
 _symmetry_equiv_pos_site_id
 _symmetry_equiv_pos_as_xyz
  1  'x, y, z'
loop_
 _atom_site_type_symbol
 _atom_site_label
 _atom_site_symmetry_multiplicity
 _atom_site_fract_x
 _atom_site_fract_y
 _atom_site_fract_z
 _atom_site_occupancy
  O  O0  1  0.92950357  0.13869418  0.43225897  1
  O  O1  1  0.42950357  0.86130582  0.56774103  1
  O  O2  1  0.57049643  0.63869418  0.06774103  1
  O  O3  1  0.07049643  0.36130582  0.93225897  1
  O  O4  1  0.07049643  0.86130582  0.56774103  1
  O  O5  1  0.57049643  0.13869418  0.43225897  1
  O  O6  1  0.42950357  0.36130582  0.93225897  1
  O  O7  1  0.75000000  0.74920009  0.32625832  1
  O  O8  1  0.25000000  0.75079991  0.82625832  1
  O  O9  1  0.75000000  0.24920009  0.17374168  1
  O  O10  1  0.25000000  0.25079991  0.67374168  1
  O  O11  1  0.92950357  0.63869418  0.06774103  1
  Cl  Cl12  1  0.25000000  0.93547176  0.18444276  1
  Cl  Cl13  1  0.75000000  0.56452824  0.68444276  1
  Cl  Cl14  1  0.75000000  0.06452824  0.81555724  1
  Cl  Cl15  1  0.25000000  0.43547176  0.31555724  1
  Se  Se16  1  0.25000000  0.70864778  0.63442939  1
  Se  Se17  1  0.25000000  0.20864778  0.86557061  1
  Se  Se18  1  0.75000000  0.79135222  0.13442939  1
  Se  Se19  1  0.75000000  0.29135222  0.36557061  1
  Lu  Lu20  1  0.25000000  0.59989399  0.03922384  1
  Lu  Lu21  1  0.75000000  0.40010601  0.96077616  1
  Lu  Lu22  1  0.25000000  0.09989399  0.46077616  1
  Lu  Lu23  1  0.75000000  0.90010601  0.53922384  1
