# generated using pymatgen
data_Sr2LuBiO6
_symmetry_space_group_name_H-M   'P 1'
_cell_length_a   5.90670763
_cell_length_b   6.00731833
_cell_length_c   8.40829378
_cell_angle_alpha   90.00000000
_cell_angle_beta   89.90470536
_cell_angle_gamma   90.00000000
_symmetry_Int_Tables_number   1
_chemical_formula_structural   Sr2LuBiO6
_chemical_formula_sum   'Sr4 Lu2 Bi2 O12'
_cell_volume   298.35505285
_cell_formula_units_Z   2
loop_
 _symmetry_equiv_pos_site_id
 _symmetry_equiv_pos_as_xyz
  1  'x, y, z'
loop_
 _atom_site_type_symbol
 _atom_site_label
 _atom_site_symmetry_multiplicity
 _atom_site_fract_x
 _atom_site_fract_y
 _atom_site_fract_z
 _atom_site_occupancy
  O  O0  1  0.78936742  0.70554041  0.45428084  1
  O  O1  1  0.71063258  0.20554041  0.04571916  1
  O  O2  1  0.21063258  0.29445959  0.54571916  1
  O  O3  1  0.28936742  0.79445959  0.95428084  1
  O  O4  1  0.70288958  0.21112883  0.45362304  1
  O  O5  1  0.79711042  0.71112883  0.04637696  1
  O  O6  1  0.29711042  0.78887117  0.54637696  1
  O  O7  1  0.20288958  0.28887117  0.95362304  1
  O  O8  1  0.08680195  0.02869116  0.24654818  1
  O  O9  1  0.41319805  0.52869116  0.25345182  1
  O  O10  1  0.91319805  0.97130884  0.75345182  1
  O  O11  1  0.58680195  0.47130884  0.74654818  1
  Sr  Sr12  1  0.99035471  0.45910691  0.24975727  1
  Sr  Sr13  1  0.50964529  0.95910691  0.25024273  1
  Sr  Sr14  1  0.49035471  0.04089309  0.74975727  1
  Sr  Sr15  1  0.00964529  0.54089309  0.75024273  1
  Lu  Lu16  1  0.50000000  0.50000000  0.00000000  1
  Lu  Lu17  1  0.00000000  0.00000000  0.50000000  1
  Bi  Bi18  1  0.00000000  0.00000000  0.00000000  1
  Bi  Bi19  1  0.50000000  0.50000000  0.50000000  1
