# generated using pymatgen
data_ErSeClO3
_symmetry_space_group_name_H-M   'P 1'
_cell_length_a   6.96103560
_cell_length_b   7.30294152
_cell_length_c   8.80097443
_cell_angle_alpha   90.00000000
_cell_angle_beta   90.00000000
_cell_angle_gamma   90.00000000
_symmetry_Int_Tables_number   1
_chemical_formula_structural   ErSeClO3
_chemical_formula_sum   'Er4 Se4 Cl4 O12'
_cell_volume   447.40665213
_cell_formula_units_Z   4
loop_
 _symmetry_equiv_pos_site_id
 _symmetry_equiv_pos_as_xyz
  1  'x, y, z'
loop_
 _atom_site_type_symbol
 _atom_site_label
 _atom_site_symmetry_multiplicity
 _atom_site_fract_x
 _atom_site_fract_y
 _atom_site_fract_z
 _atom_site_occupancy
  O  O0  1  0.92812223  0.63972744  0.06752101  1
  O  O1  1  0.42812223  0.36027256  0.93247899  1
  O  O2  1  0.57187777  0.13972744  0.43247899  1
  O  O3  1  0.07187777  0.86027256  0.56752101  1
  O  O4  1  0.07187777  0.36027256  0.93247899  1
  O  O5  1  0.57187777  0.63972744  0.06752101  1
  O  O6  1  0.42812223  0.86027256  0.56752101  1
  O  O7  1  0.75000000  0.74907306  0.32321549  1
  O  O8  1  0.25000000  0.75092694  0.82321549  1
  O  O9  1  0.75000000  0.24907306  0.17678451  1
  O  O10  1  0.25000000  0.25092694  0.67678451  1
  O  O11  1  0.92812223  0.13972744  0.43247899  1
  Cl  Cl12  1  0.75000000  0.56298698  0.68324620  1
  Cl  Cl13  1  0.75000000  0.06298698  0.81675380  1
  Cl  Cl14  1  0.25000000  0.43701302  0.31675380  1
  Cl  Cl15  1  0.25000000  0.93701302  0.18324620  1
  Se  Se16  1  0.25000000  0.20986089  0.86689749  1
  Se  Se17  1  0.75000000  0.79013911  0.13310251  1
  Se  Se18  1  0.75000000  0.29013911  0.36689749  1
  Se  Se19  1  0.25000000  0.70986089  0.63310251  1
  Er  Er20  1  0.25000000  0.60188314  0.03955888  1
  Er  Er21  1  0.75000000  0.39811686  0.96044112  1
  Er  Er22  1  0.25000000  0.10188314  0.46044112  1
  Er  Er23  1  0.75000000  0.89811686  0.53955888  1
