# generated using pymatgen
data_La3Si2S8I
_symmetry_space_group_name_H-M   'P 1'
_cell_length_a   7.98276986
_cell_length_b   9.03719413
_cell_length_c   10.98758535
_cell_angle_alpha   97.10979162
_cell_angle_beta   90.00000000
_cell_angle_gamma   116.20996929
_symmetry_Int_Tables_number   1
_chemical_formula_structural   La3Si2S8I
_chemical_formula_sum   'La6 Si4 S16 I2'
_cell_volume   704.36423479
_cell_formula_units_Z   2
loop_
 _symmetry_equiv_pos_site_id
 _symmetry_equiv_pos_as_xyz
  1  'x, y, z'
loop_
 _atom_site_type_symbol
 _atom_site_label
 _atom_site_symmetry_multiplicity
 _atom_site_fract_x
 _atom_site_fract_y
 _atom_site_fract_z
 _atom_site_occupancy
  Si  Si0  1  0.37705959  0.68037755  0.46984883  1
  Si  Si1  1  0.62294041  0.31962245  0.53015117  1
  Si  Si2  1  0.30331796  0.68037755  0.96984883  1
  Si  Si3  1  0.69668204  0.31962245  0.03015117  1
  S  S4  1  0.72082551  0.13827297  0.54354784  1
  S  S5  1  0.58255254  0.86172703  0.95645216  1
  S  S6  1  0.27917449  0.86172703  0.45645216  1
  S  S7  1  0.41744746  0.13827297  0.04354784  1
  S  S8  1  0.75028795  0.30045279  0.84063214  1
  S  S9  1  0.55016484  0.30045279  0.34063214  1
  S  S10  1  0.44983516  0.69954721  0.65936786  1
  S  S11  1  0.24971205  0.69954721  0.15936786  1
  S  S12  1  0.88721927  0.29000255  0.14788394  1
  S  S13  1  0.59721671  0.70999745  0.35211606  1
  S  S14  1  0.11278073  0.70999745  0.85211606  1
  S  S15  1  0.40278329  0.29000255  0.64788394  1
  S  S16  1  0.71160813  0.56100084  0.08590867  1
  S  S17  1  0.15060728  0.43899916  0.41409133  1
  S  S18  1  0.28839187  0.43899916  0.91409133  1
  S  S19  1  0.84939272  0.56100084  0.58590867  1
  I  I20  1  0.98680798  0.00000000  0.75000000  1
  I  I21  1  0.01319202  0.00000000  0.25000000  1
  La  La22  1  0.59411902  0.00000000  0.25000000  1
  La  La23  1  0.40588098  0.00000000  0.75000000  1
  La  La24  1  0.31904340  0.39587956  0.18038892  1
  La  La25  1  0.92316383  0.60412044  0.31961108  1
  La  La26  1  0.68095660  0.60412044  0.81961108  1
  La  La27  1  0.07683617  0.39587956  0.68038892  1
