# generated using pymatgen
data_Li10B14Cl2O25
_symmetry_space_group_name_H-M   'P 1'
_cell_length_a   8.65194066
_cell_length_b   8.65194066
_cell_length_c   8.65194066
_cell_angle_alpha   60.00000000
_cell_angle_beta   59.99999999
_cell_angle_gamma   60.00000003
_symmetry_Int_Tables_number   1
_chemical_formula_structural   Li10B14Cl2O25
_chemical_formula_sum   'Li10 B14 Cl2 O25'
_cell_volume   457.95794568
_cell_formula_units_Z   1
loop_
 _symmetry_equiv_pos_site_id
 _symmetry_equiv_pos_as_xyz
  1  'x, y, z'
loop_
 _atom_site_type_symbol
 _atom_site_label
 _atom_site_symmetry_multiplicity
 _atom_site_fract_x
 _atom_site_fract_y
 _atom_site_fract_z
 _atom_site_occupancy
  Li  Li0  1  0.86494160  0.86494160  0.40517519  1
  Li  Li1  1  0.86494160  0.40517519  0.86494160  1
  Li  Li2  1  0.40517519  0.86494160  0.86494160  1
  Li  Li3  1  0.86494160  0.86494160  0.86494160  1
  Li  Li4  1  0.45667030  0.45667030  0.04332970  1
  Li  Li5  1  0.04332970  0.45667030  0.45667030  1
  Li  Li6  1  0.45667030  0.04332970  0.45667030  1
  Li  Li7  1  0.04332970  0.45667030  0.04332970  1
  Li  Li8  1  0.45667030  0.04332970  0.04332970  1
  Li  Li9  1  0.04332970  0.04332970  0.45667030  1
  B  B10  1  0.60085130  0.60085130  0.60085130  1
  B  B11  1  0.19744611  0.60085130  0.60085130  1
  B  B12  1  0.60085130  0.19744611  0.60085130  1
  B  B13  1  0.60085130  0.60085130  0.19744611  1
  B  B14  1  0.08095317  0.08095317  0.75714050  1
  B  B15  1  0.08095317  0.75714050  0.08095317  1
  B  B16  1  0.75714050  0.08095317  0.08095317  1
  B  B17  1  0.08095317  0.08095317  0.08095317  1
  B  B18  1  0.74948898  0.74948898  0.25051102  1
  B  B19  1  0.25051102  0.74948898  0.74948898  1
  B  B20  1  0.74948898  0.25051102  0.74948898  1
  B  B21  1  0.25051102  0.74948898  0.25051102  1
  B  B22  1  0.74948898  0.25051102  0.25051102  1
  B  B23  1  0.25051102  0.25051102  0.74948898  1
  O  O24  1  0.25770028  0.10226435  0.93638591  1
  O  O25  1  0.93638591  0.25770028  0.10226435  1
  O  O26  1  0.10226435  0.93638591  0.25770028  1
  O  O27  1  0.70364946  0.25770028  0.93638591  1
  O  O28  1  0.10226435  0.70364946  0.93638591  1
  O  O29  1  0.70364946  0.10226435  0.25770028  1
  O  O30  1  0.93638591  0.10226435  0.70364946  1
  O  O31  1  0.25770028  0.93638591  0.70364946  1
  O  O32  1  0.25770028  0.70364946  0.10226435  1
  O  O33  1  0.93638591  0.70364946  0.25770028  1
  O  O34  1  0.70364946  0.93638591  0.10226435  1
  O  O35  1  0.10226435  0.25770028  0.70364946  1
  O  O36  1  0.75828974  0.43889105  0.60707411  1
  O  O37  1  0.60707411  0.75828974  0.43889105  1
  O  O38  1  0.43889105  0.60707411  0.75828974  1
  O  O39  1  0.19574510  0.75828974  0.60707411  1
  O  O40  1  0.43889105  0.19574510  0.60707411  1
  O  O41  1  0.19574510  0.43889105  0.75828974  1
  O  O42  1  0.60707411  0.43889105  0.19574510  1
  O  O43  1  0.75828974  0.60707411  0.19574510  1
  O  O44  1  0.75828974  0.19574510  0.43889105  1
  O  O45  1  0.60707411  0.19574510  0.75828974  1
  O  O46  1  0.19574510  0.60707411  0.43889105  1
  O  O47  1  0.43889105  0.75828974  0.19574510  1
  O  O48  1  0.00000000  0.00000000  0.00000000  1
  Cl  Cl49  1  0.25000000  0.25000000  0.25000000  1
  Cl  Cl50  1  0.75000000  0.75000000  0.75000000  1
