# generated using pymatgen
data_MnP2H9C2NO7
_symmetry_space_group_name_H-M   'P 1'
_cell_length_a   5.65491068
_cell_length_b   5.65491068
_cell_length_c   13.11476710
_cell_angle_alpha   92.95950952
_cell_angle_beta   92.95950952
_cell_angle_gamma   105.86093257
_symmetry_Int_Tables_number   1
_chemical_formula_structural   MnP2H9C2NO7
_chemical_formula_sum   'Mn2 P4 H18 C4 N2 O14'
_cell_volume   401.93482677
_cell_formula_units_Z   2
loop_
 _symmetry_equiv_pos_site_id
 _symmetry_equiv_pos_as_xyz
  1  'x, y, z'
loop_
 _atom_site_type_symbol
 _atom_site_label
 _atom_site_symmetry_multiplicity
 _atom_site_fract_x
 _atom_site_fract_y
 _atom_site_fract_z
 _atom_site_occupancy
  Mn  Mn0  1  0.73055894  0.65774334  0.24289341  1
  Mn  Mn1  1  0.65774334  0.73055894  0.74289341  1
  P  P2  1  0.33334027  0.04946711  0.27901433  1
  P  P3  1  0.04946711  0.33334027  0.77901433  1
  P  P4  1  0.83237556  0.55785729  0.50635426  1
  P  P5  1  0.55785729  0.83237556  0.00635426  1
  H  H6  1  0.52532830  0.88519469  0.46167295  1
  H  H7  1  0.88519469  0.52532830  0.96167295  1
  H  H8  1  0.47698015  0.05588951  0.56107593  1
  H  H9  1  0.05588951  0.47698015  0.06107593  1
  H  H10  1  0.18602804  0.59361614  0.22749536  1
  H  H11  1  0.59361614  0.18602804  0.72749536  1
  H  H12  1  0.02143790  0.30786551  0.21378956  1
  H  H13  1  0.30786551  0.02143790  0.71378956  1
  H  H14  1  0.16576077  0.59022276  0.61253750  1
  H  H15  1  0.59022276  0.16576077  0.11253750  1
  H  H16  1  0.15646829  0.02509711  0.43935075  1
  H  H17  1  0.02509711  0.15646829  0.93935075  1
  H  H18  1  0.35297589  0.32979736  0.43240707  1
  H  H19  1  0.32979736  0.35297589  0.93240707  1
  H  H20  1  0.89304386  0.15969251  0.54040407  1
  H  H21  1  0.15969251  0.89304386  0.04040407  1
  H  H22  1  0.84962439  0.19115451  0.40727922  1
  H  H23  1  0.19115451  0.84962439  0.90727922  1
  C  C24  1  0.33586882  0.13325901  0.41705494  1
  C  C25  1  0.13325901  0.33586882  0.91705494  1
  C  C26  1  0.78233418  0.22314389  0.48216887  1
  C  C27  1  0.22314389  0.78233418  0.98216887  1
  N  N28  1  0.52473025  0.06391756  0.48396441  1
  N  N29  1  0.06391756  0.52473025  0.98396441  1
  O  O30  1  0.02697429  0.47772937  0.19471148  1
  O  O31  1  0.47772937  0.02697429  0.69471148  1
  O  O32  1  0.06179830  0.00873607  0.24022823  1
  O  O33  1  0.00873607  0.06179830  0.74022823  1
  O  O34  1  0.41428915  0.80991252  0.27475081  1
  O  O35  1  0.80991252  0.41428915  0.77475081  1
  O  O36  1  0.51075245  0.25696600  0.22614949  1
  O  O37  1  0.25696600  0.51075245  0.72614949  1
  O  O38  1  0.11793269  0.64302382  0.54317723  1
  O  O39  1  0.64302382  0.11793269  0.04317723  1
  O  O40  1  0.80408896  0.67252676  0.40638822  1
  O  O41  1  0.67252676  0.80408896  0.90638822  1
  O  O42  1  0.66762306  0.60907267  0.58699194  1
  O  O43  1  0.60907267  0.66762306  0.08699194  1
