# generated using pymatgen
data_Sr2BN2Cl
_symmetry_space_group_name_H-M   'P 1'
_cell_length_a   4.20337348
_cell_length_b   9.28096475
_cell_length_c   12.53953109
_cell_angle_alpha   90.00000000
_cell_angle_beta   90.00000000
_cell_angle_gamma   90.00000000
_symmetry_Int_Tables_number   1
_chemical_formula_structural   Sr2BN2Cl
_chemical_formula_sum   'Sr8 B4 N8 Cl4'
_cell_volume   489.18417536
_cell_formula_units_Z   4
loop_
 _symmetry_equiv_pos_site_id
 _symmetry_equiv_pos_as_xyz
  1  'x, y, z'
loop_
 _atom_site_type_symbol
 _atom_site_label
 _atom_site_symmetry_multiplicity
 _atom_site_fract_x
 _atom_site_fract_y
 _atom_site_fract_z
 _atom_site_occupancy
  B  B0  1  0.75000000  0.32814450  0.16628577  1
  B  B1  1  0.25000000  0.67185550  0.83371423  1
  B  B2  1  0.25000000  0.82814450  0.33371423  1
  B  B3  1  0.75000000  0.17185550  0.66628577  1
  N  N4  1  0.75000000  0.30125359  0.71444959  1
  N  N5  1  0.25000000  0.69874641  0.28555041  1
  N  N6  1  0.25000000  0.80125359  0.78555041  1
  N  N7  1  0.75000000  0.46186829  0.12259468  1
  N  N8  1  0.75000000  0.03813171  0.62259468  1
  N  N9  1  0.25000000  0.96186829  0.37740532  1
  N  N10  1  0.25000000  0.53813171  0.87740532  1
  N  N11  1  0.75000000  0.19874641  0.21444959  1
  Cl  Cl12  1  0.75000000  0.85504694  0.06169683  1
  Cl  Cl13  1  0.25000000  0.35504694  0.43830317  1
  Cl  Cl14  1  0.25000000  0.14495306  0.93830317  1
  Cl  Cl15  1  0.75000000  0.64495306  0.56169683  1
  Sr  Sr16  1  0.25000000  0.88353325  0.58790488  1
  Sr  Sr17  1  0.25000000  0.61646675  0.08790488  1
  Sr  Sr18  1  0.75000000  0.38353325  0.91209512  1
  Sr  Sr19  1  0.75000000  0.11646675  0.41209512  1
  Sr  Sr20  1  0.75000000  0.94014869  0.82913734  1
  Sr  Sr21  1  0.25000000  0.05985131  0.17086266  1
  Sr  Sr22  1  0.25000000  0.44014869  0.67086266  1
  Sr  Sr23  1  0.75000000  0.55985131  0.32913734  1
