# generated using pymatgen
data_NaHg2IO2
_symmetry_space_group_name_H-M   'P 1'
_cell_length_a   6.78389069
_cell_length_b   6.78389068
_cell_length_c   10.39857114
_cell_angle_alpha   90.00000000
_cell_angle_beta   90.00000000
_cell_angle_gamma   119.99999998
_symmetry_Int_Tables_number   1
_chemical_formula_structural   NaHg2IO2
_chemical_formula_sum   'Na3 Hg6 I3 O6'
_cell_volume   414.44030209
_cell_formula_units_Z   3
loop_
 _symmetry_equiv_pos_site_id
 _symmetry_equiv_pos_as_xyz
  1  'x, y, z'
loop_
 _atom_site_type_symbol
 _atom_site_label
 _atom_site_symmetry_multiplicity
 _atom_site_fract_x
 _atom_site_fract_y
 _atom_site_fract_z
 _atom_site_occupancy
  O  O0  1  0.85216508  0.70433015  0.00000000  1
  O  O1  1  0.14783492  0.85216508  0.33333333  1
  O  O2  1  0.70433015  0.85216508  0.66666667  1
  O  O3  1  0.29566985  0.14783492  0.66666667  1
  O  O4  1  0.14783492  0.29566985  0.00000000  1
  O  O5  1  0.85216508  0.14783492  0.33333333  1
  Na  Na6  1  0.00000000  0.00000000  0.16666667  1
  Na  Na7  1  0.00000000  0.00000000  0.83333333  1
  Na  Na8  1  0.00000000  0.00000000  0.50000000  1
  I  I9  1  0.50000000  0.00000000  0.00000000  1
  I  I10  1  0.50000000  0.50000000  0.33333333  1
  I  I11  1  0.00000000  0.50000000  0.66666667  1
  Hg  Hg12  1  0.50000000  0.50000000  0.00400174  1
  Hg  Hg13  1  0.00000000  0.50000000  0.33733507  1
  Hg  Hg14  1  0.50000000  0.00000000  0.67066841  1
  Hg  Hg15  1  0.00000000  0.50000000  0.99599826  1
  Hg  Hg16  1  0.50000000  0.50000000  0.66266493  1
  Hg  Hg17  1  0.50000000  0.00000000  0.32933159  1
