# generated using pymatgen
data_Ba2BiSbO6
_symmetry_space_group_name_H-M   'P 1'
_cell_length_a   6.10869999
_cell_length_b   6.10849399
_cell_length_c   6.13400449
_cell_angle_alpha   60.38181794
_cell_angle_beta   60.13636962
_cell_angle_gamma   59.99888438
_symmetry_Int_Tables_number   1
_chemical_formula_structural   Ba2BiSbO6
_chemical_formula_sum   'Ba2 Bi1 Sb1 O6'
_cell_volume   162.47782378
_cell_formula_units_Z   1
loop_
 _symmetry_equiv_pos_site_id
 _symmetry_equiv_pos_as_xyz
  1  'x, y, z'
loop_
 _atom_site_type_symbol
 _atom_site_label
 _atom_site_symmetry_multiplicity
 _atom_site_fract_x
 _atom_site_fract_y
 _atom_site_fract_z
 _atom_site_occupancy
  O  O0  1  0.29557964  0.23988661  0.70089402  1
  O  O1  1  0.23636028  0.76011339  0.29910598  1
  O  O2  1  0.70442036  0.76011339  0.29910598  1
  O  O3  1  0.76363972  0.23988661  0.70089402  1
  O  O4  1  0.73142134  0.32334151  0.21381580  1
  O  O5  1  0.26857866  0.67665849  0.78618420  1
  Sb  Sb6  1  0.50000000  0.50000000  0.50000000  1
  Ba  Ba7  1  0.24915019  0.24685486  0.25484477  1
  Ba  Ba8  1  0.75084981  0.75314514  0.74515523  1
  Bi  Bi9  1  0.00000000  0.00000000  0.00000000  1
