# generated using pymatgen
data_CsEr6CI12
_symmetry_space_group_name_H-M   'P 1'
_cell_length_a   9.53225656
_cell_length_b   9.53225655
_cell_length_c   9.53225655
_cell_angle_alpha   72.75704133
_cell_angle_beta   72.75704135
_cell_angle_gamma   72.75704131
_symmetry_Int_Tables_number   1
_chemical_formula_structural   CsEr6CI12
_chemical_formula_sum   'Cs1 Er6 C1 I12'
_cell_volume   769.10437292
_cell_formula_units_Z   1
loop_
 _symmetry_equiv_pos_site_id
 _symmetry_equiv_pos_as_xyz
  1  'x, y, z'
loop_
 _atom_site_type_symbol
 _atom_site_label
 _atom_site_symmetry_multiplicity
 _atom_site_fract_x
 _atom_site_fract_y
 _atom_site_fract_z
 _atom_site_occupancy
  C  C0  1  0.00000000  0.00000000  0.00000000  1
  I  I1  1  0.14465343  0.58043155  0.28122177  1
  I  I2  1  0.58043155  0.28122177  0.14465343  1
  I  I3  1  0.28122177  0.14465343  0.58043155  1
  I  I4  1  0.85534657  0.41956845  0.71877823  1
  I  I5  1  0.41956845  0.71877823  0.85534657  1
  I  I6  1  0.71877823  0.85534657  0.41956845  1
  I  I7  1  0.06867954  0.78844214  0.63995636  1
  I  I8  1  0.63995636  0.06867954  0.78844214  1
  I  I9  1  0.78844214  0.63995636  0.06867954  1
  I  I10  1  0.93132046  0.21155786  0.36004364  1
  I  I11  1  0.36004364  0.93132046  0.21155786  1
  I  I12  1  0.21155786  0.36004364  0.93132046  1
  Cs  Cs13  1  0.50000000  0.50000000  0.50000000  1
  Er  Er14  1  0.26510697  0.02885059  0.91187453  1
  Er  Er15  1  0.02885059  0.91187453  0.26510697  1
  Er  Er16  1  0.08812547  0.73489303  0.97114941  1
  Er  Er17  1  0.73489303  0.97114941  0.08812547  1
  Er  Er18  1  0.97114941  0.08812547  0.73489303  1
  Er  Er19  1  0.91187453  0.26510697  0.02885059  1
