# generated using pymatgen
data_Sr5P3ClO12
_symmetry_space_group_name_H-M   'P 1'
_cell_length_a   10.07199695
_cell_length_b   10.07199696
_cell_length_c   7.22086881
_cell_angle_alpha   90.00000000
_cell_angle_beta   90.00000000
_cell_angle_gamma   120.00000002
_symmetry_Int_Tables_number   1
_chemical_formula_structural   Sr5P3ClO12
_chemical_formula_sum   'Sr10 P6 Cl2 O24'
_cell_volume   634.38259311
_cell_formula_units_Z   2
loop_
 _symmetry_equiv_pos_site_id
 _symmetry_equiv_pos_as_xyz
  1  'x, y, z'
loop_
 _atom_site_type_symbol
 _atom_site_label
 _atom_site_symmetry_multiplicity
 _atom_site_fract_x
 _atom_site_fract_y
 _atom_site_fract_z
 _atom_site_occupancy
  O  O0  1  0.34336033  0.48573087  0.25000000  1
  O  O1  1  0.85762946  0.34336033  0.75000000  1
  O  O2  1  0.48573087  0.14237054  0.75000000  1
  O  O3  1  0.51426913  0.85762946  0.25000000  1
  O  O4  1  0.14237054  0.65663967  0.25000000  1
  O  O5  1  0.65663967  0.51426913  0.75000000  1
  O  O6  1  0.58768673  0.46507344  0.25000000  1
  O  O7  1  0.12261329  0.58768673  0.75000000  1
  O  O8  1  0.46507344  0.87738671  0.75000000  1
  O  O9  1  0.53492656  0.12261329  0.25000000  1
  O  O10  1  0.87738671  0.41231327  0.25000000  1
  O  O11  1  0.41231327  0.53492656  0.75000000  1
  O  O12  1  0.35568110  0.26930928  0.07570238  1
  O  O13  1  0.08637183  0.35568110  0.57570238  1
  O  O14  1  0.26930928  0.91362817  0.57570238  1
  O  O15  1  0.73069072  0.08637183  0.07570238  1
  O  O16  1  0.91362817  0.64431890  0.07570238  1
  O  O17  1  0.64431890  0.73069072  0.57570238  1
  O  O18  1  0.64431890  0.73069072  0.92429762  1
  O  O19  1  0.91362817  0.64431890  0.42429762  1
  O  O20  1  0.73069072  0.08637183  0.42429762  1
  O  O21  1  0.26930928  0.91362817  0.92429762  1
  O  O22  1  0.08637183  0.35568110  0.92429762  1
  O  O23  1  0.35568110  0.26930928  0.42429762  1
  P  P24  1  0.40820323  0.37435796  0.25000000  1
  P  P25  1  0.03384527  0.40820323  0.75000000  1
  P  P26  1  0.37435796  0.96615473  0.75000000  1
  P  P27  1  0.59179677  0.62564204  0.75000000  1
  P  P28  1  0.62564204  0.03384527  0.25000000  1
  P  P29  1  0.96615473  0.59179677  0.25000000  1
  Cl  Cl30  1  0.00000000  0.00000000  0.50000000  1
  Cl  Cl31  1  0.00000000  0.00000000  0.00000000  1
  Sr  Sr32  1  0.66666667  0.33333333  0.50194618  1
  Sr  Sr33  1  0.66666667  0.33333333  0.99805382  1
  Sr  Sr34  1  0.99946622  0.25383392  0.25000000  1
  Sr  Sr35  1  0.74563230  0.99946622  0.75000000  1
  Sr  Sr36  1  0.25383392  0.25436770  0.75000000  1
  Sr  Sr37  1  0.74616608  0.74563230  0.25000000  1
  Sr  Sr38  1  0.25436770  0.00053378  0.25000000  1
  Sr  Sr39  1  0.00053378  0.74616608  0.75000000  1
  Sr  Sr40  1  0.33333333  0.66666667  0.00194618  1
  Sr  Sr41  1  0.33333333  0.66666667  0.49805382  1
