# generated using pymatgen
data_AgHgSI
_symmetry_space_group_name_H-M   'P 1'
_cell_length_a   7.26591762
_cell_length_b   7.88277304
_cell_length_c   8.79126202
_cell_angle_alpha   90.00000000
_cell_angle_beta   90.00000000
_cell_angle_gamma   90.00000000
_symmetry_Int_Tables_number   1
_chemical_formula_structural   AgHgSI
_chemical_formula_sum   'Ag4 Hg4 S4 I4'
_cell_volume   503.52462696
_cell_formula_units_Z   4
loop_
 _symmetry_equiv_pos_site_id
 _symmetry_equiv_pos_as_xyz
  1  'x, y, z'
loop_
 _atom_site_type_symbol
 _atom_site_label
 _atom_site_symmetry_multiplicity
 _atom_site_fract_x
 _atom_site_fract_y
 _atom_site_fract_z
 _atom_site_occupancy
  S  S0  1  0.00178825  0.35615934  0.14991232  1
  S  S1  1  0.49821175  0.64384066  0.64991232  1
  S  S2  1  0.99821175  0.85615934  0.35008768  1
  S  S3  1  0.50178825  0.14384066  0.85008768  1
  Ag  Ag4  1  0.09414256  0.17208247  0.39341610  1
  Ag  Ag5  1  0.59414256  0.32791753  0.60658390  1
  Ag  Ag6  1  0.40585744  0.82791753  0.89341610  1
  Ag  Ag7  1  0.90585744  0.67208247  0.10658390  1
  I  I8  1  0.00733145  0.87780127  0.86075721  1
  I  I9  1  0.50733145  0.62219873  0.13924279  1
  I  I10  1  0.49266855  0.12219873  0.36075721  1
  I  I11  1  0.99266855  0.37780127  0.63924279  1
  Hg  Hg12  1  0.24984918  0.26655385  0.98837250  1
  Hg  Hg13  1  0.25015082  0.73344615  0.48837250  1
  Hg  Hg14  1  0.75015082  0.76655385  0.51162750  1
  Hg  Hg15  1  0.74984918  0.23344615  0.01162750  1
