# generated using pymatgen
data_RbIO4
_symmetry_space_group_name_H-M   'P 1'
_cell_length_a   6.05312546
_cell_length_b   6.05304216
_cell_length_c   7.93276116
_cell_angle_alpha   112.43320221
_cell_angle_beta   112.42916910
_cell_angle_gamma   89.99709078
_symmetry_Int_Tables_number   1
_chemical_formula_structural   RbIO4
_chemical_formula_sum   'Rb2 I2 O8'
_cell_volume   244.70629109
_cell_formula_units_Z   2
loop_
 _symmetry_equiv_pos_site_id
 _symmetry_equiv_pos_as_xyz
  1  'x, y, z'
loop_
 _atom_site_type_symbol
 _atom_site_label
 _atom_site_symmetry_multiplicity
 _atom_site_fract_x
 _atom_site_fract_y
 _atom_site_fract_z
 _atom_site_occupancy
  O  O0  1  0.58042622  0.16475070  0.40178952  1
  O  O1  1  0.23704964  0.08042953  0.90176969  1
  O  O2  1  0.66477674  0.32133115  0.90178004  1
  O  O3  1  0.82130103  0.73703993  0.40176299  1
  O  O4  1  0.17869897  0.26296007  0.59823701  1
  O  O5  1  0.33522326  0.67866885  0.09821996  1
  O  O6  1  0.76295036  0.91957047  0.09823031  1
  O  O7  1  0.41957378  0.83524930  0.59821048  1
  Rb  Rb8  1  0.12500406  0.37500398  0.25000648  1
  Rb  Rb9  1  0.87499594  0.62499602  0.74999352  1
  I  I10  1  0.62498326  0.87500497  0.25000581  1
  I  I11  1  0.37501674  0.12499503  0.74999419  1
