# generated using pymatgen
data_B2Mo
_symmetry_space_group_name_H-M   'P 1'
_cell_length_a   3.02795865
_cell_length_b   3.02795865
_cell_length_c   7.20393368
_cell_angle_alpha   77.86826756
_cell_angle_beta   77.86826756
_cell_angle_gamma   60.00001157
_symmetry_Int_Tables_number   1
_chemical_formula_structural   B2Mo
_chemical_formula_sum   'B4 Mo2'
_cell_volume   55.49074273
_cell_formula_units_Z   2
loop_
 _symmetry_equiv_pos_site_id
 _symmetry_equiv_pos_as_xyz
  1  'x, y, z'
loop_
 _atom_site_type_symbol
 _atom_site_label
 _atom_site_symmetry_multiplicity
 _atom_site_fract_x
 _atom_site_fract_y
 _atom_site_fract_z
 _atom_site_occupancy
  B  B0  1  0.33219634  0.33219634  0.00341097  1
  B  B1  1  0.66780366  0.66780366  0.99658903  1
  B  B2  1  0.18156348  0.18156348  0.45530957  1
  B  B3  1  0.81843652  0.81843652  0.54469043  1
  Mo  Mo4  1  0.07558079  0.07558079  0.77325762  1
  Mo  Mo5  1  0.92441921  0.92441921  0.22674238  1
