# generated using pymatgen
data_Si
_symmetry_space_group_name_H-M   'P 1'
_cell_length_a   10.03420870
_cell_length_b   10.58979732
_cell_length_c   10.58979732
_cell_angle_alpha   105.07913650
_cell_angle_beta   90.00000000
_cell_angle_gamma   90.00000000
_symmetry_Int_Tables_number   1
_chemical_formula_structural   Si
_chemical_formula_sum   Si46
_cell_volume   1086.52827325
_cell_formula_units_Z   46
loop_
 _symmetry_equiv_pos_site_id
 _symmetry_equiv_pos_as_xyz
  1  'x, y, z'
loop_
 _atom_site_type_symbol
 _atom_site_label
 _atom_site_symmetry_multiplicity
 _atom_site_fract_x
 _atom_site_fract_y
 _atom_site_fract_z
 _atom_site_occupancy
  Si  Si0  1  0.05902513  0.33153883  0.09363569  1
  Si  Si1  1  0.94097487  0.90636431  0.66846117  1
  Si  Si2  1  0.44097487  0.33153883  0.09363569  1
  Si  Si3  1  0.55902513  0.90636431  0.66846117  1
  Si  Si4  1  0.94097487  0.66846117  0.90636431  1
  Si  Si5  1  0.05902513  0.09363569  0.33153883  1
  Si  Si6  1  0.55902513  0.66846117  0.90636431  1
  Si  Si7  1  0.44097487  0.09363569  0.33153883  1
  Si  Si8  1  0.12650840  0.55147450  0.19947086  1
  Si  Si9  1  0.87349160  0.80052914  0.44852550  1
  Si  Si10  1  0.37349160  0.55147450  0.19947086  1
  Si  Si11  1  0.62650840  0.80052914  0.44852550  1
  Si  Si12  1  0.87349160  0.44852550  0.80052914  1
  Si  Si13  1  0.12650840  0.19947086  0.55147450  1
  Si  Si14  1  0.62650840  0.44852550  0.80052914  1
  Si  Si15  1  0.37349160  0.19947086  0.55147450  1
  Si  Si16  1  0.05923062  0.72642177  0.11068133  1
  Si  Si17  1  0.94076938  0.88931867  0.27357823  1
  Si  Si18  1  0.44076938  0.72642177  0.11068133  1
  Si  Si19  1  0.55923062  0.88931867  0.27357823  1
  Si  Si20  1  0.94076938  0.27357823  0.88931867  1
  Si  Si21  1  0.05923062  0.11068133  0.72642177  1
  Si  Si22  1  0.55923062  0.27357823  0.88931867  1
  Si  Si23  1  0.44076938  0.11068133  0.72642177  1
  Si  Si24  1  -0.00000000  0.60086066  0.39913934  1
  Si  Si25  1  0.50000000  0.60086066  0.39913934  1
  Si  Si26  1  -0.00000000  0.39913934  0.60086066  1
  Si  Si27  1  0.50000000  0.39913934  0.60086066  1
  Si  Si28  1  0.93905590  0.24807340  0.24807340  1
  Si  Si29  1  0.06094410  0.75192660  0.75192660  1
  Si  Si30  1  0.56094410  0.24807340  0.24807340  1
  Si  Si31  1  0.43905590  0.75192660  0.75192660  1
  Si  Si32  1  0.86885651  0.42083254  0.42083254  1
  Si  Si33  1  0.13114349  0.57916746  0.57916746  1
  Si  Si34  1  0.63114349  0.42083254  0.42083254  1
  Si  Si35  1  0.36885651  0.57916746  0.57916746  1
  Si  Si36  1  0.75000000  0.92839189  0.15991920  1
  Si  Si37  1  0.25000000  0.84008080  0.07160811  1
  Si  Si38  1  0.25000000  0.07160811  0.84008080  1
  Si  Si39  1  0.75000000  0.15991920  0.92839189  1
  Si  Si40  1  0.75000000  0.94241551  0.80085794  1
  Si  Si41  1  0.25000000  0.19914206  0.05758449  1
  Si  Si42  1  0.25000000  0.05758449  0.19914206  1
  Si  Si43  1  0.75000000  0.80085794  0.94241551  1
  Si  Si44  1  0.75000000  0.14384775  0.14384775  1
  Si  Si45  1  0.25000000  0.85615225  0.85615225  1
