# generated using pymatgen
data_SrNiP2O7
_symmetry_space_group_name_H-M   'P 1'
_cell_length_a   5.33569544
_cell_length_b   8.35513589
_cell_length_c   12.81399294
_cell_angle_alpha   90.00000000
_cell_angle_beta   90.35108695
_cell_angle_gamma   90.00000000
_symmetry_Int_Tables_number   1
_chemical_formula_structural   SrNiP2O7
_chemical_formula_sum   'Sr4 Ni4 P8 O28'
_cell_volume   571.24298106
_cell_formula_units_Z   4
loop_
 _symmetry_equiv_pos_site_id
 _symmetry_equiv_pos_as_xyz
  1  'x, y, z'
loop_
 _atom_site_type_symbol
 _atom_site_label
 _atom_site_symmetry_multiplicity
 _atom_site_fract_x
 _atom_site_fract_y
 _atom_site_fract_z
 _atom_site_occupancy
  O  O0  1  0.69181967  0.31592489  0.59050870  1
  O  O1  1  0.80818007  0.81592445  0.90949146  1
  O  O2  1  0.30817953  0.68407542  0.40949167  1
  O  O3  1  0.19181913  0.18407586  0.09050813  1
  O  O4  1  0.59389960  0.16658380  0.97849506  1
  O  O5  1  0.90610014  0.66658456  0.52150511  1
  O  O6  1  0.40610148  0.83341531  0.02150531  1
  O  O7  1  0.09389906  0.33341575  0.47849448  1
  O  O8  1  0.98322633  0.43851353  0.79352960  1
  O  O9  1  0.51677341  0.93851309  0.70647057  1
  O  O10  1  0.01677287  0.56148678  0.20647078  1
  O  O11  1  0.48322767  0.06148603  0.29352980  1
  O  O12  1  0.26435355  0.38365436  0.95032272  1
  O  O13  1  0.23564707  0.88365391  0.54967749  1
  O  O14  1  0.73564753  0.61634595  0.04967765  1
  O  O15  1  0.76435213  0.11634640  0.45032210  1
  O  O16  1  0.67516605  0.36224096  0.15177361  1
  O  O17  1  0.82483549  0.86224051  0.34822614  1
  O  O18  1  0.32483503  0.63775935  0.84822599  1
  O  O19  1  0.17516559  0.13775980  0.65177345  1
  O  O20  1  0.66976443  0.40364805  0.39931510  1
  O  O21  1  0.83023523  0.90364880  0.10068465  1
  O  O22  1  0.44372456  0.37829139  0.76599448  1
  O  O23  1  0.16976585  0.09635151  0.89931495  1
  O  O24  1  0.94372315  0.12170817  0.26599464  1
  O  O25  1  0.55627652  0.62170773  0.23400511  1
  O  O26  1  0.05627605  0.87829214  0.73400573  1
  O  O27  1  0.33023477  0.59635107  0.60068449  1
  P  P28  1  0.80987309  0.30283696  0.48203934  1
  P  P29  1  0.69012657  0.80283771  0.01796119  1
  P  P30  1  0.19012611  0.69716336  0.51796103  1
  P  P31  1  0.30987263  0.19716260  0.98203918  1
  P  P32  1  0.25155606  0.96294309  0.66446758  1
  P  P33  1  0.75155652  0.53705677  0.16446695  1
  P  P34  1  0.74844314  0.03705722  0.33553279  1
  P  P35  1  0.24844456  0.46294234  0.83553264  1
  Ni  Ni36  1  0.81365788  0.14867284  0.11223421  1
  Ni  Ni37  1  0.18634132  0.85132627  0.88776537  1
  Ni  Ni38  1  0.68634178  0.64867360  0.38776553  1
  Ni  Ni39  1  0.31365742  0.35132671  0.61223484  1
  Sr  Sr40  1  0.78560969  0.15957438  0.78084867  1
  Sr  Sr41  1  0.71439005  0.65957394  0.71915150  1
  Sr  Sr42  1  0.21438951  0.84042593  0.21915092  1
  Sr  Sr43  1  0.28560915  0.34042637  0.28084887  1
