# generated using pymatgen
data_Ba2CoWO6
_symmetry_space_group_name_H-M   'P 1'
_cell_length_a   5.84730568
_cell_length_b   5.81978979
_cell_length_c   5.82035315
_cell_angle_alpha   60.18081632
_cell_angle_beta   59.84034072
_cell_angle_gamma   59.84983811
_symmetry_Int_Tables_number   1
_chemical_formula_structural   Ba2CoWO6
_chemical_formula_sum   'Ba2 Co1 W1 O6'
_cell_volume   139.91481861
_cell_formula_units_Z   1
loop_
 _symmetry_equiv_pos_site_id
 _symmetry_equiv_pos_as_xyz
  1  'x, y, z'
loop_
 _atom_site_type_symbol
 _atom_site_label
 _atom_site_symmetry_multiplicity
 _atom_site_fract_x
 _atom_site_fract_y
 _atom_site_fract_z
 _atom_site_occupancy
  Ba  Ba0  1  0.75046720  0.74953280  0.74953280  1
  Ba  Ba1  1  0.24953280  0.25046720  0.25046720  1
  Co  Co2  1  0.00000000  0.00000000  0.00000000  1
  W  W3  1  0.50000000  0.50000000  0.50000000  1
  O  O4  1  0.26029617  0.73970383  0.73970383  1
  O  O5  1  0.26221470  0.26244311  0.73755689  1
  O  O6  1  0.73772908  0.26247827  0.73752173  1
  O  O7  1  0.26227092  0.73752173  0.26247827  1
  O  O8  1  0.73778530  0.73755689  0.26244311  1
  O  O9  1  0.73970383  0.26029617  0.26029617  1
