# generated using pymatgen
data_CsMnN9
_symmetry_space_group_name_H-M   'P 1'
_cell_length_a   6.52570936
_cell_length_b   7.78462934
_cell_length_c   15.26511165
_cell_angle_alpha   89.99996318
_cell_angle_beta   94.57517466
_cell_angle_gamma   89.99994401
_symmetry_Int_Tables_number   1
_chemical_formula_structural   CsMnN9
_chemical_formula_sum   'Cs4 Mn4 N36'
_cell_volume   773.00014744
_cell_formula_units_Z   4
loop_
 _symmetry_equiv_pos_site_id
 _symmetry_equiv_pos_as_xyz
  1  'x, y, z'
loop_
 _atom_site_type_symbol
 _atom_site_label
 _atom_site_symmetry_multiplicity
 _atom_site_fract_x
 _atom_site_fract_y
 _atom_site_fract_z
 _atom_site_occupancy
  Cs  Cs0  1  0.28611235  0.60366904  0.35294329  1
  Cs  Cs1  1  0.78611118  0.89633080  0.85294303  1
  Cs  Cs2  1  0.71388833  0.39633123  0.64705711  1
  Cs  Cs3  1  0.21388871  0.10366908  0.14705733  1
  Mn  Mn4  1  0.95089242  0.06229647  0.39079597  1
  Mn  Mn5  1  0.45089254  0.43770253  0.89079454  1
  Mn  Mn6  1  0.04910786  0.93770311  0.60920492  1
  Mn  Mn7  1  0.54910801  0.56229745  0.10920421  1
  N  N8  1  0.97191950  0.82202550  0.47759794  1
  N  N9  1  0.47191968  0.67797405  0.97759774  1
  N  N10  1  0.02807992  0.17797404  0.52240257  1
  N  N11  1  0.52808052  0.32202556  0.02240236  1
  N  N12  1  0.85068302  0.70599980  0.46542883  1
  N  N13  1  0.35068176  0.79400185  0.96542877  1
  N  N14  1  0.14931741  0.29400064  0.53457156  1
  N  N15  1  0.64931735  0.20599901  0.03457121  1
  N  N16  1  0.73346216  0.59289112  0.45314309  1
  N  N17  1  0.23346279  0.90710860  0.95314299  1
  N  N18  1  0.26653692  0.40710824  0.54685676  1
  N  N19  1  0.76653736  0.09289063  0.04685689  1
  N  N20  1  0.89178448  0.89158179  0.27191977  1
  N  N21  1  0.39178494  0.60841839  0.77191946  1
  N  N22  1  0.10821507  0.10841813  0.72807992  1
  N  N23  1  0.60821485  0.39158193  0.22808017  1
  N  N24  1  0.73633407  0.84407459  0.23402767  1
  N  N25  1  0.23633497  0.65592551  0.73402808  1
  N  N26  1  0.26366643  0.15592562  0.76597222  1
  N  N27  1  0.76366566  0.34407425  0.26597226  1
  N  N28  1  0.58135404  0.79583344  0.19589810  1
  N  N29  1  0.08135432  0.70416787  0.69589834  1
  N  N30  1  0.41864604  0.20416674  0.80410159  1
  N  N31  1  0.91864555  0.29583308  0.30410156  1
  N  N32  1  0.27290925  0.05744161  0.36251455  1
  N  N33  1  0.77290918  0.44255804  0.86251471  1
  N  N34  1  0.72709167  0.94255821  0.63748504  1
  N  N35  1  0.22709059  0.55744182  0.13748502  1
  N  N36  1  0.44969056  0.06726518  0.38699907  1
  N  N37  1  0.94968866  0.43273451  0.88699905  1
  N  N38  1  0.55030938  0.93273486  0.61300084  1
  N  N39  1  0.05030979  0.56726511  0.11300066  1
  N  N40  1  0.62585117  0.07681851  0.41057347  1
  N  N41  1  0.12585117  0.42318234  0.91057335  1
  N  N42  1  0.37414971  0.92318199  0.58942713  1
  N  N43  1  0.87414865  0.57681776  0.08942686  1
