# generated using pymatgen
data_MoPdRu2
_symmetry_space_group_name_H-M   'P 1'
_cell_length_a   2.77343485
_cell_length_b   2.77384026
_cell_length_c   8.89466026
_cell_angle_alpha   90.00000000
_cell_angle_beta   90.00000000
_cell_angle_gamma   59.99516439
_symmetry_Int_Tables_number   1
_chemical_formula_structural   MoPdRu2
_chemical_formula_sum   'Mo1 Pd1 Ru2'
_cell_volume   59.25680720
_cell_formula_units_Z   1
loop_
 _symmetry_equiv_pos_site_id
 _symmetry_equiv_pos_as_xyz
  1  'x, y, z'
loop_
 _atom_site_type_symbol
 _atom_site_label
 _atom_site_symmetry_multiplicity
 _atom_site_fract_x
 _atom_site_fract_y
 _atom_site_fract_z
 _atom_site_occupancy
  Mo  Mo0  1  0.33355531  0.33322234  0.37500000  1
  Pd  Pd1  1  0.33336318  0.33331841  0.87500000  1
  Ru  Ru2  1  0.66654076  0.66672962  0.13284926  1
  Ru  Ru3  1  0.66654076  0.66672962  0.61715074  1
