# generated using pymatgen
data_MoP2O7
_symmetry_space_group_name_H-M   'P 1'
_cell_length_a   4.98972690
_cell_length_b   8.45887775
_cell_length_c   7.11275217
_cell_angle_alpha   90.00000000
_cell_angle_beta   106.71297950
_cell_angle_gamma   90.00000000
_symmetry_Int_Tables_number   1
_chemical_formula_structural   MoP2O7
_chemical_formula_sum   'Mo2 P4 O14'
_cell_volume   287.52969599
_cell_formula_units_Z   2
loop_
 _symmetry_equiv_pos_site_id
 _symmetry_equiv_pos_as_xyz
  1  'x, y, z'
loop_
 _atom_site_type_symbol
 _atom_site_label
 _atom_site_symmetry_multiplicity
 _atom_site_fract_x
 _atom_site_fract_y
 _atom_site_fract_z
 _atom_site_occupancy
  O  O0  1  0.43121459  0.85483381  0.08766962  1
  O  O1  1  0.99567590  0.77236818  0.17763357  1
  O  O2  1  0.00432540  0.27236783  0.82236593  1
  O  O3  1  0.14055145  0.61616973  0.92296878  1
  O  O4  1  0.15319120  0.01001202  0.47010490  1
  O  O5  1  0.28171537  0.30259855  0.50595120  1
  O  O6  1  0.43014839  0.61715083  0.63090001  1
  O  O7  1  0.56878667  0.35483346  0.91233128  1
  O  O8  1  0.84681006  0.51001167  0.52989600  1
  O  O9  1  0.42204930  0.59464321  0.27158728  1
  O  O10  1  0.85944985  0.11616938  0.07703072  1
  O  O11  1  0.56985287  0.11715048  0.36910090  1
  O  O12  1  0.71828589  0.80259890  0.49404970  1
  O  O13  1  0.57795200  0.09464405  0.72841222  1
  P  P14  1  0.23990547  0.71483037  0.10614247  1
  P  P15  1  0.76009579  0.21483122  0.89385843  1
  P  P16  1  0.38686896  0.13376604  0.50915239  1
  P  P17  1  0.61313230  0.63376638  0.49084852  1
  Mo  Mo18  1  0.78536247  0.94758139  0.27407954  1
  Mo  Mo19  1  0.21463883  0.44758223  0.72591996  1
