# generated using pymatgen
data_CrBPbO4
_symmetry_space_group_name_H-M   'P 1'
_cell_length_a   6.07686495
_cell_length_b   7.11094683
_cell_length_c   8.25610867
_cell_angle_alpha   90.00000000
_cell_angle_beta   90.00000000
_cell_angle_gamma   90.00000000
_symmetry_Int_Tables_number   1
_chemical_formula_structural   CrBPbO4
_chemical_formula_sum   'Cr4 B4 Pb4 O16'
_cell_volume   356.76514377
_cell_formula_units_Z   4
loop_
 _symmetry_equiv_pos_site_id
 _symmetry_equiv_pos_as_xyz
  1  'x, y, z'
loop_
 _atom_site_type_symbol
 _atom_site_label
 _atom_site_symmetry_multiplicity
 _atom_site_fract_x
 _atom_site_fract_y
 _atom_site_fract_z
 _atom_site_occupancy
  B  B0  1  0.25000015  0.77738435  0.73435932  1
  B  B1  1  0.25000015  0.27738459  0.76564037  1
  B  B2  1  0.75000045  0.72261635  0.23435902  1
  B  B3  1  0.75000045  0.22261658  0.26564007  1
  O  O4  1  0.75000045  0.32729734  0.40894235  1
  O  O5  1  0.55174389  0.66964894  0.30429906  1
  O  O6  1  0.44825505  0.83035034  0.80429936  1
  O  O7  1  0.94825536  0.16964918  0.19570003  1
  O  O8  1  0.25000015  0.17270384  0.90894265  1
  O  O9  1  0.05174359  0.33035058  0.69570033  1
  O  O10  1  0.75000045  0.82729710  0.09105795  1
  O  O11  1  0.25000015  0.67270360  0.59105826  1
  O  O12  1  0.25000015  0.89532972  0.12110898  1
  O  O13  1  0.75000045  0.10466980  0.87889163  1
  O  O14  1  0.94825536  0.66964894  0.30429906  1
  O  O15  1  0.75000045  0.60466957  0.62110928  1
  O  O16  1  0.05174359  0.83035034  0.80429936  1
  O  O17  1  0.55174389  0.16964918  0.19570003  1
  O  O18  1  0.44825505  0.33035058  0.69570033  1
  O  O19  1  0.25000015  0.39532996  0.37889132  1
  Cr  Cr20  1  0.00000000  0.49999976  0.50000030  1
  Cr  Cr21  1  0.50000030  0.49999976  0.50000030  1
  Cr  Cr22  1  0.50000030  0.00000000  0.00000000  1
  Cr  Cr23  1  0.00000000  0.00000000  0.00000000  1
  Pb  Pb24  1  0.25000015  0.56464215  0.13753250  1
  Pb  Pb25  1  0.75000045  0.43535737  0.86246810  1
  Pb  Pb26  1  0.25000015  0.06464239  0.36246780  1
  Pb  Pb27  1  0.75000045  0.93535713  0.63753159  1
