# generated using pymatgen
data_Rb2CoH12(SO7)2
_symmetry_space_group_name_H-M   'P 1'
_cell_length_a   6.32026638
_cell_length_b   9.27201764
_cell_length_c   12.57969753
_cell_angle_alpha   90.00000000
_cell_angle_beta   90.00000000
_cell_angle_gamma   105.30515160
_symmetry_Int_Tables_number   1
_chemical_formula_structural   Rb2CoH12(SO7)2
_chemical_formula_sum   'Rb4 Co2 H24 S4 O28'
_cell_volume   711.04523833
_cell_formula_units_Z   2
loop_
 _symmetry_equiv_pos_site_id
 _symmetry_equiv_pos_as_xyz
  1  'x, y, z'
loop_
 _atom_site_type_symbol
 _atom_site_label
 _atom_site_symmetry_multiplicity
 _atom_site_fract_x
 _atom_site_fract_y
 _atom_site_fract_z
 _atom_site_occupancy
  H  H0  1  0.32233831  0.52721117  0.64295199  1
  H  H1  1  0.67766076  0.97278792  0.14295215  1
  H  H2  1  0.67766202  0.47278860  0.35704770  1
  H  H3  1  0.32233957  0.02721186  0.85704754  1
  H  H4  1  0.33069541  0.39505366  0.56450775  1
  H  H5  1  0.66930415  0.10494569  0.06450791  1
  H  H6  1  0.92313463  0.22406707  0.40194226  1
  H  H7  1  0.07686538  0.27593340  0.90194211  1
  H  H8  1  0.07686412  0.77593271  0.59805743  1
  H  H9  1  0.92313540  0.72406750  0.09805758  1
  H  H10  1  0.08758608  0.74315726  0.37156346  1
  H  H11  1  0.91241502  0.75684294  0.87156410  1
  H  H12  1  0.91241470  0.25684363  0.62843623  1
  H  H13  1  0.08758531  0.24315684  0.12843639  1
  H  H14  1  0.32019673  0.71623432  0.40575013  1
  H  H15  1  0.67980437  0.78376589  0.90575077  1
  H  H16  1  0.67980404  0.28376658  0.59424956  1
  H  H17  1  0.32019596  0.21623389  0.09424971  1
  H  H18  1  0.01329349  0.15030737  0.81331897  1
  H  H19  1  0.98670766  0.34969197  0.31331913  1
  H  H20  1  0.33069460  0.89505410  0.93549258  1
  H  H21  1  0.66930492  0.60494611  0.43549194  1
  H  H22  1  0.01329267  0.65030781  0.68668056  1
  H  H23  1  0.98670685  0.84969241  0.18668072  1
  O  O24  1  0.83423934  0.83436334  0.88640188  1
  O  O25  1  0.83423857  0.33436291  0.61359845  1
  O  O26  1  0.01802210  0.82664293  0.11191707  1
  O  O27  1  0.98197742  0.67335728  0.61191771  1
  O  O28  1  0.98197823  0.17335685  0.88808262  1
  O  O29  1  0.01802291  0.32664249  0.38808278  1
  O  O30  1  0.29295232  0.99250219  0.93197389  1
  O  O31  1  0.16576099  0.16563644  0.11359781  1
  O  O32  1  0.70704801  0.00749759  0.06802580  1
  O  O33  1  0.29295155  0.49250176  0.56802565  1
  O  O34  1  0.94287431  0.87390474  0.32206734  1
  O  O35  1  0.05712679  0.62609547  0.82206718  1
  O  O36  1  0.05712602  0.12609504  0.67793315  1
  O  O37  1  0.94287355  0.37390431  0.17793330  1
  O  O38  1  0.60857301  0.77440147  0.42721878  1
  O  O39  1  0.39142809  0.72559873  0.92721862  1
  O  O40  1  0.39142733  0.22559831  0.57278171  1
  O  O41  1  0.60857224  0.27440104  0.07278186  1
  O  O42  1  0.77360022  0.04183231  0.42177701  1
  O  O43  1  0.22639935  0.45816704  0.92177686  1
  O  O44  1  0.22640012  0.95816746  0.57822268  1
  O  O45  1  0.77359940  0.54183275  0.07822283  1
  O  O46  1  0.59077401  0.91084168  0.26440033  1
  O  O47  1  0.40922551  0.58915853  0.76440017  1
  O  O48  1  0.40922632  0.08915809  0.73559936  1
  O  O49  1  0.59077527  0.41084237  0.23559952  1
  O  O50  1  0.16576018  0.66563687  0.38640203  1
  O  O51  1  0.70704720  0.50749802  0.43197404  1
  S  S52  1  0.26923413  0.59829932  0.85853270  1
  S  S53  1  0.73076539  0.90170089  0.35853285  1
  S  S54  1  0.26923337  0.09829889  0.64146763  1
  S  S55  1  0.73076620  0.40170046  0.14146779  1
  Co  Co56  1  0.00000077  0.50000043  0.49999985  1
  Co  Co57  1  0.00000000  0.00000000  0.00000000  1
  Rb  Rb58  1  0.34388353  0.12955770  0.35040314  1
  Rb  Rb59  1  0.65611648  0.37044277  0.85040298  1
  Rb  Rb60  1  0.65611724  0.87044320  0.64959655  1
  Rb  Rb61  1  0.34388228  0.62955701  0.14959671  1
