# generated using pymatgen
data_Li2Fe2P2O8F
_symmetry_space_group_name_H-M   'P 1'
_cell_length_a   5.11099538
_cell_length_b   10.94879423
_cell_length_c   13.13909297
_cell_angle_alpha   90.00000000
_cell_angle_beta   90.00000000
_cell_angle_gamma   90.00000000
_symmetry_Int_Tables_number   1
_chemical_formula_structural   Li2Fe2P2O8F
_chemical_formula_sum   'Li8 Fe8 P8 O32 F4'
_cell_volume   735.25361387
_cell_formula_units_Z   4
loop_
 _symmetry_equiv_pos_site_id
 _symmetry_equiv_pos_as_xyz
  1  'x, y, z'
loop_
 _atom_site_type_symbol
 _atom_site_label
 _atom_site_symmetry_multiplicity
 _atom_site_fract_x
 _atom_site_fract_y
 _atom_site_fract_z
 _atom_site_occupancy
  Li  Li0  1  0.71739467  0.16871506  0.24919831  1
  Li  Li1  1  0.78260533  0.66871506  0.25080169  1
  Li  Li2  1  0.21739467  0.83128494  0.25080169  1
  Li  Li3  1  0.28260533  0.33128494  0.24919831  1
  Li  Li4  1  0.28260533  0.83128494  0.75080169  1
  Li  Li5  1  0.21739467  0.33128494  0.74919831  1
  Li  Li6  1  0.78260533  0.16871506  0.74919831  1
  Li  Li7  1  0.71739467  0.66871506  0.75080169  1
  Fe  Fe8  1  0.81495774  0.16235473  0.01097294  1
  Fe  Fe9  1  0.68504226  0.66235473  0.48902706  1
  Fe  Fe10  1  0.31495774  0.83764527  0.48902706  1
  Fe  Fe11  1  0.18504226  0.33764527  0.01097294  1
  Fe  Fe12  1  0.18504226  0.83764527  0.98902706  1
  Fe  Fe13  1  0.31495774  0.33764527  0.51097294  1
  Fe  Fe14  1  0.68504226  0.16235473  0.51097294  1
  Fe  Fe15  1  0.81495774  0.66235473  0.98902706  1
  P  P16  1  0.81629768  0.40816249  0.37440609  1
  P  P17  1  0.68370232  0.90816249  0.12559391  1
  P  P18  1  0.31629768  0.59183751  0.12559391  1
  P  P19  1  0.18370232  0.09183751  0.37440609  1
  P  P20  1  0.18370232  0.59183751  0.62559391  1
  P  P21  1  0.31629768  0.09183751  0.87440609  1
  P  P22  1  0.68370232  0.40816249  0.87440609  1
  P  P23  1  0.81629768  0.90816249  0.62559391  1
  O  O24  1  0.77626758  0.54861799  0.37986719  1
  O  O25  1  0.72373242  0.04861799  0.12013281  1
  O  O26  1  0.27626758  0.45138201  0.12013281  1
  O  O27  1  0.22373242  0.95138201  0.37986719  1
  O  O28  1  0.22373242  0.45138201  0.62013281  1
  O  O29  1  0.27626758  0.95138201  0.87986719  1
  O  O30  1  0.72373242  0.54861799  0.87986719  1
  O  O31  1  0.77626758  0.04861799  0.62013281  1
  O  O32  1  0.68650821  0.35285699  0.28191807  1
  O  O33  1  0.81349179  0.85285699  0.21808193  1
  O  O34  1  0.18650821  0.64714301  0.21808193  1
  O  O35  1  0.31349179  0.14714301  0.28191807  1
  O  O36  1  0.31349179  0.64714301  0.71808193  1
  O  O37  1  0.18650821  0.14714301  0.78191807  1
  O  O38  1  0.81349179  0.35285699  0.78191807  1
  O  O39  1  0.68650821  0.85285699  0.71808193  1
  O  O40  1  0.11578722  0.37998119  0.38403632  1
  O  O41  1  0.38421278  0.87998119  0.11596368  1
  O  O42  1  0.61578722  0.62001881  0.11596368  1
  O  O43  1  0.88421278  0.12001881  0.38403632  1
  O  O44  1  0.88421278  0.62001881  0.61596368  1
  O  O45  1  0.61578722  0.12001881  0.88403632  1
  O  O46  1  0.38421278  0.37998119  0.88403632  1
  O  O47  1  0.11578722  0.87998119  0.61596368  1
  O  O48  1  0.69544381  0.35043076  0.47547643  1
  O  O49  1  0.80455619  0.85043076  0.02452357  1
  O  O50  1  0.19544381  0.64956924  0.02452357  1
  O  O51  1  0.30455619  0.14956924  0.47547643  1
  O  O52  1  0.30455619  0.64956924  0.52452357  1
  O  O53  1  0.19544381  0.14956924  0.97547643  1
  O  O54  1  0.80455619  0.35043076  0.97547643  1
  O  O55  1  0.69544381  0.85043076  0.52452357  1
  F  F56  1  0.00000000  0.25000000  0.13211345  1
  F  F57  1  0.50000000  0.75000000  0.36788655  1
  F  F58  1  0.00000000  0.75000000  0.86788655  1
  F  F59  1  0.50000000  0.25000000  0.63211345  1
