# generated using pymatgen
data_MnBPbO4
_symmetry_space_group_name_H-M   'P 1'
_cell_length_a   6.07446994
_cell_length_b   6.81219384
_cell_length_c   8.75935056
_cell_angle_alpha   90.00000000
_cell_angle_beta   90.00000000
_cell_angle_gamma   90.00000000
_symmetry_Int_Tables_number   1
_chemical_formula_structural   MnBPbO4
_chemical_formula_sum   'Mn4 B4 Pb4 O16'
_cell_volume   362.46601422
_cell_formula_units_Z   4
loop_
 _symmetry_equiv_pos_site_id
 _symmetry_equiv_pos_as_xyz
  1  'x, y, z'
loop_
 _atom_site_type_symbol
 _atom_site_label
 _atom_site_symmetry_multiplicity
 _atom_site_fract_x
 _atom_site_fract_y
 _atom_site_fract_z
 _atom_site_occupancy
  B  B0  1  0.25000020  0.79687919  0.73760881  1
  B  B1  1  0.25000020  0.29687860  0.76239106  1
  B  B2  1  0.75000059  0.70312112  0.23760847  1
  B  B3  1  0.75000059  0.20312199  0.26239186  1
  O  O4  1  0.75000059  0.27934500  0.40693890  1
  O  O5  1  0.54994560  0.66256725  0.31147096  1
  O  O6  1  0.45005519  0.83743306  0.81147015  1
  O  O7  1  0.95005559  0.16256666  0.18852938  1
  O  O8  1  0.25000020  0.22065412  0.90693809  1
  O  O9  1  0.04994520  0.33743246  0.68852972  1
  O  O10  1  0.75000059  0.77934560  0.09306144  1
  O  O11  1  0.25000020  0.72065471  0.59306178  1
  O  O12  1  0.25000020  0.89088102  0.10318744  1
  O  O13  1  0.75000059  0.10912016  0.89681209  1
  O  O14  1  0.95005559  0.66256725  0.31147096  1
  O  O15  1  0.75000059  0.60911928  0.60318778  1
  O  O16  1  0.04994520  0.83743306  0.81147015  1
  O  O17  1  0.54994560  0.16256666  0.18852938  1
  O  O18  1  0.45005519  0.33743246  0.68852972  1
  O  O19  1  0.25000020  0.39088043  0.39681290  1
  Mn  Mn20  1  0.00000000  0.50000059  0.50000034  1
  Mn  Mn21  1  0.50000040  0.50000059  0.50000034  1
  Mn  Mn22  1  0.50000040  0.00000000  0.00000000  1
  Mn  Mn23  1  0.00000000  0.00000000  0.00000000  1
  Pb  Pb24  1  0.25000020  0.53822395  0.14921273  1
  Pb  Pb25  1  0.75000059  0.46177724  0.85078794  1
  Pb  Pb26  1  0.25000020  0.03822335  0.35078761  1
  Pb  Pb27  1  0.75000059  0.96177636  0.64921193  1
