# generated using pymatgen
data_Be2CoH20N2(O3F4)2
_symmetry_space_group_name_H-M   'P 1'
_cell_length_a   6.20185231
_cell_length_b   9.36406349
_cell_length_c   12.66269630
_cell_angle_alpha   90.00000000
_cell_angle_beta   90.00000000
_cell_angle_gamma   106.72658231
_symmetry_Int_Tables_number   1
_chemical_formula_structural   Be2CoH20N2(O3F4)2
_chemical_formula_sum   'Be4 Co2 H40 N4 O12 F16'
_cell_volume   704.26562637
_cell_formula_units_Z   2
loop_
 _symmetry_equiv_pos_site_id
 _symmetry_equiv_pos_as_xyz
  1  'x, y, z'
loop_
 _atom_site_type_symbol
 _atom_site_label
 _atom_site_symmetry_multiplicity
 _atom_site_fract_x
 _atom_site_fract_y
 _atom_site_fract_z
 _atom_site_occupancy
  H  H0  1  0.33740813  0.53582440  0.64200080  1
  H  H1  1  0.66259280  0.96417567  0.14200025  1
  H  H2  1  0.66259266  0.46417638  0.35799951  1
  H  H3  1  0.33740750  0.03582399  0.85799927  1
  H  H4  1  0.33519331  0.39967854  0.56489331  1
  H  H5  1  0.66480636  0.10032072  0.06489355  1
  H  H6  1  0.66480699  0.60032112  0.43510621  1
  H  H7  1  0.33519232  0.89967894  0.93510677  1
  H  H8  1  0.01601320  0.35764422  0.31583792  1
  H  H9  1  0.98398696  0.14235615  0.81583769  1
  H  H10  1  0.98398759  0.64235656  0.68416160  1
  H  H11  1  0.01601334  0.85764351  0.18416184  1
  H  H12  1  0.93338130  0.22966842  0.40066989  1
  H  H13  1  0.06661885  0.27033195  0.90066965  1
  H  H14  1  0.06661738  0.77033124  0.59932963  1
  H  H15  1  0.93338193  0.72966883  0.09932987  1
  H  H16  1  0.10848784  0.74766975  0.37092698  1
  H  H17  1  0.89151147  0.75233032  0.87092675  1
  H  H18  1  0.89151294  0.25233103  0.62907333  1
  H  H19  1  0.77265800  0.45366312  0.83711703  1
  H  H20  1  0.33619289  0.71555394  0.40829590  1
  H  H21  1  0.66380643  0.78444613  0.90829566  1
  H  H22  1  0.66380580  0.28444572  0.59170442  1
  H  H23  1  0.33619387  0.21555353  0.09170465  1
  H  H24  1  0.34936645  0.67053545  0.06711471  1
  H  H25  1  0.65063286  0.82946461  0.56711447  1
  H  H26  1  0.65063272  0.32946532  0.93288481  1
  H  H27  1  0.34936744  0.17053505  0.43288505  1
  H  H28  1  0.50753655  0.58494402  0.13478666  1
  H  H29  1  0.49246438  0.91505605  0.63478721  1
  H  H30  1  0.49246375  0.41505564  0.86521286  1
  H  H31  1  0.50753640  0.08494473  0.36521310  1
  H  H32  1  0.41309131  0.71549004  0.19525265  1
  H  H33  1  0.58690962  0.78451003  0.69525241  1
  H  H34  1  0.58690899  0.28450962  0.80474687  1
  H  H35  1  0.41309117  0.21549075  0.30474711  1
  H  H36  1  0.22734229  0.54633654  0.16288329  1
  H  H37  1  0.77265863  0.95366353  0.66288305  1
  H  H38  1  0.22734215  0.04633725  0.33711647  1
  H  H39  1  0.10848721  0.24766934  0.12907278  1
  Be  Be40  1  0.25319506  0.09873737  0.64626735  1
  Be  Be41  1  0.74680362  0.90126229  0.35373297  1
  Be  Be42  1  0.25319569  0.59873778  0.85373273  1
  Be  Be43  1  0.74680461  0.40126188  0.14626758  1
  N  N44  1  0.62819898  0.37132297  0.85889949  1
  N  N45  1  0.62819799  0.87132338  0.64110058  1
  N  N46  1  0.37180118  0.12867739  0.35889894  1
  N  N47  1  0.37180132  0.62867669  0.14110082  1
  O  O48  1  0.03149591  0.33335144  0.39085685  1
  O  O49  1  0.96850425  0.16664892  0.89085662  1
  O  O50  1  0.96850439  0.66664822  0.60914346  1
  O  O51  1  0.03149493  0.83335185  0.10914370  1
  O  O52  1  0.17682589  0.66809540  0.38986334  1
  O  O53  1  0.82317503  0.83190467  0.88986310  1
  O  O54  1  0.82317441  0.33190426  0.61013697  1
  O  O55  1  0.17682575  0.16809610  0.11013721  1
  O  O56  1  0.29804786  0.49523920  0.56972703  1
  O  O57  1  0.29804849  0.99523961  0.93027304  1
  O  O58  1  0.70195180  0.00476005  0.06972648  1
  O  O59  1  0.70195082  0.50476046  0.43027328  1
  F  F60  1  0.37264988  0.72627428  0.93415167  1
  F  F61  1  0.62734944  0.77372579  0.43415112  1
  F  F62  1  0.37265086  0.22627387  0.56584841  1
  F  F63  1  0.62734881  0.27372538  0.06584865  1
  F  F64  1  0.76830013  0.05493291  0.40650547  1
  F  F65  1  0.23169954  0.44506634  0.90650523  1
  F  F66  1  0.23170017  0.94506675  0.59349484  1
  F  F67  1  0.76830076  0.55493332  0.09349508  1
  F  F68  1  0.58741018  0.88395996  0.25566214  1
  F  F69  1  0.41258913  0.61604011  0.75566269  1
  F  F70  1  0.41258899  0.11604082  0.74433738  1
  F  F71  1  0.58741117  0.38395955  0.24433762  1
  F  F72  1  0.01576815  0.11462763  0.67958592  1
  F  F73  1  0.98423215  0.88537203  0.32041440  1
  F  F74  1  0.01576717  0.61462804  0.82041416  1
  F  F75  1  0.98423200  0.38537274  0.17958536  1
  Co  Co76  1  0.00000063  0.50000041  0.49999976  1
  Co  Co77  1  0.00000000  0.00000000  0.00000000  1
