# generated using pymatgen
data_Mn8Cl3O10
_symmetry_space_group_name_H-M   'P 1'
_cell_length_a   9.40678327
_cell_length_b   9.40678260
_cell_length_c   9.40678310
_cell_angle_alpha   91.51872822
_cell_angle_beta   119.12706824
_cell_angle_gamma   119.12706974
_symmetry_Int_Tables_number   1
_chemical_formula_structural   Mn8Cl3O10
_chemical_formula_sum   'Mn16 Cl6 O20'
_cell_volume   596.12325268
_cell_formula_units_Z   2
loop_
 _symmetry_equiv_pos_site_id
 _symmetry_equiv_pos_as_xyz
  1  'x, y, z'
loop_
 _atom_site_type_symbol
 _atom_site_label
 _atom_site_symmetry_multiplicity
 _atom_site_fract_x
 _atom_site_fract_y
 _atom_site_fract_z
 _atom_site_occupancy
  Mn  Mn0  1  -0.00000000  0.50000000  0.50000000  1
  Mn  Mn1  1  -0.00000000  -0.00000000  -0.00000000  1
  Mn  Mn2  1  0.50000000  0.75000000  0.25000000  1
  Mn  Mn3  1  0.50000000  0.25000100  0.75000000  1
  Mn  Mn4  1  0.64962278  0.00000000  0.64962278  1
  Mn  Mn5  1  0.64962278  0.64962278  0.00000000  1
  Mn  Mn6  1  0.35037722  0.35037822  1.00000000  1
  Mn  Mn7  1  0.35037822  1.00000000  0.35037722  1
  Mn  Mn8  1  0.35055801  0.99881874  0.99881874  1
  Mn  Mn9  1  0.64944299  0.64826173  0.64826173  1
  Mn  Mn10  1  0.64944199  0.00118126  0.00118126  1
  Mn  Mn11  1  0.00000100  0.64826173  0.99881974  1
  Mn  Mn12  1  0.00000100  0.99881974  0.64826173  1
  Mn  Mn13  1  1.00000000  0.00118126  0.35173927  1
  Mn  Mn14  1  0.00000000  0.35173827  0.00118126  1
  Mn  Mn15  1  0.35055801  0.35173827  0.35173927  1
  Cl  Cl16  1  1.00000000  0.30358449  0.30358549  1
  Cl  Cl17  1  0.39355633  0.69677866  0.69677766  1
  Cl  Cl18  1  0.00000100  0.69677866  0.30322234  1
  Cl  Cl19  1  0.99999900  0.30322134  0.69677766  1
  Cl  Cl20  1  0.60644367  0.30322234  0.30322234  1
  Cl  Cl21  1  0.00000000  0.69641551  0.69641451  1
  O  O22  1  0.19976558  0.10000853  0.90024195  1
  O  O23  1  0.80023442  0.70047637  0.90024195  1
  O  O24  1  0.80023442  0.09975805  0.89999247  1
  O  O25  1  0.19976558  0.90024195  0.10000753  1
  O  O26  1  0.80023442  0.90024195  0.70047637  1
  O  O27  1  0.80023442  0.89999147  0.09975805  1
  O  O28  1  0.19976658  0.29952363  0.09975805  1
  O  O29  1  0.19976658  0.09975805  0.29952363  1
  O  O30  1  0.50000000  0.40189848  0.90189748  1
  O  O31  1  0.49999900  0.90189748  0.40189748  1
  O  O32  1  0.50000000  0.59810152  0.09810252  1
  O  O33  1  0.50000000  0.09810152  0.59810252  1
  O  O34  1  0.18950340  0.59475220  0.09475220  1
  O  O35  1  0.50000000  0.90524780  0.09475220  1
  O  O36  1  0.49999900  0.59475220  0.40524780  1
  O  O37  1  0.18950440  0.09475220  0.59475220  1
  O  O38  1  0.50000000  0.09475220  0.90524780  1
  O  O39  1  0.50000000  0.40524780  0.59475220  1
  O  O40  1  0.81049560  0.90524780  0.40524780  1
  O  O41  1  0.81049560  0.40524780  0.90524780  1
