# generated using pymatgen
data_FeNi2BO5
_symmetry_space_group_name_H-M   'P 1'
_cell_length_a   3.03659513
_cell_length_b   9.32560812
_cell_length_c   12.35701046
_cell_angle_alpha   90.00000000
_cell_angle_beta   90.00000000
_cell_angle_gamma   90.00000000
_symmetry_Int_Tables_number   1
_chemical_formula_structural   FeNi2BO5
_chemical_formula_sum   'Fe4 Ni8 B4 O20'
_cell_volume   349.92701097
_cell_formula_units_Z   4
loop_
 _symmetry_equiv_pos_site_id
 _symmetry_equiv_pos_as_xyz
  1  'x, y, z'
loop_
 _atom_site_type_symbol
 _atom_site_label
 _atom_site_symmetry_multiplicity
 _atom_site_fract_x
 _atom_site_fract_y
 _atom_site_fract_z
 _atom_site_occupancy
  B  B0  1  0.00000000  0.27334780  0.36025863  1
  B  B1  1  0.00000000  0.22665266  0.86025884  1
  B  B2  1  0.00000000  0.77334825  0.13974157  1
  B  B3  1  0.00000000  0.72665203  0.63974177  1
  O  O4  1  0.00000000  0.12504667  0.35893754  1
  O  O5  1  0.50000101  0.88363966  0.42243366  1
  O  O6  1  0.50000101  0.61635953  0.92243306  1
  O  O7  1  0.50000101  0.38364030  0.07756655  1
  O  O8  1  0.00000000  0.37495269  0.85893774  1
  O  O9  1  0.00000000  0.62504713  0.14106266  1
  O  O10  1  0.00000000  0.87495315  0.64106206  1
  O  O11  1  0.50000101  0.11636016  0.57756675  1
  O  O12  1  0.00000000  0.15160014  0.76281553  1
  O  O13  1  0.00000000  0.34840032  0.26281533  1
  O  O14  1  0.00000000  0.65159950  0.73718427  1
  O  O15  1  0.00000000  0.84839969  0.23718487  1
  O  O16  1  0.00000000  0.15078632  0.95759548  1
  O  O17  1  0.00000000  0.84921351  0.04240412  1
  O  O18  1  0.50000101  0.39260504  0.64330266  1
  O  O19  1  0.00000000  0.34921305  0.45759528  1
  O  O20  1  0.50000101  0.10739542  0.14330246  1
  O  O21  1  0.50000101  0.89260550  0.85669714  1
  O  O22  1  0.50000101  0.60739478  0.35669694  1
  O  O23  1  0.00000000  0.65078677  0.54240432  1
  Fe  Fe24  1  0.00000000  0.26027990  0.61457152  1
  Fe  Fe25  1  0.00000000  0.73971992  0.38542808  1
  Fe  Fe26  1  0.00000000  0.76028036  0.88542829  1
  Fe  Fe27  1  0.00000000  0.23971946  0.11457131  1
  Ni  Ni28  1  0.50000101  0.50000046  0.50000020  1
  Ni  Ni29  1  0.00000000  0.50000046  0.00000000  1
  Ni  Ni30  1  0.00000000  0.00000000  0.50000020  1
  Ni  Ni31  1  0.50000101  0.00000000  0.00000000  1
  Ni  Ni32  1  0.50000101  0.49927533  0.78207680  1
  Ni  Ni33  1  0.50000101  0.50072450  0.21792280  1
  Ni  Ni34  1  0.50000101  0.99927596  0.71792301  1
  Ni  Ni35  1  0.50000101  0.00072386  0.28207660  1
