# generated using pymatgen
data_Rb2NiH12(SO7)2
_symmetry_space_group_name_H-M   'P 1'
_cell_length_a   6.31354627
_cell_length_b   9.17062752
_cell_length_c   12.53251473
_cell_angle_alpha   90.00000000
_cell_angle_beta   90.00000000
_cell_angle_gamma   105.62831313
_symmetry_Int_Tables_number   1
_chemical_formula_structural   Rb2NiH12(SO7)2
_chemical_formula_sum   'Rb4 Ni2 H24 S4 O28'
_cell_volume   698.79576392
_cell_formula_units_Z   2
loop_
 _symmetry_equiv_pos_site_id
 _symmetry_equiv_pos_as_xyz
  1  'x, y, z'
loop_
 _atom_site_type_symbol
 _atom_site_label
 _atom_site_symmetry_multiplicity
 _atom_site_fract_x
 _atom_site_fract_y
 _atom_site_fract_z
 _atom_site_occupancy
  H  H0  1  0.31850225  0.52763365  0.64155740  1
  H  H1  1  0.68149764  0.97236608  0.14155722  1
  H  H2  1  0.68149817  0.47236710  0.35844296  1
  H  H3  1  0.31850075  0.02763355  0.85844314  1
  H  H4  1  0.33454763  0.40137467  0.55895387  1
  H  H5  1  0.66545084  0.09862486  0.05895369  1
  H  H6  1  0.92630286  0.22509583  0.40294266  1
  H  H7  1  0.07369607  0.27490482  0.90294284  1
  H  H8  1  0.07369598  0.77490493  0.59705690  1
  H  H9  1  0.92630391  0.72509480  0.09705752  1
  H  H10  1  0.08589911  0.74157472  0.37204561  1
  H  H11  1  0.91410079  0.75842501  0.87204499  1
  H  H12  1  0.91410087  0.25842491  0.62795475  1
  H  H13  1  0.08589919  0.24157461  0.12795457  1
  H  H14  1  0.31756738  0.71115047  0.40546064  1
  H  H15  1  0.68243252  0.78884926  0.90546082  1
  H  H16  1  0.68243260  0.28884915  0.59453972  1
  H  H17  1  0.31756746  0.21115036  0.09453954  1
  H  H18  1  0.00648384  0.14709056  0.81461006  1
  H  H19  1  0.99351667  0.35291009  0.31460988  1
  H  H20  1  0.33454755  0.90137477  0.94104587  1
  H  H21  1  0.66545234  0.59862496  0.44104649  1
  H  H22  1  0.00648376  0.64709066  0.68539048  1
  H  H23  1  0.99351659  0.85291020  0.18539030  1
  O  O24  1  0.83854362  0.83819599  0.88669104  1
  O  O25  1  0.83854415  0.33819701  0.61330950  1
  O  O26  1  0.02406397  0.82872646  0.11047010  1
  O  O27  1  0.97593593  0.67127327  0.61047029  1
  O  O28  1  0.97593601  0.17127316  0.88953026  1
  O  O29  1  0.02406405  0.32872635  0.38953008  1
  O  O30  1  0.29581526  0.99908838  0.93520294  1
  O  O31  1  0.16145636  0.16180364  0.11330932  1
  O  O32  1  0.70418472  0.00091124  0.06479742  1
  O  O33  1  0.29581518  0.49908849  0.56479680  1
  O  O34  1  0.94421494  0.87382212  0.32219496  1
  O  O35  1  0.05578496  0.62617761  0.82219514  1
  O  O36  1  0.05578504  0.12617750  0.67780540  1
  O  O37  1  0.94421502  0.37382202  0.17780522  1
  O  O38  1  0.60662706  0.77159870  0.42612934  1
  O  O39  1  0.39337284  0.72840103  0.92612952  1
  O  O40  1  0.39337292  0.22840093  0.57387022  1
  O  O41  1  0.60662759  0.27159972  0.07387084  1
  O  O42  1  0.77521028  0.04234356  0.42354559  1
  O  O43  1  0.22479023  0.45765709  0.92354577  1
  O  O44  1  0.22479015  0.95765720  0.57645397  1
  O  O45  1  0.77521020  0.54234367  0.07645379  1
  O  O46  1  0.59366067  0.91333945  0.26398769  1
  O  O47  1  0.40633968  0.58666142  0.76398787  1
  O  O48  1  0.40633976  0.08666131  0.73601187  1
  O  O49  1  0.59366075  0.41333934  0.23601249  1
  O  O50  1  0.16145628  0.66180374  0.38669086  1
  O  O51  1  0.70418480  0.50091113  0.43520276  1
  S  S52  1  0.26826315  0.59845852  0.85870879  1
  S  S53  1  0.73173719  0.90154234  0.35870940  1
  S  S54  1  0.26826323  0.09845841  0.64129096  1
  S  S55  1  0.73173728  0.40154224  0.14129078  1
  Ni  Ni56  1  0.99999992  0.50000011  0.50000018  1
  Ni  Ni57  1  0.00000000  0.00000000  0.00000000  1
  Rb  Rb58  1  0.34745862  0.13050704  0.35099735  1
  Rb  Rb59  1  0.65254144  0.36949247  0.85099753  1
  Rb  Rb60  1  0.65254136  0.86949258  0.64900221  1
  Rb  Rb61  1  0.34745854  0.63050715  0.14900203  1
