# generated using pymatgen
data_RbFeBP2HO9
_symmetry_space_group_name_H-M   'P 1'
_cell_length_a   8.49112159
_cell_length_b   9.51615269
_cell_length_c   9.81357140
_cell_angle_alpha   102.17191622
_cell_angle_beta   90.00000000
_cell_angle_gamma   90.00000000
_symmetry_Int_Tables_number   1
_chemical_formula_structural   RbFeBP2HO9
_chemical_formula_sum   'Rb4 Fe4 B4 P8 H4 O36'
_cell_volume   775.13779790
_cell_formula_units_Z   4
loop_
 _symmetry_equiv_pos_site_id
 _symmetry_equiv_pos_as_xyz
  1  'x, y, z'
loop_
 _atom_site_type_symbol
 _atom_site_label
 _atom_site_symmetry_multiplicity
 _atom_site_fract_x
 _atom_site_fract_y
 _atom_site_fract_z
 _atom_site_occupancy
  H  H0  1  0.07819283  0.60037964  0.49496665  1
  H  H1  1  0.57819339  0.39962007  0.00503344  1
  H  H2  1  0.92180710  0.39961970  0.50503361  1
  H  H3  1  0.42180654  0.60038034  0.99496703  1
  B  B4  1  0.05693033  0.66388176  0.30550637  1
  B  B5  1  0.55693089  0.33611795  0.19449372  1
  B  B6  1  0.94306960  0.33611865  0.69449308  1
  B  B7  1  0.44306904  0.66388138  0.80550654  1
  O  O8  1  0.48808268  0.07278832  0.80751938  1
  O  O9  1  0.29774897  0.58603336  0.75364206  1
  O  O10  1  0.20225041  0.58603374  0.25364291  1
  O  O11  1  0.70225097  0.41396704  0.24635739  1
  O  O12  1  0.91703369  0.58595926  0.23776883  1
  O  O13  1  0.41703313  0.41404045  0.26223126  1
  O  O14  1  0.08296624  0.41404007  0.76223041  1
  O  O15  1  0.58296680  0.58595996  0.73776921  1
  O  O16  1  0.71995467  0.63542613  0.43964061  1
  O  O17  1  0.21995412  0.36457358  0.06035948  1
  O  O18  1  0.63225020  0.65613455  0.19653118  1
  O  O19  1  0.78004581  0.63542683  0.93964099  1
  O  O20  1  0.98808206  0.92721171  0.69248024  1
  O  O21  1  0.79774952  0.41396667  0.74635756  1
  O  O22  1  0.01191788  0.07278870  0.30751922  1
  O  O23  1  0.51191725  0.92721209  0.19248109  1
  O  O24  1  0.66430691  0.90910213  0.91789717  1
  O  O25  1  0.16430753  0.09089790  0.58210245  1
  O  O26  1  0.33569302  0.09089828  0.08210229  1
  O  O27  1  0.83569240  0.90910143  0.41789780  1
  O  O28  1  0.65435158  0.89474944  0.65291987  1
  O  O29  1  0.15435220  0.10525058  0.84707975  1
  O  O30  1  0.34564835  0.10525096  0.34707959  1
  O  O31  1  0.84564773  0.89474875  0.15292050  1
  O  O32  1  0.42479174  0.80782480  0.77418357  1
  O  O33  1  0.92479230  0.19217416  0.72581686  1
  O  O34  1  0.57520819  0.19217453  0.22581669  1
  O  O35  1  0.07520764  0.80782518  0.27418340  1
  O  O36  1  0.45040817  0.68615025  0.96112468  1
  O  O37  1  0.95040873  0.31384978  0.53887596  1
  O  O38  1  0.54959176  0.31385016  0.03887579  1
  O  O39  1  0.04959121  0.68615063  0.46112451  1
  O  O40  1  0.86775029  0.65613417  0.69653134  1
  O  O41  1  0.36774973  0.34386586  0.80346828  1
  O  O42  1  0.13224964  0.34386516  0.30346790  1
  O  O43  1  0.28004526  0.36457320  0.56035863  1
  P  P44  1  0.74015952  0.57973672  0.28279015  1
  P  P45  1  0.24016014  0.42026299  0.21720994  1
  P  P46  1  0.25984041  0.42026369  0.71721032  1
  P  P47  1  0.75983979  0.57973635  0.78279032  1
  P  P48  1  0.93739764  0.92390230  0.29209389  1
  P  P49  1  0.56260167  0.92390300  0.79209427  1
  P  P50  1  0.06260229  0.07609703  0.70790535  1
  P  P51  1  0.43739826  0.07609741  0.20790518  1
  Fe  Fe52  1  0.84461763  0.79331802  0.56769782  1
  Fe  Fe53  1  0.15538230  0.20668131  0.43230244  1
  Fe  Fe54  1  0.34461826  0.20668201  0.93230180  1
  Fe  Fe55  1  0.65538168  0.79331840  0.06769765  1
  Rb  Rb56  1  0.10050714  0.80630645  0.93521443  1
  Rb  Rb57  1  0.60050652  0.19369358  0.56478519  1
  Rb  Rb58  1  0.89949279  0.19369396  0.06478604  1
  Rb  Rb59  1  0.39949342  0.80630682  0.43521426  1
