# generated using pymatgen
data_NiH20S2(NO7)2
_symmetry_space_group_name_H-M   'P 1'
_cell_length_a   6.32377540
_cell_length_b   9.20301635
_cell_length_c   12.50627149
_cell_angle_alpha   90.00000000
_cell_angle_beta   90.00000000
_cell_angle_gamma   107.07764384
_symmetry_Int_Tables_number   1
_chemical_formula_structural   NiH20S2(NO7)2
_chemical_formula_sum   'Ni2 H40 S4 N4 O28'
_cell_volume   695.74553857
_cell_formula_units_Z   2
loop_
 _symmetry_equiv_pos_site_id
 _symmetry_equiv_pos_as_xyz
  1  'x, y, z'
loop_
 _atom_site_type_symbol
 _atom_site_label
 _atom_site_symmetry_multiplicity
 _atom_site_fract_x
 _atom_site_fract_y
 _atom_site_fract_z
 _atom_site_occupancy
  H  H0  1  0.32191994  0.52636216  0.64437808  1
  H  H1  1  0.67808103  0.97363888  0.14437804  1
  H  H2  1  0.67807987  0.47363797  0.35562200  1
  H  H3  1  0.32192037  0.02636125  0.85562125  1
  H  H4  1  0.33537455  0.40346541  0.55865641  1
  H  H5  1  0.66462459  0.09653495  0.05865636  1
  H  H6  1  0.66462526  0.59653472  0.44134368  1
  H  H7  1  0.33537522  0.90346517  0.94134372  1
  H  H8  1  0.00005677  0.36072174  0.31385389  1
  H  H9  1  0.99994396  0.13927862  0.81385393  1
  H  H10  1  0.99994463  0.63927839  0.68614620  1
  H  H11  1  0.00005586  0.86072151  0.18614616  1
  H  H12  1  0.94131900  0.23218226  0.40248782  1
  H  H13  1  0.05868173  0.26781810  0.90248786  1
  H  H14  1  0.05868081  0.76781787  0.59751226  1
  H  H15  1  0.94131809  0.73218203  0.09751222  1
  H  H16  1  0.09492975  0.75011120  0.37791280  1
  H  H17  1  0.90506915  0.74988869  0.87791284  1
  H  H18  1  0.90507007  0.24988892  0.62208728  1
  H  H19  1  0.80377430  0.43484870  0.83192420  1
  H  H20  1  0.32252522  0.71816810  0.41135435  1
  H  H21  1  0.67747367  0.78183179  0.91135439  1
  H  H22  1  0.67747459  0.28183202  0.58864573  1
  H  H23  1  0.32252614  0.21816833  0.08864569  1
  H  H24  1  0.37195416  0.66655427  0.07434437  1
  H  H25  1  0.62804632  0.83344563  0.57434441  1
  H  H26  1  0.62804565  0.33344586  0.92565571  1
  H  H27  1  0.37195349  0.16655450  0.42565567  1
  H  H28  1  0.46144783  0.56849803  0.17205337  1
  H  H29  1  0.53855107  0.93150186  0.67205341  1
  H  H30  1  0.53855198  0.43150209  0.82794671  1
  H  H31  1  0.46144826  0.06849713  0.32794667  1
  H  H32  1  0.39631587  0.72838032  0.20316003  1
  H  H33  1  0.60368462  0.77161957  0.70316008  1
  H  H34  1  0.60368394  0.27161980  0.79684005  1
  H  H35  1  0.39631520  0.22838055  0.29684001  1
  H  H36  1  0.19622552  0.56515142  0.16807589  1
  H  H37  1  0.80377497  0.93484847  0.66807593  1
  H  H38  1  0.19622485  0.06515166  0.33192416  1
  H  H39  1  0.09493017  0.25011030  0.12208724  1
  N  N40  1  0.35643477  0.63330879  0.15456531  1
  N  N41  1  0.64356412  0.86669110  0.65456536  1
  N  N42  1  0.64356504  0.36669133  0.84543477  1
  N  N43  1  0.35643569  0.13330903  0.34543473  1
  O  O44  1  0.29769142  0.49986894  0.56748738  1
  O  O45  1  0.70230907  0.00013096  0.06748734  1
  O  O46  1  0.70230791  0.50013005  0.43251270  1
  O  O47  1  0.29769074  0.99986917  0.93251274  1
  O  O48  1  0.03357412  0.33853962  0.38847385  1
  O  O49  1  0.96642502  0.16146073  0.88847390  1
  O  O50  1  0.96642570  0.66146050  0.61152623  1
  O  O51  1  0.03357479  0.83853939  0.11152619  1
  O  O52  1  0.16566563  0.66942774  0.39172279  1
  O  O53  1  0.83433485  0.83057216  0.89172283  1
  O  O54  1  0.83433418  0.33057239  0.60827650  1
  O  O55  1  0.16566496  0.16942797  0.10827646  1
  O  O56  1  0.94793070  0.88389158  0.32333999  1
  O  O57  1  0.05206979  0.61610832  0.82334004  1
  O  O58  1  0.05206911  0.11610855  0.67666009  1
  O  O59  1  0.94793003  0.38389181  0.17666005  1
  O  O60  1  0.61834144  0.77860388  0.43489126  1
  O  O61  1  0.38165746  0.72139601  0.93489131  1
  O  O62  1  0.38165837  0.22139624  0.56510882  1
  O  O63  1  0.61834235  0.27860411  0.06510878  1
  O  O64  1  0.78876963  0.05158992  0.42769223  1
  O  O65  1  0.21123110  0.44841044  0.92769228  1
  O  O66  1  0.21123018  0.94841021  0.57230785  1
  O  O67  1  0.78876871  0.55158968  0.07230781  1
  O  O68  1  0.59025693  0.91708582  0.27274426  1
  O  O69  1  0.40974197  0.58291407  0.77274431  1
  O  O70  1  0.40974288  0.08291430  0.72725582  1
  O  O71  1  0.59025785  0.41708606  0.22725578  1
  S  S72  1  0.73925577  0.90963140  0.36501393  1
  S  S73  1  0.26074362  0.59036963  0.86501398  1
  S  S74  1  0.26074404  0.09036873  0.63498615  1
  S  S75  1  0.73925619  0.40963049  0.13498611  1
  Ni  Ni76  1  0.00000067  0.49999977  0.50000004  1
  Ni  Ni77  1  0.00000000  0.00000000  0.00000000  1
