# generated using pymatgen
data_NiH14SO11
_symmetry_space_group_name_H-M   'P 1'
_cell_length_a   6.68896627
_cell_length_b   11.88177944
_cell_length_c   12.11870788
_cell_angle_alpha   90.00000000
_cell_angle_beta   90.00000000
_cell_angle_gamma   90.00000000
_symmetry_Int_Tables_number   1
_chemical_formula_structural   NiH14SO11
_chemical_formula_sum   'Ni4 H56 S4 O44'
_cell_volume   963.15638786
_cell_formula_units_Z   4
loop_
 _symmetry_equiv_pos_site_id
 _symmetry_equiv_pos_as_xyz
  1  'x, y, z'
loop_
 _atom_site_type_symbol
 _atom_site_label
 _atom_site_symmetry_multiplicity
 _atom_site_fract_x
 _atom_site_fract_y
 _atom_site_fract_z
 _atom_site_occupancy
  H  H0  1  0.48819783  0.51685227  0.86545151  1
  H  H1  1  0.98819740  0.98314795  0.13454817  1
  H  H2  1  0.51180281  0.01685220  0.63454801  1
  H  H3  1  0.01180324  0.48314788  0.36545167  1
  H  H4  1  0.55038626  0.56744361  0.98144108  1
  H  H5  1  0.05038519  0.93255662  0.01855860  1
  H  H6  1  0.44961438  0.06744353  0.51855927  1
  H  H7  1  0.94961395  0.43255655  0.48144124  1
  H  H8  1  0.09285741  0.59156939  0.50304994  1
  H  H9  1  0.59285698  0.90843000  0.49694974  1
  H  H10  1  0.90714324  0.09156931  0.99695041  1
  H  H11  1  0.40714367  0.40842992  0.00305010  1
  H  H12  1  0.16376230  0.71829930  0.53422236  1
  H  H13  1  0.66376338  0.78170093  0.46577815  1
  H  H14  1  0.83623683  0.21829922  0.96577799  1
  H  H15  1  0.33623727  0.28170085  0.03422169  1
  H  H16  1  0.72442908  0.58405862  0.44106642  1
  H  H17  1  0.22442951  0.91594161  0.55893326  1
  H  H18  1  0.27557006  0.08405854  0.05893342  1
  H  H19  1  0.77557113  0.41594154  0.94106626  1
  H  H20  1  0.52146935  0.63842757  0.39093153  1
  H  H21  1  0.02146978  0.86157266  0.60906898  1
  H  H22  1  0.47853130  0.13842749  0.10906914  1
  H  H23  1  0.97853087  0.36157258  0.89093137  1
  H  H24  1  0.47843454  0.39893821  0.46969167  1
  H  H25  1  0.97843561  0.10106187  0.53030801  1
  H  H26  1  0.39364684  0.76684280  0.72066060  1
  H  H27  1  0.02156503  0.60106194  0.96969234  1
  H  H28  1  0.29915554  0.38033143  0.55340826  1
  H  H29  1  0.79915662  0.11966865  0.44659225  1
  H  H30  1  0.70084359  0.88033150  0.94659209  1
  H  H31  1  0.20084403  0.61966873  0.05340842  1
  H  H32  1  0.75456473  0.45408328  0.67947207  1
  H  H33  1  0.25456516  0.04591680  0.32052761  1
  H  H34  1  0.24543440  0.95408251  0.82052746  1
  H  H35  1  0.74543548  0.54591687  0.17947223  1
  H  H36  1  0.80981911  0.57866632  0.72109853  1
  H  H37  1  0.30981803  0.92133390  0.27890198  1
  H  H38  1  0.19018154  0.07866625  0.77890182  1
  H  H39  1  0.69018111  0.42133383  0.22109786  1
  H  H40  1  0.25004954  0.45298381  0.75140554  1
  H  H41  1  0.75005061  0.04701626  0.24859497  1
  H  H42  1  0.74994960  0.95298389  0.74859481  1
  H  H43  1  0.24995003  0.54701634  0.25140488  1
  H  H44  1  0.20122563  0.58072106  0.77352772  1
  H  H45  1  0.70122520  0.91927917  0.22647196  1
  H  H46  1  0.79877351  0.08072098  0.72647180  1
  H  H47  1  0.29877394  0.41927910  0.27352788  1
  H  H48  1  0.63043875  0.76465973  0.69662380  1
  H  H49  1  0.13043918  0.73534050  0.30337588  1
  H  H50  1  0.36956189  0.26465965  0.80337573  1
  H  H51  1  0.86956146  0.23534042  0.19662396  1
  H  H52  1  0.10635273  0.23315735  0.22066075  1
  H  H53  1  0.60635230  0.26684273  0.77933893  1
  H  H54  1  0.89364641  0.73315658  0.27933909  1
  H  H55  1  0.52156460  0.89893744  0.03030817  1
  O  O56  1  0.56340731  0.50000492  0.93422412  1
  O  O57  1  0.06340774  -0.00000554  0.06577638  1
  O  O58  1  0.43659183  1.00000569  0.56577623  1
  O  O59  1  0.93659290  0.49999439  0.43422428  1
  O  O60  1  0.18937342  0.63739503  0.54676809  1
  O  O61  1  0.68937299  0.86260520  0.45323242  1
  O  O62  1  0.81062722  0.13739495  0.95323226  1
  O  O63  1  0.31062615  0.36260513  0.04676825  1
  O  O64  1  0.60633327  0.63295605  0.45773870  1
  O  O65  1  0.10633370  0.86704418  0.54226180  1
  O  O66  1  0.39366737  0.13295597  0.04226114  1
  O  O67  1  0.89366694  0.36704410  0.95773855  1
  O  O68  1  0.42772702  0.42128467  0.54280681  1
  O  O69  1  0.92772659  0.07871541  0.45719370  1
  O  O70  1  0.57227362  0.92128474  0.95719354  1
  O  O71  1  0.07227405  0.57871548  0.04280614  1
  O  O72  1  0.73527545  0.53593272  0.66489427  1
  O  O73  1  0.23527588  0.96406667  0.33510542  1
  O  O74  1  0.26472369  0.03593264  0.83510608  1
  O  O75  1  0.76472326  0.46406744  0.16489442  1
  O  O76  1  0.31333797  0.52916771  0.75362488  1
  O  O77  1  0.81333754  0.97083168  0.24637480  1
  O  O78  1  0.68666267  0.02916848  0.74637547  1
  O  O79  1  0.18666160  0.47083160  0.25362504  1
  O  O80  1  0.49815974  0.74112333  0.66803694  1
  O  O81  1  0.99815930  0.75887689  0.33196357  1
  O  O82  1  0.42947388  0.67602782  0.07065268  1
  O  O83  1  0.00183983  0.25887682  0.16803628  1
  O  O84  1  0.13633931  0.32368982  0.76940351  1
  O  O85  1  0.63633888  0.17631026  0.23059617  1
  O  O86  1  0.86366133  0.82368905  0.73059601  1
  O  O87  1  0.36366176  0.67631033  0.26940367  1
  O  O88  1  0.79442521  0.31566271  0.70065353  1
  O  O89  1  0.29442564  0.18433736  0.29934698  1
  O  O90  1  0.20557393  0.81566279  0.79934682  1
  O  O91  1  0.70557350  0.68433660  0.20065369  1
  O  O92  1  0.01412974  0.15285327  0.67849822  1
  O  O93  1  0.51412931  0.34714681  0.32150229  1
  O  O94  1  0.98586940  0.65285334  0.82150213  1
  O  O95  1  0.48586983  0.84714688  0.17849838  1
  O  O96  1  0.07052720  0.32397233  0.57065252  1
  O  O97  1  0.57052677  0.17602775  0.42934799  1
  O  O98  1  0.92947344  0.82397241  0.92934783  1
  O  O99  1  0.50183940  0.24112326  0.83196341  1
  S  S100  1  0.00313366  0.27887530  0.67838300  1
  S  S101  1  0.50313474  0.22112478  0.32161669  1
  S  S102  1  0.99686548  0.77887537  0.82161736  1
  S  S103  1  0.49686591  0.72112401  0.17838315  1
  Ni  Ni104  1  0.45929320  0.58219145  0.60418545  1
  Ni  Ni105  1  0.95929277  0.91780878  0.39581423  1
  Ni  Ni106  1  0.54070744  0.08219137  0.89581407  1
  Ni  Ni107  1  0.04070787  0.41780870  0.10418561  1
