# generated using pymatgen
data_Ba5V3ClO12
_symmetry_space_group_name_H-M   'P 1'
_cell_length_a   10.76105953
_cell_length_b   10.76105953
_cell_length_c   7.85015861
_cell_angle_alpha   90.00000000
_cell_angle_beta   90.00000000
_cell_angle_gamma   120.00000002
_symmetry_Int_Tables_number   1
_chemical_formula_structural   Ba5V3ClO12
_chemical_formula_sum   'Ba10 V6 Cl2 O24'
_cell_volume   787.26171354
_cell_formula_units_Z   2
loop_
 _symmetry_equiv_pos_site_id
 _symmetry_equiv_pos_as_xyz
  1  'x, y, z'
loop_
 _atom_site_type_symbol
 _atom_site_label
 _atom_site_symmetry_multiplicity
 _atom_site_fract_x
 _atom_site_fract_y
 _atom_site_fract_z
 _atom_site_occupancy
  O  O0  1  0.25919558  0.35450483  0.42676642  1
  O  O1  1  0.90469131  0.25919600  0.92676686  1
  O  O2  1  0.35450457  0.09530886  0.92676686  1
  O  O3  1  0.64549532  0.90469067  0.42676642  1
  O  O4  1  0.09530858  0.74080354  0.42676642  1
  O  O5  1  0.74080431  0.64549471  0.92676686  1
  O  O6  1  0.74080431  0.64549471  0.57323318  1
  O  O7  1  0.09530858  0.74080354  0.07323275  1
  O  O8  1  0.64549532  0.90469067  0.07323275  1
  O  O9  1  0.35450457  0.09530886  0.57323318  1
  O  O10  1  0.90469131  0.25919600  0.57323318  1
  O  O11  1  0.25919558  0.35450483  0.07323275  1
  O  O12  1  0.51965920  0.67309130  0.75000002  1
  O  O13  1  0.84656722  0.51965901  0.24999958  1
  O  O14  1  0.67309135  0.15343233  0.24999958  1
  O  O15  1  0.32690853  0.84656721  0.75000002  1
  O  O16  1  0.15343267  0.48034053  0.75000002  1
  O  O17  1  0.48034069  0.32690824  0.24999958  1
  O  O18  1  0.46961020  0.59312967  0.24999958  1
  O  O19  1  0.87648037  0.46961017  0.75000002  1
  O  O20  1  0.59313014  0.12351954  0.75000002  1
  O  O21  1  0.53038969  0.40686987  0.75000002  1
  O  O22  1  0.12351952  0.53038937  0.24999958  1
  O  O23  1  0.40686975  0.87648000  0.24999958  1
  Cl  Cl24  1  0.00000000  0.00000000  0.50000044  1
  Cl  Cl25  1  0.00000000  0.00000000  0.00000000  1
  V  V26  1  0.59494396  0.96613965  0.24999958  1
  V  V27  1  0.03386035  0.62880496  0.24999958  1
  V  V28  1  0.62880512  0.59494403  0.75000002  1
  V  V29  1  0.40505553  0.03386096  0.75000002  1
  V  V30  1  0.96613861  0.37119458  0.75000002  1
  V  V31  1  0.37119477  0.40505551  0.24999958  1
  Ba  Ba32  1  0.75214569  0.74468339  0.24999958  1
  Ba  Ba33  1  0.74468332  0.99253764  0.75000002  1
  Ba  Ba34  1  0.99253794  0.24785428  0.24999958  1
  Ba  Ba35  1  0.00746195  0.75214526  0.75000002  1
  Ba  Ba36  1  0.24785420  0.25531615  0.75000002  1
  Ba  Ba37  1  0.25531657  0.00746190  0.24999958  1
  Ba  Ba38  1  0.33333316  0.66666635  0.50095630  1
  Ba  Ba39  1  0.66666673  0.33333319  0.00095714  1
  Ba  Ba40  1  0.66666673  0.33333319  0.49904330  1
  Ba  Ba41  1  0.33333316  0.66666635  0.99904374  1
