# generated using pymatgen
data_Cs2FeH12(SO7)2
_symmetry_space_group_name_H-M   'P 1'
_cell_length_a   6.46504825
_cell_length_b   9.40319953
_cell_length_c   13.01446780
_cell_angle_alpha   90.00000000
_cell_angle_beta   90.00000000
_cell_angle_gamma   106.19660907
_symmetry_Int_Tables_number   1
_chemical_formula_structural   Cs2FeH12(SO7)2
_chemical_formula_sum   'Cs4 Fe2 H24 S4 O28'
_cell_volume   759.77565792
_cell_formula_units_Z   2
loop_
 _symmetry_equiv_pos_site_id
 _symmetry_equiv_pos_as_xyz
  1  'x, y, z'
loop_
 _atom_site_type_symbol
 _atom_site_label
 _atom_site_symmetry_multiplicity
 _atom_site_fract_x
 _atom_site_fract_y
 _atom_site_fract_z
 _atom_site_occupancy
  H  H0  1  0.31259545  0.52519098  0.64136987  1
  H  H1  1  0.68740593  0.97480916  0.14137052  1
  H  H2  1  0.68740551  0.47480890  0.35862961  1
  H  H3  1  0.31259503  0.02519073  0.85862973  1
  H  H4  1  0.33396235  0.39921999  0.56557528  1
  H  H5  1  0.66603710  0.10078078  0.06557593  1
  H  H6  1  0.92601624  0.21886721  0.40091513  1
  H  H7  1  0.07398274  0.28113242  0.90091526  1
  H  H8  1  0.07398316  0.78113268  0.59908513  1
  H  H9  1  0.92601666  0.71886747  0.09908500  1
  H  H10  1  0.09329113  0.73848367  0.36954119  1
  H  H11  1  0.90670869  0.76151648  0.86954131  1
  H  H12  1  0.90670827  0.26151622  0.63045907  1
  H  H13  1  0.09329071  0.23848341  0.13045894  1
  H  H14  1  0.32525317  0.71434507  0.39893567  1
  H  H15  1  0.67474665  0.78565508  0.89893580  1
  H  H16  1  0.67474623  0.28565482  0.60106459  1
  H  H17  1  0.32525275  0.21434481  0.10106446  1
  H  H18  1  0.01897186  0.15733927  0.81493146  1
  H  H19  1  0.98102712  0.34266037  0.31493133  1
  H  H20  1  0.33396277  0.89922025  0.93442433  1
  H  H21  1  0.66603705  0.60077990  0.43442420  1
  H  H22  1  0.01897228  0.65733952  0.68506892  1
  H  H23  1  0.98102754  0.84266062  0.18506879  1
  O  O24  1  0.83013322  0.83611760  0.88695819  1
  O  O25  1  0.83013483  0.33611847  0.61304219  1
  O  O26  1  0.00751471  0.82387300  0.11159846  1
  O  O27  1  0.99248511  0.67612715  0.61159859  1
  O  O28  1  0.99248469  0.17612689  0.88840180  1
  O  O29  1  0.00751429  0.32387274  0.38840167  1
  O  O30  1  0.29406859  0.99389012  0.93204812  1
  O  O31  1  0.16986618  0.16388229  0.11304207  1
  O  O32  1  0.70593081  0.00610978  0.06795214  1
  O  O33  1  0.29406817  0.49388986  0.56795227  1
  O  O34  1  0.94138895  0.85840877  0.31727758  1
  O  O35  1  0.05861243  0.64159136  0.81727770  1
  O  O36  1  0.05861201  0.14159111  0.68272268  1
  O  O37  1  0.94138853  0.35840852  0.18272255  1
  O  O38  1  0.60582100  0.76893044  0.41561557  1
  O  O39  1  0.39417882  0.73106970  0.91561570  1
  O  O40  1  0.39417840  0.23106945  0.58438469  1
  O  O41  1  0.60582213  0.26893018  0.08438456  1
  O  O42  1  0.79721572  0.03074772  0.41702808  1
  O  O43  1  0.20278529  0.46925304  0.91702821  1
  O  O44  1  0.20278524  0.96925216  0.58297140  1
  O  O45  1  0.79721412  0.53074685  0.08297127  1
  O  O46  1  0.61180529  0.91525926  0.26143154  1
  O  O47  1  0.38819453  0.58474089  0.76143167  1
  O  O48  1  0.38819566  0.08474062  0.73856872  1
  O  O49  1  0.61180488  0.41525900  0.23856859  1
  O  O50  1  0.16986660  0.66388255  0.38695806  1
  O  O51  1  0.70593123  0.50611003  0.43204799  1
  S  S52  1  0.25915941  0.60514718  0.85245768  1
  S  S53  1  0.74084041  0.89485297  0.35245833  1
  S  S54  1  0.25915946  0.10514805  0.64754192  1
  S  S55  1  0.74083999  0.39485272  0.14754180  1
  Fe  Fe56  1  0.00000042  0.50000025  0.50000013  1
  Fe  Fe57  1  0.00000000  0.00000000  0.00000000  1
  Cs  Cs58  1  0.35239203  0.12732170  0.35678628  1
  Cs  Cs59  1  0.64760851  0.37267792  0.85678641  1
  Cs  Cs60  1  0.64760893  0.87267818  0.64321320  1
  Cs  Cs61  1  0.35239089  0.62732197  0.14321385  1
