# generated using pymatgen
data_USe2O7
_symmetry_space_group_name_H-M   'P 1'
_cell_length_a   6.80871374
_cell_length_b   9.59094738
_cell_length_c   12.04576960
_cell_angle_alpha   109.43874144
_cell_angle_beta   92.50336107
_cell_angle_gamma   93.31498917
_symmetry_Int_Tables_number   1
_chemical_formula_structural   USe2O7
_chemical_formula_sum   'U4 Se8 O28'
_cell_volume   738.87727341
_cell_formula_units_Z   4
loop_
 _symmetry_equiv_pos_site_id
 _symmetry_equiv_pos_as_xyz
  1  'x, y, z'
loop_
 _atom_site_type_symbol
 _atom_site_label
 _atom_site_symmetry_multiplicity
 _atom_site_fract_x
 _atom_site_fract_y
 _atom_site_fract_z
 _atom_site_occupancy
  O  O0  1  0.43610095  0.75198904  0.80915922  1
  O  O1  1  0.56389905  0.24801096  0.19084078  1
  O  O2  1  0.01953140  0.58661689  0.80826208  1
  O  O3  1  0.98046860  0.41338311  0.19173792  1
  O  O4  1  0.54171574  0.18330888  0.71274747  1
  O  O5  1  0.45828426  0.81669112  0.28725253  1
  O  O6  1  0.89101560  0.07628171  0.71821275  1
  O  O7  1  0.10898440  0.92371829  0.28178725  1
  O  O8  1  0.24044280  0.98928080  0.76979961  1
  O  O9  1  0.75955720  0.01071920  0.23020039  1
  O  O10  1  0.20659454  0.31609362  0.77186577  1
  O  O11  1  0.79340546  0.68390638  0.22813423  1
  O  O12  1  0.46730806  0.15315102  0.39586951  1
  O  O13  1  0.53269194  0.84684898  0.60413049  1
  O  O14  1  0.36987604  0.93961395  0.08679819  1
  O  O15  1  0.63012396  0.06038605  0.91320181  1
  O  O16  1  0.15699901  0.63174357  0.08737869  1
  O  O17  1  0.84300099  0.36825643  0.91262131  1
  O  O18  1  0.11472578  0.68385011  0.39609408  1
  O  O19  1  0.88527422  0.31614989  0.60390592  1
  O  O20  1  0.80319981  0.92890813  0.42444305  1
  O  O21  1  0.19680019  0.07109187  0.57555695  1
  O  O22  1  0.25584681  0.26964732  0.04288308  1
  O  O23  1  0.74415319  0.73035268  0.95711692  1
  O  O24  1  0.15232013  0.19078451  0.23263521  1
  O  O25  1  0.84767987  0.80921549  0.76736479  1
  O  O26  1  0.40226525  0.50609732  0.23537318  1
  O  O27  1  0.59773475  0.49390268  0.76462682  1
  Se  Se28  1  0.51091853  0.63464841  0.87738938  1
  Se  Se29  1  0.48908147  0.36535159  0.12261062  1
  Se  Se30  1  0.95968737  0.76095152  0.87868160  1
  Se  Se31  1  0.04031263  0.23904848  0.12131840  1
  Se  Se32  1  0.34460234  0.24771823  0.65432146  1
  Se  Se33  1  0.65539766  0.75228177  0.34567854  1
  Se  Se34  1  0.07173533  0.96081922  0.65503865  1
  Se  Se35  1  0.92826467  0.03918078  0.34496135  1
  U  U36  1  0.86700696  0.34582483  0.75912830  1
  U  U37  1  0.13299304  0.65417517  0.24087170  1
  U  U38  1  0.57698862  0.95108146  0.75977665  1
  U  U39  1  0.42301138  0.04891854  0.24022335  1
