# generated using pymatgen
data_Li2ThN2
_symmetry_space_group_name_H-M   'P 1'
_cell_length_a   6.40712340
_cell_length_b   6.40712340
_cell_length_c   5.54453798
_cell_angle_alpha   90.00000000
_cell_angle_beta   90.00000000
_cell_angle_gamma   119.99999993
_symmetry_Int_Tables_number   1
_chemical_formula_structural   Li2ThN2
_chemical_formula_sum   'Li6 Th3 N6'
_cell_volume   197.11613356
_cell_formula_units_Z   3
loop_
 _symmetry_equiv_pos_site_id
 _symmetry_equiv_pos_as_xyz
  1  'x, y, z'
loop_
 _atom_site_type_symbol
 _atom_site_label
 _atom_site_symmetry_multiplicity
 _atom_site_fract_x
 _atom_site_fract_y
 _atom_site_fract_z
 _atom_site_occupancy
  Li  Li0  1  0.32882724  0.33795577  0.40357736  1
  Li  Li1  1  0.00912853  0.67117276  0.40357736  1
  Li  Li2  1  0.66204423  0.99087147  0.40357736  1
  Li  Li3  1  0.33795577  0.00912853  0.59642264  1
  Li  Li4  1  0.67117276  0.66204423  0.59642264  1
  Li  Li5  1  0.99087147  0.32882724  0.59642264  1
  N  N6  1  0.66760618  0.00198225  0.77285638  1
  N  N7  1  0.99801775  0.66562394  0.77285638  1
  N  N8  1  0.33437606  0.33239382  0.77285638  1
  N  N9  1  0.33239382  0.99801775  0.22714362  1
  N  N10  1  0.66562394  0.66760618  0.22714362  1
  N  N11  1  0.00198225  0.33437606  0.22714362  1
  Th  Th12  1  0.66666667  0.33333333  0.00504775  1
  Th  Th13  1  0.33333333  0.66666667  0.99495225  1
  Th  Th14  1  0.00000000  0.00000000  0.00000000  1
