# generated using pymatgen
data_Rb2PrCl5
_symmetry_space_group_name_H-M   'P 1'
_cell_length_a   8.39185965
_cell_length_b   9.02279080
_cell_length_c   13.47205908
_cell_angle_alpha   90.00000000
_cell_angle_beta   90.00000000
_cell_angle_gamma   90.00000000
_symmetry_Int_Tables_number   1
_chemical_formula_structural   Rb2PrCl5
_chemical_formula_sum   'Rb8 Pr4 Cl20'
_cell_volume   1020.07728919
_cell_formula_units_Z   4
loop_
 _symmetry_equiv_pos_site_id
 _symmetry_equiv_pos_as_xyz
  1  'x, y, z'
loop_
 _atom_site_type_symbol
 _atom_site_label
 _atom_site_symmetry_multiplicity
 _atom_site_fract_x
 _atom_site_fract_y
 _atom_site_fract_z
 _atom_site_occupancy
  Cl  Cl0  1  0.33809649  0.95781340  0.07080422  1
  Cl  Cl1  1  0.83809649  0.04218660  0.42919578  1
  Cl  Cl2  1  0.66190351  0.45781340  0.92919578  1
  Cl  Cl3  1  0.16190351  0.54218660  0.57080422  1
  Cl  Cl4  1  0.66190351  0.04218660  0.92919578  1
  Cl  Cl5  1  0.16190351  0.95781340  0.57080422  1
  Cl  Cl6  1  0.33809649  0.54218660  0.07080422  1
  Cl  Cl7  1  0.83809649  0.45781340  0.42919578  1
  Cl  Cl8  1  0.38503371  0.75000000  0.82288308  1
  Cl  Cl9  1  0.88503371  0.25000000  0.67711692  1
  Cl  Cl10  1  0.61496629  0.25000000  0.17711692  1
  Cl  Cl11  1  0.11496629  0.75000000  0.32288308  1
  Cl  Cl12  1  0.09316176  0.25000000  0.01037551  1
  Cl  Cl13  1  0.59316176  0.75000000  0.48962449  1
  Cl  Cl14  1  0.90683824  0.75000000  0.98962449  1
  Cl  Cl15  1  0.40683824  0.25000000  0.51037551  1
  Cl  Cl16  1  0.65242406  0.75000000  0.19704908  1
  Cl  Cl17  1  0.15242406  0.25000000  0.30295092  1
  Cl  Cl18  1  0.34757594  0.25000000  0.80295092  1
  Cl  Cl19  1  0.84757594  0.75000000  0.69704908  1
  Rb  Rb20  1  0.44232433  0.50618904  0.32917964  1
  Rb  Rb21  1  0.94232433  0.49381096  0.17082036  1
  Rb  Rb22  1  0.55767567  0.00618904  0.67082036  1
  Rb  Rb23  1  0.05767567  0.99381096  0.82917964  1
  Rb  Rb24  1  0.94232433  0.00618904  0.17082036  1
  Rb  Rb25  1  0.44232433  0.99381096  0.32917964  1
  Rb  Rb26  1  0.05767567  0.50618904  0.82917964  1
  Rb  Rb27  1  0.55767567  0.49381096  0.67082036  1
  Pr  Pr28  1  0.92854684  0.75000000  0.49508674  1
  Pr  Pr29  1  0.42854684  0.25000000  0.00491326  1
  Pr  Pr30  1  0.07145316  0.25000000  0.50491326  1
  Pr  Pr31  1  0.57145316  0.75000000  0.99508674  1
