# generated using pymatgen
data_FeSbS
_symmetry_space_group_name_H-M   'P 1'
_cell_length_a   5.92488762
_cell_length_b   6.05822343
_cell_length_c   6.04142892
_cell_angle_alpha   112.53406988
_cell_angle_beta   90.00000000
_cell_angle_gamma   90.00000000
_symmetry_Int_Tables_number   1
_chemical_formula_structural   FeSbS
_chemical_formula_sum   'Fe4 Sb4 S4'
_cell_volume   200.29650041
_cell_formula_units_Z   4
loop_
 _symmetry_equiv_pos_site_id
 _symmetry_equiv_pos_as_xyz
  1  'x, y, z'
loop_
 _atom_site_type_symbol
 _atom_site_label
 _atom_site_symmetry_multiplicity
 _atom_site_fract_x
 _atom_site_fract_y
 _atom_site_fract_z
 _atom_site_occupancy
  S  S0  1  0.36047944  0.35822824  0.16994733  1
  S  S1  1  0.63952056  0.64177176  0.83005267  1
  S  S2  1  0.86047944  0.64177176  0.33005267  1
  S  S3  1  0.13952056  0.35822824  0.66994733  1
  Fe  Fe4  1  0.98243899  0.69791053  0.69714350  1
  Fe  Fe5  1  0.51756101  0.69791053  0.19714350  1
  Fe  Fe6  1  0.01756101  0.30208947  0.30285650  1
  Fe  Fe7  1  0.48243899  0.30208947  0.80285650  1
  Sb  Sb8  1  0.36705163  0.85295862  0.63120204  1
  Sb  Sb9  1  0.63294837  0.14704138  0.36879796  1
  Sb  Sb10  1  0.13294837  0.85295862  0.13120204  1
  Sb  Sb11  1  0.86705163  0.14704138  0.86879796  1
