# generated using pymatgen
data_TlI3
_symmetry_space_group_name_H-M   'P 1'
_cell_length_a   6.66472316
_cell_length_b   9.90564652
_cell_length_c   10.60547363
_cell_angle_alpha   90.00000000
_cell_angle_beta   90.00000000
_cell_angle_gamma   90.00000000
_symmetry_Int_Tables_number   1
_chemical_formula_structural   TlI3
_chemical_formula_sum   'Tl4 I12'
_cell_volume   700.15631308
_cell_formula_units_Z   4
loop_
 _symmetry_equiv_pos_site_id
 _symmetry_equiv_pos_as_xyz
  1  'x, y, z'
loop_
 _atom_site_type_symbol
 _atom_site_label
 _atom_site_symmetry_multiplicity
 _atom_site_fract_x
 _atom_site_fract_y
 _atom_site_fract_z
 _atom_site_occupancy
  I  I0  1  0.25000000  0.35104044  0.15172285  1
  I  I1  1  0.75000000  0.64895956  0.84827715  1
  I  I2  1  0.75000000  0.85104044  0.34827715  1
  I  I3  1  0.25000000  0.14895956  0.65172285  1
  I  I4  1  0.25000000  0.54702489  0.37108895  1
  I  I5  1  0.75000000  0.45297511  0.62891105  1
  I  I6  1  0.75000000  0.04702489  0.12891105  1
  I  I7  1  0.25000000  0.95297511  0.87108895  1
  I  I8  1  0.25000000  0.73183876  0.58110698  1
  I  I9  1  0.75000000  0.26816124  0.41889302  1
  I  I10  1  0.75000000  0.23183876  0.91889302  1
  I  I11  1  0.25000000  0.76816124  0.08110698  1
  Tl  Tl12  1  0.25000000  0.02269574  0.32999818  1
  Tl  Tl13  1  0.75000000  0.97730426  0.67000182  1
  Tl  Tl14  1  0.75000000  0.52269574  0.17000182  1
  Tl  Tl15  1  0.25000000  0.47730426  0.82999818  1
