# generated using pymatgen
data_Sr3(InP2)2
_symmetry_space_group_name_H-M   'P 1'
_cell_length_a   4.33345734
_cell_length_b   6.94813469
_cell_length_c   16.38222159
_cell_angle_alpha   90.00000000
_cell_angle_beta   90.00000000
_cell_angle_gamma   90.00000000
_symmetry_Int_Tables_number   1
_chemical_formula_structural   Sr3(InP2)2
_chemical_formula_sum   'Sr6 In4 P8'
_cell_volume   493.25960439
_cell_formula_units_Z   2
loop_
 _symmetry_equiv_pos_site_id
 _symmetry_equiv_pos_as_xyz
  1  'x, y, z'
loop_
 _atom_site_type_symbol
 _atom_site_label
 _atom_site_symmetry_multiplicity
 _atom_site_fract_x
 _atom_site_fract_y
 _atom_site_fract_z
 _atom_site_occupancy
  P  P0  1  0.50000000  0.74754526  0.33378838  1
  P  P1  1  0.50000000  0.26015972  0.93183991  1
  P  P2  1  0.00000000  0.23984028  0.43183991  1
  P  P3  1  0.00000000  0.76015972  0.56816009  1
  P  P4  1  0.50000000  0.73984028  0.06816009  1
  P  P5  1  0.00000000  0.75245474  0.83378838  1
  P  P6  1  0.50000000  0.25245474  0.66621162  1
  P  P7  1  0.00000000  0.24754526  0.16621162  1
  Sr  Sr8  1  0.50000000  0.50000000  0.50000000  1
  Sr  Sr9  1  0.00000000  0.29210158  0.80149366  1
  Sr  Sr10  1  0.50000000  0.20789842  0.30149366  1
  Sr  Sr11  1  0.50000000  0.79210158  0.69850634  1
  Sr  Sr12  1  0.00000000  0.70789842  0.19850634  1
  Sr  Sr13  1  0.00000000  0.00000000  0.00000000  1
  In  In14  1  0.50000000  0.36745142  0.08520542  1
  In  In15  1  0.00000000  0.13254858  0.58520542  1
  In  In16  1  0.00000000  0.86745142  0.41479458  1
  In  In17  1  0.50000000  0.63254858  0.91479458  1
