# generated using pymatgen
data_Rb4CdBr6
_symmetry_space_group_name_H-M   'P 1'
_cell_length_a   9.48221212
_cell_length_b   9.48221212
_cell_length_c   9.48221212
_cell_angle_alpha   89.35993471
_cell_angle_beta   89.35993473
_cell_angle_gamma   89.35993473
_symmetry_Int_Tables_number   1
_chemical_formula_structural   Rb4CdBr6
_chemical_formula_sum   'Rb8 Cd2 Br12'
_cell_volume   852.40952691
_cell_formula_units_Z   2
loop_
 _symmetry_equiv_pos_site_id
 _symmetry_equiv_pos_as_xyz
  1  'x, y, z'
loop_
 _atom_site_type_symbol
 _atom_site_label
 _atom_site_symmetry_multiplicity
 _atom_site_fract_x
 _atom_site_fract_y
 _atom_site_fract_z
 _atom_site_occupancy
  Br  Br0  1  0.43257078  0.21244601  0.55773593  1
  Br  Br1  1  0.21244601  0.55773593  0.43257078  1
  Br  Br2  1  0.55773593  0.43257078  0.21244601  1
  Br  Br3  1  0.94226407  0.28755399  0.06742922  1
  Br  Br4  1  0.28755399  0.06742922  0.94226407  1
  Br  Br5  1  0.06742922  0.94226407  0.28755399  1
  Br  Br6  1  0.56742922  0.78755399  0.44226407  1
  Br  Br7  1  0.78755399  0.44226407  0.56742922  1
  Br  Br8  1  0.44226407  0.56742922  0.78755399  1
  Br  Br9  1  0.05773593  0.71244601  0.93257078  1
  Br  Br10  1  0.93257078  0.05773593  0.71244601  1
  Br  Br11  1  0.71244601  0.93257078  0.05773593  1
  Rb  Rb12  1  0.36756035  0.75000000  0.13243965  1
  Rb  Rb13  1  0.75000000  0.13243965  0.36756035  1
  Rb  Rb14  1  0.13243965  0.36756035  0.75000000  1
  Rb  Rb15  1  0.63243965  0.25000000  0.86756035  1
  Rb  Rb16  1  0.25000000  0.86756035  0.63243965  1
  Rb  Rb17  1  0.86756035  0.63243965  0.25000000  1
  Rb  Rb18  1  0.75000000  0.75000000  0.75000000  1
  Rb  Rb19  1  0.25000000  0.25000000  0.25000000  1
  Cd  Cd20  1  0.50000000  0.50000000  0.50000000  1
  Cd  Cd21  1  0.00000000  0.00000000  0.00000000  1
