# generated using pymatgen
data_Ta2NiS5
_symmetry_space_group_name_H-M   'P 1'
_cell_length_a   3.42997158
_cell_length_b   6.81899801
_cell_length_c   15.21199694
_cell_angle_alpha   90.00000000
_cell_angle_beta   90.00000000
_cell_angle_gamma   104.56635985
_symmetry_Int_Tables_number   1
_chemical_formula_structural   Ta2NiS5
_chemical_formula_sum   'Ta4 Ni2 S10'
_cell_volume   344.35667913
_cell_formula_units_Z   2
loop_
 _symmetry_equiv_pos_site_id
 _symmetry_equiv_pos_as_xyz
  1  'x, y, z'
loop_
 _atom_site_type_symbol
 _atom_site_label
 _atom_site_symmetry_multiplicity
 _atom_site_fract_x
 _atom_site_fract_y
 _atom_site_fract_z
 _atom_site_occupancy
  S  S0  1  0.68811731  0.37623462  0.25000000  1
  S  S1  1  0.31188269  0.62376538  0.75000000  1
  S  S2  1  0.15673166  0.31346331  0.44984040  1
  S  S3  1  0.84326834  0.68653669  0.55015960  1
  S  S4  1  0.84326834  0.68653669  0.94984040  1
  S  S5  1  0.15673166  0.31346331  0.05015960  1
  S  S6  1  0.59478370  0.18956740  0.86450753  1
  S  S7  1  0.40521630  0.81043260  0.13549247  1
  S  S8  1  0.40521630  0.81043260  0.36450753  1
  S  S9  1  0.59478370  0.18956740  0.63549247  1
  Ni  Ni10  1  0.29983413  0.59966827  0.25000000  1
  Ni  Ni11  1  0.70016587  0.40033173  0.75000000  1
  Ta  Ta12  1  0.22241625  0.44483251  0.60870710  1
  Ta  Ta13  1  0.77758375  0.55516749  0.39129290  1
  Ta  Ta14  1  0.77758375  0.55516749  0.10870710  1
  Ta  Ta15  1  0.22241625  0.44483251  0.89129290  1
