# generated using pymatgen
data_Sc7CI12
_symmetry_space_group_name_H-M   'P 1'
_cell_length_a   9.39290620
_cell_length_b   9.39290620
_cell_length_c   9.39290619
_cell_angle_alpha   108.16148470
_cell_angle_beta   108.16148467
_cell_angle_gamma   108.16148470
_symmetry_Int_Tables_number   1
_chemical_formula_structural   Sc7CI12
_chemical_formula_sum   'Sc7 C1 I12'
_cell_volume   667.07967382
_cell_formula_units_Z   1
loop_
 _symmetry_equiv_pos_site_id
 _symmetry_equiv_pos_as_xyz
  1  'x, y, z'
loop_
 _atom_site_type_symbol
 _atom_site_label
 _atom_site_symmetry_multiplicity
 _atom_site_fract_x
 _atom_site_fract_y
 _atom_site_fract_z
 _atom_site_occupancy
  C  C0  1  0.99983826  0.99983826  0.99983826  1
  Sc  Sc1  1  0.03814178  0.09640589  0.27266645  1
  Sc  Sc2  1  0.09640589  0.27266645  0.03814178  1
  Sc  Sc3  1  0.27266645  0.03814178  0.09640589  1
  Sc  Sc4  1  0.91465569  0.73289391  0.97457113  1
  Sc  Sc5  1  0.73289391  0.97457113  0.91465569  1
  Sc  Sc6  1  0.97457113  0.91465569  0.73289391  1
  Sc  Sc7  1  0.47493042  0.47493042  0.47493042  1
  I  I8  1  0.92462643  0.78121333  0.29851174  1
  I  I9  1  0.46023367  0.38361376  0.14782093  1
  I  I10  1  0.14782093  0.46023367  0.38361376  1
  I  I11  1  0.38361376  0.14782093  0.46023367  1
  I  I12  1  0.78121333  0.29851174  0.92462643  1
  I  I13  1  0.29851174  0.92462643  0.78121333  1
  I  I14  1  0.54641931  0.61780137  0.83853126  1
  I  I15  1  0.61780137  0.83853126  0.54641931  1
  I  I16  1  0.83853126  0.54641931  0.61780137  1
  I  I17  1  0.22360706  0.70443897  0.07462865  1
  I  I18  1  0.70443897  0.07462865  0.22360706  1
  I  I19  1  0.07462865  0.22360706  0.70443897  1
