# generated using pymatgen
data_SrSe2O5
_symmetry_space_group_name_H-M   'P 1'
_cell_length_a   7.04785163
_cell_length_b   7.11151232
_cell_length_c   11.14604504
_cell_angle_alpha   84.88915392
_cell_angle_beta   81.24533424
_cell_angle_gamma   79.81068513
_symmetry_Int_Tables_number   1
_chemical_formula_structural   SrSe2O5
_chemical_formula_sum   'Sr4 Se8 O20'
_cell_volume   542.32229054
_cell_formula_units_Z   4
loop_
 _symmetry_equiv_pos_site_id
 _symmetry_equiv_pos_as_xyz
  1  'x, y, z'
loop_
 _atom_site_type_symbol
 _atom_site_label
 _atom_site_symmetry_multiplicity
 _atom_site_fract_x
 _atom_site_fract_y
 _atom_site_fract_z
 _atom_site_occupancy
  O  O0  1  0.70081421  0.94713920  0.66471900  1
  O  O1  1  0.29918579  0.05286080  0.33528100  1
  O  O2  1  0.54042878  0.28709011  0.75423056  1
  O  O3  1  0.45957122  0.71290989  0.24576944  1
  O  O4  1  0.03413199  0.37474749  0.70084152  1
  O  O5  1  0.96586801  0.62525251  0.29915848  1
  O  O6  1  0.24164983  0.43240112  0.47798702  1
  O  O7  1  0.75835017  0.56759888  0.52201298  1
  O  O8  1  0.33842430  0.09848019  0.62494148  1
  O  O9  1  0.66157570  0.90151981  0.37505852  1
  O  O10  1  0.31837935  0.65800046  0.76850254  1
  O  O11  1  0.68162065  0.34199954  0.23149746  1
  O  O12  1  0.81319152  0.02958008  0.09489337  1
  O  O13  1  0.18680848  0.97041992  0.90510663  1
  O  O14  1  0.46475161  0.22937302  0.02741733  1
  O  O15  1  0.53524839  0.77062698  0.97258267  1
  O  O16  1  0.79371689  0.36878963  0.94395841  1
  O  O17  1  0.20628311  0.63121037  0.05604159  1
  O  O18  1  0.04857353  0.28924992  0.13113914  1
  O  O19  1  0.95142647  0.71075008  0.86886086  1
  Se  Se20  1  0.58378539  0.16452244  0.62414716  1
  Se  Se21  1  0.41621461  0.83547756  0.37585284  1
  Se  Se22  1  0.12846109  0.27187685  0.56833955  1
  Se  Se23  1  0.87153891  0.72812315  0.43166045  1
  Se  Se24  1  0.12300579  0.83253530  0.78762301  1
  Se  Se25  1  0.87699421  0.16746470  0.21237699  1
  Se  Se26  1  0.30497131  0.83562032  0.04104960  1
  Se  Se27  1  0.69502869  0.16437968  0.95895040  1
  Sr  Sr28  1  0.19402302  0.35641562  0.89212745  1
  Sr  Sr29  1  0.80597698  0.64358438  0.10787255  1
  Sr  Sr30  1  0.68577059  0.60906285  0.75678884  1
  Sr  Sr31  1  0.31422941  0.39093715  0.24321116  1
