# generated using pymatgen
data_Dy2GeO5
_symmetry_space_group_name_H-M   'P 1'
_cell_length_a   6.90263495
_cell_length_b   8.24861055
_cell_length_c   9.80097009
_cell_angle_alpha   70.99138980
_cell_angle_beta   69.38171279
_cell_angle_gamma   65.26563031
_symmetry_Int_Tables_number   1
_chemical_formula_structural   Dy2GeO5
_chemical_formula_sum   'Dy8 Ge4 O20'
_cell_volume   463.81811084
_cell_formula_units_Z   4
loop_
 _symmetry_equiv_pos_site_id
 _symmetry_equiv_pos_as_xyz
  1  'x, y, z'
loop_
 _atom_site_type_symbol
 _atom_site_label
 _atom_site_symmetry_multiplicity
 _atom_site_fract_x
 _atom_site_fract_y
 _atom_site_fract_z
 _atom_site_occupancy
  O  O0  1  0.37159193  0.46451732  0.94480422  1
  O  O1  1  0.78091347  0.03548268  0.55519578  1
  O  O2  1  0.62840807  0.53548268  0.05519578  1
  O  O3  1  0.21908653  0.96451732  0.44480422  1
  O  O4  1  0.40912358  0.53530852  0.63250864  1
  O  O5  1  0.57694074  0.96469148  0.86749136  1
  O  O6  1  0.59087642  0.46469148  0.36749136  1
  O  O7  1  0.42305926  0.03530852  0.13250864  1
  O  O8  1  0.35018527  0.28431056  0.32431959  1
  O  O9  1  0.95881542  0.21568944  0.17568041  1
  O  O10  1  0.64981473  0.71568944  0.67568041  1
  O  O11  1  0.04118458  0.78431056  0.82431959  1
  O  O12  1  0.91933165  0.36403181  0.60326137  1
  O  O13  1  0.88662483  0.13596819  0.89673863  1
  O  O14  1  0.08066835  0.63596819  0.39673863  1
  O  O15  1  0.11337517  0.86403181  0.10326137  1
  O  O16  1  0.31984093  0.09032113  0.67542937  1
  O  O17  1  0.08559142  0.40967887  0.82457063  1
  O  O18  1  0.68015907  0.90967887  0.32457063  1
  O  O19  1  0.91440858  0.59032113  0.17542937  1
  Ge  Ge20  1  0.40934661  0.06171721  0.30806016  1
  Ge  Ge21  1  0.77912398  0.43828279  0.19193984  1
  Ge  Ge22  1  0.59065339  0.93828279  0.69193984  1
  Ge  Ge23  1  0.22087602  0.56171721  0.80806016  1
  Dy  Dy24  1  0.79354334  0.89551782  0.03388088  1
  Dy  Dy25  1  0.72294204  0.60448218  0.46611912  1
  Dy  Dy26  1  0.20645666  0.10448218  0.96611912  1
  Dy  Dy27  1  0.27705796  0.39551782  0.53388088  1
  Dy  Dy28  1  0.26384173  0.56222733  0.16207237  1
  Dy  Dy29  1  0.98814143  0.93777267  0.33792763  1
  Dy  Dy30  1  0.73615827  0.43777267  0.83792763  1
  Dy  Dy31  1  0.01185857  0.06222733  0.66207237  1
