# generated using pymatgen
data_Zr6CI14
_symmetry_space_group_name_H-M   'P 1'
_cell_length_a   11.01913165
_cell_length_b   11.01913164
_cell_length_c   13.14205270
_cell_angle_alpha   90.00000000
_cell_angle_beta   90.00000000
_cell_angle_gamma   92.95075571
_symmetry_Int_Tables_number   1
_chemical_formula_structural   Zr6CI14
_chemical_formula_sum   'Zr12 C2 I28'
_cell_volume   1593.60893144
_cell_formula_units_Z   2
loop_
 _symmetry_equiv_pos_site_id
 _symmetry_equiv_pos_as_xyz
  1  'x, y, z'
loop_
 _atom_site_type_symbol
 _atom_site_label
 _atom_site_symmetry_multiplicity
 _atom_site_fract_x
 _atom_site_fract_y
 _atom_site_fract_z
 _atom_site_occupancy
  C  C0  1  0.50000000  0.50000000  0.00000000  1
  C  C1  1  0.00000000  0.00000000  0.50000000  1
  Zr  Zr2  1  0.62665171  0.62665171  0.09241911  1
  Zr  Zr3  1  0.87334829  0.87334829  0.59241911  1
  Zr  Zr4  1  0.12665171  0.12665171  0.40758089  1
  Zr  Zr5  1  0.37334829  0.37334829  0.90758089  1
  Zr  Zr6  1  0.66501614  0.45359168  0.89142574  1
  Zr  Zr7  1  0.83498386  0.04640832  0.39142574  1
  Zr  Zr8  1  0.95359168  0.16501614  0.60857426  1
  Zr  Zr9  1  0.54640832  0.33498386  0.10857426  1
  Zr  Zr10  1  0.33498386  0.54640832  0.10857426  1
  Zr  Zr11  1  0.16501614  0.95359168  0.60857426  1
  Zr  Zr12  1  0.04640832  0.83498386  0.39142574  1
  Zr  Zr13  1  0.45359168  0.66501614  0.89142574  1
  I  I14  1  0.35453371  0.10636644  0.51104348  1
  I  I15  1  0.14546629  0.39363356  0.01104348  1
  I  I16  1  0.60746887  0.10746887  0.25000000  1
  I  I17  1  0.89253113  0.39253113  0.75000000  1
  I  I18  1  0.39253113  0.89253113  0.75000000  1
  I  I19  1  0.10746887  0.60746887  0.25000000  1
  I  I20  1  0.14354736  0.14354736  0.76153668  1
  I  I21  1  0.35645264  0.35645264  0.26153668  1
  I  I22  1  0.64354736  0.64354736  0.73846332  1
  I  I23  1  0.85645264  0.85645264  0.23846332  1
  I  I24  1  0.24851879  0.75148121  0.00000000  1
  I  I25  1  0.25148121  0.74851879  0.50000000  1
  I  I26  1  0.75148121  0.24851879  0.00000000  1
  I  I27  1  0.74851879  0.25148121  0.50000000  1
  I  I28  1  0.89363356  0.64546629  0.48895652  1
  I  I29  1  0.60636644  0.85453371  0.98895652  1
  I  I30  1  0.85453371  0.60636644  0.98895652  1
  I  I31  1  0.64546629  0.89363356  0.48895652  1
  I  I32  1  0.10636644  0.35453371  0.51104348  1
  I  I33  1  0.39363356  0.14546629  0.01104348  1
  I  I34  1  0.96623604  0.21288441  0.25476157  1
  I  I35  1  0.53376396  0.28711559  0.75476157  1
  I  I36  1  0.71288441  0.46623604  0.24523843  1
  I  I37  1  0.78711559  0.03376396  0.74523843  1
  I  I38  1  0.03376396  0.78711559  0.74523843  1
  I  I39  1  0.46623604  0.71288441  0.24523843  1
  I  I40  1  0.28711559  0.53376396  0.75476157  1
  I  I41  1  0.21288441  0.96623604  0.25476157  1
