# generated using pymatgen
data_K3Al2As3
_symmetry_space_group_name_H-M   'P 1'
_cell_length_a   6.07658914
_cell_length_b   7.66407108
_cell_length_c   10.58522683
_cell_angle_alpha   110.14885144
_cell_angle_beta   90.00000000
_cell_angle_gamma   90.00000000
_symmetry_Int_Tables_number   1
_chemical_formula_structural   K3Al2As3
_chemical_formula_sum   'K6 Al4 As6'
_cell_volume   462.79969387
_cell_formula_units_Z   2
loop_
 _symmetry_equiv_pos_site_id
 _symmetry_equiv_pos_as_xyz
  1  'x, y, z'
loop_
 _atom_site_type_symbol
 _atom_site_label
 _atom_site_symmetry_multiplicity
 _atom_site_fract_x
 _atom_site_fract_y
 _atom_site_fract_z
 _atom_site_occupancy
  Al  Al0  1  -0.00053040  0.97203815  0.34281272  1
  Al  Al1  1  0.49946960  0.02796185  0.65718728  1
  Al  Al2  1  0.50053040  0.97203815  0.34281272  1
  Al  Al3  1  1.00053040  0.02796185  0.65718728  1
  K  K4  1  0.25000000  0.56707648  0.42702137  1
  K  K5  1  0.75000000  0.87349219  0.92241647  1
  K  K6  1  0.75000000  0.52360132  0.14964711  1
  K  K7  1  0.25000000  0.47639868  0.85035289  1
  K  K8  1  0.75000000  0.43292352  0.57297863  1
  K  K9  1  0.25000000  0.12650781  0.07758353  1
  As  As10  1  0.25000000  0.18829619  0.52937161  1
  As  As11  1  0.75000000  0.81170381  0.47062839  1
  As  As12  1  0.25000000  0.74663578  0.18178661  1
  As  As13  1  0.75000000  0.25336422  0.81821339  1
  As  As14  1  0.25000000  0.84614285  0.74809243  1
  As  As15  1  0.75000000  0.15385715  0.25190757  1
