# generated using pymatgen
data_Tl4SiSe4
_symmetry_space_group_name_H-M   'P 1'
_cell_length_a   7.14996310
_cell_length_b   7.14996311
_cell_length_c   25.26277176
_cell_angle_alpha   90.97043859
_cell_angle_beta   97.95926207
_cell_angle_gamma   116.80207668
_symmetry_Int_Tables_number   1
_chemical_formula_structural   Tl4SiSe4
_chemical_formula_sum   'Tl16 Si4 Se16'
_cell_volume   1137.02188050
_cell_formula_units_Z   4
loop_
 _symmetry_equiv_pos_site_id
 _symmetry_equiv_pos_as_xyz
  1  'x, y, z'
loop_
 _atom_site_type_symbol
 _atom_site_label
 _atom_site_symmetry_multiplicity
 _atom_site_fract_x
 _atom_site_fract_y
 _atom_site_fract_z
 _atom_site_occupancy
  Si  Si0  1  0.93703366  0.44043721  0.62352108  1
  Si  Si1  1  0.68308386  0.68648741  0.12352108  1
  Si  Si2  1  0.06296634  0.55956279  0.37647892  1
  Si  Si3  1  0.31691614  0.31351259  0.87647892  1
  Se  Se4  1  0.01416096  0.60120479  0.70866376  1
  Se  Se5  1  0.00943823  0.70476234  0.11830475  1
  Se  Se6  1  0.91354241  0.10886652  0.61830475  1
  Se  Se7  1  0.99056177  0.29523766  0.88169525  1
  Se  Se8  1  0.79712106  0.34028375  0.42231002  1
  Se  Se9  1  0.08645759  0.89113348  0.38169525  1
  Se  Se10  1  0.20287894  0.65971625  0.57768998  1
  Se  Se11  1  0.58202627  0.62518896  0.92231002  1
  Se  Se12  1  0.67026276  0.96778034  0.08270015  1
  Se  Se13  1  0.38508020  0.58756261  0.41729985  1
  Se  Se14  1  0.32973724  0.03221966  0.91729985  1
  Se  Se15  1  0.61491980  0.41243739  0.58270015  1
  Se  Se16  1  0.39254104  0.30549721  0.79133624  1
  Se  Se17  1  0.98583904  0.39879521  0.29133624  1
  Se  Se18  1  0.60745896  0.69450279  0.20866376  1
  Se  Se19  1  0.41797373  0.37481104  0.07768998  1
  Tl  Tl20  1  0.92511567  0.17511567  0.75000000  1
  Tl  Tl21  1  0.07488433  0.82488433  0.25000000  1
  Tl  Tl22  1  0.50000000  0.00000000  0.50000000  1
  Tl  Tl23  1  0.00000000  0.00000000  0.00000000  1
  Tl  Tl24  1  0.32558377  0.05239395  0.66357895  1
  Tl  Tl25  1  0.88881500  0.66200482  0.83642105  1
  Tl  Tl26  1  0.67441623  0.94760605  0.33642105  1
  Tl  Tl27  1  0.11118500  0.33799518  0.16357895  1
  Tl  Tl28  1  0.50011741  0.90583276  0.82503595  1
  Tl  Tl29  1  0.58079681  0.67508145  0.67496405  1
  Tl  Tl30  1  0.49988259  0.09416724  0.17496405  1
  Tl  Tl31  1  0.41920319  0.32491855  0.32503595  1
  Tl  Tl32  1  0.14946137  0.27880428  0.50010249  1
  Tl  Tl33  1  0.27870179  0.64935888  -0.00010249  1
  Tl  Tl34  1  0.85053863  0.72119572  0.49989751  1
  Tl  Tl35  1  0.72129821  0.35064112  1.00010249  1
