# generated using pymatgen
data_Ba2As2Se5
_symmetry_space_group_name_H-M   'P 1'
_cell_length_a   9.59548115
_cell_length_b   10.27203931
_cell_length_c   12.62787232
_cell_angle_alpha   90.00000000
_cell_angle_beta   90.00000000
_cell_angle_gamma   117.18709631
_symmetry_Int_Tables_number   1
_chemical_formula_structural   Ba2As2Se5
_chemical_formula_sum   'Ba8 As8 Se20'
_cell_volume   1107.15642462
_cell_formula_units_Z   4
loop_
 _symmetry_equiv_pos_site_id
 _symmetry_equiv_pos_as_xyz
  1  'x, y, z'
loop_
 _atom_site_type_symbol
 _atom_site_label
 _atom_site_symmetry_multiplicity
 _atom_site_fract_x
 _atom_site_fract_y
 _atom_site_fract_z
 _atom_site_occupancy
  As  As0  1  0.76556618  0.24839381  0.37637401  1
  As  As1  1  0.78094652  0.99199780  0.48927371  1
  As  As2  1  0.21905348  0.00800220  0.98927371  1
  As  As3  1  0.23443382  0.75160619  0.87637401  1
  As  As4  1  0.60283680  0.73718327  0.91838930  1
  As  As5  1  0.39716320  0.26281673  0.41838930  1
  As  As6  1  0.03586426  0.51252482  0.30147650  1
  As  As7  1  0.96413574  0.48747518  0.80147650  1
  Se  Se8  1  0.33849858  0.57153700  0.83475682  1
  Se  Se9  1  0.66150142  0.42846300  0.33475682  1
  Se  Se10  1  0.49375644  0.07499566  0.44691846  1
  Se  Se11  1  0.50624356  0.92500434  0.94691846  1
  Se  Se12  1  0.95138558  0.39458369  0.61992952  1
  Se  Se13  1  0.29847806  0.10056419  0.16841037  1
  Se  Se14  1  0.04861442  0.60541631  0.11992952  1
  Se  Se15  1  0.70152194  0.89943581  0.66841037  1
  Se  Se16  1  0.37181660  0.23685480  0.89560132  1
  Se  Se17  1  0.62818340  0.76314520  0.39560132  1
  Se  Se18  1  0.11530414  0.73920135  0.39568794  1
  Se  Se19  1  0.88469586  0.26079865  0.89568794  1
  Se  Se20  1  0.78401688  0.14041359  0.20911774  1
  Se  Se21  1  0.21598312  0.85958641  0.70911774  1
  Se  Se22  1  0.43588908  0.36752692  0.59353475  1
  Se  Se23  1  0.56411092  0.63247308  0.09353475  1
  Se  Se24  1  0.73511667  0.52322082  0.81544059  1
  Se  Se25  1  0.26488333  0.47677918  0.31544059  1
  Se  Se26  1  0.04130512  0.01335174  0.48007186  1
  Se  Se27  1  0.95869488  0.98664826  0.98007186  1
  Ba  Ba28  1  0.17631607  0.34609457  0.06875068  1
  Ba  Ba29  1  0.82368393  0.65390543  0.56875068  1
  Ba  Ba30  1  0.67039943  0.35609502  0.06550386  1
  Ba  Ba31  1  0.32960057  0.64390498  0.56550386  1
  Ba  Ba32  1  0.41637274  0.83994856  0.21929565  1
  Ba  Ba33  1  0.58362726  0.16005144  0.71929565  1
  Ba  Ba34  1  0.92384919  0.85917798  0.22676691  1
  Ba  Ba35  1  0.07615081  0.14082202  0.72676691  1
