# generated using pymatgen
data_CaAsPt
_symmetry_space_group_name_H-M   'P 1'
_cell_length_a   4.22848830
_cell_length_b   4.22848830
_cell_length_c   22.37882099
_cell_angle_alpha   95.42111653
_cell_angle_beta   95.42111654
_cell_angle_gamma   90.00000000
_symmetry_Int_Tables_number   1
_chemical_formula_structural   CaAsPt
_chemical_formula_sum   'Ca6 As6 Pt6'
_cell_volume   396.54833348
_cell_formula_units_Z   6
loop_
 _symmetry_equiv_pos_site_id
 _symmetry_equiv_pos_as_xyz
  1  'x, y, z'
loop_
 _atom_site_type_symbol
 _atom_site_label
 _atom_site_symmetry_multiplicity
 _atom_site_fract_x
 _atom_site_fract_y
 _atom_site_fract_z
 _atom_site_occupancy
  Ca  Ca0  1  0.99955951  0.99955951  0.99911901  1
  Ca  Ca1  1  0.74955951  0.24955951  0.49911901  1
  Ca  Ca2  1  0.16583617  0.16583617  0.33167234  1
  Ca  Ca3  1  0.91583617  0.41583617  0.83167234  1
  Ca  Ca4  1  0.83304703  0.83304703  0.66609406  1
  Ca  Ca5  1  0.58304703  0.08304703  0.16609406  1
  As  As6  1  0.69367215  0.69367215  0.38734431  1
  As  As7  1  0.27714025  0.77714025  0.55428051  1
  As  As8  1  0.52714025  0.52714025  0.05428051  1
  As  As9  1  0.44367215  0.94367215  0.88734431  1
  As  As10  1  0.10999020  0.60999020  0.21998039  1
  As  As11  1  0.35999020  0.35999020  0.71998039  1
  Pt  Pt12  1  0.38820471  0.88820471  0.77640942  1
  Pt  Pt13  1  0.63820471  0.63820471  0.27640942  1
  Pt  Pt14  1  0.47204489  0.47204489  0.94408978  1
  Pt  Pt15  1  0.05450509  0.55450509  0.10901018  1
  Pt  Pt16  1  0.30450509  0.30450509  0.60901018  1
  Pt  Pt17  1  0.22204489  0.72204489  0.44408978  1
