# generated using pymatgen
data_TeAuCl7
_symmetry_space_group_name_H-M   'P 1'
_cell_length_a   7.97620054
_cell_length_b   8.37405232
_cell_length_c   9.53004042
_cell_angle_alpha   78.70900458
_cell_angle_beta   84.82612113
_cell_angle_gamma   90.30667866
_symmetry_Int_Tables_number   1
_chemical_formula_structural   TeAuCl7
_chemical_formula_sum   'Te2 Au2 Cl14'
_cell_volume   621.50530316
_cell_formula_units_Z   2
loop_
 _symmetry_equiv_pos_site_id
 _symmetry_equiv_pos_as_xyz
  1  'x, y, z'
loop_
 _atom_site_type_symbol
 _atom_site_label
 _atom_site_symmetry_multiplicity
 _atom_site_fract_x
 _atom_site_fract_y
 _atom_site_fract_z
 _atom_site_occupancy
  Cl  Cl0  1  0.44170425  0.85953588  0.86517684  1
  Cl  Cl1  1  0.55829575  0.14046412  0.13482316  1
  Cl  Cl2  1  0.35614825  0.85460229  0.45335159  1
  Cl  Cl3  1  0.64385175  0.14539771  0.54664841  1
  Cl  Cl4  1  0.03990311  0.67338095  0.68060818  1
  Cl  Cl5  1  0.96009689  0.32661905  0.31939182  1
  Cl  Cl6  1  0.78893708  0.75573232  0.42580925  1
  Cl  Cl7  1  0.21106292  0.24426768  0.57419075  1
  Cl  Cl8  1  0.10758248  0.93073241  0.20036305  1
  Cl  Cl9  1  0.89241752  0.06926759  0.79963695  1
  Cl  Cl10  1  0.79697402  0.68120680  -0.00663329  1
  Cl  Cl11  1  0.20302598  0.31879320  1.00663329  1
  Cl  Cl12  1  0.41164502  0.48514879  0.24403438  1
  Cl  Cl13  1  0.58835498  0.51485121  0.75596562  1
  Te  Te14  1  0.69871550  0.77246130  0.76708715  1
  Te  Te15  1  0.30128450  0.22753870  0.23291285  1
  Au  Au16  1  0.92636731  0.19928715  0.56011055  1
  Au  Au17  1  0.07363269  0.80071285  0.43988945  1
