# generated using pymatgen
data_Na3CrCl6
_symmetry_space_group_name_H-M   'P 1'
_cell_length_a   6.90508085
_cell_length_b   6.90508085
_cell_length_c   12.15038264
_cell_angle_alpha   90.00000000
_cell_angle_beta   90.00000000
_cell_angle_gamma   120.00000004
_symmetry_Int_Tables_number   1
_chemical_formula_structural   Na3CrCl6
_chemical_formula_sum   'Na6 Cr2 Cl12'
_cell_volume   501.71619803
_cell_formula_units_Z   2
loop_
 _symmetry_equiv_pos_site_id
 _symmetry_equiv_pos_as_xyz
  1  'x, y, z'
loop_
 _atom_site_type_symbol
 _atom_site_label
 _atom_site_symmetry_multiplicity
 _atom_site_fract_x
 _atom_site_fract_y
 _atom_site_fract_z
 _atom_site_occupancy
  Na  Na0  1  0.00000000  0.00000000  0.75000000  1
  Na  Na1  1  0.00000000  0.00000000  0.25000000  1
  Na  Na2  1  0.66666667  0.33333333  0.45578185  1
  Na  Na3  1  0.66666667  0.33333333  0.04421815  1
  Na  Na4  1  0.33333333  0.66666667  0.54421815  1
  Na  Na5  1  0.33333333  0.66666667  0.95578185  1
  Cl  Cl6  1  0.38274185  0.32248547  0.86474474  1
  Cl  Cl7  1  0.93974362  0.61725815  0.86474474  1
  Cl  Cl8  1  0.38274185  0.06025638  0.63525526  1
  Cl  Cl9  1  0.93974362  0.32248547  0.63525526  1
  Cl  Cl10  1  0.32248547  0.93974362  0.13525526  1
  Cl  Cl11  1  0.67751453  0.61725815  0.63525526  1
  Cl  Cl12  1  0.06025638  0.38274185  0.13525526  1
  Cl  Cl13  1  0.61725815  0.67751453  0.13525526  1
  Cl  Cl14  1  0.32248547  0.38274185  0.36474474  1
  Cl  Cl15  1  0.61725815  0.93974362  0.36474474  1
  Cl  Cl16  1  0.06025638  0.67751453  0.36474474  1
  Cl  Cl17  1  0.67751453  0.06025638  0.86474474  1
  Cr  Cr18  1  0.33333333  0.66666667  0.25000000  1
  Cr  Cr19  1  0.66666667  0.33333333  0.75000000  1
