# generated using pymatgen
data_NbAlCl8
_symmetry_space_group_name_H-M   'P 1'
_cell_length_a   8.64550524
_cell_length_b   8.74168923
_cell_length_c   9.92948516
_cell_angle_alpha   90.00000000
_cell_angle_beta   115.80725458
_cell_angle_gamma   90.00000000
_symmetry_Int_Tables_number   1
_chemical_formula_structural   NbAlCl8
_chemical_formula_sum   'Nb2 Al2 Cl16'
_cell_volume   675.58841074
_cell_formula_units_Z   2
loop_
 _symmetry_equiv_pos_site_id
 _symmetry_equiv_pos_as_xyz
  1  'x, y, z'
loop_
 _atom_site_type_symbol
 _atom_site_label
 _atom_site_symmetry_multiplicity
 _atom_site_fract_x
 _atom_site_fract_y
 _atom_site_fract_z
 _atom_site_occupancy
  Al  Al0  1  0.68601270  0.25000000  0.37202540  1
  Al  Al1  1  0.31398730  0.75000000  0.62797460  1
  Cl  Cl2  1  0.62343742  0.45438007  0.24687484  1
  Cl  Cl3  1  0.37656258  0.54561993  0.75312516  1
  Cl  Cl4  1  0.96133725  0.25000000  0.53869892  1
  Cl  Cl5  1  0.42263833  0.75000000  0.46130108  1
  Cl  Cl6  1  0.03866275  0.75000000  0.46130108  1
  Cl  Cl7  1  0.57736167  0.25000000  0.53869892  1
  Cl  Cl8  1  0.17051699  0.25000000  0.93082499  1
  Cl  Cl9  1  0.23969200  0.75000000  0.06917501  1
  Cl  Cl10  1  0.82948301  0.75000000  0.06917501  1
  Cl  Cl11  1  0.76030800  0.25000000  0.93082499  1
  Cl  Cl12  1  0.86654576  0.51261654  0.73309153  1
  Cl  Cl13  1  0.13345424  0.48738346  0.26690847  1
  Cl  Cl14  1  0.13345424  0.01261654  0.26690847  1
  Cl  Cl15  1  0.86654576  0.98738346  0.73309153  1
  Cl  Cl16  1  0.62343742  0.04561993  0.24687484  1
  Cl  Cl17  1  0.37656258  0.95438007  0.75312516  1
  Nb  Nb18  1  0.11334122  0.75000000  0.22668244  1
  Nb  Nb19  1  0.88665878  0.25000000  0.77331756  1
