# generated using pymatgen
data_Na4Ge2Se5
_symmetry_space_group_name_H-M   'P 1'
_cell_length_a   7.16730121
_cell_length_b   8.22953534
_cell_length_c   10.81907687
_cell_angle_alpha   73.50704206
_cell_angle_beta   70.76698694
_cell_angle_gamma   81.72918416
_symmetry_Int_Tables_number   1
_chemical_formula_structural   Na4Ge2Se5
_chemical_formula_sum   'Na8 Ge4 Se10'
_cell_volume   576.84563839
_cell_formula_units_Z   2
loop_
 _symmetry_equiv_pos_site_id
 _symmetry_equiv_pos_as_xyz
  1  'x, y, z'
loop_
 _atom_site_type_symbol
 _atom_site_label
 _atom_site_symmetry_multiplicity
 _atom_site_fract_x
 _atom_site_fract_y
 _atom_site_fract_z
 _atom_site_occupancy
  Na  Na0  1  0.20576096  0.00088787  0.59415662  1
  Na  Na1  1  0.79423904  0.99911213  0.40584338  1
  Na  Na2  1  0.90964139  0.52134247  0.68318924  1
  Na  Na3  1  0.09035861  0.47865753  0.31681076  1
  Na  Na4  1  0.50000000  0.50000000  0.50000000  1
  Na  Na5  1  0.00000000  0.00000000  0.00000000  1
  Na  Na6  1  0.27287078  0.49069462  0.89649308  1
  Na  Na7  1  0.72712922  0.50930538  0.10350692  1
  Ge  Ge8  1  0.42523383  0.84491561  0.22976784  1
  Ge  Ge9  1  0.57476617  0.15508439  0.77023216  1
  Ge  Ge10  1  0.38267589  0.15804653  0.16616623  1
  Ge  Ge11  1  0.61732411  0.84195347  0.83383377  1
  Se  Se12  1  0.05964289  0.24667095  0.15479061  1
  Se  Se13  1  0.94035711  0.75332905  0.84520939  1
  Se  Se14  1  0.64314312  0.25485364  0.94731110  1
  Se  Se15  1  0.35685688  0.74514636  0.05268890  1
  Se  Se16  1  0.83673547  0.24986590  0.57121643  1
  Se  Se17  1  0.16326453  0.75013410  0.42878357  1
  Se  Se18  1  0.53596466  0.74531616  0.67381404  1
  Se  Se19  1  0.46403534  0.25468384  0.32618596  1
  Se  Se20  1  0.25964292  0.24648892  0.74462783  1
  Se  Se21  1  0.74035708  0.75351108  0.25537217  1
