# generated using pymatgen
data_Al2CdCl8
_symmetry_space_group_name_H-M   'P 1'
_cell_length_a   7.10763094
_cell_length_b   7.19146928
_cell_length_c   13.23018986
_cell_angle_alpha   92.33702830
_cell_angle_beta   90.00000000
_cell_angle_gamma   90.00000000
_symmetry_Int_Tables_number   1
_chemical_formula_structural   Al2CdCl8
_chemical_formula_sum   'Al4 Cd2 Cl16'
_cell_volume   675.68954807
_cell_formula_units_Z   2
loop_
 _symmetry_equiv_pos_site_id
 _symmetry_equiv_pos_as_xyz
  1  'x, y, z'
loop_
 _atom_site_type_symbol
 _atom_site_label
 _atom_site_symmetry_multiplicity
 _atom_site_fract_x
 _atom_site_fract_y
 _atom_site_fract_z
 _atom_site_occupancy
  Al  Al0  1  0.92467376  0.56321030  0.54125552  1
  Al  Al1  1  0.43512587  0.14628132  0.24149877  1
  Al  Al2  1  0.56487413  0.14628132  0.74149877  1
  Al  Al3  1  0.07532624  0.56321030  0.04125552  1
  Cl  Cl4  1  0.92632698  0.53569679  0.17665883  1
  Cl  Cl5  1  0.07367302  0.53569679  0.67665883  1
  Cl  Cl6  1  0.63329781  0.65517713  0.55850684  1
  Cl  Cl7  1  0.36670219  0.65517713  0.05850684  1
  Cl  Cl8  1  0.92891542  0.30430782  0.44653392  1
  Cl  Cl9  1  0.07108458  0.30430782  0.94653392  1
  Cl  Cl10  1  0.43797007  0.15185879  0.58958548  1
  Cl  Cl11  1  0.56202993  0.15185879  0.08958548  1
  Cl  Cl12  1  0.04119514  0.78926909  0.45303483  1
  Cl  Cl13  1  0.95880486  0.78926909  0.95303483  1
  Cl  Cl14  1  0.15117668  0.05006758  0.20276960  1
  Cl  Cl15  1  0.84882332  0.05006758  0.70276960  1
  Cl  Cl16  1  0.43823952  0.40255869  0.32272591  1
  Cl  Cl17  1  0.56176048  0.40255869  0.82272591  1
  Cl  Cl18  1  0.58303703  0.92984802  0.32249299  1
  Cl  Cl19  1  0.41696297  0.92984802  0.82249299  1
  Cd  Cd20  1  0.74328406  0.00312448  0.50393733  1
  Cd  Cd21  1  0.25671594  0.00312448  0.00393733  1
