# generated using pymatgen
data_YSiRh2
_symmetry_space_group_name_H-M   'P 1'
_cell_length_a   5.56161714
_cell_length_b   5.56161714
_cell_length_c   15.16086848
_cell_angle_alpha   90.00000000
_cell_angle_beta   90.00000000
_cell_angle_gamma   120.00000000
_symmetry_Int_Tables_number   1
_chemical_formula_structural   YSiRh2
_chemical_formula_sum   'Y6 Si6 Rh12'
_cell_volume   406.12234926
_cell_formula_units_Z   6
loop_
 _symmetry_equiv_pos_site_id
 _symmetry_equiv_pos_as_xyz
  1  'x, y, z'
loop_
 _atom_site_type_symbol
 _atom_site_label
 _atom_site_symmetry_multiplicity
 _atom_site_fract_x
 _atom_site_fract_y
 _atom_site_fract_z
 _atom_site_occupancy
  Si  Si0  1  0.66666667  0.33333333  0.25000000  1
  Si  Si1  1  0.00000000  0.00000000  0.50000000  1
  Si  Si2  1  0.00000000  0.00000000  0.25000000  1
  Si  Si3  1  0.00000000  0.00000000  0.75000000  1
  Si  Si4  1  0.33333333  0.66666667  0.75000000  1
  Si  Si5  1  0.00000000  0.00000000  0.00000000  1
  Y  Y6  1  0.66666667  0.33333333  0.96305560  1
  Y  Y7  1  0.66666667  0.33333333  0.53694440  1
  Y  Y8  1  0.33333333  0.66666667  0.03694440  1
  Y  Y9  1  0.66666667  0.33333333  0.75000000  1
  Y  Y10  1  0.33333333  0.66666667  0.46305560  1
  Y  Y11  1  0.33333333  0.66666667  0.25000000  1
  Rh  Rh12  1  0.16651219  0.33302438  0.86911644  1
  Rh  Rh13  1  0.16651219  0.33302438  0.63088356  1
  Rh  Rh14  1  0.66697562  0.83348781  0.86911644  1
  Rh  Rh15  1  0.33302438  0.16651219  0.36911644  1
  Rh  Rh16  1  0.83348781  0.66697562  0.36911644  1
  Rh  Rh17  1  0.83348781  0.16651219  0.36911644  1
  Rh  Rh18  1  0.83348781  0.16651219  0.13088356  1
  Rh  Rh19  1  0.33302438  0.16651219  0.13088356  1
  Rh  Rh20  1  0.66697562  0.83348781  0.63088356  1
  Rh  Rh21  1  0.16651219  0.83348781  0.63088356  1
  Rh  Rh22  1  0.83348781  0.66697562  0.13088356  1
  Rh  Rh23  1  0.16651219  0.83348781  0.86911644  1
