# generated using pymatgen
data_TlAuCl4
_symmetry_space_group_name_H-M   'P 1'
_cell_length_a   5.93938817
_cell_length_b   6.92908325
_cell_length_c   10.22052073
_cell_angle_alpha   100.23311238
_cell_angle_beta   90.00000000
_cell_angle_gamma   115.37772951
_symmetry_Int_Tables_number   1
_chemical_formula_structural   TlAuCl4
_chemical_formula_sum   'Tl2 Au2 Cl8'
_cell_volume   372.61261997
_cell_formula_units_Z   2
loop_
 _symmetry_equiv_pos_site_id
 _symmetry_equiv_pos_as_xyz
  1  'x, y, z'
loop_
 _atom_site_type_symbol
 _atom_site_label
 _atom_site_symmetry_multiplicity
 _atom_site_fract_x
 _atom_site_fract_y
 _atom_site_fract_z
 _atom_site_occupancy
  Cl  Cl0  1  0.72778970  0.53360180  0.85190101  1
  Cl  Cl1  1  0.19418790  0.46639820  0.64809899  1
  Cl  Cl2  1  0.27221030  0.46639820  0.14809899  1
  Cl  Cl3  1  0.80581210  0.53360180  0.35190101  1
  Cl  Cl4  1  0.32163291  0.12425790  0.43209269  1
  Cl  Cl5  1  0.19737501  0.87574210  0.06790731  1
  Cl  Cl6  1  0.67836709  0.87574210  0.56790731  1
  Cl  Cl7  1  0.80262499  0.12425790  0.93209269  1
  Au  Au8  1  0.00000000  0.50000000  0.00000000  1
  Au  Au9  1  0.50000000  0.50000000  0.50000000  1
  Tl  Tl10  1  0.22703081  0.00000000  0.75000000  1
  Tl  Tl11  1  0.77296919  0.00000000  0.25000000  1
