# generated using pymatgen
data_Gd2B5
_symmetry_space_group_name_H-M   'P 1'
_cell_length_a   7.14948177
_cell_length_b   7.14988599
_cell_length_c   7.17729630
_cell_angle_alpha   90.00000000
_cell_angle_beta   102.58117652
_cell_angle_gamma   90.00000000
_symmetry_Int_Tables_number   1
_chemical_formula_structural   Gd2B5
_chemical_formula_sum   'Gd8 B20'
_cell_volume   358.07928739
_cell_formula_units_Z   4
loop_
 _symmetry_equiv_pos_site_id
 _symmetry_equiv_pos_as_xyz
  1  'x, y, z'
loop_
 _atom_site_type_symbol
 _atom_site_label
 _atom_site_symmetry_multiplicity
 _atom_site_fract_x
 _atom_site_fract_y
 _atom_site_fract_z
 _atom_site_occupancy
  B  B0  1  0.68483168  0.49828481  0.03919372  1
  B  B1  1  0.31516832  0.99828481  0.46080628  1
  B  B2  1  0.31516832  0.50171519  0.96080628  1
  B  B3  1  0.68483168  0.00171519  0.53919372  1
  B  B4  1  0.07680015  0.50831555  0.92896450  1
  B  B5  1  0.92319985  0.00831555  0.57103550  1
  B  B6  1  0.92319985  0.49168445  0.07103550  1
  B  B7  1  0.07680015  0.99168445  0.42896450  1
  B  B8  1  0.50300155  0.67335976  0.04000502  1
  B  B9  1  0.49699845  0.17335976  0.45999498  1
  B  B10  1  0.49699845  0.32664024  0.95999498  1
  B  B11  1  0.50300155  0.82664024  0.54000502  1
  B  B12  1  0.50015102  0.08988355  0.90997644  1
  B  B13  1  0.49984898  0.58988355  0.59002356  1
  B  B14  1  0.49984898  0.91011645  0.09002356  1
  B  B15  1  0.50015102  0.41011645  0.40997644  1
  B  B16  1  0.50308166  0.03883840  0.67389439  1
  B  B17  1  0.49691834  0.53883840  0.82610561  1
  B  B18  1  0.49691834  0.96116160  0.32610561  1
  B  B19  1  0.50308166  0.46116160  0.17389439  1
  Gd  Gd20  1  0.24149590  0.68444603  0.25556241  1
  Gd  Gd21  1  0.75850410  0.18444603  0.24443759  1
  Gd  Gd22  1  0.75850410  0.31555397  0.74443759  1
  Gd  Gd23  1  0.24149590  0.81555397  0.75556241  1
  Gd  Gd24  1  0.23307750  0.30859900  0.62845183  1
  Gd  Gd25  1  0.76692250  0.80859900  0.87154817  1
  Gd  Gd26  1  0.76692250  0.69140100  0.37154817  1
  Gd  Gd27  1  0.23307750  0.19140100  0.12845183  1
