# generated using pymatgen
data_Na3AuO2
_symmetry_space_group_name_H-M   'P 1'
_cell_length_a   4.63843520
_cell_length_b   9.81446066
_cell_length_c   9.81446066
_cell_angle_alpha   90.00000000
_cell_angle_beta   90.00000000
_cell_angle_gamma   90.00000000
_symmetry_Int_Tables_number   1
_chemical_formula_structural   Na3AuO2
_chemical_formula_sum   'Na12 Au4 O8'
_cell_volume   446.79095331
_cell_formula_units_Z   4
loop_
 _symmetry_equiv_pos_site_id
 _symmetry_equiv_pos_as_xyz
  1  'x, y, z'
loop_
 _atom_site_type_symbol
 _atom_site_label
 _atom_site_symmetry_multiplicity
 _atom_site_fract_x
 _atom_site_fract_y
 _atom_site_fract_z
 _atom_site_occupancy
  O  O0  1  0.00000000  0.01612794  0.30920025  1
  O  O1  1  0.00000000  0.98387206  0.69079975  1
  O  O2  1  0.50000000  0.80920025  0.48387206  1
  O  O3  1  0.50000000  0.19079975  0.51612794  1
  O  O4  1  0.50000000  0.51612794  0.19079975  1
  O  O5  1  0.00000000  0.69079975  0.98387206  1
  O  O6  1  0.00000000  0.30920025  0.01612794  1
  O  O7  1  0.50000000  0.48387206  0.80920025  1
  Na  Na8  1  0.50000000  0.65892106  0.65892106  1
  Na  Na9  1  0.00000000  0.51189803  0.15154113  1
  Na  Na10  1  0.50000000  0.65154113  0.98810197  1
  Na  Na11  1  0.00000000  0.48810197  0.84845887  1
  Na  Na12  1  0.50000000  0.01189803  0.34845887  1
  Na  Na13  1  0.50000000  0.98810197  0.65154113  1
  Na  Na14  1  0.00000000  0.15154113  0.51189803  1
  Na  Na15  1  0.00000000  0.84845887  0.48810197  1
  Na  Na16  1  0.00000000  0.15892106  0.84107894  1
  Na  Na17  1  0.50000000  0.34107894  0.34107894  1
  Na  Na18  1  0.50000000  0.34845887  0.01189803  1
  Na  Na19  1  0.00000000  0.84107894  0.15892106  1
  Au  Au20  1  0.00000000  0.83358542  0.83358542  1
  Au  Au21  1  0.50000000  0.66641458  0.33358542  1
  Au  Au22  1  0.50000000  0.33358542  0.66641458  1
  Au  Au23  1  0.00000000  0.16641458  0.16641458  1
