# generated using pymatgen
data_Rb2CdO2
_symmetry_space_group_name_H-M   'P 1'
_cell_length_a   6.38626330
_cell_length_b   6.51181162
_cell_length_c   10.73777785
_cell_angle_alpha   90.00000000
_cell_angle_beta   90.00000000
_cell_angle_gamma   90.00000000
_symmetry_Int_Tables_number   1
_chemical_formula_structural   Rb2CdO2
_chemical_formula_sum   'Rb8 Cd4 O8'
_cell_volume   446.54277124
_cell_formula_units_Z   4
loop_
 _symmetry_equiv_pos_site_id
 _symmetry_equiv_pos_as_xyz
  1  'x, y, z'
loop_
 _atom_site_type_symbol
 _atom_site_label
 _atom_site_symmetry_multiplicity
 _atom_site_fract_x
 _atom_site_fract_y
 _atom_site_fract_z
 _atom_site_occupancy
  O  O0  1  0.51667874  0.18963554  0.90397920  1
  O  O1  1  0.01667874  0.81036446  0.90397920  1
  O  O2  1  0.51667874  0.68963554  0.59602080  1
  O  O3  1  0.48332126  0.31036446  0.40397920  1
  O  O4  1  0.48332126  0.81036446  0.09602080  1
  O  O5  1  0.98332126  0.18963554  0.09602080  1
  O  O6  1  0.01667874  0.31036446  0.59602080  1
  O  O7  1  0.98332126  0.68963554  0.40397920  1
  Rb  Rb8  1  0.39735900  0.10918795  0.65609181  1
  Rb  Rb9  1  0.60264100  0.39081205  0.15609181  1
  Rb  Rb10  1  0.89735900  0.89081205  0.65609181  1
  Rb  Rb11  1  0.10264100  0.60918795  0.15609181  1
  Rb  Rb12  1  0.60264100  0.89081205  0.34390819  1
  Rb  Rb13  1  0.39735900  0.60918795  0.84390819  1
  Rb  Rb14  1  0.89735900  0.39081205  0.84390819  1
  Rb  Rb15  1  0.10264100  0.10918795  0.34390819  1
  Cd  Cd16  1  0.75000000  0.46505919  0.50000000  1
  Cd  Cd17  1  0.25000000  0.53494081  0.50000000  1
  Cd  Cd18  1  0.75000000  0.96505919  0.00000000  1
  Cd  Cd19  1  0.25000000  0.03494081  0.00000000  1
