# generated using pymatgen
data_K2Zn3O4
_symmetry_space_group_name_H-M   'P 1'
_cell_length_a   5.83568427
_cell_length_b   6.47296069
_cell_length_c   8.18331421
_cell_angle_alpha   113.29700576
_cell_angle_beta   102.16550402
_cell_angle_gamma   90.00000007
_symmetry_Int_Tables_number   1
_chemical_formula_structural   K2Zn3O4
_chemical_formula_sum   'K4 Zn6 O8'
_cell_volume   276.34021899
_cell_formula_units_Z   2
loop_
 _symmetry_equiv_pos_site_id
 _symmetry_equiv_pos_as_xyz
  1  'x, y, z'
loop_
 _atom_site_type_symbol
 _atom_site_label
 _atom_site_symmetry_multiplicity
 _atom_site_fract_x
 _atom_site_fract_y
 _atom_site_fract_z
 _atom_site_occupancy
  O  O0  1  0.78634011  0.61333391  0.47160411  1
  O  O1  1  0.95517242  0.61889300  0.88337155  1
  O  O2  1  0.54482758  0.73552144  0.11662845  1
  O  O3  1  0.04482758  0.38110700  0.11662845  1
  O  O4  1  0.71365989  0.14172980  0.52839589  1
  O  O5  1  0.21365989  0.38666609  0.52839589  1
  O  O6  1  0.28634011  0.85827020  0.47160411  1
  O  O7  1  0.45517242  0.26447856  0.88337155  1
  K  K8  1  0.01188906  0.00488907  0.76144206  1
  K  K9  1  0.51188906  0.75655299  0.76144206  1
  K  K10  1  0.98811094  0.99511093  0.23855794  1
  K  K11  1  0.48811094  0.24344701  0.23855794  1
  Zn  Zn12  1  0.91512403  0.42640651  0.61771583  1
  Zn  Zn13  1  0.41512403  0.19130933  0.61771583  1
  Zn  Zn14  1  0.08487597  0.57359349  0.38228417  1
  Zn  Zn15  1  0.75000000  0.48066156  0.00000000  1
  Zn  Zn16  1  0.25000000  0.51933844  0.00000000  1
  Zn  Zn17  1  0.58487597  0.80869067  0.38228417  1
