# generated using pymatgen
data_Ta2AgF12
_symmetry_space_group_name_H-M   'P 1'
_cell_length_a   5.39686416
_cell_length_b   5.68875290
_cell_length_c   9.37592984
_cell_angle_alpha   76.16189252
_cell_angle_beta   88.01463351
_cell_angle_gamma   63.00046166
_symmetry_Int_Tables_number   1
_chemical_formula_structural   Ta2AgF12
_chemical_formula_sum   'Ta2 Ag1 F12'
_cell_volume   248.12579679
_cell_formula_units_Z   1
loop_
 _symmetry_equiv_pos_site_id
 _symmetry_equiv_pos_as_xyz
  1  'x, y, z'
loop_
 _atom_site_type_symbol
 _atom_site_label
 _atom_site_symmetry_multiplicity
 _atom_site_fract_x
 _atom_site_fract_y
 _atom_site_fract_z
 _atom_site_occupancy
  F  F0  1  0.16608513  0.27142790  0.27648282  1
  F  F1  1  0.83391487  0.72857210  0.72351718  1
  F  F2  1  0.81491664  0.73653898  0.08200846  1
  F  F3  1  0.28046872  0.73301899  0.56457996  1
  F  F4  1  0.71953128  0.26698101  0.43542004  1
  F  F5  1  0.19840917  0.27453934  0.62866204  1
  F  F6  1  0.80159083  0.72546066  0.37133796  1
  F  F7  1  0.61609505  0.29415864  0.79023292  1
  F  F8  1  0.38390495  0.70584136  0.20976708  1
  F  F9  1  0.24612406  0.72871134  0.86674130  1
  F  F10  1  0.75387594  0.27128866  0.13325870  1
  F  F11  1  0.18508336  0.26346102  0.91799154  1
  Ag  Ag12  1  0.00000000  0.00000000  0.00000000  1
  Ta  Ta13  1  0.22269525  0.51088776  0.72949217  1
  Ta  Ta14  1  0.77730475  0.48911224  0.27050783  1
