# generated using pymatgen
data_AuSeCl7
_symmetry_space_group_name_H-M   'P 1'
_cell_length_a   9.07677188
_cell_length_b   10.50578020
_cell_length_c   13.04930780
_cell_angle_alpha   90.00000000
_cell_angle_beta   108.47027912
_cell_angle_gamma   90.00000000
_symmetry_Int_Tables_number   1
_chemical_formula_structural   AuSeCl7
_chemical_formula_sum   'Au4 Se4 Cl28'
_cell_volume   1180.26384243
_cell_formula_units_Z   4
loop_
 _symmetry_equiv_pos_site_id
 _symmetry_equiv_pos_as_xyz
  1  'x, y, z'
loop_
 _atom_site_type_symbol
 _atom_site_label
 _atom_site_symmetry_multiplicity
 _atom_site_fract_x
 _atom_site_fract_y
 _atom_site_fract_z
 _atom_site_occupancy
  Cl  Cl0  1  0.45729812  0.29278771  0.96615260  1
  Cl  Cl1  1  0.54270188  0.79278771  0.53384740  1
  Cl  Cl2  1  0.54270188  0.70721229  0.03384740  1
  Cl  Cl3  1  0.45729812  0.20721229  0.46615260  1
  Cl  Cl4  1  0.36728357  0.41616818  0.64782148  1
  Cl  Cl5  1  0.63271643  0.91616818  0.85217852  1
  Cl  Cl6  1  0.63271643  0.58383182  0.35217852  1
  Cl  Cl7  1  0.36728357  0.08383182  0.14782148  1
  Cl  Cl8  1  0.16399178  0.45724095  0.38916973  1
  Cl  Cl9  1  0.83600822  0.95724095  0.11083027  1
  Cl  Cl10  1  0.83600822  0.54275905  0.61083027  1
  Cl  Cl11  1  0.16399178  0.04275905  0.88916973  1
  Cl  Cl12  1  0.05653517  0.73967063  0.44844269  1
  Cl  Cl13  1  0.94346483  0.23967063  0.05155731  1
  Cl  Cl14  1  0.94346483  0.26032937  0.55155731  1
  Cl  Cl15  1  0.05653517  0.76032937  0.94844269  1
  Cl  Cl16  1  0.27240675  0.70070846  0.70171188  1
  Cl  Cl17  1  0.72759325  0.20070846  0.79828812  1
  Cl  Cl18  1  0.72759325  0.29929154  0.29828812  1
  Cl  Cl19  1  0.27240675  0.79929154  0.20171188  1
  Cl  Cl20  1  0.27745495  0.42896757  0.12290886  1
  Cl  Cl21  1  0.72254505  0.92896757  0.37709114  1
  Cl  Cl22  1  0.72254505  0.57103243  0.87709114  1
  Cl  Cl23  1  0.27745495  0.07103243  0.62290886  1
  Cl  Cl24  1  0.10211414  0.10722673  0.35600700  1
  Cl  Cl25  1  0.89788586  0.60722673  0.14399300  1
  Cl  Cl26  1  0.89788586  0.89277327  0.64399300  1
  Cl  Cl27  1  0.10211414  0.39277327  0.85600700  1
  Se  Se28  1  0.23319728  0.28022513  0.99729395  1
  Se  Se29  1  0.76680272  0.78022513  0.50270605  1
  Se  Se30  1  0.76680272  0.71977487  0.00270605  1
  Se  Se31  1  0.23319728  0.21977487  0.49729395  1
  Au  Au32  1  0.21404039  0.92104771  0.04775534  1
  Au  Au33  1  0.78595961  0.42104771  0.45224466  1
  Au  Au34  1  0.78595961  0.07895229  0.95224466  1
  Au  Au35  1  0.21404039  0.57895229  0.54775534  1
