# generated using pymatgen
data_CsGeI3
_symmetry_space_group_name_H-M   'P 1'
_cell_length_a   6.09914314
_cell_length_b   6.09914314
_cell_length_c   6.09914314
_cell_angle_alpha   88.46020485
_cell_angle_beta   88.46020481
_cell_angle_gamma   88.46020479
_symmetry_Int_Tables_number   1
_chemical_formula_structural   CsGeI3
_chemical_formula_sum   'Cs1 Ge1 I3'
_cell_volume   226.64389703
_cell_formula_units_Z   1
loop_
 _symmetry_equiv_pos_site_id
 _symmetry_equiv_pos_as_xyz
  1  'x, y, z'
loop_
 _atom_site_type_symbol
 _atom_site_label
 _atom_site_symmetry_multiplicity
 _atom_site_fract_x
 _atom_site_fract_y
 _atom_site_fract_z
 _atom_site_occupancy
  Ge  Ge0  1  0.46842588  0.46842588  0.46842588  1
  I  I1  1  0.50422302  0.01110293  0.50422302  1
  I  I2  1  0.50422302  0.50422302  0.01110293  1
  I  I3  1  0.01110293  0.50422302  0.50422302  1
  Cs  Cs4  1  1.00002515  1.00002515  1.00002515  1
