# generated using pymatgen
data_Rb3TlO3
_symmetry_space_group_name_H-M   'P 1'
_cell_length_a   7.27962794
_cell_length_b   7.94390875
_cell_length_c   11.73498507
_cell_angle_alpha   94.02542595
_cell_angle_beta   90.00000000
_cell_angle_gamma   90.00000000
_symmetry_Int_Tables_number   1
_chemical_formula_structural   Rb3TlO3
_chemical_formula_sum   'Rb12 Tl4 O12'
_cell_volume   676.94477666
_cell_formula_units_Z   4
loop_
 _symmetry_equiv_pos_site_id
 _symmetry_equiv_pos_as_xyz
  1  'x, y, z'
loop_
 _atom_site_type_symbol
 _atom_site_label
 _atom_site_symmetry_multiplicity
 _atom_site_fract_x
 _atom_site_fract_y
 _atom_site_fract_z
 _atom_site_occupancy
  O  O0  1  0.93445771  0.31066160  0.19568290  1
  O  O1  1  0.96083077  0.10838405  0.89517877  1
  O  O2  1  0.46083077  0.89161595  0.60482123  1
  O  O3  1  0.36499677  0.25939340  0.03746323  1
  O  O4  1  0.86499677  0.74060660  0.46253677  1
  O  O5  1  0.63500323  0.74060660  0.96253677  1
  O  O6  1  0.13500323  0.25939340  0.53746323  1
  O  O7  1  0.56554229  0.31066160  0.69568290  1
  O  O8  1  0.03916923  0.89161595  0.10482123  1
  O  O9  1  0.06554229  0.68933840  0.80431710  1
  O  O10  1  0.43445771  0.68933840  0.30431710  1
  O  O11  1  0.53916923  0.10838405  0.39517877  1
  Rb  Rb12  1  0.86847031  0.06292414  0.65593646  1
  Rb  Rb13  1  0.63152969  0.06292414  0.15593646  1
  Rb  Rb14  1  0.17712711  0.64533732  0.57746025  1
  Rb  Rb15  1  0.30115680  0.36896947  0.31021981  1
  Rb  Rb16  1  0.80115680  0.63103053  0.18978019  1
  Rb  Rb17  1  0.69884320  0.63103053  0.68978019  1
  Rb  Rb18  1  0.19884320  0.36896947  0.81021981  1
  Rb  Rb19  1  0.32287289  0.64533732  0.07746025  1
  Rb  Rb20  1  0.82287289  0.35466268  0.42253975  1
  Rb  Rb21  1  0.67712711  0.35466268  0.92253975  1
  Rb  Rb22  1  0.36847031  0.93707586  0.84406354  1
  Rb  Rb23  1  0.13152969  0.93707586  0.34406354  1
  Tl  Tl24  1  0.40686480  0.16646007  0.56920123  1
  Tl  Tl25  1  0.59313520  0.83353993  0.43079877  1
  Tl  Tl26  1  0.09313520  0.16646007  0.06920123  1
  Tl  Tl27  1  0.90686480  0.83353993  0.93079877  1
