# generated using pymatgen
data_Cs3InO3
_symmetry_space_group_name_H-M   'P 1'
_cell_length_a   7.45801374
_cell_length_b   8.30634913
_cell_length_c   11.99646926
_cell_angle_alpha   95.61492250
_cell_angle_beta   90.00000000
_cell_angle_gamma   90.00000000
_symmetry_Int_Tables_number   1
_chemical_formula_structural   Cs3InO3
_chemical_formula_sum   'Cs12 In4 O12'
_cell_volume   739.60191132
_cell_formula_units_Z   4
loop_
 _symmetry_equiv_pos_site_id
 _symmetry_equiv_pos_as_xyz
  1  'x, y, z'
loop_
 _atom_site_type_symbol
 _atom_site_label
 _atom_site_symmetry_multiplicity
 _atom_site_fract_x
 _atom_site_fract_y
 _atom_site_fract_z
 _atom_site_occupancy
  Cs  Cs0  1  0.83238422  0.34733240  0.42704453  1
  Cs  Cs1  1  0.82099246  0.62500007  0.19396234  1
  Cs  Cs2  1  0.32099246  0.37499993  0.30603766  1
  Cs  Cs3  1  0.67900754  0.62500007  0.69396234  1
  Cs  Cs4  1  0.62223497  0.04809048  0.15615685  1
  Cs  Cs5  1  0.16761578  0.65266760  0.57295547  1
  Cs  Cs6  1  0.87776503  0.04809048  0.65615685  1
  Cs  Cs7  1  0.17900754  0.37499993  0.80603766  1
  Cs  Cs8  1  0.66761578  0.34733240  0.92704453  1
  Cs  Cs9  1  0.37776503  0.95190952  0.84384315  1
  Cs  Cs10  1  0.12223497  0.95190952  0.34384315  1
  Cs  Cs11  1  0.33238422  0.65266760  0.07295547  1
  In  In12  1  0.41655162  0.15637282  0.56670630  1
  In  In13  1  0.08344838  0.15637282  0.06670630  1
  In  In14  1  0.58344838  0.84362718  0.43329370  1
  In  In15  1  0.91655162  0.84362718  0.93329370  1
  O  O16  1  0.94271786  0.29227448  0.19151681  1
  O  O17  1  0.16168402  0.24552316  0.53931115  1
  O  O18  1  0.44642021  0.90079708  0.59136497  1
  O  O19  1  0.33831598  0.24552316  0.03931115  1
  O  O20  1  0.55728214  0.29227448  0.69151681  1
  O  O21  1  0.55357979  0.09920292  0.40863503  1
  O  O22  1  0.05728214  0.70772552  0.80848319  1
  O  O23  1  0.44271786  0.70772552  0.30848319  1
  O  O24  1  0.83831598  0.75447684  0.46068885  1
  O  O25  1  0.66168402  0.75447684  0.96068885  1
  O  O26  1  0.05357979  0.90079708  0.09136497  1
  O  O27  1  0.94642021  0.09920292  0.90863503  1
