# generated using pymatgen
data_K4ZnO3
_symmetry_space_group_name_H-M   'P 1'
_cell_length_a   7.03859361
_cell_length_b   8.99823282
_cell_length_c   11.18832074
_cell_angle_alpha   77.51327598
_cell_angle_beta   89.33665415
_cell_angle_gamma   70.35404950
_symmetry_Int_Tables_number   1
_chemical_formula_structural   K4ZnO3
_chemical_formula_sum   'K16 Zn4 O12'
_cell_volume   650.13516183
_cell_formula_units_Z   4
loop_
 _symmetry_equiv_pos_site_id
 _symmetry_equiv_pos_as_xyz
  1  'x, y, z'
loop_
 _atom_site_type_symbol
 _atom_site_label
 _atom_site_symmetry_multiplicity
 _atom_site_fract_x
 _atom_site_fract_y
 _atom_site_fract_z
 _atom_site_occupancy
  O  O0  1  0.63602364  0.69054983  0.28504002  1
  O  O1  1  0.92536894  0.80301114  0.46424619  1
  O  O2  1  0.07463106  0.19698886  0.53575381  1
  O  O3  1  0.56031017  0.67865173  0.58161142  1
  O  O4  1  0.43968983  0.32134827  0.41838858  1
  O  O5  1  0.85993307  0.36108451  0.90265725  1
  O  O6  1  0.14006693  0.63891549  0.09734275  1
  O  O7  1  0.60744519  0.16280613  0.10517888  1
  O  O8  1  0.39255481  0.83719387  0.89482112  1
  O  O9  1  0.36397636  0.30945017  0.71495998  1
  O  O10  1  0.94231812  0.82891032  0.81619501  1
  O  O11  1  0.05768188  0.17108968  0.18380499  1
  K  K12  1  0.63574913  0.08836503  0.88289855  1
  K  K13  1  0.22156773  0.34352100  0.01765068  1
  K  K14  1  0.84474358  0.12180517  0.37779816  1
  K  K15  1  0.15525642  0.87819483  0.62220184  1
  K  K16  1  0.31129810  0.64449431  0.41957588  1
  K  K17  1  0.11495522  0.13433561  0.79616812  1
  K  K18  1  0.88504478  0.86566439  0.20383188  1
  K  K19  1  0.37838124  0.09381427  0.33131642  1
  K  K20  1  0.62161876  0.90618573  0.66868358  1
  K  K21  1  0.01652095  0.44764738  0.29622634  1
  K  K22  1  0.98347905  0.55235262  0.70377366  1
  K  K23  1  0.49739757  0.53010927  0.80005689  1
  K  K24  1  0.50260243  0.46989073  0.19994311  1
  K  K25  1  0.68870190  0.35550569  0.58042412  1
  K  K26  1  0.77843227  0.65647900  0.98234932  1
  K  K27  1  0.36425087  0.91163497  0.11710145  1
  Zn  Zn28  1  0.83621274  0.23313966  0.06114125  1
  Zn  Zn29  1  0.16378726  0.76686034  0.93885875  1
  Zn  Zn30  1  0.71195225  0.72202170  0.44085259  1
  Zn  Zn31  1  0.28804775  0.27797830  0.55914741  1
