# generated using pymatgen
data_HfFeSi2
_symmetry_space_group_name_H-M   'P 1'
_cell_length_a   5.14658369
_cell_length_b   7.70827062
_cell_length_c   9.66902763
_cell_angle_alpha   113.49204704
_cell_angle_beta   105.43456038
_cell_angle_gamma   90.00000001
_symmetry_Int_Tables_number   1
_chemical_formula_structural   HfFeSi2
_chemical_formula_sum   'Hf6 Fe6 Si12'
_cell_volume   336.65161069
_cell_formula_units_Z   6
loop_
 _symmetry_equiv_pos_site_id
 _symmetry_equiv_pos_as_xyz
  1  'x, y, z'
loop_
 _atom_site_type_symbol
 _atom_site_label
 _atom_site_symmetry_multiplicity
 _atom_site_fract_x
 _atom_site_fract_y
 _atom_site_fract_z
 _atom_site_occupancy
  Si  Si0  1  0.13930859  0.48804044  0.27861718  1
  Si  Si1  1  0.86069141  0.51195956  0.72138282  1
  Si  Si2  1  0.86068664  0.20938382  0.72137328  1
  Si  Si3  1  0.13931336  0.79061618  0.27862672  1
  Si  Si4  1  0.70222350  0.70221850  0.40444700  1
  Si  Si5  1  0.29777650  0.29778150  0.59555300  1
  Si  Si6  1  0.74140388  0.50000000  0.00000000  1
  Si  Si7  1  0.25859612  0.50000000  0.00000000  1
  Si  Si8  1  0.25435935  0.00000000  0.00000000  1
  Si  Si9  1  0.71433851  0.21433894  0.42867702  1
  Si  Si10  1  0.74564065  0.00000000  0.00000000  1
  Si  Si11  1  0.28566149  0.78566106  0.57132298  1
  Fe  Fe12  1  0.00000028  0.74519880  0.00000056  1
  Fe  Fe13  1  0.00000000  0.00000000  0.50000000  1
  Fe  Fe14  1  0.50000000  0.50000000  0.50000000  1
  Fe  Fe15  1  0.00000000  0.50000000  0.50000000  1
  Fe  Fe16  1  0.99999972  0.25480120  0.99999944  1
  Fe  Fe17  1  0.50000000  0.00000000  0.50000000  1
  Hf  Hf18  1  0.59578283  0.85732162  0.19156565  1
  Hf  Hf19  1  0.40421717  0.14267838  0.80843435  1
  Hf  Hf20  1  0.40422215  0.66576600  0.80844430  1
  Hf  Hf21  1  0.59577785  0.33423400  0.19155570  1
  Hf  Hf22  1  0.14169570  0.14171098  0.28339140  1
  Hf  Hf23  1  0.85830430  0.85828902  0.71660860  1
