# generated using pymatgen
data_PAuCl8
_symmetry_space_group_name_H-M   'P 1'
_cell_length_a   12.01445585
_cell_length_b   12.01445585
_cell_length_c   12.01445585
_cell_angle_alpha   96.00278118
_cell_angle_beta   114.03798941
_cell_angle_gamma   119.21452852
_symmetry_Int_Tables_number   1
_chemical_formula_structural   PAuCl8
_chemical_formula_sum   'P4 Au4 Cl32'
_cell_volume   1278.33331075
_cell_formula_units_Z   4
loop_
 _symmetry_equiv_pos_site_id
 _symmetry_equiv_pos_as_xyz
  1  'x, y, z'
loop_
 _atom_site_type_symbol
 _atom_site_label
 _atom_site_symmetry_multiplicity
 _atom_site_fract_x
 _atom_site_fract_y
 _atom_site_fract_z
 _atom_site_occupancy
  P  P0  1  0.00000000  0.25243809  0.25243809  1
  P  P1  1  0.50000000  0.74756191  0.24756191  1
  P  P2  1  0.00000000  0.74756191  0.74756191  1
  P  P3  1  0.50000000  0.25243809  0.75243809  1
  Cl  Cl4  1  0.67706261  0.40628453  0.91777701  1
  Cl  Cl5  1  0.98850752  0.75928560  0.58222299  1
  Cl  Cl6  1  0.01149248  0.59371547  0.77077808  1
  Cl  Cl7  1  0.32293739  0.24071440  0.72922192  1
  Cl  Cl8  1  0.32293739  0.59371547  0.08222299  1
  Cl  Cl9  1  0.01149248  0.24071440  0.41777701  1
  Cl  Cl10  1  0.98850752  0.40628453  0.22922192  1
  Cl  Cl11  1  0.67706261  0.75928560  0.27077808  1
  Cl  Cl12  1  0.52567514  0.28421298  0.60506281  1
  Cl  Cl13  1  0.17915016  0.92061233  0.89493719  1
  Cl  Cl14  1  0.82084984  0.71578702  0.74146217  1
  Cl  Cl15  1  0.47432486  0.07938767  0.75853783  1
  Cl  Cl16  1  0.47432486  0.71578702  0.39493719  1
  Cl  Cl17  1  0.82084984  0.07938767  0.10506281  1
  Cl  Cl18  1  0.17915016  0.28421298  0.25853783  1
  Cl  Cl19  1  0.52567514  0.92061233  0.24146217  1
  Cl  Cl20  1  0.55873523  0.45303728  0.39430205  1
  Cl  Cl21  1  0.55873523  0.16443317  0.10569795  1
  Cl  Cl22  1  0.44126477  0.54696272  0.60569795  1
  Cl  Cl23  1  0.44126477  0.83556683  0.89430205  1
  Cl  Cl24  1  0.38252327  0.31001247  0.07251079  1
  Cl  Cl25  1  0.73750168  0.31001247  0.42748921  1
  Cl  Cl26  1  0.26249832  0.68998753  0.57251079  1
  Cl  Cl27  1  0.61747673  0.68998753  0.92748921  1
  Cl  Cl28  1  0.07485935  0.96909754  0.39423819  1
  Cl  Cl29  1  0.07485935  0.68062116  0.10576181  1
  Cl  Cl30  1  0.92514065  0.03090246  0.60576181  1
  Cl  Cl31  1  0.92514065  0.31937884  0.89423819  1
  Cl  Cl32  1  0.88435611  0.63435611  0.25000000  1
  Cl  Cl33  1  0.11564389  0.36564389  0.75000000  1
  Cl  Cl34  1  0.26633890  0.01633890  0.25000000  1
  Cl  Cl35  1  0.73366110  0.98366110  0.75000000  1
  Au  Au36  1  0.92412602  0.17412602  0.75000000  1
  Au  Au37  1  0.07587398  0.82587398  0.25000000  1
  Au  Au38  1  0.44003398  0.69003398  0.75000000  1
  Au  Au39  1  0.55996602  0.30996602  0.25000000  1
