# generated using pymatgen
data_Cs3SbF6
_symmetry_space_group_name_H-M   'P 1'
_cell_length_a   9.58932705
_cell_length_b   7.66270808
_cell_length_c   7.63692566
_cell_angle_alpha   77.17697971
_cell_angle_beta   110.67089523
_cell_angle_gamma   128.72164536
_symmetry_Int_Tables_number   1
_chemical_formula_structural   Cs3SbF6
_chemical_formula_sum   'Cs3 Sb1 F6'
_cell_volume   409.63046746
_cell_formula_units_Z   1
loop_
 _symmetry_equiv_pos_site_id
 _symmetry_equiv_pos_as_xyz
  1  'x, y, z'
loop_
 _atom_site_type_symbol
 _atom_site_label
 _atom_site_symmetry_multiplicity
 _atom_site_fract_x
 _atom_site_fract_y
 _atom_site_fract_z
 _atom_site_occupancy
  Cs  Cs0  1  0.00000000  -0.00000000  0.50000000  1
  Cs  Cs1  1  0.50000000  0.50000000  0.00000000  1
  Cs  Cs2  1  0.00000000  0.50000000  0.00000000  1
  Sb  Sb3  1  0.00000000  -0.00000000  0.00000000  1
  F  F4  1  0.05580967  0.26760685  0.78487811  1
  F  F5  1  0.94419033  0.73239315  0.21512189  1
  F  F6  1  0.78906992  0.72211456  0.79355204  1
  F  F7  1  0.21093008  0.27788544  0.20644796  1
  F  F8  1  0.79362265  0.00214114  0.06697079  1
  F  F9  1  0.20637735  0.99785886  0.93302921  1
