# generated using pymatgen
data_KNaS
_symmetry_space_group_name_H-M   'P 1'
_cell_length_a   4.66324740
_cell_length_b   7.84497344
_cell_length_c   8.43378531
_cell_angle_alpha   90.00000000
_cell_angle_beta   90.00000000
_cell_angle_gamma   90.00000000
_symmetry_Int_Tables_number   1
_chemical_formula_structural   KNaS
_chemical_formula_sum   'K4 Na4 S4'
_cell_volume   308.53360653
_cell_formula_units_Z   4
loop_
 _symmetry_equiv_pos_site_id
 _symmetry_equiv_pos_as_xyz
  1  'x, y, z'
loop_
 _atom_site_type_symbol
 _atom_site_label
 _atom_site_symmetry_multiplicity
 _atom_site_fract_x
 _atom_site_fract_y
 _atom_site_fract_z
 _atom_site_occupancy
  Na  Na0  1  0.75000000  0.35381600  0.07512865  1
  Na  Na1  1  0.25000000  0.14618400  0.57512865  1
  Na  Na2  1  0.75000000  0.85381600  0.42487135  1
  Na  Na3  1  0.25000000  0.64618400  0.92487135  1
  S  S4  1  0.25000000  0.28067854  0.89501276  1
  S  S5  1  0.75000000  0.21932146  0.39501276  1
  S  S6  1  0.25000000  0.78067854  0.60498724  1
  S  S7  1  0.75000000  0.71932146  0.10498724  1
  K  K8  1  0.25000000  0.51439935  0.31607700  1
  K  K9  1  0.75000000  0.48560065  0.68392300  1
  K  K10  1  0.25000000  0.01439935  0.18392300  1
  K  K11  1  0.75000000  0.98560065  0.81607700  1
