# generated using pymatgen
data_SiCl4
_symmetry_space_group_name_H-M   'P 1'
_cell_length_a   6.85595010
_cell_length_b   10.39911869
_cell_length_c   10.48666355
_cell_angle_alpha   102.88977778
_cell_angle_beta   90.00000000
_cell_angle_gamma   90.00000000
_symmetry_Int_Tables_number   1
_chemical_formula_structural   SiCl4
_chemical_formula_sum   'Si4 Cl16'
_cell_volume   728.81531023
_cell_formula_units_Z   4
loop_
 _symmetry_equiv_pos_site_id
 _symmetry_equiv_pos_as_xyz
  1  'x, y, z'
loop_
 _atom_site_type_symbol
 _atom_site_label
 _atom_site_symmetry_multiplicity
 _atom_site_fract_x
 _atom_site_fract_y
 _atom_site_fract_z
 _atom_site_occupancy
  Si  Si0  1  0.92832317  0.75031944  0.64308931  1
  Si  Si1  1  0.42832317  0.24968056  0.85691069  1
  Si  Si2  1  0.07167683  0.24968056  0.35691069  1
  Si  Si3  1  0.57167683  0.75031944  0.14308931  1
  Cl  Cl4  1  0.06905930  0.59789106  0.69592095  1
  Cl  Cl5  1  0.56905930  0.40210894  0.80407905  1
  Cl  Cl6  1  0.93094070  0.40210894  0.30407905  1
  Cl  Cl7  1  0.43094070  0.59789106  0.19592095  1
  Cl  Cl8  1  0.93085068  0.91014240  0.79567298  1
  Cl  Cl9  1  0.43085068  0.08985760  0.70432702  1
  Cl  Cl10  1  0.06914932  0.08985760  0.20432702  1
  Cl  Cl11  1  0.56914932  0.91014240  0.29567298  1
  Cl  Cl12  1  0.06603867  0.79577275  0.48704282  1
  Cl  Cl13  1  0.56603867  0.20422725  0.01295718  1
  Cl  Cl14  1  0.93396133  0.20422725  0.51295718  1
  Cl  Cl15  1  0.43396133  0.79577275  0.98704282  1
  Cl  Cl16  1  0.64783201  0.69713492  0.59397374  1
  Cl  Cl17  1  0.14783201  0.30286508  0.90602626  1
  Cl  Cl18  1  0.35216799  0.30286508  0.40602626  1
  Cl  Cl19  1  0.85216799  0.69713492  0.09397374  1
