# generated using pymatgen
data_Tl2PSe3
_symmetry_space_group_name_H-M   'P 1'
_cell_length_a   9.21624861
_cell_length_b   12.60495572
_cell_length_c   12.84388106
_cell_angle_alpha   100.60109145
_cell_angle_beta   90.00000000
_cell_angle_gamma   90.00000000
_symmetry_Int_Tables_number   1
_chemical_formula_structural   Tl2PSe3
_chemical_formula_sum   'Tl16 P8 Se24'
_cell_volume   1466.61183940
_cell_formula_units_Z   8
loop_
 _symmetry_equiv_pos_site_id
 _symmetry_equiv_pos_as_xyz
  1  'x, y, z'
loop_
 _atom_site_type_symbol
 _atom_site_label
 _atom_site_symmetry_multiplicity
 _atom_site_fract_x
 _atom_site_fract_y
 _atom_site_fract_z
 _atom_site_occupancy
  P  P0  1  0.42645759  0.99614939  0.07149447  1
  P  P1  1  0.92645759  0.00385061  0.42850553  1
  P  P2  1  0.57354241  0.00385061  0.92850553  1
  P  P3  1  0.07354241  0.99614939  0.57149447  1
  P  P4  1  0.57890457  0.56574778  0.48383526  1
  P  P5  1  0.07890457  0.43425222  0.01616474  1
  P  P6  1  0.42109543  0.43425222  0.51616474  1
  P  P7  1  0.92109543  0.56574778  0.98383526  1
  Se  Se8  1  0.56587726  0.94767566  0.19580028  1
  Se  Se9  1  0.06587726  0.05232434  0.30419972  1
  Se  Se10  1  0.43412274  0.05232434  0.80419972  1
  Se  Se11  1  0.93412274  0.94767566  0.69580028  1
  Se  Se12  1  0.47655376  0.65715567  0.37357372  1
  Se  Se13  1  0.97655376  0.34284433  0.12642628  1
  Se  Se14  1  0.52344624  0.34284433  0.62642628  1
  Se  Se15  1  0.02344624  0.65715567  0.87357372  1
  Se  Se16  1  0.83458812  0.84065245  0.37761050  1
  Se  Se17  1  0.33458812  0.15934755  0.12238950  1
  Se  Se18  1  0.16541188  0.15934755  0.62238950  1
  Se  Se19  1  0.66541188  0.84065245  0.87761050  1
  Se  Se20  1  0.12264105  0.33535975  0.85655564  1
  Se  Se21  1  0.62264105  0.66464025  0.64344436  1
  Se  Se22  1  0.87735895  0.66464025  0.14344436  1
  Se  Se23  1  0.37735895  0.33535975  0.35655564  1
  Se  Se24  1  0.76261497  0.12883338  0.48897383  1
  Se  Se25  1  0.26261497  0.87116662  0.01102617  1
  Se  Se26  1  0.23738503  0.87116662  0.51102617  1
  Se  Se27  1  0.73738503  0.12883338  0.98897383  1
  Se  Se28  1  0.72242042  0.47978400  0.91666408  1
  Se  Se29  1  0.22242042  0.52021600  0.58333592  1
  Se  Se30  1  0.27757958  0.52021600  0.08333592  1
  Se  Se31  1  0.77757958  0.47978400  0.41666408  1
  Tl  Tl32  1  0.84780355  0.47712752  0.68951594  1
  Tl  Tl33  1  0.34780355  0.52287248  0.81048406  1
  Tl  Tl34  1  0.15219645  0.52287248  0.31048406  1
  Tl  Tl35  1  0.65219645  0.47712752  0.18951594  1
  Tl  Tl36  1  0.67990766  0.19703133  0.25228665  1
  Tl  Tl37  1  0.17990766  0.80296867  0.24771335  1
  Tl  Tl38  1  0.32009234  0.80296867  0.74771335  1
  Tl  Tl39  1  0.82009234  0.19703133  0.75228665  1
  Tl  Tl40  1  0.61002175  0.90028683  0.56866814  1
  Tl  Tl41  1  0.11002175  0.09971317  0.93133186  1
  Tl  Tl42  1  0.38997825  0.09971317  0.43133186  1
  Tl  Tl43  1  0.88997825  0.90028683  0.06866814  1
  Tl  Tl44  1  0.53908396  0.70673122  0.04929713  1
  Tl  Tl45  1  0.03908396  0.29326878  0.45070287  1
  Tl  Tl46  1  0.46091604  0.29326878  0.95070287  1
  Tl  Tl47  1  0.96091604  0.70673122  0.54929713  1
