# generated using pymatgen
data_Sc5(Re2Si3)4
_symmetry_space_group_name_H-M   'P 1'
_cell_length_a   5.26252575
_cell_length_b   10.23149017
_cell_length_c   14.52921604
_cell_angle_alpha   90.00000000
_cell_angle_beta   90.00000000
_cell_angle_gamma   104.90238302
_symmetry_Int_Tables_number   1
_chemical_formula_structural   Sc5(Re2Si3)4
_chemical_formula_sum   'Sc10 Si24 Re16'
_cell_volume   755.99108063
_cell_formula_units_Z   2
loop_
 _symmetry_equiv_pos_site_id
 _symmetry_equiv_pos_as_xyz
  1  'x, y, z'
loop_
 _atom_site_type_symbol
 _atom_site_label
 _atom_site_symmetry_multiplicity
 _atom_site_fract_x
 _atom_site_fract_y
 _atom_site_fract_z
 _atom_site_occupancy
  Si  Si0  1  0.64382057  0.84347564  0.85122838  1
  Si  Si1  1  0.80034494  0.15652436  0.14877162  1
  Si  Si2  1  0.64382057  0.84347564  0.14877162  1
  Si  Si3  1  0.80034494  0.15652436  0.85122838  1
  Si  Si4  1  0.11536036  0.44008553  0.50000000  1
  Si  Si5  1  0.86210606  0.00000000  0.39670993  1
  Si  Si6  1  0.86210606  0.00000000  0.60329007  1
  Si  Si7  1  0.34784250  0.00000000  0.12107525  1
  Si  Si8  1  0.67527483  0.55991447  0.50000000  1
  Si  Si9  1  0.85690486  0.73690152  0.00000000  1
  Si  Si10  1  0.12000334  0.26309848  0.00000000  1
  Si  Si11  1  0.57411783  0.41635861  0.00000000  1
  Si  Si12  1  0.72789896  0.49979155  0.75798312  1
  Si  Si13  1  0.22810741  0.50020845  0.24201688  1
  Si  Si14  1  0.72789896  0.49979155  0.24201688  1
  Si  Si15  1  0.22810741  0.50020845  0.75798312  1
  Si  Si16  1  0.60896435  0.28000010  0.50000000  1
  Si  Si17  1  0.15775922  0.58364139  0.00000000  1
  Si  Si18  1  0.32896426  0.71999990  0.50000000  1
  Si  Si19  1  0.34784250  0.00000000  0.87892475  1
  Si  Si20  1  0.29871245  0.16222709  0.64656886  1
  Si  Si21  1  0.13648536  0.83777291  0.35343114  1
  Si  Si22  1  0.29871245  0.16222709  0.35343114  1
  Si  Si23  1  0.13648536  0.83777291  0.64656886  1
  Sc  Sc24  1  0.85956246  0.27131262  0.67326980  1
  Sc  Sc25  1  0.95874611  0.00000000  0.00000000  1
  Sc  Sc26  1  0.85956246  0.27131262  0.32673020  1
  Sc  Sc27  1  0.09306569  0.73212847  0.82451254  1
  Sc  Sc28  1  0.36093722  0.26787153  0.17548746  1
  Sc  Sc29  1  0.09306569  0.73212847  0.17548746  1
  Sc  Sc30  1  0.36093722  0.26787153  0.82451254  1
  Sc  Sc31  1  0.43639807  0.00000000  0.50000000  1
  Sc  Sc32  1  0.58824984  0.72868738  0.67326980  1
  Sc  Sc33  1  0.58824984  0.72868738  0.32673020  1
  Re  Re34  1  0.07239594  0.20168932  0.50000000  1
  Re  Re35  1  0.87070662  0.79831068  0.50000000  1
  Re  Re36  1  0.02641263  0.58817907  0.62472995  1
  Re  Re37  1  0.43823355  0.41182093  0.37527005  1
  Re  Re38  1  0.55592724  0.16848627  0.00000000  1
  Re  Re39  1  0.38744096  0.83151373  0.00000000  1
  Re  Re40  1  0.43823355  0.41182093  0.62472995  1
  Re  Re41  1  0.93002057  0.40227080  0.89234334  1
  Re  Re42  1  0.99890590  0.00000000  0.76917286  1
  Re  Re43  1  0.99890590  0.00000000  0.23082714  1
  Re  Re44  1  0.50676213  0.00000000  0.72092718  1
  Re  Re45  1  0.50676213  0.00000000  0.27907282  1
  Re  Re46  1  0.52774978  0.59772920  0.10765666  1
  Re  Re47  1  0.93002057  0.40227080  0.10765666  1
  Re  Re48  1  0.52774978  0.59772920  0.89234334  1
  Re  Re49  1  0.02641263  0.58817907  0.37527005  1
