# generated using pymatgen
data_P3Ru
_symmetry_space_group_name_H-M   'P 1'
_cell_length_a   5.92414972
_cell_length_b   5.97685980
_cell_length_c   8.14607554
_cell_angle_alpha   68.67570281
_cell_angle_beta   70.24705612
_cell_angle_gamma   72.60187283
_symmetry_Int_Tables_number   1
_chemical_formula_structural   P3Ru
_chemical_formula_sum   'P12 Ru4'
_cell_volume   247.72338351
_cell_formula_units_Z   4
loop_
 _symmetry_equiv_pos_site_id
 _symmetry_equiv_pos_as_xyz
  1  'x, y, z'
loop_
 _atom_site_type_symbol
 _atom_site_label
 _atom_site_symmetry_multiplicity
 _atom_site_fract_x
 _atom_site_fract_y
 _atom_site_fract_z
 _atom_site_occupancy
  P  P0  1  0.82955454  0.08230909  0.31871362  1
  P  P1  1  0.17044546  0.91769091  0.68128638  1
  P  P2  1  0.19300759  0.52860906  0.44775702  1
  P  P3  1  0.80699241  0.47139094  0.55224298  1
  P  P4  1  0.33980813  0.21743180  0.65763799  1
  P  P5  1  0.66019187  0.78256820  0.34236201  1
  P  P6  1  0.67808250  0.66366336  0.76557095  1
  P  P7  1  0.32191750  0.33633664  0.23442905  1
  P  P8  1  0.68207980  0.05277964  0.94105388  1
  P  P9  1  0.31792020  0.94722036  0.05894612  1
  P  P10  1  0.15236012  0.31708657  0.91472781  1
  P  P11  1  0.84763988  0.68291343  0.08527219  1
  Ru  Ru12  1  0.27688777  0.63393866  0.95597586  1
  Ru  Ru13  1  0.72311223  0.36606134  0.04402414  1
  Ru  Ru14  1  0.22764393  0.93054613  0.37196197  1
  Ru  Ru15  1  0.77235607  0.06945387  0.62803803  1
