# generated using pymatgen
data_Ce3Sn7
_symmetry_space_group_name_H-M   'P 1'
_cell_length_a   4.58021779
_cell_length_b   4.64450830
_cell_length_c   12.87771109
_cell_angle_alpha   90.00000000
_cell_angle_beta   100.24368516
_cell_angle_gamma   90.00000000
_symmetry_Int_Tables_number   1
_chemical_formula_structural   Ce3Sn7
_chemical_formula_sum   'Ce3 Sn7'
_cell_volume   269.57912750
_cell_formula_units_Z   1
loop_
 _symmetry_equiv_pos_site_id
 _symmetry_equiv_pos_as_xyz
  1  'x, y, z'
loop_
 _atom_site_type_symbol
 _atom_site_label
 _atom_site_symmetry_multiplicity
 _atom_site_fract_x
 _atom_site_fract_y
 _atom_site_fract_z
 _atom_site_occupancy
  Sn  Sn0  1  0.29157068  0.50000000  0.58314136  1
  Sn  Sn1  1  0.70842932  0.50000000  0.41685864  1
  Sn  Sn2  1  0.09597787  0.50000000  0.19195574  1
  Sn  Sn3  1  0.50000000  0.50000000  0.00000000  1
  Sn  Sn4  1  0.59504959  0.00000000  0.19009918  1
  Sn  Sn5  1  0.40495041  0.00000000  0.80990082  1
  Sn  Sn6  1  0.90402213  0.50000000  0.80804426  1
  Ce  Ce7  1  0.18526297  0.00000000  0.37052594  1
  Ce  Ce8  1  0.81473703  0.00000000  0.62947406  1
  Ce  Ce9  1  0.00000000  0.00000000  0.00000000  1
