# generated using pymatgen
data_Ho2Ni12P7
_symmetry_space_group_name_H-M   'P 1'
_cell_length_a   9.02199673
_cell_length_b   9.02199673
_cell_length_c   3.67767598
_cell_angle_alpha   90.00000000
_cell_angle_beta   90.00000000
_cell_angle_gamma   119.99999998
_symmetry_Int_Tables_number   1
_chemical_formula_structural   Ho2Ni12P7
_chemical_formula_sum   'Ho2 Ni12 P7'
_cell_volume   259.24442509
_cell_formula_units_Z   1
loop_
 _symmetry_equiv_pos_site_id
 _symmetry_equiv_pos_as_xyz
  1  'x, y, z'
loop_
 _atom_site_type_symbol
 _atom_site_label
 _atom_site_symmetry_multiplicity
 _atom_site_fract_x
 _atom_site_fract_y
 _atom_site_fract_z
 _atom_site_occupancy
  P  P0  1  0.00000000  0.00000000  0.50000000  1
  P  P1  1  0.70537432  0.11083546  0.00000000  1
  P  P2  1  0.11310035  0.40757022  0.50000000  1
  P  P3  1  0.59242978  0.70553013  0.50000000  1
  P  P4  1  0.29446987  0.88689965  0.50000000  1
  P  P5  1  0.88916454  0.59453886  0.00000000  1
  P  P6  1  0.40546114  0.29462568  0.00000000  1
  Ni  Ni7  1  0.61840239  0.56925690  0.00000000  1
  Ni  Ni8  1  0.84781642  0.72527712  0.50000000  1
  Ni  Ni9  1  0.95085451  0.38159761  0.00000000  1
  Ni  Ni10  1  0.27472288  0.12253930  0.50000000  1
  Ni  Ni11  1  0.12152667  0.21493215  0.00000000  1
  Ni  Ni12  1  0.09340548  0.87847333  0.00000000  1
  Ni  Ni13  1  0.78506785  0.90659452  0.00000000  1
  Ni  Ni14  1  0.37297206  0.43409110  0.50000000  1
  Ni  Ni15  1  0.56590890  0.93888095  0.50000000  1
  Ni  Ni16  1  0.06111905  0.62702794  0.50000000  1
  Ni  Ni17  1  0.87746070  0.15218358  0.50000000  1
  Ni  Ni18  1  0.43074310  0.04914549  0.00000000  1
  Ho  Ho19  1  0.66666667  0.33333333  0.50000000  1
  Ho  Ho20  1  0.33333333  0.66666667  0.00000000  1
