# generated using pymatgen
data_K3Nb2Se11
_symmetry_space_group_name_H-M   'P 1'
_cell_length_a   8.12249532
_cell_length_b   9.29574057
_cell_length_c   26.44960477
_cell_angle_alpha   90.00000000
_cell_angle_beta   99.82046580
_cell_angle_gamma   90.00000000
_symmetry_Int_Tables_number   1
_chemical_formula_structural   K3Nb2Se11
_chemical_formula_sum   'K12 Nb8 Se44'
_cell_volume   1967.80412610
_cell_formula_units_Z   4
loop_
 _symmetry_equiv_pos_site_id
 _symmetry_equiv_pos_as_xyz
  1  'x, y, z'
loop_
 _atom_site_type_symbol
 _atom_site_label
 _atom_site_symmetry_multiplicity
 _atom_site_fract_x
 _atom_site_fract_y
 _atom_site_fract_z
 _atom_site_occupancy
  K  K0  1  0.25849170  0.26724746  0.17236572  1
  K  K1  1  0.74150830  0.76724746  0.32763428  1
  K  K2  1  0.74150830  0.73275254  0.82763428  1
  K  K3  1  0.25849170  0.23275254  0.67236572  1
  K  K4  1  0.79887476  0.23843298  0.01483980  1
  K  K5  1  0.20112524  0.73843298  0.48516020  1
  K  K6  1  0.20112524  0.76156702  0.98516020  1
  K  K7  1  0.79887476  0.26156702  0.51483980  1
  K  K8  1  0.75309092  0.29863401  0.31577199  1
  K  K9  1  0.24690908  0.79863401  0.18422801  1
  K  K10  1  0.24690908  0.70136599  0.68422801  1
  K  K11  1  0.75309092  0.20136599  0.81577199  1
  Se  Se12  1  0.50660767  0.53858283  0.23614322  1
  Se  Se13  1  0.49339233  0.03858283  0.26385678  1
  Se  Se14  1  0.49339233  0.46141717  0.76385678  1
  Se  Se15  1  0.50660767  0.96141717  0.73614322  1
  Se  Se16  1  0.51587415  0.39722588  0.09229650  1
  Se  Se17  1  0.48412585  0.89722588  0.40770350  1
  Se  Se18  1  0.48412585  0.60277412  0.90770350  1
  Se  Se19  1  0.51587415  0.10277412  0.59229650  1
  Se  Se20  1  0.01873229  0.98875516  0.08715582  1
  Se  Se21  1  0.98126771  0.48875516  0.41284418  1
  Se  Se22  1  0.98126771  0.01124484  0.91284418  1
  Se  Se23  1  0.01873229  0.51124484  0.58715582  1
  Se  Se24  1  0.85666961  0.30867389  0.19263525  1
  Se  Se25  1  0.14333039  0.80867389  0.30736475  1
  Se  Se26  1  0.14333039  0.69132611  0.80736475  1
  Se  Se27  1  0.85666961  0.19132611  0.69263525  1
  Se  Se28  1  0.97672158  0.53329890  0.22425770  1
  Se  Se29  1  0.02327842  0.03329890  0.27574230  1
  Se  Se30  1  0.02327842  0.46670110  0.77574230  1
  Se  Se31  1  0.97672158  0.96670110  0.72425770  1
  Se  Se32  1  0.56504128  0.96573301  0.12186473  1
  Se  Se33  1  0.43495872  0.46573301  0.37813527  1
  Se  Se34  1  0.43495872  0.03426699  0.87813527  1
  Se  Se35  1  0.56504128  0.53426699  0.62186473  1
  Se  Se36  1  0.83251881  0.62327334  0.01535430  1
  Se  Se37  1  0.16748119  0.12327334  0.48464570  1
  Se  Se38  1  0.16748119  0.37672666  0.98464570  1
  Se  Se39  1  0.83251881  0.87672666  0.51535430  1
  Se  Se40  1  0.59877723  0.90833568  0.99162905  1
  Se  Se41  1  0.40122277  0.40833568  0.50837095  1
  Se  Se42  1  0.40122277  0.09166432  0.00837095  1
  Se  Se43  1  0.59877723  0.59166432  0.49162905  1
  Se  Se44  1  0.48026637  0.65422514  0.09114292  1
  Se  Se45  1  0.51973363  0.15422514  0.40885708  1
  Se  Se46  1  0.51973363  0.34577486  0.90885708  1
  Se  Se47  1  0.48026637  0.84577486  0.59114292  1
  Se  Se48  1  0.76213553  0.82346421  0.17897957  1
  Se  Se49  1  0.23786447  0.32346421  0.32102043  1
  Se  Se50  1  0.23786447  0.17653579  0.82102043  1
  Se  Se51  1  0.76213553  0.67653579  0.67897957  1
  Se  Se52  1  0.93914596  0.58221921  0.10489868  1
  Se  Se53  1  0.06085404  0.08221921  0.39510132  1
  Se  Se54  1  0.06085404  0.41778079  0.89510132  1
  Se  Se55  1  0.93914596  0.91778079  0.60489868  1
  Nb  Nb56  1  0.78564638  0.82687891  0.07900808  1
  Nb  Nb57  1  0.21435362  0.32687891  0.42099192  1
  Nb  Nb58  1  0.21435362  0.17312109  0.92099192  1
  Nb  Nb59  1  0.78564638  0.67312109  0.57900808  1
  Nb  Nb60  1  0.67272599  0.54178227  0.16924034  1
  Nb  Nb61  1  0.32727401  0.04178227  0.33075966  1
  Nb  Nb62  1  0.32727401  0.45821773  0.83075966  1
  Nb  Nb63  1  0.67272599  0.95821773  0.66924034  1
