# generated using pymatgen
data_K4P3
_symmetry_space_group_name_H-M   'P 1'
_cell_length_a   5.02085868
_cell_length_b   6.24523814
_cell_length_c   15.05198976
_cell_angle_alpha   90.00000000
_cell_angle_beta   90.00000000
_cell_angle_gamma   113.70170084
_symmetry_Int_Tables_number   1
_chemical_formula_structural   K4P3
_chemical_formula_sum   'K8 P6'
_cell_volume   432.16613124
_cell_formula_units_Z   2
loop_
 _symmetry_equiv_pos_site_id
 _symmetry_equiv_pos_as_xyz
  1  'x, y, z'
loop_
 _atom_site_type_symbol
 _atom_site_label
 _atom_site_symmetry_multiplicity
 _atom_site_fract_x
 _atom_site_fract_y
 _atom_site_fract_z
 _atom_site_occupancy
  P  P0  1  0.88639455  0.77278909  0.62505751  1
  P  P1  1  0.11360545  0.22721091  0.37494249  1
  P  P2  1  0.11360545  0.22721091  0.12505751  1
  P  P3  1  0.88639455  0.77278909  0.87494249  1
  P  P4  1  0.21219739  0.42439479  0.25000000  1
  P  P5  1  0.78780261  0.57560521  0.75000000  1
  K  K6  1  0.80489434  0.60978868  0.11138425  1
  K  K7  1  0.19510566  0.39021132  0.88861575  1
  K  K8  1  0.80489434  0.60978868  0.38861575  1
  K  K9  1  0.19510566  0.39021132  0.61138425  1
  K  K10  1  0.51804310  0.03608620  0.25000000  1
  K  K11  1  0.48195690  0.96391380  0.75000000  1
  K  K12  1  0.50000000  0.00000000  0.00000000  1
  K  K13  1  0.50000000  0.00000000  0.50000000  1
