# generated using pymatgen
data_Cs2HgI4
_symmetry_space_group_name_H-M   'P 1'
_cell_length_a   8.14143230
_cell_length_b   8.61498588
_cell_length_c   11.43250926
_cell_angle_alpha   90.00000000
_cell_angle_beta   111.95474915
_cell_angle_gamma   90.00000000
_symmetry_Int_Tables_number   1
_chemical_formula_structural   Cs2HgI4
_chemical_formula_sum   'Cs4 Hg2 I8'
_cell_volume   743.70590497
_cell_formula_units_Z   2
loop_
 _symmetry_equiv_pos_site_id
 _symmetry_equiv_pos_as_xyz
  1  'x, y, z'
loop_
 _atom_site_type_symbol
 _atom_site_label
 _atom_site_symmetry_multiplicity
 _atom_site_fract_x
 _atom_site_fract_y
 _atom_site_fract_z
 _atom_site_occupancy
  I  I0  1  0.25434906  0.98633060  0.21483417  1
  I  I1  1  0.27990517  0.75000000  0.85520238  1
  I  I2  1  0.19047271  0.25000000  0.54654898  1
  I  I3  1  0.80952729  0.75000000  0.45345102  1
  I  I4  1  0.25434906  0.51366940  0.21483417  1
  I  I5  1  0.72009483  0.25000000  0.14479762  1
  I  I6  1  0.74565094  0.48633060  0.78516583  1
  I  I7  1  0.74565094  0.01366940  0.78516583  1
  Cs  Cs8  1  0.33716728  0.75000000  0.53489182  1
  Cs  Cs9  1  0.20948869  0.25000000  0.90969673  1
  Cs  Cs10  1  0.66283272  0.25000000  0.46510818  1
  Cs  Cs11  1  0.79051131  0.75000000  0.09030327  1
  Hg  Hg12  1  0.90833656  0.75000000  0.72347843  1
  Hg  Hg13  1  0.09166344  0.25000000  0.27652157  1
