# generated using pymatgen
data_Tl3Cd2I7
_symmetry_space_group_name_H-M   'P 1'
_cell_length_a   4.59058772
_cell_length_b   14.34547667
_cell_length_c   15.45217222
_cell_angle_alpha   90.00000000
_cell_angle_beta   90.00000000
_cell_angle_gamma   90.00000000
_symmetry_Int_Tables_number   1
_chemical_formula_structural   Tl3Cd2I7
_chemical_formula_sum   'Tl6 Cd4 I14'
_cell_volume   1017.58996139
_cell_formula_units_Z   2
loop_
 _symmetry_equiv_pos_site_id
 _symmetry_equiv_pos_as_xyz
  1  'x, y, z'
loop_
 _atom_site_type_symbol
 _atom_site_label
 _atom_site_symmetry_multiplicity
 _atom_site_fract_x
 _atom_site_fract_y
 _atom_site_fract_z
 _atom_site_occupancy
  Cd  Cd0  1  0.50000000  0.24703020  0.88595123  1
  Cd  Cd1  1  0.50000000  0.75296980  0.11404877  1
  Cd  Cd2  1  0.50000000  0.25296980  0.38595123  1
  Cd  Cd3  1  0.50000000  0.74703020  0.61404877  1
  I  I4  1  0.00000000  0.34017817  0.30904628  1
  I  I5  1  0.00000000  0.65982183  0.69095372  1
  I  I6  1  0.00000000  0.15982183  0.80904628  1
  I  I7  1  0.00000000  0.84017817  0.19095372  1
  I  I8  1  0.50000000  0.50000000  0.50000000  1
  I  I9  1  0.50000000  0.00000000  0.00000000  1
  I  I10  1  0.50000000  0.70527622  0.93829588  1
  I  I11  1  0.50000000  0.29472378  0.06170412  1
  I  I12  1  0.50000000  0.20527622  0.56170412  1
  I  I13  1  0.50000000  0.79472378  0.43829588  1
  I  I14  1  0.50000000  0.93332109  0.68198513  1
  I  I15  1  0.50000000  0.06667891  0.31801487  1
  I  I16  1  0.50000000  0.43332109  0.81801487  1
  I  I17  1  0.50000000  0.56667891  0.18198513  1
  Tl  Tl18  1  0.00000000  0.00000000  0.50000000  1
  Tl  Tl19  1  0.00000000  0.50000000  0.00000000  1
  Tl  Tl20  1  0.00000000  0.60505580  0.36561117  1
  Tl  Tl21  1  0.00000000  0.39494420  0.63438883  1
  Tl  Tl22  1  0.00000000  0.10505580  0.13438883  1
  Tl  Tl23  1  0.00000000  0.89494420  0.86561117  1
