# generated using pymatgen
data_Sb(IF3)2
_symmetry_space_group_name_H-M   'P 1'
_cell_length_a   6.20499895
_cell_length_b   8.26401613
_cell_length_c   8.34727218
_cell_angle_alpha   77.93623197
_cell_angle_beta   81.16379602
_cell_angle_gamma   82.54994100
_symmetry_Int_Tables_number   1
_chemical_formula_structural   Sb(IF3)2
_chemical_formula_sum   'Sb2 I4 F12'
_cell_volume   411.49910880
_cell_formula_units_Z   2
loop_
 _symmetry_equiv_pos_site_id
 _symmetry_equiv_pos_as_xyz
  1  'x, y, z'
loop_
 _atom_site_type_symbol
 _atom_site_label
 _atom_site_symmetry_multiplicity
 _atom_site_fract_x
 _atom_site_fract_y
 _atom_site_fract_z
 _atom_site_occupancy
  F  F0  1  0.73207014  0.53233129  0.58096820  1
  F  F1  1  0.26792986  0.46766871  0.41903180  1
  F  F2  1  0.43066415  0.79843266  0.49162453  1
  F  F3  1  0.56933585  0.20156734  0.50837547  1
  F  F4  1  0.41146734  0.86680477  0.80312892  1
  F  F5  1  0.58853266  0.13319523  0.19687108  1
  F  F6  1  0.20184828  0.15723097  0.38758948  1
  F  F7  1  0.79815172  0.84276903  0.61241052  1
  F  F8  1  0.66933416  0.43886289  0.22978142  1
  F  F9  1  0.33066584  0.56113711  0.77021858  1
  F  F10  1  0.29127524  0.39090888  0.11839458  1
  F  F11  1  0.70872476  0.60909112  0.88160542  1
  Sb  Sb12  1  0.56284103  0.69939977  0.68598338  1
  Sb  Sb13  1  0.43715897  0.30060023  0.31401662  1
  I  I14  1  0.10624570  0.91549750  0.23249561  1
  I  I15  1  0.89375430  0.08450250  0.76750439  1
  I  I16  1  0.89943095  0.75899883  0.06877567  1
  I  I17  1  0.10056905  0.24100117  0.93122433  1
