# generated using pymatgen
data_Hg2P2O7
_symmetry_space_group_name_H-M   'P 1'
_cell_length_a   6.82829282
_cell_length_b   7.02887889
_cell_length_c   7.21282005
_cell_angle_alpha   77.64922549
_cell_angle_beta   67.47964698
_cell_angle_gamma   80.19622560
_symmetry_Int_Tables_number   1
_chemical_formula_structural   Hg2P2O7
_chemical_formula_sum   'Hg4 P4 O14'
_cell_volume   310.88071309
_cell_formula_units_Z   2
loop_
 _symmetry_equiv_pos_site_id
 _symmetry_equiv_pos_as_xyz
  1  'x, y, z'
loop_
 _atom_site_type_symbol
 _atom_site_label
 _atom_site_symmetry_multiplicity
 _atom_site_fract_x
 _atom_site_fract_y
 _atom_site_fract_z
 _atom_site_occupancy
  O  O0  1  0.22408432  0.76720378  0.76645163  1
  O  O1  1  0.77591568  0.23279622  0.23354837  1
  O  O2  1  0.08045036  0.51924710  0.23567761  1
  O  O3  1  0.91954964  0.48075290  0.76432239  1
  O  O4  1  0.26204704  0.08122493  0.87982943  1
  O  O5  1  0.73795296  0.91877507  0.12017057  1
  O  O6  1  0.37054843  0.55865310  0.36943677  1
  O  O7  1  0.62945157  0.44134690  0.63056323  1
  O  O8  1  0.62234071  0.24942659  0.95637425  1
  O  O9  1  0.37765929  0.75057341  0.04362575  1
  O  O10  1  0.93441946  0.16934329  0.63825422  1
  O  O11  1  0.06558054  0.83065671  0.36174578  1
  O  O12  1  0.40941162  0.12923672  0.31822202  1
  O  O13  1  0.59058838  0.87076328  0.68177798  1
  P  P14  1  0.21209238  0.65978978  0.26290129  1
  P  P15  1  0.78790762  0.34021022  0.73709871  1
  P  P16  1  0.35856151  0.87061488  0.83215141  1
  P  P17  1  0.64143849  0.12938512  0.16784859  1
  Hg  Hg18  1  0.10380059  0.17317571  0.24656085  1
  Hg  Hg19  1  0.89619941  0.82682429  0.75343915  1
  Hg  Hg20  1  0.30283831  0.31674534  0.62290285  1
  Hg  Hg21  1  0.69716169  0.68325466  0.37709715  1
