# generated using pymatgen
data_DyCl3
_symmetry_space_group_name_H-M   'P 1'
_cell_length_a   3.79538476
_cell_length_b   7.28090665
_cell_length_c   8.57310505
_cell_angle_alpha   90.00000000
_cell_angle_beta   90.00000000
_cell_angle_gamma   105.10801535
_symmetry_Int_Tables_number   1
_chemical_formula_structural   DyCl3
_chemical_formula_sum   'Dy2 Cl6'
_cell_volume   228.71939151
_cell_formula_units_Z   2
loop_
 _symmetry_equiv_pos_site_id
 _symmetry_equiv_pos_as_xyz
  1  'x, y, z'
loop_
 _atom_site_type_symbol
 _atom_site_label
 _atom_site_symmetry_multiplicity
 _atom_site_fract_x
 _atom_site_fract_y
 _atom_site_fract_z
 _atom_site_occupancy
  Cl  Cl0  1  0.16381419  0.32762839  0.06889934  1
  Cl  Cl1  1  0.83618581  0.67237161  0.93110066  1
  Cl  Cl2  1  0.60964237  0.21928474  0.75000000  1
  Cl  Cl3  1  0.39035763  0.78071526  0.25000000  1
  Cl  Cl4  1  0.16381419  0.32762839  0.43110066  1
  Cl  Cl5  1  0.83618581  0.67237161  0.56889934  1
  Dy  Dy6  1  0.75839856  0.51679711  0.25000000  1
  Dy  Dy7  1  0.24160144  0.48320289  0.75000000  1
