# generated using pymatgen
data_LiNb3Cl8
_symmetry_space_group_name_H-M   'P 1'
_cell_length_a   9.36482578
_cell_length_b   9.36482578
_cell_length_c   13.65541044
_cell_angle_alpha   90.00000000
_cell_angle_beta   90.00000000
_cell_angle_gamma   91.87075729
_symmetry_Int_Tables_number   1
_chemical_formula_structural   LiNb3Cl8
_chemical_formula_sum   'Li4 Nb12 Cl32'
_cell_volume   1196.94067370
_cell_formula_units_Z   4
loop_
 _symmetry_equiv_pos_site_id
 _symmetry_equiv_pos_as_xyz
  1  'x, y, z'
loop_
 _atom_site_type_symbol
 _atom_site_label
 _atom_site_symmetry_multiplicity
 _atom_site_fract_x
 _atom_site_fract_y
 _atom_site_fract_z
 _atom_site_occupancy
  Li  Li0  1  0.41975392  0.58024608  0.41258268  1
  Li  Li1  1  0.08024608  0.91975392  0.91258268  1
  Li  Li2  1  0.58024608  0.41975392  0.58741732  1
  Li  Li3  1  0.91975392  0.08024608  0.08741732  1
  Cl  Cl4  1  0.20446623  0.42222844  0.14270368  1
  Cl  Cl5  1  0.86540727  0.86540727  0.00000000  1
  Cl  Cl6  1  0.63459273  0.63459273  0.50000000  1
  Cl  Cl7  1  0.13459273  0.13459273  0.00000000  1
  Cl  Cl8  1  0.36540727  0.36540727  0.50000000  1
  Cl  Cl9  1  0.79428134  0.20571866  0.20665059  1
  Cl  Cl10  1  0.70571866  0.29428134  0.70665059  1
  Cl  Cl11  1  0.20571866  0.79428134  0.79334941  1
  Cl  Cl12  1  0.29428134  0.70571866  0.29334941  1
  Cl  Cl13  1  0.45977014  0.54022986  0.74883593  1
  Cl  Cl14  1  0.04022986  0.95977014  0.24883593  1
  Cl  Cl15  1  0.54022986  0.45977014  0.25116407  1
  Cl  Cl16  1  0.29553377  0.07777156  0.64270368  1
  Cl  Cl17  1  0.33289987  0.04100775  0.39318944  1
  Cl  Cl18  1  0.07777156  0.29553377  0.35729632  1
  Cl  Cl19  1  0.42222844  0.20446623  0.85729632  1
  Cl  Cl20  1  0.70446623  0.92222844  0.35729632  1
  Cl  Cl21  1  0.79553377  0.57777156  0.85729632  1
  Cl  Cl22  1  0.92222844  0.70446623  0.64270368  1
  Cl  Cl23  1  0.57777156  0.79553377  0.14270368  1
  Cl  Cl24  1  0.04100775  0.33289987  0.60681056  1
  Cl  Cl25  1  0.16710013  0.45899225  0.89318944  1
  Cl  Cl26  1  0.75441742  0.24558258  0.96045046  1
  Cl  Cl27  1  0.45899225  0.16710013  0.10681056  1
  Cl  Cl28  1  0.66710013  0.95899225  0.60681056  1
  Cl  Cl29  1  0.83289987  0.54100775  0.10681056  1
  Cl  Cl30  1  0.95899225  0.66710013  0.39318944  1
  Cl  Cl31  1  0.54100775  0.83289987  0.89318944  1
  Cl  Cl32  1  0.25441742  0.74558258  0.53954954  1
  Cl  Cl33  1  0.24558258  0.75441742  0.03954954  1
  Cl  Cl34  1  0.74558258  0.25441742  0.46045046  1
  Cl  Cl35  1  0.95977014  0.04022986  0.75116407  1
  Nb  Nb36  1  0.09037738  0.90962262  0.62194724  1
  Nb  Nb37  1  0.65979428  0.65979428  0.00000000  1
  Nb  Nb38  1  0.84020572  0.84020572  0.50000000  1
  Nb  Nb39  1  0.34020572  0.34020572  0.00000000  1
  Nb  Nb40  1  0.15979428  0.15979428  0.50000000  1
  Nb  Nb41  1  0.62405117  0.37594883  0.08942793  1
  Nb  Nb42  1  0.87594883  0.12405117  0.58942793  1
  Nb  Nb43  1  0.37594883  0.62405117  0.91057207  1
  Nb  Nb44  1  0.12405117  0.87594883  0.41057207  1
  Nb  Nb45  1  0.59037738  0.40962262  0.87805276  1
  Nb  Nb46  1  0.90962262  0.09037738  0.37805276  1
  Nb  Nb47  1  0.40962262  0.59037738  0.12194724  1
