# generated using pymatgen
data_Ba2Ta15O32
_symmetry_space_group_name_H-M   'P 1'
_cell_length_a   12.83967077
_cell_length_b   12.83967078
_cell_length_c   12.83967078
_cell_angle_alpha   35.67340426
_cell_angle_beta   35.67340425
_cell_angle_gamma   35.67340427
_symmetry_Int_Tables_number   1
_chemical_formula_structural   Ba2Ta15O32
_chemical_formula_sum   'Ba2 Ta15 O32'
_cell_volume   643.48852679
_cell_formula_units_Z   1
loop_
 _symmetry_equiv_pos_site_id
 _symmetry_equiv_pos_as_xyz
  1  'x, y, z'
loop_
 _atom_site_type_symbol
 _atom_site_label
 _atom_site_symmetry_multiplicity
 _atom_site_fract_x
 _atom_site_fract_y
 _atom_site_fract_z
 _atom_site_occupancy
  O  O0  1  0.18133411  0.96009526  0.76328444  1
  O  O1  1  0.96009526  0.76328444  0.18133411  1
  O  O2  1  0.76328444  0.18133411  0.96009526  1
  O  O3  1  0.81866589  0.03990474  0.23671556  1
  O  O4  1  0.03990474  0.23671556  0.81866589  1
  O  O5  1  0.23671556  0.81866589  0.03990474  1
  O  O6  1  0.35229067  0.46767030  0.05845771  1
  O  O7  1  0.46767030  0.05845771  0.35229067  1
  O  O8  1  0.05845771  0.35229067  0.46767030  1
  O  O9  1  0.64770933  0.53232970  0.94154229  1
  O  O10  1  0.53232970  0.94154229  0.64770933  1
  O  O11  1  0.94154229  0.64770933  0.53232970  1
  O  O12  1  0.95670836  0.07153480  0.65872167  1
  O  O13  1  0.07153480  0.65872167  0.95670836  1
  O  O14  1  0.65872167  0.95670836  0.07153480  1
  O  O15  1  0.04329164  0.92846520  0.34127833  1
  O  O16  1  0.92846520  0.34127833  0.04329164  1
  O  O17  1  0.80309667  0.53881397  0.36298076  1
  O  O18  1  0.36298076  0.80309667  0.53881397  1
  O  O19  1  0.53881397  0.36298076  0.80309667  1
  O  O20  1  0.19690333  0.46118603  0.63701924  1
  O  O21  1  0.63701924  0.19690333  0.46118603  1
  O  O22  1  0.46118603  0.63701924  0.19690333  1
  O  O23  1  0.07180772  0.76001056  0.66752611  1
  O  O24  1  0.66752611  0.07180772  0.76001056  1
  O  O25  1  0.76001056  0.66752611  0.07180772  1
  O  O26  1  0.92819228  0.23998944  0.33247389  1
  O  O27  1  0.33247389  0.92819228  0.23998944  1
  O  O28  1  0.23998944  0.33247389  0.92819228  1
  O  O29  1  0.23777804  0.23777804  0.23777804  1
  O  O30  1  0.76222196  0.76222196  0.76222196  1
  O  O31  1  0.34127833  0.04329164  0.92846520  1
  Ba  Ba32  1  0.36023342  0.36023342  0.36023342  1
  Ba  Ba33  1  0.63976658  0.63976658  0.63976658  1
  Ta  Ta34  1  0.31713667  0.55528261  0.72455430  1
  Ta  Ta35  1  0.44471739  0.27544570  0.68286333  1
  Ta  Ta36  1  0.27544570  0.68286333  0.44471739  1
  Ta  Ta37  1  0.68286333  0.44471739  0.27544570  1
  Ta  Ta38  1  0.86131978  0.86131978  0.86131978  1
  Ta  Ta39  1  0.13868022  0.13868022  0.13868022  1
  Ta  Ta40  1  0.80515647  0.92679426  0.47128527  1
  Ta  Ta41  1  0.92679426  0.47128527  0.80515647  1
  Ta  Ta42  1  0.47128527  0.80515647  0.92679426  1
  Ta  Ta43  1  0.19484353  0.07320574  0.52871473  1
  Ta  Ta44  1  0.07320574  0.52871473  0.19484353  1
  Ta  Ta45  1  0.52871473  0.19484353  0.07320574  1
  Ta  Ta46  1  0.00000000  0.00000000  0.00000000  1
  Ta  Ta47  1  0.72455430  0.31713667  0.55528261  1
  Ta  Ta48  1  0.55528261  0.72455430  0.31713667  1
