# generated using pymatgen
data_RbClO4
_symmetry_space_group_name_H-M   'P 1'
_cell_length_a   5.94071661
_cell_length_b   7.67259251
_cell_length_c   9.47295584
_cell_angle_alpha   90.00000000
_cell_angle_beta   90.00000000
_cell_angle_gamma   90.00000000
_symmetry_Int_Tables_number   1
_chemical_formula_structural   RbClO4
_chemical_formula_sum   'Rb4 Cl4 O16'
_cell_volume   431.78393709
_cell_formula_units_Z   4
loop_
 _symmetry_equiv_pos_site_id
 _symmetry_equiv_pos_as_xyz
  1  'x, y, z'
loop_
 _atom_site_type_symbol
 _atom_site_label
 _atom_site_symmetry_multiplicity
 _atom_site_fract_x
 _atom_site_fract_y
 _atom_site_fract_z
 _atom_site_occupancy
  O  O0  1  0.54907983  0.30264566  0.42142398  1
  O  O1  1  0.04907983  0.69735434  0.57857602  1
  O  O2  1  0.45092017  0.80264566  0.07857602  1
  O  O3  1  0.95092017  0.19735434  0.92142398  1
  O  O4  1  0.45092017  0.69735434  0.57857602  1
  O  O5  1  0.95092017  0.30264566  0.42142398  1
  O  O6  1  0.54907983  0.19735434  0.92142398  1
  O  O7  1  0.04907983  0.80264566  0.07857602  1
  O  O8  1  0.25000000  0.60553774  0.92926540  1
  O  O9  1  0.75000000  0.39446226  0.07073460  1
  O  O10  1  0.75000000  0.10553774  0.57073460  1
  O  O11  1  0.25000000  0.89446226  0.42926540  1
  O  O12  1  0.25000000  0.56377246  0.18017964  1
  O  O13  1  0.75000000  0.43622754  0.81982036  1
  O  O14  1  0.75000000  0.06377246  0.31982036  1
  O  O15  1  0.25000000  0.93622754  0.68017964  1
  Cl  Cl16  1  0.25000000  0.80815593  0.56591251  1
  Cl  Cl17  1  0.75000000  0.19184407  0.43408749  1
  Cl  Cl18  1  0.75000000  0.30815593  0.93408749  1
  Cl  Cl19  1  0.25000000  0.69184407  0.06591251  1
  Rb  Rb20  1  0.25000000  0.33736971  0.68292508  1
  Rb  Rb21  1  0.75000000  0.66263029  0.31707492  1
  Rb  Rb22  1  0.75000000  0.83736971  0.81707492  1
  Rb  Rb23  1  0.25000000  0.16263029  0.18292508  1
