# generated using pymatgen
data_Re3(TeI)7
_symmetry_space_group_name_H-M   'P 1'
_cell_length_a   11.16040357
_cell_length_b   11.23665129
_cell_length_c   12.43574878
_cell_angle_alpha   86.70143266
_cell_angle_beta   74.98612642
_cell_angle_gamma   61.89545283
_symmetry_Int_Tables_number   1
_chemical_formula_structural   Re3(TeI)7
_chemical_formula_sum   'Re6 Te14 I14'
_cell_volume   1324.85692922
_cell_formula_units_Z   2
loop_
 _symmetry_equiv_pos_site_id
 _symmetry_equiv_pos_as_xyz
  1  'x, y, z'
loop_
 _atom_site_type_symbol
 _atom_site_label
 _atom_site_symmetry_multiplicity
 _atom_site_fract_x
 _atom_site_fract_y
 _atom_site_fract_z
 _atom_site_occupancy
  Te  Te0  1  0.84865254  0.71245630  0.19911856  1
  Te  Te1  1  0.15134746  0.28754370  0.80088144  1
  Te  Te2  1  0.62388076  0.38287481  0.20278452  1
  Te  Te3  1  0.37611924  0.61712519  0.79721548  1
  Te  Te4  1  0.29230979  0.95708796  0.22107576  1
  Te  Te5  1  0.70769021  0.04291204  0.77892424  1
  Te  Te6  1  0.66941527  0.05198598  0.08273306  1
  Te  Te7  1  0.33058473  0.94801402  0.91726694  1
  Te  Te8  1  0.01877612  0.25629020  0.10295112  1
  Te  Te9  1  0.98122388  0.74370980  0.89704888  1
  Te  Te10  1  0.89712359  0.02110823  0.27753364  1
  Te  Te11  1  0.10287641  0.97889177  0.72246636  1
  Te  Te12  1  0.20772652  0.71319074  0.09530620  1
  Te  Te13  1  0.79227348  0.28680926  0.90469380  1
  I  I14  1  0.39076907  0.12539006  0.63143087  1
  I  I15  1  0.60923093  0.87460994  0.36856913  1
  I  I16  1  0.98212865  0.40443892  0.64515853  1
  I  I17  1  0.01787135  0.59556108  0.35484147  1
  I  I18  1  0.35984045  0.31077845  0.94221940  1
  I  I19  1  0.64015955  0.68922155  0.05778060  1
  I  I20  1  0.70263158  0.45183465  0.37624240  1
  I  I21  1  0.29736842  0.54816535  0.62375760  1
  I  I22  1  0.14385125  0.17197019  0.38898904  1
  I  I23  1  0.85614875  0.82802981  0.61101096  1
  I  I24  1  0.28847865  0.76865715  0.37650069  1
  I  I25  1  0.71152135  0.23134285  0.62349931  1
  I  I26  1  0.43354671  0.30722276  0.34291333  1
  I  I27  1  0.56645329  0.69277724  0.65708667  1
  Re  Re28  1  0.93853162  0.88235522  0.08819938  1
  Re  Re29  1  0.06146838  0.11764478  0.91180062  1
  Re  Re30  1  0.84410550  0.15412529  0.09224122  1
  Re  Re31  1  0.15589450  0.84587471  0.90775878  1
  Re  Re32  1  0.11380123  0.98427691  0.09815942  1
  Re  Re33  1  0.88619877  0.01572309  0.90184058  1
