# generated using pymatgen
data_KFeCl4
_symmetry_space_group_name_H-M   'P 1'
_cell_length_a   7.43493274
_cell_length_b   9.53672483
_cell_length_c   10.74034252
_cell_angle_alpha   90.00000000
_cell_angle_beta   90.00000000
_cell_angle_gamma   94.23607533
_symmetry_Int_Tables_number   1
_chemical_formula_structural   KFeCl4
_chemical_formula_sum   'K4 Fe4 Cl16'
_cell_volume   759.46258643
_cell_formula_units_Z   4
loop_
 _symmetry_equiv_pos_site_id
 _symmetry_equiv_pos_as_xyz
  1  'x, y, z'
loop_
 _atom_site_type_symbol
 _atom_site_label
 _atom_site_symmetry_multiplicity
 _atom_site_fract_x
 _atom_site_fract_y
 _atom_site_fract_z
 _atom_site_occupancy
  Cl  Cl0  1  0.53484276  0.29552827  0.60738723  1
  Cl  Cl1  1  0.77584745  0.55758797  0.42763992  1
  Cl  Cl2  1  0.70943307  0.42648798  0.96958012  1
  Cl  Cl3  1  0.29056693  0.57351202  0.46958012  1
  Cl  Cl4  1  0.97039842  0.20647461  0.18153864  1
  Cl  Cl5  1  0.02960158  0.79352539  0.68153864  1
  Cl  Cl6  1  0.05364190  0.17996235  0.51594941  1
  Cl  Cl7  1  0.94635810  0.82003765  0.01594941  1
  Cl  Cl8  1  0.20810418  0.92024487  0.31279345  1
  Cl  Cl9  1  0.54401672  0.68999372  0.77261697  1
  Cl  Cl10  1  0.72504265  0.94217245  0.35686930  1
  Cl  Cl11  1  0.27495735  0.05782755  0.85686930  1
  Cl  Cl12  1  0.79189582  0.07975513  0.81279345  1
  Cl  Cl13  1  0.46515724  0.70447173  0.10738723  1
  Cl  Cl14  1  0.45598328  0.31000628  0.27261697  1
  Cl  Cl15  1  0.22415255  0.44241203  0.92763992  1
  K  K16  1  0.57312629  0.05295776  0.08473340  1
  K  K17  1  0.42687371  0.94704224  0.58473340  1
  K  K18  1  0.93647121  0.44402313  0.69535485  1
  K  K19  1  0.06352879  0.55597687  0.19535485  1
  Fe  Fe20  1  0.48755826  0.56692688  0.94290086  1
  Fe  Fe21  1  0.51244174  0.43307312  0.44290086  1
  Fe  Fe22  1  0.00955930  0.93626115  0.84263583  1
  Fe  Fe23  1  0.99044070  0.06373885  0.34263583  1
