# generated using pymatgen
data_Pr2CoO4
_symmetry_space_group_name_H-M   'P 1'
_cell_length_a   3.87801601
_cell_length_b   3.87801601
_cell_length_c   6.89427021
_cell_angle_alpha   106.33477116
_cell_angle_beta   106.33477116
_cell_angle_gamma   90.00000000
_symmetry_Int_Tables_number   1
_chemical_formula_structural   Pr2CoO4
_chemical_formula_sum   'Pr2 Co1 O4'
_cell_volume   95.12866495
_cell_formula_units_Z   1
loop_
 _symmetry_equiv_pos_site_id
 _symmetry_equiv_pos_as_xyz
  1  'x, y, z'
loop_
 _atom_site_type_symbol
 _atom_site_label
 _atom_site_symmetry_multiplicity
 _atom_site_fract_x
 _atom_site_fract_y
 _atom_site_fract_z
 _atom_site_occupancy
  Pr  Pr0  1  0.36296162  0.36296162  0.72592324  1
  Pr  Pr1  1  0.63703838  0.63703838  0.27407676  1
  Co  Co2  1  0.00000000  -0.00000000  -0.00000000  1
  O  O3  1  0.18051053  0.18051053  0.36102006  1
  O  O4  1  0.81948947  0.81948947  0.63897994  1
  O  O5  1  0.00000000  0.50000000  -0.00000000  1
  O  O6  1  0.50000000  -0.00000000  -0.00000000  1
