# generated using pymatgen
data_RuClF8
_symmetry_space_group_name_H-M   'P 1'
_cell_length_a   5.85054191
_cell_length_b   10.93362328
_cell_length_c   20.05500537
_cell_angle_alpha   90.00000000
_cell_angle_beta   90.00000000
_cell_angle_gamma   90.00000000
_symmetry_Int_Tables_number   1
_chemical_formula_structural   RuClF8
_chemical_formula_sum   'Ru8 Cl8 F64'
_cell_volume   1282.87098723
_cell_formula_units_Z   8
loop_
 _symmetry_equiv_pos_site_id
 _symmetry_equiv_pos_as_xyz
  1  'x, y, z'
loop_
 _atom_site_type_symbol
 _atom_site_label
 _atom_site_symmetry_multiplicity
 _atom_site_fract_x
 _atom_site_fract_y
 _atom_site_fract_z
 _atom_site_occupancy
  F  F0  1  0.40667122  0.80125553  0.94783070  1
  F  F1  1  0.40667122  0.69874447  0.05216930  1
  F  F2  1  0.59332878  0.80125553  0.55216930  1
  F  F3  1  0.59332878  0.69874447  0.44783070  1
  F  F4  1  0.59332878  0.19874447  0.05216930  1
  F  F5  1  0.59332878  0.30125553  0.94783070  1
  F  F6  1  0.40667122  0.19874447  0.44783070  1
  F  F7  1  0.40667122  0.30125553  0.55216930  1
  F  F8  1  0.39328228  0.16742082  0.80083867  1
  F  F9  1  0.39328228  0.33257918  0.19916133  1
  F  F10  1  0.60671772  0.16742082  0.69916133  1
  F  F11  1  0.60671772  0.33257918  0.30083867  1
  F  F12  1  0.60671772  0.83257918  0.19916133  1
  F  F13  1  0.60671772  0.66742082  0.80083867  1
  F  F14  1  0.39328228  0.83257918  0.30083867  1
  F  F15  1  0.39328228  0.66742082  0.69916133  1
  F  F16  1  0.10195427  0.52523870  0.56841593  1
  F  F17  1  0.10195427  0.97476130  0.43158407  1
  F  F18  1  0.89804573  0.52523870  0.93158407  1
  F  F19  1  0.89804573  0.97476130  0.06841593  1
  F  F20  1  0.89804573  0.47476130  0.43158407  1
  F  F21  1  0.89804573  0.02523870  0.56841593  1
  F  F22  1  0.10195427  0.47476130  0.06841593  1
  F  F23  1  0.10195427  0.02523870  0.93158407  1
  F  F24  1  0.35449815  0.46224802  0.43029513  1
  F  F25  1  0.35449815  0.03775198  0.56970487  1
  F  F26  1  0.64550185  0.46224802  0.06970487  1
  F  F27  1  0.64550185  0.03775198  0.93029513  1
  F  F28  1  0.64550185  0.53775198  0.56970487  1
  F  F29  1  0.64550185  0.96224802  0.43029513  1
  F  F30  1  0.35449815  0.53775198  0.93029513  1
  F  F31  1  0.35449815  0.96224802  0.06970487  1
  F  F32  1  0.37875006  0.59210370  0.31861251  1
  F  F33  1  0.37875006  0.90789630  0.68138749  1
  F  F34  1  0.62124994  0.59210370  0.18138749  1
  F  F35  1  0.62124994  0.90789630  0.81861251  1
  F  F36  1  0.62124994  0.40789630  0.68138749  1
  F  F37  1  0.62124994  0.09210370  0.31861251  1
  F  F38  1  0.37875006  0.40789630  0.81861251  1
  F  F39  1  0.37875006  0.09210370  0.18138749  1
  F  F40  1  0.08709268  0.38737539  0.67829704  1
  F  F41  1  0.08709268  0.11262461  0.32170296  1
  F  F42  1  0.91290732  0.38737539  0.82170296  1
  F  F43  1  0.91290732  0.11262461  0.17829704  1
  F  F44  1  0.91290732  0.61262461  0.32170296  1
  F  F45  1  0.91290732  0.88737539  0.67829704  1
  F  F46  1  0.08709268  0.61262461  0.17829704  1
  F  F47  1  0.08709268  0.88737539  0.82170296  1
  F  F48  1  0.14812875  0.68430434  0.42870001  1
  F  F49  1  0.14812875  0.81569566  0.57129999  1
  F  F50  1  0.85187125  0.68430434  0.07129999  1
  F  F51  1  0.85187125  0.81569566  0.92870001  1
  F  F52  1  0.85187125  0.31569566  0.57129999  1
  F  F53  1  0.85187125  0.18430434  0.42870001  1
  F  F54  1  0.14812875  0.31569566  0.92870001  1
  F  F55  1  0.14812875  0.18430434  0.07129999  1
  F  F56  1  0.11233004  0.39208854  0.32314895  1
  F  F57  1  0.11233004  0.10791146  0.67685105  1
  F  F58  1  0.88766996  0.39208854  0.17685105  1
  F  F59  1  0.88766996  0.10791146  0.82314895  1
  F  F60  1  0.88766996  0.60791146  0.67685105  1
  F  F61  1  0.88766996  0.89208854  0.32314895  1
  F  F62  1  0.11233004  0.60791146  0.82314895  1
  F  F63  1  0.11233004  0.89208854  0.17685105  1
  Cl  Cl64  1  0.50000000  0.73165644  0.25000000  1
  Cl  Cl65  1  0.50000000  0.76834356  0.75000000  1
  Cl  Cl66  1  0.50000000  0.26834356  0.75000000  1
  Cl  Cl67  1  0.50000000  0.23165644  0.25000000  1
  Cl  Cl68  1  0.40300268  0.25000000  0.00000000  1
  Cl  Cl69  1  0.59699732  0.25000000  0.50000000  1
  Cl  Cl70  1  0.59699732  0.75000000  0.00000000  1
  Cl  Cl71  1  0.40300268  0.75000000  0.50000000  1
  Ru  Ru72  1  0.12817669  0.53263706  0.37572576  1
  Ru  Ru73  1  0.12817669  0.96736294  0.62427424  1
  Ru  Ru74  1  0.87182331  0.53263706  0.12427424  1
  Ru  Ru75  1  0.87182331  0.96736294  0.87572576  1
  Ru  Ru76  1  0.87182331  0.46736294  0.62427424  1
  Ru  Ru77  1  0.87182331  0.03263706  0.37572576  1
  Ru  Ru78  1  0.12817669  0.46736294  0.87572576  1
  Ru  Ru79  1  0.12817669  0.03263706  0.12427424  1
