# generated using pymatgen
data_Sn15Os3O14
_symmetry_space_group_name_H-M   'P 1'
_cell_length_a   7.21321407
_cell_length_b   7.26012691
_cell_length_c   13.15431373
_cell_angle_alpha   105.94815966
_cell_angle_beta   90.00000000
_cell_angle_gamma   119.78647750
_symmetry_Int_Tables_number   1
_chemical_formula_structural   Sn15Os3O14
_chemical_formula_sum   'Sn15 Os3 O14'
_cell_volume   567.11014473
_cell_formula_units_Z   1
loop_
 _symmetry_equiv_pos_site_id
 _symmetry_equiv_pos_as_xyz
  1  'x, y, z'
loop_
 _atom_site_type_symbol
 _atom_site_label
 _atom_site_symmetry_multiplicity
 _atom_site_fract_x
 _atom_site_fract_y
 _atom_site_fract_z
 _atom_site_occupancy
  O  O0  1  0.22461800  0.44923599  0.25179884  1
  O  O1  1  0.74350351  0.97944841  0.81570813  1
  O  O2  1  0.23594490  0.97944841  0.81570813  1
  O  O3  1  0.42487239  0.40139155  0.40674973  1
  O  O4  1  0.97651916  0.40139155  0.40674973  1
  O  O5  1  0.34445764  0.68891529  0.63238681  1
  O  O6  1  0.42411311  0.84822622  0.41049057  1
  O  O7  1  0.62405044  0.24810089  0.94240176  1
  O  O8  1  0.12335946  0.24671892  0.52643947  1
  O  O9  1  0.95774586  0.91549171  0.99028083  1
  O  O10  1  0.12362298  0.81811353  0.53276343  1
  O  O11  1  0.69449054  0.81811353  0.53276343  1
  O  O12  1  0.35296065  0.17054197  0.11488660  1
  O  O13  1  0.81758131  0.17054197  0.11488660  1
  Sn  Sn14  1  0.14663250  0.81745613  0.08882030  1
  Sn  Sn15  1  0.09515440  0.67178901  0.34672544  1
  Sn  Sn16  1  0.57663461  0.67178901  0.34672544  1
  Sn  Sn17  1  0.01443074  0.02886147  0.61904377  1
  Sn  Sn18  1  0.42929724  0.33871030  0.83794970  1
  Sn  Sn19  1  0.90941306  0.33871030  0.83794970  1
  Sn  Sn20  1  0.15031775  0.30063550  0.08031068  1
  Sn  Sn21  1  0.44266451  0.88532902  0.87256677  1
  Sn  Sn22  1  0.09543109  0.19086218  0.34101085  1
  Sn  Sn23  1  0.48907531  0.49367407  0.57445786  1
  Sn  Sn24  1  0.00459876  0.49367407  0.57445786  1
  Sn  Sn25  1  0.48708072  0.97416144  0.57910307  1
  Sn  Sn26  1  0.90253604  0.80507208  0.82259898  1
  Sn  Sn27  1  0.67082363  0.81745613  0.08882030  1
  Sn  Sn28  1  0.67887550  0.35775100  0.11120913  1
  Os  Os29  1  0.28858404  0.57716807  0.96512405  1
  Os  Os30  1  0.88409241  0.76818482  0.23116447  1
  Os  Os31  1  0.69780774  0.39561549  0.69441759  1
