# generated using pymatgen
data_ErSeI
_symmetry_space_group_name_H-M   'P 1'
_cell_length_a   4.20281371
_cell_length_b   5.61327995
_cell_length_c   9.81979822
_cell_angle_alpha   90.00000000
_cell_angle_beta   90.00000000
_cell_angle_gamma   90.00000000
_symmetry_Int_Tables_number   1
_chemical_formula_structural   ErSeI
_chemical_formula_sum   'Er2 Se2 I2'
_cell_volume   231.66445642
_cell_formula_units_Z   2
loop_
 _symmetry_equiv_pos_site_id
 _symmetry_equiv_pos_as_xyz
  1  'x, y, z'
loop_
 _atom_site_type_symbol
 _atom_site_label
 _atom_site_symmetry_multiplicity
 _atom_site_fract_x
 _atom_site_fract_y
 _atom_site_fract_z
 _atom_site_occupancy
  Se  Se0  1  0.75000000  0.75000000  0.92074544  1
  Se  Se1  1  0.25000000  0.25000000  0.07925456  1
  I  I2  1  0.25000000  0.25000000  0.66144077  1
  I  I3  1  0.75000000  0.75000000  0.33855923  1
  Er  Er4  1  0.75000000  0.25000000  0.88364713  1
  Er  Er5  1  0.25000000  0.75000000  0.11635287  1
