# generated using pymatgen
data_Cs2Cu5Se4
_symmetry_space_group_name_H-M   'P 1'
_cell_length_a   4.01408990
_cell_length_b   10.00804073
_cell_length_c   13.29051081
_cell_angle_alpha   90.00000000
_cell_angle_beta   90.00000000
_cell_angle_gamma   101.56872823
_symmetry_Int_Tables_number   1
_chemical_formula_structural   Cs2Cu5Se4
_chemical_formula_sum   'Cs4 Cu10 Se8'
_cell_volume   523.07531399
_cell_formula_units_Z   2
loop_
 _symmetry_equiv_pos_site_id
 _symmetry_equiv_pos_as_xyz
  1  'x, y, z'
loop_
 _atom_site_type_symbol
 _atom_site_label
 _atom_site_symmetry_multiplicity
 _atom_site_fract_x
 _atom_site_fract_y
 _atom_site_fract_z
 _atom_site_occupancy
  Cu  Cu0  1  0.78478573  0.56957146  0.04122090  1
  Cu  Cu1  1  0.21521427  0.43042854  0.54122090  1
  Cu  Cu2  1  0.78478573  0.56957146  0.45877910  1
  Cu  Cu3  1  0.21521427  0.43042854  0.95877910  1
  Cu  Cu4  1  0.08395969  0.16791939  0.75000000  1
  Cu  Cu5  1  0.91604031  0.83208061  0.25000000  1
  Cu  Cu6  1  0.64815600  0.29631200  0.65756512  1
  Cu  Cu7  1  0.35184400  0.70368800  0.34243488  1
  Cu  Cu8  1  0.35184400  0.70368800  0.15756512  1
  Cu  Cu9  1  0.64815600  0.29631200  0.84243488  1
  Se  Se10  1  0.34254730  0.68509461  0.97914058  1
  Se  Se11  1  0.34254730  0.68509461  0.52085942  1
  Se  Se12  1  0.65745270  0.31490539  0.02085942  1
  Se  Se13  1  0.65745270  0.31490539  0.47914058  1
  Se  Se14  1  0.20662078  0.41324155  0.75000000  1
  Se  Se15  1  0.79337922  0.58675845  0.25000000  1
  Se  Se16  1  0.51889736  0.03779473  0.75000000  1
  Se  Se17  1  0.48110264  0.96220527  0.25000000  1
  Cs  Cs18  1  0.14190715  0.28381431  0.25000000  1
  Cs  Cs19  1  0.85809285  0.71618569  0.75000000  1
  Cs  Cs20  1  0.00000000  0.00000000  0.50000000  1
  Cs  Cs21  1  0.00000000  0.00000000  0.00000000  1
