# generated using pymatgen
data_KAg5S3
_symmetry_space_group_name_H-M   'P 1'
_cell_length_a   13.52891385
_cell_length_b   13.52891385
_cell_length_c   8.05484199
_cell_angle_alpha   90.00000000
_cell_angle_beta   90.00000000
_cell_angle_gamma   120.00000002
_symmetry_Int_Tables_number   1
_chemical_formula_structural   KAg5S3
_chemical_formula_sum   'K6 Ag30 S18'
_cell_volume   1276.77249898
_cell_formula_units_Z   6
loop_
 _symmetry_equiv_pos_site_id
 _symmetry_equiv_pos_as_xyz
  1  'x, y, z'
loop_
 _atom_site_type_symbol
 _atom_site_label
 _atom_site_symmetry_multiplicity
 _atom_site_fract_x
 _atom_site_fract_y
 _atom_site_fract_z
 _atom_site_occupancy
  S  S0  1  0.55478086  0.77880879  0.25000000  1
  S  S1  1  0.22119121  0.77597207  0.25000000  1
  S  S2  1  0.22402793  0.44521914  0.25000000  1
  S  S3  1  0.44521914  0.22402793  0.75000000  1
  S  S4  1  0.77597207  0.22119121  0.75000000  1
  S  S5  1  0.77880879  0.55478086  0.75000000  1
  S  S6  1  0.53263984  0.41868746  0.25000000  1
  S  S7  1  0.58131254  0.11395238  0.25000000  1
  S  S8  1  0.88604762  0.46736016  0.25000000  1
  S  S9  1  0.46736016  0.88604762  0.75000000  1
  S  S10  1  0.11395238  0.58131254  0.75000000  1
  S  S11  1  0.41868746  0.53263984  0.75000000  1
  S  S12  1  0.86546052  0.78082912  0.25000000  1
  S  S13  1  0.21917088  0.08463139  0.25000000  1
  S  S14  1  0.91536861  0.13453948  0.25000000  1
  S  S15  1  0.13453948  0.91536861  0.75000000  1
  S  S16  1  0.08463139  0.21917088  0.75000000  1
  S  S17  1  0.78082912  0.86546052  0.75000000  1
  K  K18  1  0.33333333  0.66666667  0.50146149  1
  K  K19  1  0.33333333  0.66666667  0.99853851  1
  K  K20  1  0.66666667  0.33333333  0.49853851  1
  K  K21  1  0.66666667  0.33333333  0.00146149  1
  K  K22  1  0.00000000  0.00000000  0.50000000  1
  K  K23  1  0.00000000  0.00000000  0.00000000  1
  Ag  Ag24  1  0.99507734  0.70210695  0.75000000  1
  Ag  Ag25  1  0.70702961  0.00492266  0.75000000  1
  Ag  Ag26  1  0.29789305  0.29297039  0.75000000  1
  Ag  Ag27  1  0.29297039  0.29789305  0.25000000  1
  Ag  Ag28  1  0.00492266  0.70702961  0.25000000  1
  Ag  Ag29  1  0.70210695  0.99507734  0.25000000  1
  Ag  Ag30  1  0.46476683  0.46476683  0.50000000  1
  Ag  Ag31  1  0.00000000  0.53523317  0.00000000  1
  Ag  Ag32  1  0.53523317  0.00000000  0.00000000  1
  Ag  Ag33  1  0.53523317  0.00000000  0.50000000  1
  Ag  Ag34  1  0.00000000  0.53523317  0.50000000  1
  Ag  Ag35  1  0.46476683  0.46476683  0.00000000  1
  Ag  Ag36  1  0.18408005  0.85040957  0.50127738  1
  Ag  Ag37  1  0.14959043  0.33367048  0.50127738  1
  Ag  Ag38  1  0.66632952  0.81591995  0.50127738  1
  Ag  Ag39  1  0.81591995  0.66632952  0.49872262  1
  Ag  Ag40  1  0.66632952  0.81591995  0.99872262  1
  Ag  Ag41  1  0.18408005  0.85040957  0.99872262  1
  Ag  Ag42  1  0.14959043  0.33367048  0.99872262  1
  Ag  Ag43  1  0.85040957  0.18408005  0.00127738  1
  Ag  Ag44  1  0.33367048  0.14959043  0.00127738  1
  Ag  Ag45  1  0.33367048  0.14959043  0.49872262  1
  Ag  Ag46  1  0.85040957  0.18408005  0.49872262  1
  Ag  Ag47  1  0.81591995  0.66632952  0.00127738  1
  Ag  Ag48  1  0.63185388  0.63438811  0.25000000  1
  Ag  Ag49  1  0.36561189  0.99746577  0.25000000  1
  Ag  Ag50  1  0.00253423  0.36814612  0.25000000  1
  Ag  Ag51  1  0.36814612  0.00253423  0.75000000  1
  Ag  Ag52  1  0.99746577  0.36561189  0.75000000  1
  Ag  Ag53  1  0.63438811  0.63185388  0.75000000  1
