# generated using pymatgen
data_Li3AsS3
_symmetry_space_group_name_H-M   'P 1'
_cell_length_a   6.69607806
_cell_length_b   8.14443049
_cell_length_c   9.90269582
_cell_angle_alpha   90.00000000
_cell_angle_beta   90.00000000
_cell_angle_gamma   90.00000000
_symmetry_Int_Tables_number   1
_chemical_formula_structural   Li3AsS3
_chemical_formula_sum   'Li12 As4 S12'
_cell_volume   540.05086747
_cell_formula_units_Z   4
loop_
 _symmetry_equiv_pos_site_id
 _symmetry_equiv_pos_as_xyz
  1  'x, y, z'
loop_
 _atom_site_type_symbol
 _atom_site_label
 _atom_site_symmetry_multiplicity
 _atom_site_fract_x
 _atom_site_fract_y
 _atom_site_fract_z
 _atom_site_occupancy
  Li  Li0  1  0.11605017  0.75217205  0.88845771  1
  Li  Li1  1  0.88394983  0.24782795  0.38845771  1
  Li  Li2  1  0.38394983  0.25217205  0.88845771  1
  Li  Li3  1  0.61605017  0.74782795  0.38845771  1
  Li  Li4  1  0.35335462  0.07867410  0.18995022  1
  Li  Li5  1  0.64664538  0.92132590  0.68995022  1
  Li  Li6  1  0.44876906  0.56752566  0.72151766  1
  Li  Li7  1  0.55123094  0.43247434  0.22151766  1
  Li  Li8  1  0.05123094  0.06752566  0.72151766  1
  Li  Li9  1  0.94876906  0.93247434  0.22151766  1
  Li  Li10  1  0.14664538  0.57867410  0.18995022  1
  Li  Li11  1  0.85335462  0.42132590  0.68995022  1
  S  S12  1  0.79138912  0.65924496  0.17572665  1
  S  S13  1  0.20861088  0.34075504  0.67572665  1
  S  S14  1  0.70861088  0.15924496  0.17572665  1
  S  S15  1  0.29138912  0.84075504  0.67572665  1
  S  S16  1  0.22014048  0.31583671  0.31304385  1
  S  S17  1  0.77985952  0.68416329  0.81304385  1
  S  S18  1  0.35782835  0.54301944  0.98976102  1
  S  S19  1  0.64217165  0.45698056  0.48976102  1
  S  S20  1  0.14217165  0.04301944  0.98976102  1
  S  S21  1  0.85782835  0.95698056  0.48976102  1
  S  S22  1  0.27985952  0.81583671  0.31304385  1
  S  S23  1  0.72014048  0.18416329  0.81304385  1
  As  As24  1  0.09706486  0.75509696  0.50084289  1
  As  As25  1  0.90293514  0.24490304  1.00084289  1
  As  As26  1  0.40293514  0.25509696  0.50084289  1
  As  As27  1  0.59706486  0.74490304  1.00084289  1
