# generated using pymatgen
data_Ta2Bi4O11
_symmetry_space_group_name_H-M   'P 1'
_cell_length_a   6.65870095
_cell_length_b   7.73185055
_cell_length_c   10.05372998
_cell_angle_alpha   101.03008727
_cell_angle_beta   90.38265634
_cell_angle_gamma   89.95195688
_symmetry_Int_Tables_number   1
_chemical_formula_structural   Ta2Bi4O11
_chemical_formula_sum   'Ta4 Bi8 O22'
_cell_volume   508.03383049
_cell_formula_units_Z   2
loop_
 _symmetry_equiv_pos_site_id
 _symmetry_equiv_pos_as_xyz
  1  'x, y, z'
loop_
 _atom_site_type_symbol
 _atom_site_label
 _atom_site_symmetry_multiplicity
 _atom_site_fract_x
 _atom_site_fract_y
 _atom_site_fract_z
 _atom_site_occupancy
  O  O0  1  0.21790308  0.72839282  0.76338131  1
  O  O1  1  0.78209692  0.27160718  0.23661869  1
  O  O2  1  0.63134451  0.66004830  0.83389941  1
  O  O3  1  0.36865549  0.33995170  0.16610059  1
  O  O4  1  0.63061208  0.25603435  0.84776452  1
  O  O5  1  0.36938792  0.74396565  0.15223548  1
  O  O6  1  0.88977587  0.16892785  0.60434246  1
  O  O7  1  0.11022413  0.83107215  0.39565754  1
  O  O8  1  0.21526208  0.14903340  0.76290750  1
  O  O9  1  0.78473792  0.85096660  0.23709250  1
  O  O10  1  0.90750459  0.63753129  0.60010300  1
  O  O11  1  0.09249541  0.36246871  0.39989700  1
  O  O12  1  0.02048351  0.54680666  0.18630800  1
  O  O13  1  0.97951649  0.45319334  0.81369200  1
  O  O14  1  0.99640872  0.78077942  0.00036423  1
  O  O15  1  0.00359128  0.21922058  0.99963577  1
  O  O16  1  0.58881689  0.60762084  0.38604877  1
  O  O17  1  0.41118311  0.39237916  0.61395123  1
  O  O18  1  0.15964420  0.05311472  0.21045221  1
  O  O19  1  0.84035580  0.94688528  0.78954779  1
  O  O20  1  0.54365636  0.09354724  0.39790346  1
  O  O21  1  0.45634364  0.90645276  0.60209654  1
  Ta  Ta22  1  0.91470048  0.70355313  0.81372930  1
  Ta  Ta23  1  0.08529952  0.29644687  0.18627070  1
  Ta  Ta24  1  0.91090784  0.20268708  0.80985834  1
  Ta  Ta25  1  0.08909216  0.79731292  0.19014166  1
  Bi  Bi26  1  0.76116427  0.37251912  0.47883457  1
  Bi  Bi27  1  0.23883573  0.62748088  0.52116543  1
  Bi  Bi28  1  0.75258479  0.87173007  0.47842060  1
  Bi  Bi29  1  0.24741521  0.12826993  0.52157940  1
  Bi  Bi30  1  0.43814818  0.95243218  0.81569902  1
  Bi  Bi31  1  0.56185182  0.04756782  0.18430098  1
  Bi  Bi32  1  0.38686362  0.45467763  0.82943630  1
  Bi  Bi33  1  0.61313638  0.54532237  0.17056370  1
