# generated using pymatgen
data_PI2
_symmetry_space_group_name_H-M   'P 1'
_cell_length_a   5.20430297
_cell_length_b   7.73994348
_cell_length_c   7.56627675
_cell_angle_alpha   80.20380844
_cell_angle_beta   73.53076784
_cell_angle_gamma   77.94522633
_symmetry_Int_Tables_number   1
_chemical_formula_structural   PI2
_chemical_formula_sum   'P2 I4'
_cell_volume   283.82103082
_cell_formula_units_Z   2
loop_
 _symmetry_equiv_pos_site_id
 _symmetry_equiv_pos_as_xyz
  1  'x, y, z'
loop_
 _atom_site_type_symbol
 _atom_site_label
 _atom_site_symmetry_multiplicity
 _atom_site_fract_x
 _atom_site_fract_y
 _atom_site_fract_z
 _atom_site_occupancy
  P  P0  1  0.58393966  0.12790325  0.96705937  1
  P  P1  1  0.41606034  0.87209675  0.03294063  1
  I  I2  1  0.44310617  0.22088954  0.67206796  1
  I  I3  1  0.55689383  0.77911046  0.32793204  1
  I  I4  1  0.20143013  0.28999172  0.19224456  1
  I  I5  1  0.79856987  0.71000828  0.80775544  1
