# generated using pymatgen
data_ZrPb
_symmetry_space_group_name_H-M   'P 1'
_cell_length_a   6.93959153
_cell_length_b   4.04641162
_cell_length_c   8.76980771
_cell_angle_alpha   90.00000000
_cell_angle_beta   90.00000000
_cell_angle_gamma   121.22054092
_symmetry_Int_Tables_number   1
_chemical_formula_structural   ZrPb
_chemical_formula_sum   'Zr4 Pb4'
_cell_volume   210.59633371
_cell_formula_units_Z   4
loop_
 _symmetry_equiv_pos_site_id
 _symmetry_equiv_pos_as_xyz
  1  'x, y, z'
loop_
 _atom_site_type_symbol
 _atom_site_label
 _atom_site_symmetry_multiplicity
 _atom_site_fract_x
 _atom_site_fract_y
 _atom_site_fract_z
 _atom_site_occupancy
  Zr  Zr0  1  0.27079418  0.02195574  0.12760634  1
  Zr  Zr1  1  0.72920582  0.97804426  0.87239366  1
  Zr  Zr2  1  0.22920582  0.97804426  0.62760634  1
  Zr  Zr3  1  0.77079418  0.02195574  0.37239366  1
  Pb  Pb4  1  0.26859564  0.51630434  0.37816663  1
  Pb  Pb5  1  0.73140436  0.48369566  0.62183337  1
  Pb  Pb6  1  0.23140436  0.48369566  0.87816663  1
  Pb  Pb7  1  0.76859564  0.51630434  0.12183337  1
