# generated using pymatgen
data_Cs(SO2)2
_symmetry_space_group_name_H-M   'P 1'
_cell_length_a   7.84812731
_cell_length_b   9.85507915
_cell_length_c   16.00406500
_cell_angle_alpha   90.00000000
_cell_angle_beta   90.00000000
_cell_angle_gamma   98.40710825
_symmetry_Int_Tables_number   1
_chemical_formula_structural   Cs(SO2)2
_chemical_formula_sum   'Cs8 S16 O32'
_cell_volume   1224.51572403
_cell_formula_units_Z   8
loop_
 _symmetry_equiv_pos_site_id
 _symmetry_equiv_pos_as_xyz
  1  'x, y, z'
loop_
 _atom_site_type_symbol
 _atom_site_label
 _atom_site_symmetry_multiplicity
 _atom_site_fract_x
 _atom_site_fract_y
 _atom_site_fract_z
 _atom_site_occupancy
  O  O0  1  0.59229451  0.33657208  0.11594781  1
  O  O1  1  0.90770549  0.66342792  0.61594781  1
  O  O2  1  0.40770549  0.66342792  0.88405219  1
  O  O3  1  0.09229451  0.33657208  0.38405219  1
  O  O4  1  0.69766299  0.34566784  0.26166526  1
  O  O5  1  0.80233701  0.65433216  0.76166526  1
  O  O6  1  0.30233701  0.65433216  0.73833474  1
  O  O7  1  0.19766299  0.34566784  0.23833474  1
  O  O8  1  0.47440841  0.22988807  0.57326863  1
  O  O9  1  0.02559159  0.77011193  0.07326863  1
  O  O10  1  0.52559159  0.77011193  0.42673137  1
  O  O11  1  0.97440841  0.22988807  0.92673137  1
  O  O12  1  0.58357742  0.43915815  0.65027003  1
  O  O13  1  0.91642258  0.56084185  0.15027003  1
  O  O14  1  0.41642258  0.56084185  0.34972997  1
  O  O15  1  0.08357742  0.43915815  0.84972997  1
  O  O16  1  0.75644817  0.35775252  0.53635565  1
  O  O17  1  0.74355183  0.64224748  0.03635565  1
  O  O18  1  0.24355183  0.64224748  0.46364435  1
  O  O19  1  0.25644817  0.35775252  0.96364435  1
  O  O20  1  0.68689540  0.97984779  0.58663828  1
  O  O21  1  0.81310460  0.02015221  0.08663828  1
  O  O22  1  0.31310460  0.02015221  0.41336172  1
  O  O23  1  0.18689540  0.97984779  0.91336172  1
  O  O24  1  0.48020081  0.10637439  0.91773273  1
  O  O25  1  0.01979919  0.89362561  0.41773273  1
  O  O26  1  0.51979919  0.89362561  0.08226727  1
  O  O27  1  0.98020081  0.10637439  0.58226727  1
  O  O28  1  0.38293030  0.96686912  0.79457903  1
  O  O29  1  0.11706970  0.03313088  0.29457903  1
  O  O30  1  0.61706970  0.03313088  0.20542097  1
  O  O31  1  0.88293030  0.96686912  0.70542097  1
  S  S32  1  0.73161252  0.32139812  0.17390891  1
  S  S33  1  0.76838748  0.67860188  0.67390891  1
  S  S34  1  0.26838748  0.67860188  0.82609109  1
  S  S35  1  0.23161252  0.32139812  0.32609109  1
  S  S36  1  0.62711442  0.32097112  0.60192211  1
  S  S37  1  0.87288558  0.67902888  0.10192211  1
  S  S38  1  0.37288558  0.67902888  0.39807789  1
  S  S39  1  0.12711442  0.32097112  0.89807789  1
  S  S40  1  0.74823641  0.21831778  0.69830188  1
  S  S41  1  0.75176359  0.78168222  0.19830188  1
  S  S42  1  0.25176359  0.78168222  0.30169812  1
  S  S43  1  0.24823641  0.21831778  0.80169812  1
  S  S44  1  0.83430079  0.04729949  0.63426320  1
  S  S45  1  0.66569921  0.95270051  0.13426320  1
  S  S46  1  0.16569921  0.95270051  0.36573680  1
  S  S47  1  0.33430079  0.04729949  0.86573680  1
  Cs  Cs48  1  0.16197057  0.40950403  0.60057672  1
  Cs  Cs49  1  0.33802943  0.59049597  0.10057672  1
  Cs  Cs50  1  0.83802943  0.59049597  0.39942328  1
  Cs  Cs51  1  0.66197057  0.40950403  0.89942328  1
  Cs  Cs52  1  0.71458822  0.08000504  0.39994809  1
  Cs  Cs53  1  0.78541178  0.91999496  0.89994809  1
  Cs  Cs54  1  0.28541178  0.91999496  0.60005191  1
  Cs  Cs55  1  0.21458822  0.08000504  0.10005191  1
