# generated using pymatgen
data_Er10Ru10C19
_symmetry_space_group_name_H-M   'P 1'
_cell_length_a   7.24428817
_cell_length_b   8.16678316
_cell_length_c   10.03641133
_cell_angle_alpha   109.09465586
_cell_angle_beta   90.00000000
_cell_angle_gamma   116.32878486
_symmetry_Int_Tables_number   1
_chemical_formula_structural   Er10Ru10C19
_chemical_formula_sum   'Er10 Ru10 C19'
_cell_volume   495.46790475
_cell_formula_units_Z   1
loop_
 _symmetry_equiv_pos_site_id
 _symmetry_equiv_pos_as_xyz
  1  'x, y, z'
loop_
 _atom_site_type_symbol
 _atom_site_label
 _atom_site_symmetry_multiplicity
 _atom_site_fract_x
 _atom_site_fract_y
 _atom_site_fract_z
 _atom_site_occupancy
  C  C0  1  0.78849129  0.57698259  0.98947603  1
  C  C1  1  0.39196712  0.57977684  0.98931429  1
  C  C2  1  0.18780972  0.57977684  0.98931429  1
  C  C3  1  0.35461689  0.21536874  0.55578749  1
  C  C4  1  0.86075185  0.21536874  0.55578749  1
  C  C5  1  0.08519299  0.64907113  0.42274081  1
  C  C6  1  0.56387814  0.64907113  0.42274081  1
  C  C7  1  0.45881150  0.41342422  0.63144595  1
  C  C8  1  0.95461272  0.41342422  0.63144595  1
  C  C9  1  0.63619705  0.77150827  0.34745178  1
  C  C10  1  0.18207448  0.86979923  0.78270465  1
  C  C11  1  0.28563575  0.07710095  0.19611903  1
  C  C12  1  0.79146520  0.07710095  0.19611903  1
  C  C13  1  0.28566309  0.07080024  0.82397943  1
  C  C14  1  0.68772475  0.86979923  0.78270465  1
  C  C15  1  0.78513715  0.07080024  0.82397943  1
  C  C16  1  0.36838230  0.23665638  0.15486230  1
  C  C17  1  0.86827409  0.23665638  0.15486230  1
  C  C18  1  0.13531122  0.77150827  0.34745178  1
  Ru  Ru19  1  0.46101042  0.35466433  0.98952751  1
  Ru  Ru20  1  0.21966211  0.94579238  0.58312729  1
  Ru  Ru21  1  0.72613027  0.94579238  0.58312729  1
  Ru  Ru22  1  0.41785642  0.35358048  0.39617267  1
  Ru  Ru23  1  0.02295340  0.62064115  0.84331858  1
  Ru  Ru24  1  0.59768775  0.62064115  0.84331858  1
  Ru  Ru25  1  0.67037124  0.76716589  0.13553583  1
  Ru  Ru26  1  0.09679465  0.76716589  0.13553583  1
  Ru  Ru27  1  0.93572405  0.35358048  0.39617267  1
  Ru  Ru28  1  0.89365391  0.35466433  0.98952751  1
  Er  Er29  1  0.00029387  0.00058775  0.98931444  1
  Er  Er30  1  0.47818195  0.95636391  0.98921522  1
  Er  Er31  1  0.32307267  0.64614534  0.61335480  1
  Er  Er32  1  0.51080222  0.02160443  0.36401686  1
  Er  Er33  1  0.01611362  0.03222723  0.38072025  1
  Er  Er34  1  0.82144046  0.64288091  0.60007393  1
  Er  Er35  1  0.62571153  0.25142306  0.73787379  1
  Er  Er36  1  0.75130580  0.50261161  0.24013599  1
  Er  Er37  1  0.14191077  0.28382153  0.76420038  1
  Er  Er38  1  0.25477558  0.50955115  0.21508309  1
