# generated using pymatgen
data_U2Cu4As5
_symmetry_space_group_name_H-M   'P 1'
_cell_length_a   3.99175661
_cell_length_b   3.99175661
_cell_length_c   12.47579644
_cell_angle_alpha   99.20573717
_cell_angle_beta   99.20573717
_cell_angle_gamma   90.00000002
_symmetry_Int_Tables_number   1
_chemical_formula_structural   U2Cu4As5
_chemical_formula_sum   'U2 Cu4 As5'
_cell_volume   193.63624349
_cell_formula_units_Z   1
loop_
 _symmetry_equiv_pos_site_id
 _symmetry_equiv_pos_as_xyz
  1  'x, y, z'
loop_
 _atom_site_type_symbol
 _atom_site_label
 _atom_site_symmetry_multiplicity
 _atom_site_fract_x
 _atom_site_fract_y
 _atom_site_fract_z
 _atom_site_occupancy
  Cu  Cu0  1  0.94202739  0.44202739  0.88405478  1
  Cu  Cu1  1  0.05797261  0.55797261  0.11594522  1
  Cu  Cu2  1  0.55797261  0.05797261  0.11594522  1
  Cu  Cu3  1  0.44202739  0.94202739  0.88405478  1
  As  As4  1  0.37578111  0.37578111  0.75156222  1
  As  As5  1  0.62421889  0.62421889  0.24843778  1
  As  As6  1  0.00000000  0.00000000  0.00000000  1
  As  As7  1  0.75000000  0.25000000  0.50000000  1
  As  As8  1  0.25000000  0.75000000  0.50000000  1
  U  U9  1  0.84207311  0.84207311  0.68414622  1
  U  U10  1  0.15792689  0.15792689  0.31585378  1
