# generated using pymatgen
data_Ca11InSb9
_symmetry_space_group_name_H-M   'P 1'
_cell_length_a   11.94210632
_cell_length_b   12.10785969
_cell_length_c   12.10785969
_cell_angle_alpha   62.85001369
_cell_angle_beta   60.45182887
_cell_angle_gamma   60.45182885
_symmetry_Int_Tables_number   1
_chemical_formula_structural   Ca11InSb9
_chemical_formula_sum   'Ca22 In2 Sb18'
_cell_volume   1271.31800369
_cell_formula_units_Z   2
loop_
 _symmetry_equiv_pos_site_id
 _symmetry_equiv_pos_as_xyz
  1  'x, y, z'
loop_
 _atom_site_type_symbol
 _atom_site_label
 _atom_site_symmetry_multiplicity
 _atom_site_fract_x
 _atom_site_fract_y
 _atom_site_fract_z
 _atom_site_occupancy
  Ca  Ca0  1  0.91858772  0.43219913  0.87570417  1
  Ca  Ca1  1  0.77350898  0.87570417  0.43219913  1
  Ca  Ca2  1  0.27350898  0.93219913  0.37570417  1
  Ca  Ca3  1  0.41858772  0.37570417  0.93219913  1
  Ca  Ca4  1  0.69222119  0.57158355  0.67887731  1
  Ca  Ca5  1  0.05731795  0.67887731  0.57158355  1
  Ca  Ca6  1  0.55731795  0.07158355  0.17887731  1
  Ca  Ca7  1  0.19222119  0.17887731  0.07158355  1
  Ca  Ca8  1  0.25048458  0.11021445  0.56281120  1
  Ca  Ca9  1  0.07648977  0.56281120  0.11021445  1
  Ca  Ca10  1  0.57648977  0.61021445  0.06281120  1
  Ca  Ca11  1  0.75048458  0.06281120  0.61021445  1
  Ca  Ca12  1  0.94869718  0.30901387  0.42490070  1
  Ca  Ca13  1  0.31738825  0.42490070  0.30901387  1
  Ca  Ca14  1  0.81738825  0.80901387  0.92490070  1
  Ca  Ca15  1  0.44869718  0.92490070  0.80901387  1
  Ca  Ca16  1  0.16853048  0.81922189  0.17105439  1
  Ca  Ca17  1  0.84119324  0.17105439  0.81922189  1
  Ca  Ca18  1  0.34119324  0.31922189  0.67105439  1
  Ca  Ca19  1  0.66853048  0.67105439  0.31922189  1
  Ca  Ca20  1  0.33058554  0.66941446  0.66941446  1
  Ca  Ca21  1  0.83058554  0.16941446  0.16941446  1
  In  In22  1  0.61358666  0.38641334  0.38641334  1
  In  In23  1  0.11358666  0.88641334  0.88641334  1
  Sb  Sb24  1  0.63382909  0.38171431  0.62053116  1
  Sb  Sb25  1  0.36392544  0.62053116  0.38171431  1
  Sb  Sb26  1  0.86392544  0.88171431  0.12053116  1
  Sb  Sb27  1  0.13382909  0.12053116  0.88171431  1
  Sb  Sb28  1  0.75248828  0.74751172  0.74751172  1
  Sb  Sb29  1  0.25248828  0.24751172  0.24751172  1
  Sb  Sb30  1  0.14574117  0.50176754  0.85517105  1
  Sb  Sb31  1  0.49732024  0.85517105  0.50176754  1
  Sb  Sb32  1  0.99732024  0.00176754  0.35517105  1
  Sb  Sb33  1  0.64574117  0.35517105  0.00176754  1
  Sb  Sb34  1  0.04256455  0.38371484  0.60219506  1
  Sb  Sb35  1  0.97152555  0.60219506  0.38371484  1
  Sb  Sb36  1  0.47152555  0.88371484  0.10219506  1
  Sb  Sb37  1  0.54256455  0.10219506  0.88371484  1
  Sb  Sb38  1  0.54303704  0.15935001  0.44855584  1
  Sb  Sb39  1  0.84905710  0.44855584  0.15935001  1
  Sb  Sb40  1  0.34905710  0.65935001  0.94855584  1
  Sb  Sb41  1  0.04303704  0.94855584  0.65935001  1
