# generated using pymatgen
data_AgW3Br7
_symmetry_space_group_name_H-M   'P 1'
_cell_length_a   10.06464096
_cell_length_b   10.24130826
_cell_length_c   16.08264862
_cell_angle_alpha   90.00000000
_cell_angle_beta   90.00000000
_cell_angle_gamma   121.08433303
_symmetry_Int_Tables_number   1
_chemical_formula_structural   AgW3Br7
_chemical_formula_sum   'Ag4 W12 Br28'
_cell_volume   1419.68555288
_cell_formula_units_Z   4
loop_
 _symmetry_equiv_pos_site_id
 _symmetry_equiv_pos_as_xyz
  1  'x, y, z'
loop_
 _atom_site_type_symbol
 _atom_site_label
 _atom_site_symmetry_multiplicity
 _atom_site_fract_x
 _atom_site_fract_y
 _atom_site_fract_z
 _atom_site_occupancy
  Br  Br0  1  0.31532136  0.65930567  0.42899090  1
  Br  Br1  1  0.18951084  0.34376931  0.27269593  1
  Br  Br2  1  0.18951084  0.84376931  0.22730407  1
  Br  Br3  1  0.81048916  0.65623069  0.72730407  1
  Br  Br4  1  0.27784637  0.51005331  0.91285766  1
  Br  Br5  1  0.72215363  -0.01005331  0.41285766  1
  Br  Br6  1  0.72215363  0.48994669  0.08714234  1
  Br  Br7  1  0.27784637  1.01005331  0.58714234  1
  Br  Br8  1  0.14710352  0.06097516  0.85851966  1
  Br  Br9  1  0.85289648  0.43902484  0.35851966  1
  Br  Br10  1  0.85289648  0.93902484  0.14148034  1
  Br  Br11  1  0.14710352  0.56097516  0.64148034  1
  Br  Br12  1  0.57913208  0.79361845  0.61420560  1
  Br  Br13  1  0.42086792  0.70638155  0.11420560  1
  Br  Br14  1  0.42086792  0.20638155  0.38579440  1
  Br  Br15  1  0.39201391  0.88812994  0.80980961  1
  Br  Br16  1  0.87111499  0.74369038  0.49540432  1
  Br  Br17  1  0.12888501  0.75630962  0.99540432  1
  Br  Br18  1  0.12888501  0.25630962  0.50459568  1
  Br  Br19  1  0.87111499  0.24369038  0.00459568  1
  Br  Br20  1  0.68467864  0.34069433  0.57100910  1
  Br  Br21  1  0.31532136  0.15930567  0.07100910  1
  Br  Br22  1  0.57913208  0.29361845  0.88579440  1
  Br  Br23  1  0.68467864  0.84069433  0.92899090  1
  Br  Br24  1  0.39201391  0.38812994  0.69019039  1
  Br  Br25  1  0.60798609  0.11187006  0.19019039  1
  Br  Br26  1  0.60798609  0.61187006  0.30980961  1
  Br  Br27  1  0.81048916  0.15623069  0.77269593  1
  Ag  Ag28  1  0.08148839  0.91394689  0.71253297  1
  Ag  Ag29  1  0.91851161  0.58605311  0.21253297  1
  Ag  Ag30  1  0.91851161  0.08605311  0.28746703  1
  Ag  Ag31  1  0.08148839  0.41394689  0.78746703  1
  W  W32  1  0.35418549  0.02466152  0.94036380  1
  W  W33  1  0.59325896  0.70179853  0.46206376  1
  W  W34  1  0.59325896  0.20179853  0.03793624  1
  W  W35  1  0.40674104  0.29820147  0.53793624  1
  W  W36  1  0.40674104  0.79820147  0.96206376  1
  W  W37  1  0.64581451  0.47533848  0.44036380  1
  W  W38  1  0.64581451  0.97533848  0.05963620  1
  W  W39  1  0.35418549  0.52466152  0.55963620  1
  W  W40  1  0.63203670  0.06698582  0.90719622  1
  W  W41  1  0.36796330  0.43301418  0.40719622  1
  W  W42  1  0.36796330  0.93301418  0.09280378  1
  W  W43  1  0.63203670  0.56698582  0.59280378  1
