# generated using pymatgen
data_Hg4P2O7
_symmetry_space_group_name_H-M   'P 1'
_cell_length_a   5.03841902
_cell_length_b   9.48692968
_cell_length_c   9.67860810
_cell_angle_alpha   99.11139633
_cell_angle_beta   90.00000000
_cell_angle_gamma   90.00000000
_symmetry_Int_Tables_number   1
_chemical_formula_structural   Hg4P2O7
_chemical_formula_sum   'Hg8 P4 O14'
_cell_volume   456.79171642
_cell_formula_units_Z   2
loop_
 _symmetry_equiv_pos_site_id
 _symmetry_equiv_pos_as_xyz
  1  'x, y, z'
loop_
 _atom_site_type_symbol
 _atom_site_label
 _atom_site_symmetry_multiplicity
 _atom_site_fract_x
 _atom_site_fract_y
 _atom_site_fract_z
 _atom_site_occupancy
  O  O0  1  0.65882051  0.08795449  0.92168105  1
  O  O1  1  0.65882051  0.41204551  0.57831895  1
  O  O2  1  0.34117949  0.91204551  0.07831895  1
  O  O3  1  0.34117949  0.58795449  0.42168105  1
  O  O4  1  0.76765447  0.25000000  0.75000000  1
  O  O5  1  0.23234553  0.75000000  0.25000000  1
  O  O6  1  0.07538661  0.25114661  0.54145820  1
  O  O7  1  0.07538661  0.24885339  0.95854180  1
  O  O8  1  0.92461339  0.74885339  0.45854180  1
  O  O9  1  0.92461339  0.75114661  0.04145820  1
  O  O10  1  0.04488765  0.47552094  0.73393717  1
  O  O11  1  0.04488765  0.02447906  0.76606283  1
  O  O12  1  0.95511235  0.97552094  0.23393717  1
  O  O13  1  0.95511235  0.52447906  0.26606283  1
  P  P14  1  0.90212182  0.34919053  0.64405505  1
  P  P15  1  0.90212182  0.15080947  0.85594495  1
  P  P16  1  0.09787818  0.65080947  0.35594495  1
  P  P17  1  0.09787818  0.84919053  0.14405505  1
  Hg  Hg18  1  0.56007027  0.82082341  0.87710927  1
  Hg  Hg19  1  0.56007027  0.67917659  0.62289073  1
  Hg  Hg20  1  0.43992973  0.17917659  0.12289073  1
  Hg  Hg21  1  0.43992973  0.32082341  0.37710927  1
  Hg  Hg22  1  0.32377139  0.02257072  0.59793913  1
  Hg  Hg23  1  0.32377139  0.47742928  0.90206087  1
  Hg  Hg24  1  0.67622861  0.97742928  0.40206087  1
  Hg  Hg25  1  0.67622861  0.52257072  0.09793913  1
