# generated using pymatgen
data_Pr3Sb5O12
_symmetry_space_group_name_H-M   'P 1'
_cell_length_a   9.70559924
_cell_length_b   9.70559924
_cell_length_c   9.70559924
_cell_angle_alpha   109.47122066
_cell_angle_beta   109.47122065
_cell_angle_gamma   109.47122063
_symmetry_Int_Tables_number   1
_chemical_formula_structural   Pr3Sb5O12
_chemical_formula_sum   'Pr6 Sb10 O24'
_cell_volume   703.79337267
_cell_formula_units_Z   2
loop_
 _symmetry_equiv_pos_site_id
 _symmetry_equiv_pos_as_xyz
  1  'x, y, z'
loop_
 _atom_site_type_symbol
 _atom_site_label
 _atom_site_symmetry_multiplicity
 _atom_site_fract_x
 _atom_site_fract_y
 _atom_site_fract_z
 _atom_site_occupancy
  O  O0  1  0.19659397  0.19659397  0.72549797  1
  O  O1  1  0.47109600  0.27450203  0.47109600  1
  O  O2  1  0.27450203  0.47109600  0.47109600  1
  O  O3  1  0.00000000  0.52890400  0.80340603  1
  O  O4  1  0.52890400  0.00000000  0.80340603  1
  O  O5  1  0.80340603  0.00000000  0.52890400  1
  O  O6  1  0.19659397  0.72549797  0.19659397  1
  O  O7  1  0.72549797  0.19659397  0.19659397  1
  O  O8  1  0.00000000  0.80340603  0.52890400  1
  O  O9  1  0.80340603  0.52890400  0.00000000  1
  O  O10  1  0.52890400  0.80340603  0.00000000  1
  O  O11  1  0.47109600  0.47109600  0.27450203  1
  O  O12  1  0.19709429  0.70803088  0.70803088  1
  O  O13  1  0.51093659  0.51093659  0.80290571  1
  O  O14  1  0.51093659  0.80290571  0.51093659  1
  O  O15  1  0.29196912  0.00000000  0.48906341  1
  O  O16  1  0.80290571  0.51093659  0.51093659  1
  O  O17  1  0.48906341  0.00000000  0.29196912  1
  O  O18  1  0.70803088  0.19709429  0.70803088  1
  O  O19  1  0.70803088  0.70803088  0.19709429  1
  O  O20  1  0.48906341  0.29196912  0.00000000  1
  O  O21  1  0.00000000  0.48906341  0.29196912  1
  O  O22  1  0.00000000  0.29196912  0.48906341  1
  O  O23  1  0.29196912  0.48906341  0.00000000  1
  Sb  Sb24  1  0.00000000  0.00000000  0.49596043  1
  Sb  Sb25  1  0.00000000  0.49596043  0.00000000  1
  Sb  Sb26  1  0.49596043  0.00000000  0.00000000  1
  Sb  Sb27  1  0.50403957  0.50403957  0.50403957  1
  Sb  Sb28  1  0.71884045  0.00000000  0.71884045  1
  Sb  Sb29  1  0.28115955  0.00000000  0.28115955  1
  Sb  Sb30  1  0.00000000  0.28115955  0.28115955  1
  Sb  Sb31  1  0.00000000  0.71884045  0.71884045  1
  Sb  Sb32  1  0.71884045  0.71884045  0.00000000  1
  Sb  Sb33  1  0.28115955  0.28115955  0.00000000  1
  Pr  Pr34  1  0.50000000  0.75000000  0.25000000  1
  Pr  Pr35  1  0.25000000  0.75000000  0.50000000  1
  Pr  Pr36  1  0.75000000  0.25000000  0.50000000  1
  Pr  Pr37  1  0.25000000  0.50000000  0.75000000  1
  Pr  Pr38  1  0.75000000  0.50000000  0.25000000  1
  Pr  Pr39  1  0.50000000  0.25000000  0.75000000  1
