# generated using pymatgen
data_Zn4(MoO4)3
_symmetry_space_group_name_H-M   'P 1'
_cell_length_a   5.25305405
_cell_length_b   10.88097230
_cell_length_c   17.47194463
_cell_angle_alpha   90.00000000
_cell_angle_beta   90.00000000
_cell_angle_gamma   90.00000000
_symmetry_Int_Tables_number   1
_chemical_formula_structural   Zn4(MoO4)3
_chemical_formula_sum   'Zn16 Mo12 O48'
_cell_volume   998.66727489
_cell_formula_units_Z   4
loop_
 _symmetry_equiv_pos_site_id
 _symmetry_equiv_pos_as_xyz
  1  'x, y, z'
loop_
 _atom_site_type_symbol
 _atom_site_label
 _atom_site_symmetry_multiplicity
 _atom_site_fract_x
 _atom_site_fract_y
 _atom_site_fract_z
 _atom_site_occupancy
  Zn  Zn0  1  0.24453549  0.25000000  0.69874151  1
  Zn  Zn1  1  0.75546451  0.75000000  0.30125849  1
  Zn  Zn2  1  0.25546451  0.75000000  0.19874151  1
  Zn  Zn3  1  0.74453549  0.25000000  0.80125849  1
  Zn  Zn4  1  0.22864086  0.07499286  0.52801249  1
  Zn  Zn5  1  0.77135914  0.92500714  0.47198751  1
  Zn  Zn6  1  0.27135914  0.92500714  0.02801249  1
  Zn  Zn7  1  0.77135914  0.57499286  0.47198751  1
  Zn  Zn8  1  0.72864086  0.07499286  0.97198751  1
  Zn  Zn9  1  0.22864086  0.42500714  0.52801249  1
  Zn  Zn10  1  0.72864086  0.42500714  0.97198751  1
  Zn  Zn11  1  0.27135914  0.57499286  0.02801249  1
  Zn  Zn12  1  0.09449525  0.25000000  0.25049150  1
  Zn  Zn13  1  0.90550475  0.75000000  0.74950850  1
  Zn  Zn14  1  0.40550475  0.75000000  0.75049150  1
  Zn  Zn15  1  0.59449525  0.25000000  0.24950850  1
  Mo  Mo16  1  0.27210626  0.25000000  0.05529924  1
  Mo  Mo17  1  0.72789374  0.75000000  0.94470076  1
  Mo  Mo18  1  0.22789374  0.75000000  0.55529924  1
  Mo  Mo19  1  0.77210626  0.25000000  0.44470076  1
  Mo  Mo20  1  0.30216824  0.53135996  0.33753900  1
  Mo  Mo21  1  0.69783176  0.46864004  0.66246100  1
  Mo  Mo22  1  0.19783176  0.46864004  0.83753900  1
  Mo  Mo23  1  0.69783176  0.03135996  0.66246100  1
  Mo  Mo24  1  0.80216824  0.53135996  0.16246100  1
  Mo  Mo25  1  0.30216824  0.96864004  0.33753900  1
  Mo  Mo26  1  0.80216824  0.96864004  0.16246100  1
  Mo  Mo27  1  0.19783176  0.03135996  0.83753900  1
  O  O28  1  0.09742281  0.00377254  0.42553997  1
  O  O29  1  0.90257719  0.99622746  0.57446003  1
  O  O30  1  0.40257719  0.99622746  0.92553997  1
  O  O31  1  0.90257719  0.50377254  0.57446003  1
  O  O32  1  0.59742281  0.00377254  0.07446003  1
  O  O33  1  0.09742281  0.49622746  0.42553997  1
  O  O34  1  0.59742281  0.49622746  0.07446003  1
  O  O35  1  0.40257719  0.50377254  0.92553997  1
  O  O36  1  0.06330553  0.62630114  0.27917049  1
  O  O37  1  0.93669447  0.37369886  0.72082951  1
  O  O38  1  0.43669447  0.37369886  0.77917049  1
  O  O39  1  0.93669447  0.12630114  0.72082951  1
  O  O40  1  0.56330553  0.62630114  0.22082951  1
  O  O41  1  0.06330553  0.87369886  0.27917049  1
  O  O42  1  0.56330553  0.87369886  0.22082951  1
  O  O43  1  0.43669447  0.12630114  0.77917049  1
  O  O44  1  0.07968318  0.11676751  0.03804547  1
  O  O45  1  0.92031682  0.88323249  0.96195453  1
  O  O46  1  0.42031682  0.88323249  0.53804547  1
  O  O47  1  0.92031682  0.61676751  0.96195453  1
  O  O48  1  0.57968318  0.11676751  0.46195453  1
  O  O49  1  0.07968318  0.38323249  0.03804547  1
  O  O50  1  0.57968318  0.38323249  0.46195453  1
  O  O51  1  0.42031682  0.61676751  0.53804547  1
  O  O52  1  0.34990513  0.25000000  0.15530045  1
  O  O53  1  0.65009487  0.75000000  0.84469955  1
  O  O54  1  0.15009487  0.75000000  0.65530045  1
  O  O55  1  0.84990513  0.25000000  0.34469955  1
  O  O56  1  0.34148645  0.12048135  0.29209042  1
  O  O57  1  0.65851355  0.87951865  0.70790958  1
  O  O58  1  0.15851355  0.87951865  0.79209042  1
  O  O59  1  0.65851355  0.62048135  0.70790958  1
  O  O60  1  0.84148645  0.12048135  0.20790958  1
  O  O61  1  0.34148645  0.37951865  0.29209042  1
  O  O62  1  0.84148645  0.37951865  0.20790958  1
  O  O63  1  0.15851355  0.62048135  0.79209042  1
  O  O64  1  0.05502534  0.25000000  0.50552072  1
  O  O65  1  0.94497466  0.75000000  0.49447928  1
  O  O66  1  0.44497466  0.75000000  0.00552072  1
  O  O67  1  0.55502534  0.25000000  0.99447928  1
  O  O68  1  0.06862675  0.62333974  0.12092469  1
  O  O69  1  0.93137325  0.37666026  0.87907531  1
  O  O70  1  0.43137325  0.37666026  0.62092469  1
  O  O71  1  0.93137325  0.12333974  0.87907531  1
  O  O72  1  0.56862675  0.62333974  0.37907531  1
  O  O73  1  0.06862675  0.87666026  0.12092469  1
  O  O74  1  0.56862675  0.87666026  0.37907531  1
  O  O75  1  0.43137325  0.12333974  0.62092469  1
