# generated using pymatgen
data_Rb6Sn2S7
_symmetry_space_group_name_H-M   'P 1'
_cell_length_a   10.13666230
_cell_length_b   13.71384867
_cell_length_c   15.15346431
_cell_angle_alpha   90.00000000
_cell_angle_beta   90.00000000
_cell_angle_gamma   90.00000000
_symmetry_Int_Tables_number   1
_chemical_formula_structural   Rb6Sn2S7
_chemical_formula_sum   'Rb24 Sn8 S28'
_cell_volume   2106.52327286
_cell_formula_units_Z   4
loop_
 _symmetry_equiv_pos_site_id
 _symmetry_equiv_pos_as_xyz
  1  'x, y, z'
loop_
 _atom_site_type_symbol
 _atom_site_label
 _atom_site_symmetry_multiplicity
 _atom_site_fract_x
 _atom_site_fract_y
 _atom_site_fract_z
 _atom_site_occupancy
  S  S0  1  0.61886683  0.22979041  0.93671284  1
  S  S1  1  0.11886683  0.27020959  0.06328716  1
  S  S2  1  0.38113317  0.72979041  0.56328716  1
  S  S3  1  0.88113317  0.77020959  0.43671284  1
  S  S4  1  0.59703455  0.32847955  0.50772667  1
  S  S5  1  0.09703455  0.17152045  0.49227333  1
  S  S6  1  0.40296545  0.82847955  0.99227333  1
  S  S7  1  0.90296545  0.67152045  0.00772667  1
  S  S8  1  0.70651960  0.30411085  0.25736805  1
  S  S9  1  0.20651960  0.19588915  0.74263195  1
  S  S10  1  0.29348040  0.80411085  0.24263195  1
  S  S11  1  0.79348040  0.69588915  0.75736805  1
  S  S12  1  0.84816188  0.10386238  0.67722797  1
  S  S13  1  0.34816188  0.39613762  0.32277203  1
  S  S14  1  0.15183812  0.60386238  0.82277203  1
  S  S15  1  0.65183812  0.89613762  0.17722797  1
  S  S16  1  0.97616924  0.49698003  0.48702986  1
  S  S17  1  0.47616924  0.00301997  0.51297014  1
  S  S18  1  0.02383076  0.99698003  0.01297014  1
  S  S19  1  0.52383076  0.50301997  0.98702986  1
  S  S20  1  0.52890106  0.41124583  0.73828974  1
  S  S21  1  0.02890106  0.08875417  0.26171026  1
  S  S22  1  0.47109894  0.91124583  0.76171026  1
  S  S23  1  0.97109894  0.58875417  0.23828974  1
  S  S24  1  0.86853306  0.42735198  0.86261375  1
  S  S25  1  0.63146694  0.57264802  0.36261375  1
  S  S26  1  0.13146694  0.92735198  0.63738625  1
  S  S27  1  0.36853306  0.07264802  0.13738625  1
  Rb  Rb28  1  0.93745683  0.18047654  0.88103204  1
  Rb  Rb29  1  0.97066687  0.83906041  0.18979455  1
  Rb  Rb30  1  0.47066687  0.66093959  0.81020545  1
  Rb  Rb31  1  0.02933313  0.33906041  0.31020545  1
  Rb  Rb32  1  0.52933313  0.16093959  0.68979455  1
  Rb  Rb33  1  0.71977649  0.86092314  0.93900423  1
  Rb  Rb34  1  0.21977649  0.63907686  0.06099577  1
  Rb  Rb35  1  0.28022351  0.36092314  0.56099577  1
  Rb  Rb36  1  0.85774496  0.43013525  0.08530001  1
  Rb  Rb37  1  0.35774496  0.06986475  0.91469999  1
  Rb  Rb38  1  0.14225504  0.93013525  0.41469999  1
  Rb  Rb39  1  0.64225504  0.56986475  0.58530001  1
  Rb  Rb40  1  0.85539322  0.34798380  0.64356291  1
  Rb  Rb41  1  0.35539322  0.15201620  0.35643709  1
  Rb  Rb42  1  0.14460678  0.84798380  0.85643709  1
  Rb  Rb43  1  0.64460678  0.65201620  0.14356291  1
  Rb  Rb44  1  0.78022351  0.13907686  0.43900423  1
  Rb  Rb45  1  0.75020328  0.88413811  0.62799121  1
  Rb  Rb46  1  0.06254317  0.68047654  0.61896796  1
  Rb  Rb47  1  0.56254317  0.81952346  0.38103204  1
  Rb  Rb48  1  0.74979672  0.11586189  0.12799121  1
  Rb  Rb49  1  0.24979672  0.38413811  0.87200879  1
  Rb  Rb50  1  0.25020328  0.61586189  0.37200879  1
  Rb  Rb51  1  0.43745683  0.31952346  0.11896796  1
  Sn  Sn52  1  0.87591567  0.60549289  0.38138936  1
  Sn  Sn53  1  0.92244639  0.60667718  0.86209662  1
  Sn  Sn54  1  0.42244639  0.89332282  0.13790338  1
  Sn  Sn55  1  0.07755361  0.10667718  0.63790338  1
  Sn  Sn56  1  0.57755361  0.39332282  0.36209662  1
  Sn  Sn57  1  0.62408433  0.39450711  0.88138936  1
  Sn  Sn58  1  0.12408433  0.10549289  0.11861064  1
  Sn  Sn59  1  0.37591567  0.89450711  0.61861064  1
