# generated using pymatgen
data_Li21Si5
_symmetry_space_group_name_H-M   'P 1'
_cell_length_a   13.10445295
_cell_length_b   13.10445295
_cell_length_c   13.10445295
_cell_angle_alpha   60.00000002
_cell_angle_beta   60.00000002
_cell_angle_gamma   60.00000001
_symmetry_Int_Tables_number   1
_chemical_formula_structural   Li21Si5
_chemical_formula_sum   'Li84 Si20'
_cell_volume   1591.26199344
_cell_formula_units_Z   4
loop_
 _symmetry_equiv_pos_site_id
 _symmetry_equiv_pos_as_xyz
  1  'x, y, z'
loop_
 _atom_site_type_symbol
 _atom_site_label
 _atom_site_symmetry_multiplicity
 _atom_site_fract_x
 _atom_site_fract_y
 _atom_site_fract_z
 _atom_site_occupancy
  Li  Li0  1  0.75659331  0.75659331  0.06535096  1
  Li  Li1  1  0.75659331  0.06535096  0.42146242  1
  Li  Li2  1  0.06535096  0.75659331  0.42146242  1
  Li  Li3  1  0.75659331  0.42146242  0.75659331  1
  Li  Li4  1  0.42146242  0.75659331  0.75659331  1
  Li  Li5  1  0.06535096  0.42146242  0.75659331  1
  Li  Li6  1  0.42146242  0.06535096  0.75659331  1
  Li  Li7  1  0.42146242  0.75659331  0.06535096  1
  Li  Li8  1  0.75659331  0.06535096  0.75659331  1
  Li  Li9  1  0.06535096  0.75659331  0.75659331  1
  Li  Li10  1  0.75659331  0.42146242  0.06535096  1
  Li  Li11  1  0.75659331  0.75659331  0.42146242  1
  Li  Li12  1  0.26995346  0.26995346  0.53968704  1
  Li  Li13  1  0.26995346  0.53968704  0.92040605  1
  Li  Li14  1  0.53968704  0.26995346  0.92040605  1
  Li  Li15  1  0.26995346  0.92040605  0.26995346  1
  Li  Li16  1  0.92040605  0.26995346  0.26995346  1
  Li  Li17  1  0.53968704  0.92040605  0.26995346  1
  Li  Li18  1  0.92040605  0.53968704  0.26995346  1
  Li  Li19  1  0.92040605  0.26995346  0.53968704  1
  Li  Li20  1  0.05278027  0.05278027  0.05278027  1
  Li  Li21  1  0.05278027  0.05278027  0.84165919  1
  Li  Li22  1  0.84165919  0.05278027  0.05278027  1
  Li  Li23  1  0.05278027  0.84165919  0.05278027  1
  Li  Li24  1  0.16843335  0.16843335  0.16843335  1
  Li  Li25  1  0.16843335  0.16843335  0.49469996  1
  Li  Li26  1  0.49469996  0.16843335  0.16843335  1
  Li  Li27  1  0.16843335  0.49469996  0.16843335  1
  Li  Li28  1  0.30699980  0.30699980  0.30699980  1
  Li  Li29  1  0.30699980  0.30699980  0.07900060  1
  Li  Li30  1  0.07900060  0.30699980  0.30699980  1
  Li  Li31  1  0.30699980  0.07900060  0.30699980  1
  Li  Li32  1  0.43623889  0.43623889  0.43623889  1
  Li  Li33  1  0.43623889  0.43623889  0.69128333  1
  Li  Li34  1  0.69128333  0.43623889  0.43623889  1
  Li  Li35  1  0.43623889  0.69128333  0.43623889  1
  Li  Li36  1  0.58011101  0.58011101  0.58011101  1
  Li  Li37  1  0.58011101  0.58011101  0.25966698  1
  Li  Li38  1  0.25966698  0.58011101  0.58011101  1
  Li  Li39  1  0.58011101  0.25966698  0.58011101  1
  Li  Li40  1  0.80608445  0.80608445  0.80608445  1
  Li  Li41  1  0.80608445  0.80608445  0.58174665  1
  Li  Li42  1  0.58174665  0.80608445  0.80608445  1
  Li  Li43  1  0.80608445  0.58174665  0.80608445  1
  Li  Li44  1  0.82467544  0.17532456  0.17532456  1
  Li  Li45  1  0.17532456  0.17532456  0.82467544  1
  Li  Li46  1  0.82467544  0.82467544  0.17532456  1
  Li  Li47  1  0.17532456  0.82467544  0.82467544  1
  Li  Li48  1  0.17532456  0.82467544  0.17532456  1
  Li  Li49  1  0.82467544  0.17532456  0.82467544  1
  Li  Li50  1  0.92275967  0.57724033  0.57724033  1
  Li  Li51  1  0.57724033  0.57724033  0.92275967  1
  Li  Li52  1  0.92275967  0.92275967  0.57724033  1
  Li  Li53  1  0.57724033  0.92275967  0.92275967  1
  Li  Li54  1  0.57724033  0.92275967  0.57724033  1
  Li  Li55  1  0.92275967  0.57724033  0.92275967  1
  Li  Li56  1  0.01275116  0.01275116  0.66917310  1
  Li  Li57  1  0.01275116  0.66917310  0.30532458  1
  Li  Li58  1  0.30532458  0.01275116  0.01275116  1
  Li  Li59  1  0.01275116  0.30532458  0.01275116  1
  Li  Li60  1  0.66917310  0.01275116  0.30532458  1
  Li  Li61  1  0.66917310  0.30532458  0.01275116  1
  Li  Li62  1  0.30532458  0.66917310  0.01275116  1
  Li  Li63  1  0.66917310  0.01275116  0.01275116  1
  Li  Li64  1  0.01275116  0.66917310  0.01275116  1
  Li  Li65  1  0.30532458  0.01275116  0.66917310  1
  Li  Li66  1  0.01275116  0.30532458  0.66917310  1
  Li  Li67  1  0.01275116  0.01275116  0.30532458  1
  Li  Li68  1  0.51122405  0.51122405  0.80776726  1
  Li  Li69  1  0.51122405  0.80776726  0.16978463  1
  Li  Li70  1  0.16978463  0.51122405  0.51122405  1
  Li  Li71  1  0.51122405  0.16978463  0.51122405  1
  Li  Li72  1  0.80776726  0.51122405  0.16978463  1
  Li  Li73  1  0.80776726  0.16978463  0.51122405  1
  Li  Li74  1  0.16978463  0.80776726  0.51122405  1
  Li  Li75  1  0.80776726  0.51122405  0.51122405  1
  Li  Li76  1  0.51122405  0.80776726  0.51122405  1
  Li  Li77  1  0.16978463  0.51122405  0.80776726  1
  Li  Li78  1  0.51122405  0.16978463  0.80776726  1
  Li  Li79  1  0.51122405  0.51122405  0.16978463  1
  Li  Li80  1  0.26995346  0.26995346  0.92040605  1
  Li  Li81  1  0.26995346  0.92040605  0.53968704  1
  Li  Li82  1  0.53968704  0.26995346  0.26995346  1
  Li  Li83  1  0.26995346  0.53968704  0.26995346  1
  Si  Si84  1  0.42809195  0.07190805  0.42809195  1
  Si  Si85  1  0.07190805  0.42809195  0.07190805  1
  Si  Si86  1  0.07190805  0.42809195  0.42809195  1
  Si  Si87  1  0.42809195  0.42809195  0.07190805  1
  Si  Si88  1  0.07190805  0.07190805  0.42809195  1
  Si  Si89  1  0.42809195  0.07190805  0.07190805  1
  Si  Si90  1  0.67981468  0.32018532  0.67981468  1
  Si  Si91  1  0.32018532  0.67981468  0.32018532  1
  Si  Si92  1  0.32018532  0.67981468  0.67981468  1
  Si  Si93  1  0.67981468  0.67981468  0.32018532  1
  Si  Si94  1  0.32018532  0.32018532  0.67981468  1
  Si  Si95  1  0.67981468  0.32018532  0.32018532  1
  Si  Si96  1  0.66490384  0.00528848  0.66490384  1
  Si  Si97  1  0.00528848  0.66490384  0.66490384  1
  Si  Si98  1  0.66490384  0.66490384  0.00528848  1
  Si  Si99  1  0.66490384  0.66490384  0.66490384  1
  Si  Si100  1  0.91016597  0.26950209  0.91016597  1
  Si  Si101  1  0.26950209  0.91016597  0.91016597  1
  Si  Si102  1  0.91016597  0.91016597  0.26950209  1
  Si  Si103  1  0.91016597  0.91016597  0.91016597  1
