# generated using pymatgen
data_Na5SnSb3
_symmetry_space_group_name_H-M   'P 1'
_cell_length_a   9.29013640
_cell_length_b   12.57594266
_cell_length_c   18.71360202
_cell_angle_alpha   98.20354268
_cell_angle_beta   90.00000000
_cell_angle_gamma   90.00000000
_symmetry_Int_Tables_number   1
_chemical_formula_structural   Na5SnSb3
_chemical_formula_sum   'Na40 Sn8 Sb24'
_cell_volume   2163.97967755
_cell_formula_units_Z   8
loop_
 _symmetry_equiv_pos_site_id
 _symmetry_equiv_pos_as_xyz
  1  'x, y, z'
loop_
 _atom_site_type_symbol
 _atom_site_label
 _atom_site_symmetry_multiplicity
 _atom_site_fract_x
 _atom_site_fract_y
 _atom_site_fract_z
 _atom_site_occupancy
  Na  Na0  1  0.07146089  0.86381775  0.00553601  1
  Na  Na1  1  0.57146089  0.63618225  0.99446399  1
  Na  Na2  1  0.92853911  0.13618225  0.99446399  1
  Na  Na3  1  0.42853911  0.36381775  0.00553601  1
  Na  Na4  1  0.06872069  0.51209436  0.34796846  1
  Na  Na5  1  0.56872069  0.98790564  0.65203154  1
  Na  Na6  1  0.93127931  0.48790564  0.65203154  1
  Na  Na7  1  0.43127931  0.01209436  0.34796846  1
  Na  Na8  1  0.82452168  0.05649483  0.30008147  1
  Na  Na9  1  0.32452168  0.44350517  0.69991853  1
  Na  Na10  1  0.17547832  0.94350517  0.69991853  1
  Na  Na11  1  0.67547832  0.55649483  0.30008147  1
  Na  Na12  1  0.07089742  0.17405928  0.18114087  1
  Na  Na13  1  0.57089742  0.32594072  0.81885913  1
  Na  Na14  1  0.92910258  0.82594072  0.81885913  1
  Na  Na15  1  0.42910258  0.67405928  0.18114087  1
  Na  Na16  1  0.06236036  0.87289826  0.51499235  1
  Na  Na17  1  0.56236036  0.62710174  0.48500765  1
  Na  Na18  1  0.93763964  0.12710174  0.48500765  1
  Na  Na19  1  0.43763964  0.37289826  0.51499235  1
  Na  Na20  1  0.81747109  0.72347267  0.12845637  1
  Na  Na21  1  0.31747109  0.77652733  0.87154363  1
  Na  Na22  1  0.18252891  0.27652733  0.87154363  1
  Na  Na23  1  0.68252891  0.22347267  0.12845637  1
  Na  Na24  1  0.15347267  0.90187652  0.19548362  1
  Na  Na25  1  0.65347267  0.59812348  0.80451638  1
  Na  Na26  1  0.84652733  0.09812348  0.80451638  1
  Na  Na27  1  0.34652733  0.40187652  0.19548362  1
  Na  Na28  1  0.15978761  0.58184986  0.02714622  1
  Na  Na29  1  0.65978761  0.91815014  0.97285378  1
  Na  Na30  1  0.84021239  0.41815014  0.97285378  1
  Na  Na31  1  0.34021239  0.08184986  0.02714622  1
  Na  Na32  1  0.18107722  0.59452388  0.53341933  1
  Na  Na33  1  0.68107722  0.90547612  0.46658067  1
  Na  Na34  1  0.81892278  0.40547612  0.46658067  1
  Na  Na35  1  0.31892278  0.09452388  0.53341933  1
  Na  Na36  1  0.18762916  0.24438038  0.37230751  1
  Na  Na37  1  0.68762916  0.25561962  0.62769249  1
  Na  Na38  1  0.81237084  0.75561962  0.62769249  1
  Na  Na39  1  0.31237084  0.74438038  0.37230751  1
  Sn  Sn40  1  0.93120077  0.77908061  0.33072830  1
  Sn  Sn41  1  0.43120077  0.72091939  0.66927170  1
  Sn  Sn42  1  0.06879923  0.22091939  0.66927170  1
  Sn  Sn43  1  0.56879923  0.27908061  0.33072830  1
  Sn  Sn44  1  0.58258743  0.94589353  0.17255575  1
  Sn  Sn45  1  0.08258743  0.55410647  0.82744425  1
  Sn  Sn46  1  0.41741257  0.05410647  0.82744425  1
  Sn  Sn47  1  0.91741257  0.44589353  0.17255575  1
  Sb  Sb48  1  0.62932355  0.81817888  0.29338152  1
  Sb  Sb49  1  0.12932355  0.68182112  0.70661848  1
  Sb  Sb50  1  0.37067645  0.18182112  0.70661848  1
  Sb  Sb51  1  0.87067645  0.31817888  0.29338152  1
  Sb  Sb52  1  0.10910678  0.96569362  0.36608723  1
  Sb  Sb53  1  0.60910678  0.53430638  0.63391277  1
  Sb  Sb54  1  0.89089322  0.03430638  0.63391277  1
  Sb  Sb55  1  0.39089322  0.46569362  0.36608723  1
  Sb  Sb56  1  0.86133514  0.98625726  0.11771587  1
  Sb  Sb57  1  0.36133514  0.51374274  0.88228413  1
  Sb  Sb58  1  0.13866486  0.01374274  0.88228413  1
  Sb  Sb59  1  0.63866486  0.48625726  0.11771587  1
  Sb  Sb60  1  0.08305875  0.64373703  0.21460540  1
  Sb  Sb61  1  0.58305875  0.85626297  0.78539460  1
  Sb  Sb62  1  0.91694125  0.35626297  0.78539460  1
  Sb  Sb63  1  0.41694125  0.14373703  0.21460540  1
  Sb  Sb64  1  0.39316305  0.83714066  0.06628950  1
  Sb  Sb65  1  0.89316305  0.66285934  0.93371050  1
  Sb  Sb66  1  0.60683695  0.16285934  0.93371050  1
  Sb  Sb67  1  0.10683695  0.33714066  0.06628950  1
  Sb  Sb68  1  0.88090905  0.66975130  0.45384353  1
  Sb  Sb69  1  0.38090905  0.83024870  0.54615647  1
  Sb  Sb70  1  0.11909095  0.33024870  0.54615647  1
  Sb  Sb71  1  0.61909095  0.16975130  0.45384353  1
