# generated using pymatgen
data_TaTeBr9
_symmetry_space_group_name_H-M   'P 1'
_cell_length_a   7.31639583
_cell_length_b   10.47679152
_cell_length_c   12.50873368
_cell_angle_alpha   90.00000000
_cell_angle_beta   90.00000000
_cell_angle_gamma   103.68515650
_symmetry_Int_Tables_number   1
_chemical_formula_structural   TaTeBr9
_chemical_formula_sum   'Ta2 Te2 Br18'
_cell_volume   931.60329608
_cell_formula_units_Z   2
loop_
 _symmetry_equiv_pos_site_id
 _symmetry_equiv_pos_as_xyz
  1  'x, y, z'
loop_
 _atom_site_type_symbol
 _atom_site_label
 _atom_site_symmetry_multiplicity
 _atom_site_fract_x
 _atom_site_fract_y
 _atom_site_fract_z
 _atom_site_occupancy
  Br  Br0  1  0.55314348  0.30818135  0.60892079  1
  Br  Br1  1  0.44685652  0.69181865  0.10892079  1
  Br  Br2  1  0.44685652  0.69181865  0.39107921  1
  Br  Br3  1  0.55314348  0.30818135  0.89107921  1
  Br  Br4  1  0.32005006  0.01488414  0.75000000  1
  Br  Br5  1  0.67994994  0.98511586  0.25000000  1
  Br  Br6  1  0.49020012  0.64948911  0.75000000  1
  Br  Br7  1  0.50979988  0.35051089  0.25000000  1
  Br  Br8  1  0.97490276  0.31789751  0.75000000  1
  Br  Br9  1  0.02509724  0.68210249  0.25000000  1
  Br  Br10  1  0.75474652  0.02627074  0.89595720  1
  Br  Br11  1  0.24525348  0.97372926  0.39595720  1
  Br  Br12  1  0.24525348  0.97372926  0.10404280  1
  Br  Br13  1  0.75474652  0.02627074  0.60404280  1
  Br  Br14  1  0.94638625  0.66241361  0.90238920  1
  Br  Br15  1  0.05361375  0.33758639  0.40238920  1
  Br  Br16  1  0.05361375  0.33758639  0.09761080  1
  Br  Br17  1  0.94638625  0.66241361  0.59761080  1
  Te  Te18  1  0.24204088  0.46865562  0.25000000  1
  Te  Te19  1  0.75795912  0.53134438  0.75000000  1
  Ta  Ta20  1  0.35424596  0.85408785  0.25000000  1
  Ta  Ta21  1  0.64575404  0.14591215  0.75000000  1
