# generated using pymatgen
data_Na2Mn2Se3
_symmetry_space_group_name_H-M   'P 1'
_cell_length_a   7.31363439
_cell_length_b   10.50576810
_cell_length_c   10.50576810
_cell_angle_alpha   83.66232978
_cell_angle_beta   69.86220325
_cell_angle_gamma   69.86220321
_symmetry_Int_Tables_number   1
_chemical_formula_structural   Na2Mn2Se3
_chemical_formula_sum   'Na8 Mn8 Se12'
_cell_volume   711.50640289
_cell_formula_units_Z   4
loop_
 _symmetry_equiv_pos_site_id
 _symmetry_equiv_pos_as_xyz
  1  'x, y, z'
loop_
 _atom_site_type_symbol
 _atom_site_label
 _atom_site_symmetry_multiplicity
 _atom_site_fract_x
 _atom_site_fract_y
 _atom_site_fract_z
 _atom_site_occupancy
  Na  Na0  1  0.36096870  0.18956574  0.01989980  1
  Na  Na1  1  0.13903130  0.98010020  0.81043426  1
  Na  Na2  1  0.63903130  0.81043426  0.98010020  1
  Na  Na3  1  0.86096870  0.01989980  0.18956574  1
  Na  Na4  1  0.25000000  0.27908236  0.72091764  1
  Na  Na5  1  0.75000000  0.72091764  0.27908236  1
  Na  Na6  1  0.25000000  0.56988300  0.43011700  1
  Na  Na7  1  0.75000000  0.43011700  0.56988300  1
  Mn  Mn8  1  0.24194440  0.91939249  0.44669873  1
  Mn  Mn9  1  0.25805560  0.55330127  0.08060751  1
  Mn  Mn10  1  0.75805560  0.08060751  0.55330127  1
  Mn  Mn11  1  0.74194440  0.44669873  0.91939249  1
  Mn  Mn12  1  0.70361298  0.78631253  0.63408331  1
  Mn  Mn13  1  0.79638702  0.36591669  0.21368747  1
  Mn  Mn14  1  0.29638702  0.21368747  0.36591669  1
  Mn  Mn15  1  0.20361298  0.63408331  0.78631253  1
  Se  Se16  1  0.45260862  0.99752367  0.22718758  1
  Se  Se17  1  0.04739138  0.77281242  0.00247633  1
  Se  Se18  1  0.54739138  0.00247633  0.77281242  1
  Se  Se19  1  0.95260862  0.22718758  0.99752367  1
  Se  Se20  1  0.45026530  0.41583380  0.85343810  1
  Se  Se21  1  0.04973470  0.14656190  0.58416620  1
  Se  Se22  1  0.54973470  0.58416620  0.14656190  1
  Se  Se23  1  0.95026530  0.85343810  0.41583380  1
  Se  Se24  1  0.43355587  0.72184888  0.57121335  1
  Se  Se25  1  0.06644413  0.42878665  0.27815112  1
  Se  Se26  1  0.56644413  0.27815112  0.42878665  1
  Se  Se27  1  0.93355587  0.57121335  0.72184888  1
