# generated using pymatgen
data_NiGePt2
_symmetry_space_group_name_H-M   'P 1'
_cell_length_a   5.37338894
_cell_length_b   5.37338894
_cell_length_c   5.42401171
_cell_angle_alpha   118.19305614
_cell_angle_beta   118.19305607
_cell_angle_gamma   92.64859799
_symmetry_Int_Tables_number   1
_chemical_formula_structural   NiGePt2
_chemical_formula_sum   'Ni2 Ge2 Pt4'
_cell_volume   114.10237363
_cell_formula_units_Z   2
loop_
 _symmetry_equiv_pos_site_id
 _symmetry_equiv_pos_as_xyz
  1  'x, y, z'
loop_
 _atom_site_type_symbol
 _atom_site_label
 _atom_site_symmetry_multiplicity
 _atom_site_fract_x
 _atom_site_fract_y
 _atom_site_fract_z
 _atom_site_occupancy
  Ni  Ni0  1  0.20138240  0.79861760  0.00000000  1
  Ni  Ni1  1  0.79861760  0.20138240  0.00000000  1
  Ge  Ge2  1  0.76735541  0.76735541  0.53471081  1
  Ge  Ge3  1  0.23264459  0.23264459  0.46528919  1
  Pt  Pt4  1  0.69795976  0.69795976  0.00000000  1
  Pt  Pt5  1  0.75000000  0.25000000  0.50000000  1
  Pt  Pt6  1  0.30204024  0.30204024  0.00000000  1
  Pt  Pt7  1  0.25000000  0.75000000  0.50000000  1
