# generated using pymatgen
data_Pt5Se4
_symmetry_space_group_name_H-M   'P 1'
_cell_length_a   4.69871443
_cell_length_b   6.67046474
_cell_length_c   11.27895222
_cell_angle_alpha   101.39663083
_cell_angle_beta   90.00000000
_cell_angle_gamma   90.00000000
_symmetry_Int_Tables_number   1
_chemical_formula_structural   Pt5Se4
_chemical_formula_sum   'Pt10 Se8'
_cell_volume   346.54152417
_cell_formula_units_Z   2
loop_
 _symmetry_equiv_pos_site_id
 _symmetry_equiv_pos_as_xyz
  1  'x, y, z'
loop_
 _atom_site_type_symbol
 _atom_site_label
 _atom_site_symmetry_multiplicity
 _atom_site_fract_x
 _atom_site_fract_y
 _atom_site_fract_z
 _atom_site_occupancy
  Pt  Pt0  1  0.66791487  0.66850007  0.99795654  1
  Pt  Pt1  1  0.16791487  0.33149993  0.50204346  1
  Pt  Pt2  1  0.33208513  0.33149993  0.00204346  1
  Pt  Pt3  1  0.83208513  0.66850007  0.49795654  1
  Pt  Pt4  1  0.33643606  0.77685871  0.82637826  1
  Pt  Pt5  1  0.83643606  0.22314129  0.67362174  1
  Pt  Pt6  1  0.66356394  0.22314129  0.17362174  1
  Pt  Pt7  1  0.16356394  0.77685871  0.32637826  1
  Pt  Pt8  1  0.00000000  0.00000000  0.00000000  1
  Pt  Pt9  1  0.50000000  0.00000000  0.50000000  1
  Se  Se10  1  0.63501751  0.08843561  0.86221401  1
  Se  Se11  1  0.13501751  0.91156439  0.63778599  1
  Se  Se12  1  0.36498249  0.91156439  0.13778599  1
  Se  Se13  1  0.86498249  0.08843561  0.36221401  1
  Se  Se14  1  0.03752881  0.48577941  0.85599653  1
  Se  Se15  1  0.53752881  0.51422059  0.64400347  1
  Se  Se16  1  0.96247119  0.51422059  0.14400347  1
  Se  Se17  1  0.46247119  0.48577941  0.35599653  1
