# generated using pymatgen
data_Sr4PdO6
_symmetry_space_group_name_H-M   'P 1'
_cell_length_a   6.95126619
_cell_length_b   6.95126618
_cell_length_c   6.95126619
_cell_angle_alpha   90.14209061
_cell_angle_beta   90.14209057
_cell_angle_gamma   90.14209062
_symmetry_Int_Tables_number   1
_chemical_formula_structural   Sr4PdO6
_chemical_formula_sum   'Sr8 Pd2 O12'
_cell_volume   335.88278469
_cell_formula_units_Z   2
loop_
 _symmetry_equiv_pos_site_id
 _symmetry_equiv_pos_as_xyz
  1  'x, y, z'
loop_
 _atom_site_type_symbol
 _atom_site_label
 _atom_site_symmetry_multiplicity
 _atom_site_fract_x
 _atom_site_fract_y
 _atom_site_fract_z
 _atom_site_occupancy
  O  O0  1  0.78614437  0.57189931  0.44268489  1
  O  O1  1  0.57189931  0.44268489  0.78614437  1
  O  O2  1  0.44268489  0.78614437  0.57189931  1
  O  O3  1  0.05731511  0.92810069  0.71385563  1
  O  O4  1  0.92810069  0.71385563  0.05731511  1
  O  O5  1  0.71385563  0.05731511  0.92810069  1
  O  O6  1  0.21385563  0.42810069  0.55731511  1
  O  O7  1  0.42810069  0.55731511  0.21385563  1
  O  O8  1  0.55731511  0.21385563  0.42810069  1
  O  O9  1  0.94268489  0.07189931  0.28614437  1
  O  O10  1  0.28614437  0.94268489  0.07189931  1
  O  O11  1  0.07189931  0.28614437  0.94268489  1
  Sr  Sr12  1  0.25000000  0.25000000  0.25000000  1
  Sr  Sr13  1  0.75000000  0.75000000  0.75000000  1
  Sr  Sr14  1  0.12005930  0.75000000  0.37994070  1
  Sr  Sr15  1  0.75000000  0.37994070  0.12005930  1
  Sr  Sr16  1  0.37994070  0.12005930  0.75000000  1
  Sr  Sr17  1  0.87994070  0.25000000  0.62005930  1
  Sr  Sr18  1  0.25000000  0.62005930  0.87994070  1
  Sr  Sr19  1  0.62005930  0.87994070  0.25000000  1
  Pd  Pd20  1  0.00000000  0.00000000  0.00000000  1
  Pd  Pd21  1  0.50000000  0.50000000  0.50000000  1
