# generated using pymatgen
data_RbYbZnSe3
_symmetry_space_group_name_H-M   'P 1'
_cell_length_a   4.11715039
_cell_length_b   8.10731242
_cell_length_c   11.11806678
_cell_angle_alpha   90.00000000
_cell_angle_beta   90.00000000
_cell_angle_gamma   104.70935809
_symmetry_Int_Tables_number   1
_chemical_formula_structural   RbYbZnSe3
_chemical_formula_sum   'Rb2 Yb2 Zn2 Se6'
_cell_volume   358.94756594
_cell_formula_units_Z   2
loop_
 _symmetry_equiv_pos_site_id
 _symmetry_equiv_pos_as_xyz
  1  'x, y, z'
loop_
 _atom_site_type_symbol
 _atom_site_label
 _atom_site_symmetry_multiplicity
 _atom_site_fract_x
 _atom_site_fract_y
 _atom_site_fract_z
 _atom_site_occupancy
  Rb  Rb0  1  0.74365935  0.48731869  0.25000000  1
  Rb  Rb1  1  0.25634065  0.51268131  0.75000000  1
  Yb  Yb2  1  0.00000000  0.00000000  0.00000000  1
  Yb  Yb3  1  0.00000000  0.00000000  0.50000000  1
  Zn  Zn4  1  0.46235207  0.92470414  0.25000000  1
  Zn  Zn5  1  0.53764793  0.07529586  0.75000000  1
  Se  Se6  1  0.37623955  0.75247910  0.06539854  1
  Se  Se7  1  0.62376045  0.24752090  0.93460146  1
  Se  Se8  1  0.62376045  0.24752090  0.56539854  1
  Se  Se9  1  0.37623955  0.75247910  0.43460146  1
  Se  Se10  1  0.05754700  0.11509401  0.25000000  1
  Se  Se11  1  0.94245300  0.88490599  0.75000000  1
