# generated using pymatgen
data_Tl2(CdSb)3
_symmetry_space_group_name_H-M   'P 1'
_cell_length_a   4.98288302
_cell_length_b   9.14388053
_cell_length_c   12.12858416
_cell_angle_alpha   111.12286765
_cell_angle_beta   90.00000000
_cell_angle_gamma   105.81135383
_symmetry_Int_Tables_number   1
_chemical_formula_structural   Tl2(CdSb)3
_chemical_formula_sum   'Tl4 Cd6 Sb6'
_cell_volume   493.00221524
_cell_formula_units_Z   2
loop_
 _symmetry_equiv_pos_site_id
 _symmetry_equiv_pos_as_xyz
  1  'x, y, z'
loop_
 _atom_site_type_symbol
 _atom_site_label
 _atom_site_symmetry_multiplicity
 _atom_site_fract_x
 _atom_site_fract_y
 _atom_site_fract_z
 _atom_site_occupancy
  Cd  Cd0  1  0.60649143  0.21298286  0.07182181  1
  Cd  Cd1  1  0.39350857  0.78701714  0.92817819  1
  Cd  Cd2  1  0.94636904  0.89273808  0.72741865  1
  Cd  Cd3  1  0.05363096  0.10726192  0.27258135  1
  Cd  Cd4  1  0.63296603  0.26593205  0.66003180  1
  Cd  Cd5  1  0.36703397  0.73406795  0.33996820  1
  Sb  Sb6  1  0.80768515  0.61537030  0.81403787  1
  Sb  Sb7  1  0.19231485  0.38462970  0.18596213  1
  Sb  Sb8  1  0.46687163  0.93374326  0.18471139  1
  Sb  Sb9  1  0.53312837  0.06625674  0.81528861  1
  Sb  Sb10  1  0.08691197  0.17382395  0.52789964  1
  Sb  Sb11  1  0.91308803  0.82617605  0.47210036  1
  Tl  Tl12  1  0.68827661  0.37655322  0.38780990  1
  Tl  Tl13  1  0.31172339  0.62344678  0.61219010  1
  Tl  Tl14  1  0.17775707  0.35551414  0.88917460  1
  Tl  Tl15  1  0.82224293  0.64448586  0.11082540  1
