# generated using pymatgen
data_Sr5U3O14
_symmetry_space_group_name_H-M   'P 1'
_cell_length_a   11.21530534
_cell_length_b   11.33356483
_cell_length_c   11.33454113
_cell_angle_alpha   90.00000000
_cell_angle_beta   90.00000000
_cell_angle_gamma   90.00000000
_symmetry_Int_Tables_number   1
_chemical_formula_structural   Sr5U3O14
_chemical_formula_sum   'Sr20 U12 O56'
_cell_volume   1440.72661077
_cell_formula_units_Z   4
loop_
 _symmetry_equiv_pos_site_id
 _symmetry_equiv_pos_as_xyz
  1  'x, y, z'
loop_
 _atom_site_type_symbol
 _atom_site_label
 _atom_site_symmetry_multiplicity
 _atom_site_fract_x
 _atom_site_fract_y
 _atom_site_fract_z
 _atom_site_occupancy
  O  O0  1  0.15960005  0.97500994  0.93298524  1
  O  O1  1  0.65960005  0.52499006  0.06701476  1
  O  O2  1  0.84039995  0.47500994  0.56701476  1
  O  O3  1  0.34039995  0.02499006  0.43298524  1
  O  O4  1  0.84039995  0.02499006  0.06701476  1
  O  O5  1  0.34039995  0.47500994  0.93298524  1
  O  O6  1  0.15960005  0.52499006  0.43298524  1
  O  O7  1  0.65960005  0.97500994  0.56701476  1
  O  O8  1  0.08207551  0.13067746  0.11164791  1
  O  O9  1  0.58207551  0.36932254  0.88835209  1
  O  O10  1  0.91792449  0.63067746  0.38835209  1
  O  O11  1  0.41792449  0.86932254  0.61164791  1
  O  O12  1  0.91792449  0.86932254  0.88835209  1
  O  O13  1  0.41792449  0.63067746  0.11164791  1
  O  O14  1  0.08207551  0.36932254  0.61164791  1
  O  O15  1  0.58207551  0.13067746  0.38835209  1
  O  O16  1  0.06732532  0.62167750  0.62868065  1
  O  O17  1  0.56732532  0.87832250  0.37131935  1
  O  O18  1  0.93267468  0.12167750  0.87131935  1
  O  O19  1  0.43267468  0.37832250  0.12868065  1
  O  O20  1  0.93267468  0.37832250  0.37131935  1
  O  O21  1  0.43267468  0.12167750  0.62868065  1
  O  O22  1  0.06732532  0.87832250  0.12868065  1
  O  O23  1  0.56732532  0.62167750  0.87131935  1
  O  O24  1  0.11246383  0.16786724  0.36284365  1
  O  O25  1  0.61246383  0.33213276  0.63715635  1
  O  O26  1  0.88753617  0.66786724  0.13715635  1
  O  O27  1  0.38753617  0.83213276  0.86284365  1
  O  O28  1  0.88753617  0.83213276  0.63715635  1
  O  O29  1  0.38753617  0.66786724  0.36284365  1
  O  O30  1  0.11246383  0.33213276  0.86284365  1
  O  O31  1  0.61246383  0.16786724  0.13715635  1
  O  O32  1  0.11280743  0.66101218  0.87198532  1
  O  O33  1  0.61280743  0.83898782  0.12801468  1
  O  O34  1  0.88719257  0.16101218  0.62801468  1
  O  O35  1  0.38719257  0.33898782  0.37198532  1
  O  O36  1  0.88719257  0.33898782  0.12801468  1
  O  O37  1  0.38719257  0.16101218  0.87198532  1
  O  O38  1  0.11280743  0.83898782  0.37198532  1
  O  O39  1  0.61280743  0.66101218  0.62801468  1
  O  O40  1  0.87580128  0.14651703  0.32137733  1
  O  O41  1  0.37580128  0.35348297  0.67862267  1
  O  O42  1  0.12419872  0.64651703  0.17862267  1
  O  O43  1  0.62419872  0.85348297  0.82137733  1
  O  O44  1  0.12419872  0.85348297  0.67862267  1
  O  O45  1  0.62419872  0.64651703  0.32137733  1
  O  O46  1  0.87580128  0.35348297  0.82137733  1
  O  O47  1  0.37580128  0.14651703  0.17862267  1
  O  O48  1  0.87506736  0.63616131  0.82777575  1
  O  O49  1  0.37506736  0.86383869  0.17222425  1
  O  O50  1  0.12493264  0.13616131  0.67222425  1
  O  O51  1  0.62493264  0.36383869  0.32777575  1
  O  O52  1  0.12493264  0.36383869  0.17222425  1
  O  O53  1  0.62493264  0.13616131  0.82777575  1
  O  O54  1  0.87506736  0.86383869  0.32777575  1
  O  O55  1  0.37506736  0.63616131  0.67222425  1
  Sr  Sr56  1  0.50000000  0.00000000  0.00000000  1
  Sr  Sr57  1  0.00000000  0.50000000  0.00000000  1
  Sr  Sr58  1  0.50000000  0.50000000  0.50000000  1
  Sr  Sr59  1  0.00000000  0.00000000  0.50000000  1
  Sr  Sr60  1  0.25713461  0.26153679  0.01978406  1
  Sr  Sr61  1  0.75713461  0.23846321  0.98021594  1
  Sr  Sr62  1  0.74286539  0.76153679  0.48021594  1
  Sr  Sr63  1  0.24286539  0.73846321  0.51978406  1
  Sr  Sr64  1  0.74286539  0.73846321  0.98021594  1
  Sr  Sr65  1  0.24286539  0.76153679  0.01978406  1
  Sr  Sr66  1  0.25713461  0.23846321  0.51978406  1
  Sr  Sr67  1  0.75713461  0.26153679  0.48021594  1
  Sr  Sr68  1  0.27607038  0.50419869  0.25065147  1
  Sr  Sr69  1  0.77607038  0.99580131  0.74934853  1
  Sr  Sr70  1  0.72392962  0.00419869  0.24934853  1
  Sr  Sr71  1  0.22392962  0.49580131  0.75065147  1
  Sr  Sr72  1  0.72392962  0.49580131  0.74934853  1
  Sr  Sr73  1  0.22392962  0.00419869  0.25065147  1
  Sr  Sr74  1  0.27607038  0.99580131  0.75065147  1
  Sr  Sr75  1  0.77607038  0.50419869  0.24934853  1
  U  U76  1  0.00000000  0.00000000  0.00000000  1
  U  U77  1  0.50000000  0.50000000  0.00000000  1
  U  U78  1  0.00000000  0.50000000  0.50000000  1
  U  U79  1  0.50000000  0.00000000  0.50000000  1
  U  U80  1  0.00110605  0.25161957  0.24396276  1
  U  U81  1  0.50110605  0.24838043  0.75603724  1
  U  U82  1  0.99889395  0.75161957  0.25603724  1
  U  U83  1  0.49889395  0.74838043  0.74396276  1
  U  U84  1  0.99889395  0.74838043  0.75603724  1
  U  U85  1  0.49889395  0.75161957  0.24396276  1
  U  U86  1  0.00110605  0.24838043  0.74396276  1
  U  U87  1  0.50110605  0.25161957  0.25603724  1
