# generated using pymatgen
data_Sc5(NiTe)2
_symmetry_space_group_name_H-M   'P 1'
_cell_length_a   3.97007149
_cell_length_b   10.66373569
_cell_length_c   17.91435150
_cell_angle_alpha   90.00000000
_cell_angle_beta   90.00000000
_cell_angle_gamma   90.00000000
_symmetry_Int_Tables_number   1
_chemical_formula_structural   Sc5(NiTe)2
_chemical_formula_sum   'Sc20 Ni8 Te8'
_cell_volume   758.41827755
_cell_formula_units_Z   4
loop_
 _symmetry_equiv_pos_site_id
 _symmetry_equiv_pos_as_xyz
  1  'x, y, z'
loop_
 _atom_site_type_symbol
 _atom_site_label
 _atom_site_symmetry_multiplicity
 _atom_site_fract_x
 _atom_site_fract_y
 _atom_site_fract_z
 _atom_site_occupancy
  Sc  Sc0  1  0.25000000  0.17316238  0.48085439  1
  Sc  Sc1  1  0.75000000  0.82683762  0.51914561  1
  Sc  Sc2  1  0.75000000  0.67316238  0.01914561  1
  Sc  Sc3  1  0.25000000  0.32683762  0.98085439  1
  Sc  Sc4  1  0.25000000  0.05961069  0.07320790  1
  Sc  Sc5  1  0.75000000  0.94038931  0.92679210  1
  Sc  Sc6  1  0.75000000  0.55961069  0.42679210  1
  Sc  Sc7  1  0.25000000  0.44038931  0.57320790  1
  Sc  Sc8  1  0.25000000  0.80333242  0.36732534  1
  Sc  Sc9  1  0.75000000  0.19666758  0.63267466  1
  Sc  Sc10  1  0.75000000  0.30333242  0.13267466  1
  Sc  Sc11  1  0.25000000  0.69666758  0.86732534  1
  Sc  Sc12  1  0.25000000  0.02073311  0.77375862  1
  Sc  Sc13  1  0.75000000  0.97926689  0.22624138  1
  Sc  Sc14  1  0.75000000  0.52073311  0.72624138  1
  Sc  Sc15  1  0.25000000  0.47926689  0.27375862  1
  Sc  Sc16  1  0.25000000  0.78251689  0.15140249  1
  Sc  Sc17  1  0.75000000  0.21748311  0.84859751  1
  Sc  Sc18  1  0.75000000  0.28251689  0.34859751  1
  Sc  Sc19  1  0.25000000  0.71748311  0.65140249  1
  Ni  Ni20  1  0.25000000  0.67411963  0.49464518  1
  Ni  Ni21  1  0.75000000  0.32588037  0.50535482  1
  Ni  Ni22  1  0.75000000  0.17411963  0.00535482  1
  Ni  Ni23  1  0.25000000  0.82588037  0.99464518  1
  Ni  Ni24  1  0.25000000  0.39656736  0.41584298  1
  Ni  Ni25  1  0.75000000  0.60343264  0.58415702  1
  Ni  Ni26  1  0.75000000  0.89656736  0.08415702  1
  Ni  Ni27  1  0.25000000  0.10343264  0.91584298  1
  Te  Te28  1  0.25000000  0.19094102  0.23280011  1
  Te  Te29  1  0.75000000  0.80905898  0.76719989  1
  Te  Te30  1  0.75000000  0.69094102  0.26719989  1
  Te  Te31  1  0.25000000  0.30905898  0.73280011  1
  Te  Te32  1  0.25000000  0.99040206  0.60767934  1
  Te  Te33  1  0.75000000  0.00959794  0.39232066  1
  Te  Te34  1  0.75000000  0.49040206  0.89232066  1
  Te  Te35  1  0.25000000  0.50959794  0.10767934  1
