# generated using pymatgen
data_Ba5Pt2O9
_symmetry_space_group_name_H-M   'P 1'
_cell_length_a   10.34119773
_cell_length_b   10.34119773
_cell_length_c   9.03017552
_cell_angle_alpha   90.00000000
_cell_angle_beta   90.00000000
_cell_angle_gamma   119.99999998
_symmetry_Int_Tables_number   1
_chemical_formula_structural   Ba5Pt2O9
_chemical_formula_sum   'Ba15 Pt6 O27'
_cell_volume   836.31234562
_cell_formula_units_Z   3
loop_
 _symmetry_equiv_pos_site_id
 _symmetry_equiv_pos_as_xyz
  1  'x, y, z'
loop_
 _atom_site_type_symbol
 _atom_site_label
 _atom_site_symmetry_multiplicity
 _atom_site_fract_x
 _atom_site_fract_y
 _atom_site_fract_z
 _atom_site_occupancy
  O  O0  1  0.14814183  0.14814183  0.50000000  1
  O  O1  1  0.00000000  0.85185817  0.50000000  1
  O  O2  1  0.85185817  0.00000000  0.50000000  1
  O  O3  1  0.17601041  0.68253604  0.53277316  1
  O  O4  1  0.31746396  0.49347437  0.53277316  1
  O  O5  1  0.50652563  0.82398959  0.53277316  1
  O  O6  1  0.49347437  0.31746396  0.46722684  1
  O  O7  1  0.82398959  0.50652563  0.46722684  1
  O  O8  1  0.68253604  0.17601041  0.46722684  1
  O  O9  1  0.52202067  0.17251124  0.74697000  1
  O  O10  1  0.82748876  0.34950943  0.74697000  1
  O  O11  1  0.65049057  0.47797933  0.74697000  1
  O  O12  1  0.34950943  0.82748876  0.25303000  1
  O  O13  1  0.47797933  0.65049057  0.25303000  1
  O  O14  1  0.17251124  0.52202067  0.25303000  1
  O  O15  1  0.00618547  0.17396945  0.77890341  1
  O  O16  1  0.82603055  0.83221602  0.77890341  1
  O  O17  1  0.16778398  0.99381453  0.77890341  1
  O  O18  1  0.83221602  0.82603055  0.22109659  1
  O  O19  1  0.99381453  0.16778398  0.22109659  1
  O  O20  1  0.17396945  0.00618547  0.22109659  1
  O  O21  1  0.82537687  0.50993502  0.02696900  1
  O  O22  1  0.49006498  0.31544186  0.02696900  1
  O  O23  1  0.68455814  0.17462313  0.02696900  1
  O  O24  1  0.31544186  0.49006498  0.97303100  1
  O  O25  1  0.17462313  0.68455814  0.97303100  1
  O  O26  1  0.50993502  0.82537687  0.97303100  1
  Ba  Ba27  1  0.03229920  0.69674803  0.26391025  1
  Ba  Ba28  1  0.30325197  0.33555117  0.26391025  1
  Ba  Ba29  1  0.66444883  0.96770080  0.26391025  1
  Ba  Ba30  1  0.33555117  0.30325197  0.73608975  1
  Ba  Ba31  1  0.96770080  0.66444883  0.73608975  1
  Ba  Ba32  1  0.69674803  0.03229920  0.73608975  1
  Ba  Ba33  1  0.00000000  0.00000000  0.00000000  1
  Ba  Ba34  1  0.33333333  0.66666667  0.75200261  1
  Ba  Ba35  1  0.66666667  0.33333333  0.24799739  1
  Ba  Ba36  1  0.63383396  0.63383396  0.00000000  1
  Ba  Ba37  1  0.00000000  0.36616604  0.00000000  1
  Ba  Ba38  1  0.36616604  0.00000000  0.00000000  1
  Ba  Ba39  1  0.67095377  0.67095377  0.50000000  1
  Ba  Ba40  1  0.00000000  0.32904623  0.50000000  1
  Ba  Ba41  1  0.32904623  0.00000000  0.50000000  1
  Pt  Pt42  1  0.33333333  0.66666667  0.09825399  1
  Pt  Pt43  1  0.66666667  0.33333333  0.90174601  1
  Pt  Pt44  1  0.33333333  0.66666667  0.40784956  1
  Pt  Pt45  1  0.66666667  0.33333333  0.59215044  1
  Pt  Pt46  1  0.00000000  0.00000000  0.34540668  1
  Pt  Pt47  1  0.00000000  0.00000000  0.65459332  1
