# generated using pymatgen
data_KBiO3
_symmetry_space_group_name_H-M   'P 1'
_cell_length_a   10.21523612
_cell_length_b   10.21523612
_cell_length_c   10.21523612
_cell_angle_alpha   90.00000000
_cell_angle_beta   90.00000000
_cell_angle_gamma   90.00000000
_symmetry_Int_Tables_number   1
_chemical_formula_structural   KBiO3
_chemical_formula_sum   'K12 Bi12 O36'
_cell_volume   1065.97060478
_cell_formula_units_Z   12
loop_
 _symmetry_equiv_pos_site_id
 _symmetry_equiv_pos_as_xyz
  1  'x, y, z'
loop_
 _atom_site_type_symbol
 _atom_site_label
 _atom_site_symmetry_multiplicity
 _atom_site_fract_x
 _atom_site_fract_y
 _atom_site_fract_z
 _atom_site_occupancy
  O  O0  1  0.03666240  0.75286766  0.41555372  1
  O  O1  1  0.03666240  0.74713234  0.08444628  1
  O  O2  1  0.46333760  0.75286766  0.08444628  1
  O  O3  1  0.74713234  0.08444628  0.03666240  1
  O  O4  1  0.08444628  0.46333760  0.75286766  1
  O  O5  1  0.08444628  0.03666240  0.74713234  1
  O  O6  1  0.75286766  0.41555372  0.03666240  1
  O  O7  1  0.41555372  0.03666240  0.75286766  1
  O  O8  1  0.75286766  0.08444628  0.46333760  1
  O  O9  1  0.74713234  0.41555372  0.46333760  1
  O  O10  1  0.41555372  0.46333760  0.74713234  1
  O  O11  1  0.46333760  0.74713234  0.41555372  1
  O  O12  1  0.96333760  0.24713234  0.58444628  1
  O  O13  1  0.96333760  0.25286766  0.91555372  1
  O  O14  1  0.10948675  0.75000000  0.75000000  1
  O  O15  1  0.53666240  0.24713234  0.91555372  1
  O  O16  1  0.91555372  0.53666240  0.24713234  1
  O  O17  1  0.91555372  0.96333760  0.25286766  1
  O  O18  1  0.24713234  0.58444628  0.96333760  1
  O  O19  1  0.58444628  0.96333760  0.24713234  1
  O  O20  1  0.24713234  0.91555372  0.53666240  1
  O  O21  1  0.25286766  0.58444628  0.53666240  1
  O  O22  1  0.58444628  0.53666240  0.25286766  1
  O  O23  1  0.53666240  0.25286766  0.58444628  1
  O  O24  1  0.60948675  0.25000000  0.25000000  1
  O  O25  1  0.25000000  0.60948675  0.25000000  1
  O  O26  1  0.25000000  0.25000000  0.60948675  1
  O  O27  1  0.25000000  0.89051325  0.25000000  1
  O  O28  1  0.25000000  0.25000000  0.89051325  1
  O  O29  1  0.89051325  0.25000000  0.25000000  1
  O  O30  1  0.39051325  0.75000000  0.75000000  1
  O  O31  1  0.75000000  0.39051325  0.75000000  1
  O  O32  1  0.75000000  0.75000000  0.39051325  1
  O  O33  1  0.75000000  0.10948675  0.75000000  1
  O  O34  1  0.75000000  0.75000000  0.10948675  1
  O  O35  1  0.25286766  0.91555372  0.96333760  1
  K  K36  1  0.00000000  0.00000000  0.00000000  1
  K  K37  1  0.50000000  0.50000000  0.00000000  1
  K  K38  1  0.00000000  0.50000000  0.50000000  1
  K  K39  1  0.50000000  0.00000000  0.50000000  1
  K  K40  1  0.40558063  0.40558063  0.40558063  1
  K  K41  1  0.09441937  0.09441937  0.40558063  1
  K  K42  1  0.40558063  0.09441937  0.09441937  1
  K  K43  1  0.09441937  0.40558063  0.09441937  1
  K  K44  1  0.59441937  0.59441937  0.59441937  1
  K  K45  1  0.90558063  0.90558063  0.59441937  1
  K  K46  1  0.59441937  0.90558063  0.90558063  1
  K  K47  1  0.90558063  0.59441937  0.90558063  1
  Bi  Bi48  1  0.59052378  0.75000000  0.25000000  1
  Bi  Bi49  1  0.25000000  0.59052378  0.75000000  1
  Bi  Bi50  1  0.75000000  0.25000000  0.59052378  1
  Bi  Bi51  1  0.25000000  0.90947622  0.75000000  1
  Bi  Bi52  1  0.75000000  0.25000000  0.90947622  1
  Bi  Bi53  1  0.90947622  0.75000000  0.25000000  1
  Bi  Bi54  1  0.40947622  0.25000000  0.75000000  1
  Bi  Bi55  1  0.75000000  0.40947622  0.25000000  1
  Bi  Bi56  1  0.25000000  0.75000000  0.40947622  1
  Bi  Bi57  1  0.75000000  0.09052378  0.25000000  1
  Bi  Bi58  1  0.25000000  0.75000000  0.09052378  1
  Bi  Bi59  1  0.09052378  0.25000000  0.75000000  1
