# generated using pymatgen
data_Re3(PbS3)2
_symmetry_space_group_name_H-M   'P 1'
_cell_length_a   9.75631367
_cell_length_b   9.75631367
_cell_length_c   11.95711324
_cell_angle_alpha   89.22097959
_cell_angle_beta   89.22097959
_cell_angle_gamma   58.49386368
_symmetry_Int_Tables_number   1
_chemical_formula_structural   Re3(PbS3)2
_chemical_formula_sum   'Re12 Pb8 S24'
_cell_volume   970.24720284
_cell_formula_units_Z   4
loop_
 _symmetry_equiv_pos_site_id
 _symmetry_equiv_pos_as_xyz
  1  'x, y, z'
loop_
 _atom_site_type_symbol
 _atom_site_label
 _atom_site_symmetry_multiplicity
 _atom_site_fract_x
 _atom_site_fract_y
 _atom_site_fract_z
 _atom_site_occupancy
  Re  Re0  1  0.51444235  0.88717573  0.86934568  1
  Re  Re1  1  0.48555765  0.11282427  0.13065432  1
  Re  Re2  1  0.11282427  0.48555765  0.63065432  1
  Re  Re3  1  0.88717573  0.51444235  0.36934568  1
  Re  Re4  1  0.39297796  0.19431177  0.91969911  1
  Re  Re5  1  0.60702204  0.80568823  0.08030089  1
  Re  Re6  1  0.80568823  0.60702204  0.58030089  1
  Re  Re7  1  0.19431177  0.39297796  0.41969911  1
  Re  Re8  1  0.69446485  0.97964666  0.96190835  1
  Re  Re9  1  0.30553515  0.02035334  0.03809165  1
  Re  Re10  1  0.02035334  0.30553515  0.53809165  1
  Re  Re11  1  0.97964666  0.69446485  0.46190835  1
  Pb  Pb12  1  0.60173286  0.39826714  0.75000000  1
  Pb  Pb13  1  0.39826714  0.60173286  0.25000000  1
  Pb  Pb14  1  0.33558844  0.87038787  0.47760416  1
  Pb  Pb15  1  0.66441156  0.12961213  0.52239584  1
  Pb  Pb16  1  0.12961213  0.66441156  0.02239584  1
  Pb  Pb17  1  0.87038787  0.33558844  0.97760416  1
  Pb  Pb18  1  0.17683666  0.82316334  0.75000000  1
  Pb  Pb19  1  0.82316334  0.17683666  0.25000000  1
  S  S20  1  0.59110027  0.05803449  0.77418741  1
  S  S21  1  0.40889973  0.94196551  0.22581259  1
  S  S22  1  0.94196551  0.40889973  0.72581259  1
  S  S23  1  0.05803449  0.59110027  0.27418741  1
  S  S24  1  0.54440164  0.72526148  0.69159788  1
  S  S25  1  0.45559836  0.27473852  0.30840212  1
  S  S26  1  0.27473852  0.45559836  0.80840212  1
  S  S27  1  0.72526148  0.54440164  0.19159788  1
  S  S28  1  0.23470555  0.09425269  0.84261416  1
  S  S29  1  0.76529445  0.90574731  0.15738584  1
  S  S30  1  0.90574731  0.76529445  0.65738584  1
  S  S31  1  0.09425269  0.23470555  0.34261416  1
  S  S32  1  0.42883138  0.73776312  0.98360330  1
  S  S33  1  0.57116862  0.26223688  0.01639670  1
  S  S34  1  0.26223688  0.57116862  0.51639670  1
  S  S35  1  0.73776312  0.42883138  0.48360330  1
  S  S36  1  0.30177676  0.20780312  0.57634545  1
  S  S37  1  0.69822324  0.79219688  0.42365455  1
  S  S38  1  0.79219688  0.69822324  0.92365455  1
  S  S39  1  0.20780312  0.30177676  0.07634545  1
  S  S40  1  0.94149905  0.95701574  0.89958106  1
  S  S41  1  0.05850095  0.04298426  0.10041894  1
  S  S42  1  0.04298426  0.05850095  0.60041894  1
  S  S43  1  0.95701574  0.94149905  0.39958106  1
