# generated using pymatgen
data_Ba2PdF6
_symmetry_space_group_name_H-M   'P 1'
_cell_length_a   6.29644216
_cell_length_b   6.30139248
_cell_length_c   9.22084280
_cell_angle_alpha   109.98004642
_cell_angle_beta   90.00000000
_cell_angle_gamma   90.00000000
_symmetry_Int_Tables_number   1
_chemical_formula_structural   Ba2PdF6
_chemical_formula_sum   'Ba4 Pd2 F12'
_cell_volume   343.82955245
_cell_formula_units_Z   2
loop_
 _symmetry_equiv_pos_site_id
 _symmetry_equiv_pos_as_xyz
  1  'x, y, z'
loop_
 _atom_site_type_symbol
 _atom_site_label
 _atom_site_symmetry_multiplicity
 _atom_site_fract_x
 _atom_site_fract_y
 _atom_site_fract_z
 _atom_site_occupancy
  F  F0  1  0.15775017  0.25998133  0.83428389  1
  F  F1  1  0.65775017  0.24001867  0.16571611  1
  F  F2  1  0.34224983  0.92569743  0.16571611  1
  F  F3  1  0.84224983  0.57430257  0.83428389  1
  F  F4  1  0.84224983  0.74001867  0.16571611  1
  F  F5  1  0.34224983  0.75998133  0.83428389  1
  F  F6  1  0.25000000  0.99310623  0.50000000  1
  F  F7  1  0.75000000  0.50689377  0.50000000  1
  F  F8  1  0.75000000  0.00689377  0.50000000  1
  F  F9  1  0.25000000  0.49310623  0.50000000  1
  F  F10  1  0.15775017  0.42569743  0.16571611  1
  F  F11  1  0.65775017  0.07430257  0.83428389  1
  Pd  Pd12  1  0.50000000  0.00000000  0.00000000  1
  Pd  Pd13  1  0.00000000  0.50000000  0.00000000  1
  Ba  Ba14  1  0.50000000  0.66053878  0.32107756  1
  Ba  Ba15  1  0.00000000  0.83946122  0.67892244  1
  Ba  Ba16  1  0.50000000  0.33946122  0.67892244  1
  Ba  Ba17  1  0.00000000  0.16053878  0.32107756  1
