# generated using pymatgen
data_Pr2Te4O11
_symmetry_space_group_name_H-M   'P 1'
_cell_length_a   5.33085248
_cell_length_b   6.94980888
_cell_length_c   16.55750384
_cell_angle_alpha   79.29107075
_cell_angle_beta   80.73621912
_cell_angle_gamma   67.44779208
_symmetry_Int_Tables_number   1
_chemical_formula_structural   Pr2Te4O11
_chemical_formula_sum   'Pr4 Te8 O22'
_cell_volume   553.92681520
_cell_formula_units_Z   2
loop_
 _symmetry_equiv_pos_site_id
 _symmetry_equiv_pos_as_xyz
  1  'x, y, z'
loop_
 _atom_site_type_symbol
 _atom_site_label
 _atom_site_symmetry_multiplicity
 _atom_site_fract_x
 _atom_site_fract_y
 _atom_site_fract_z
 _atom_site_occupancy
  O  O0  1  0.84987372  0.25000000  0.75000000  1
  O  O1  1  0.15012628  0.75000000  0.25000000  1
  O  O2  1  0.19464351  0.87640982  0.82994147  1
  O  O3  1  0.90099479  0.62359018  0.67005853  1
  O  O4  1  0.80535649  0.12359018  0.17005853  1
  O  O5  1  0.09900521  0.37640982  0.32994147  1
  O  O6  1  0.61263305  0.05198489  0.89951273  1
  O  O7  1  0.56413066  0.44801511  0.60048727  1
  O  O8  1  0.38736695  0.94801511  0.10048727  1
  O  O9  1  0.43586934  0.55198489  0.39951273  1
  O  O10  1  0.04623071  0.19166378  0.95303600  1
  O  O11  1  0.19093048  0.30833622  0.54696400  1
  O  O12  1  0.67902409  0.13362596  0.37314530  1
  O  O13  1  0.18579535  0.36637404  0.12685470  1
  O  O14  1  0.32097591  0.86637404  0.62685470  1
  O  O15  1  0.81420465  0.63362596  0.87314530  1
  O  O16  1  0.25324130  0.97147288  0.44489484  1
  O  O17  1  0.66960902  0.52852712  0.05510516  1
  O  O18  1  0.74675870  0.02852712  0.55510516  1
  O  O19  1  0.33039098  0.47147288  0.94489484  1
  O  O20  1  0.80906952  0.69166378  0.45303600  1
  O  O21  1  0.95376929  0.80833622  0.04696400  1
  Te  Te22  1  0.60516135  0.53624709  0.69920078  1
  Te  Te23  1  0.84060922  0.96375291  0.80079922  1
  Te  Te24  1  0.39483865  0.46375291  0.30079922  1
  Te  Te25  1  0.15939078  0.03624709  0.19920078  1
  Te  Te26  1  0.14754400  0.39265946  0.87459527  1
  Te  Te27  1  0.41479873  0.10734054  0.62540473  1
  Te  Te28  1  0.85245600  0.60734054  0.12540473  1
  Te  Te29  1  0.58520127  0.89265946  0.37459527  1
  Pr  Pr30  1  0.13389592  0.69776246  0.53803138  1
  Pr  Pr31  1  0.36968976  0.80223754  0.96196862  1
  Pr  Pr32  1  0.86610408  0.30223754  0.46196862  1
  Pr  Pr33  1  0.63031024  0.19776246  0.03803138  1
