# generated using pymatgen
data_Ca2GeN2
_symmetry_space_group_name_H-M   'P 1'
_cell_length_a   5.05587397
_cell_length_b   11.24799993
_cell_length_c   11.24799993
_cell_angle_alpha   90.00000000
_cell_angle_beta   90.00000000
_cell_angle_gamma   90.00000000
_symmetry_Int_Tables_number   1
_chemical_formula_structural   Ca2GeN2
_chemical_formula_sum   'Ca16 Ge8 N16'
_cell_volume   639.65654726
_cell_formula_units_Z   8
loop_
 _symmetry_equiv_pos_site_id
 _symmetry_equiv_pos_as_xyz
  1  'x, y, z'
loop_
 _atom_site_type_symbol
 _atom_site_label
 _atom_site_symmetry_multiplicity
 _atom_site_fract_x
 _atom_site_fract_y
 _atom_site_fract_z
 _atom_site_occupancy
  N  N0  1  0.50000000  0.49126827  0.16338141  1
  N  N1  1  0.00000000  0.41062666  0.63586663  1
  N  N2  1  0.00000000  0.58937334  0.36413337  1
  N  N3  1  0.00000000  0.91062666  0.86413337  1
  N  N4  1  0.50000000  0.13586663  0.91062666  1
  N  N5  1  0.50000000  0.86413337  0.08937334  1
  N  N6  1  0.00000000  0.08937334  0.13586663  1
  N  N7  1  0.00000000  0.33661859  0.00873173  1
  N  N8  1  0.50000000  0.99126827  0.33661859  1
  N  N9  1  0.50000000  0.00873173  0.66338141  1
  N  N10  1  0.50000000  0.36413337  0.41062666  1
  N  N11  1  0.00000000  0.66338141  0.99126827  1
  N  N12  1  0.00000000  0.83661859  0.49126827  1
  N  N13  1  0.00000000  0.16338141  0.50873173  1
  N  N14  1  0.50000000  0.50873173  0.83661859  1
  N  N15  1  0.50000000  0.63586663  0.58937334  1
  Ca  Ca16  1  0.50000000  0.85007975  0.52116269  1
  Ca  Ca17  1  0.00000000  0.47883731  0.85007975  1
  Ca  Ca18  1  0.00000000  0.52116269  0.14992025  1
  Ca  Ca19  1  0.00000000  0.97883731  0.64992025  1
  Ca  Ca20  1  0.00000000  0.36715149  0.42531360  1
  Ca  Ca21  1  0.50000000  0.64992025  0.02116269  1
  Ca  Ca22  1  0.00000000  0.02116269  0.35007975  1
  Ca  Ca23  1  0.50000000  0.07468640  0.13284851  1
  Ca  Ca24  1  0.50000000  0.92531360  0.86715149  1
  Ca  Ca25  1  0.00000000  0.13284851  0.92531360  1
  Ca  Ca26  1  0.00000000  0.86715149  0.07468640  1
  Ca  Ca27  1  0.00000000  0.63284851  0.57468640  1
  Ca  Ca28  1  0.50000000  0.42531360  0.63284851  1
  Ca  Ca29  1  0.50000000  0.57468640  0.36715149  1
  Ca  Ca30  1  0.50000000  0.14992025  0.47883731  1
  Ca  Ca31  1  0.50000000  0.35007975  0.97883731  1
  Ge  Ge32  1  0.50000000  0.34411980  0.24545688  1
  Ge  Ge33  1  0.50000000  0.65588020  0.75454312  1
  Ge  Ge34  1  0.00000000  0.24545688  0.65588020  1
  Ge  Ge35  1  0.00000000  0.74545688  0.84411980  1
  Ge  Ge36  1  0.50000000  0.15588020  0.74545688  1
  Ge  Ge37  1  0.50000000  0.84411980  0.25454312  1
  Ge  Ge38  1  0.00000000  0.25454312  0.15588020  1
  Ge  Ge39  1  0.00000000  0.75454312  0.34411980  1
