# generated using pymatgen
data_Lu3Ni2Ge3
_symmetry_space_group_name_H-M   'P 1'
_cell_length_a   4.15733571
_cell_length_b   5.45660889
_cell_length_c   13.83636663
_cell_angle_alpha   90.00000000
_cell_angle_beta   90.00000000
_cell_angle_gamma   112.39223015
_symmetry_Int_Tables_number   1
_chemical_formula_structural   Lu3Ni2Ge3
_chemical_formula_sum   'Lu6 Ni4 Ge6'
_cell_volume   290.21028045
_cell_formula_units_Z   2
loop_
 _symmetry_equiv_pos_site_id
 _symmetry_equiv_pos_as_xyz
  1  'x, y, z'
loop_
 _atom_site_type_symbol
 _atom_site_label
 _atom_site_symmetry_multiplicity
 _atom_site_fract_x
 _atom_site_fract_y
 _atom_site_fract_z
 _atom_site_occupancy
  Ni  Ni0  1  0.70215484  0.40430968  0.60059454  1
  Ni  Ni1  1  0.29784516  0.59569032  0.39940546  1
  Ni  Ni2  1  0.29784516  0.59569032  0.10059454  1
  Ni  Ni3  1  0.70215484  0.40430968  0.89940546  1
  Ge  Ge4  1  0.12235261  0.24470522  0.53841080  1
  Ge  Ge5  1  0.87764739  0.75529478  0.46158920  1
  Ge  Ge6  1  0.83985445  0.67970889  0.75000000  1
  Ge  Ge7  1  0.16014555  0.32029111  0.25000000  1
  Ge  Ge8  1  0.12235261  0.24470522  0.96158920  1
  Ge  Ge9  1  0.87764739  0.75529478  0.03841080  1
  Lu  Lu10  1  0.41334613  0.82669225  0.60937287  1
  Lu  Lu11  1  0.58665387  0.17330775  0.39062713  1
  Lu  Lu12  1  0.58665387  0.17330775  0.10937287  1
  Lu  Lu13  1  0.41334613  0.82669225  0.89062713  1
  Lu  Lu14  1  0.86392170  0.72784341  0.25000000  1
  Lu  Lu15  1  0.13607830  0.27215659  0.75000000  1
