# generated using pymatgen
data_Nd4Ge7
_symmetry_space_group_name_H-M   'P 1'
_cell_length_a   6.04847333
_cell_length_b   7.64747078
_cell_length_c   12.09327520
_cell_angle_alpha   90.00000000
_cell_angle_beta   90.00000000
_cell_angle_gamma   113.29440414
_symmetry_Int_Tables_number   1
_chemical_formula_structural   Nd4Ge7
_chemical_formula_sum   'Nd8 Ge14'
_cell_volume   513.78285080
_cell_formula_units_Z   2
loop_
 _symmetry_equiv_pos_site_id
 _symmetry_equiv_pos_as_xyz
  1  'x, y, z'
loop_
 _atom_site_type_symbol
 _atom_site_label
 _atom_site_symmetry_multiplicity
 _atom_site_fract_x
 _atom_site_fract_y
 _atom_site_fract_z
 _atom_site_occupancy
  Ge  Ge0  1  0.43896639  0.87793277  0.25000000  1
  Ge  Ge1  1  0.56103361  0.12206723  0.75000000  1
  Ge  Ge2  1  0.52564072  0.70564922  0.83709473  1
  Ge  Ge3  1  0.81999150  0.29435078  0.16290527  1
  Ge  Ge4  1  0.47435928  0.29435078  0.33709473  1
  Ge  Ge5  1  0.18000850  0.70564922  0.66290527  1
  Ge  Ge6  1  0.42618271  0.34526655  0.87129020  1
  Ge  Ge7  1  0.08091616  0.65473345  0.12870980  1
  Ge  Ge8  1  0.10660082  0.17693818  0.48967635  1
  Ge  Ge9  1  0.92966264  0.82306182  0.51032365  1
  Ge  Ge10  1  0.89339918  0.82306182  0.98967635  1
  Ge  Ge11  1  0.07033736  0.17693818  0.01032365  1
  Ge  Ge12  1  0.91908384  0.34526655  0.62870980  1
  Ge  Ge13  1  0.57381729  0.65473345  0.37129020  1
  Nd  Nd14  1  0.51437768  0.00000000  0.50000000  1
  Nd  Nd15  1  0.48562232  0.00000000  0.00000000  1
  Nd  Nd16  1  0.99512143  0.99024285  0.25000000  1
  Nd  Nd17  1  0.00487857  0.00975715  0.75000000  1
  Nd  Nd18  1  0.50856028  0.49044583  0.61967912  1
  Nd  Nd19  1  0.01811445  0.50955417  0.38032088  1
  Nd  Nd20  1  0.49143972  0.50955417  0.11967912  1
  Nd  Nd21  1  0.98188555  0.49044583  0.88032088  1
