# generated using pymatgen
data_TaCl5
_symmetry_space_group_name_H-M   'P 1'
_cell_length_a   6.46547716
_cell_length_b   13.66970703
_cell_length_c   13.66970703
_cell_angle_alpha   87.20151683
_cell_angle_beta   88.67992041
_cell_angle_gamma   88.67992043
_symmetry_Int_Tables_number   1
_chemical_formula_structural   TaCl5
_chemical_formula_sum   'Ta6 Cl30'
_cell_volume   1206.09323770
_cell_formula_units_Z   6
loop_
 _symmetry_equiv_pos_site_id
 _symmetry_equiv_pos_as_xyz
  1  'x, y, z'
loop_
 _atom_site_type_symbol
 _atom_site_label
 _atom_site_symmetry_multiplicity
 _atom_site_fract_x
 _atom_site_fract_y
 _atom_site_fract_z
 _atom_site_occupancy
  Cl  Cl0  1  0.25885982  0.33334508  0.52319918  1
  Cl  Cl1  1  0.74114018  0.47680082  0.66665492  1
  Cl  Cl2  1  0.74114018  0.66665492  0.47680082  1
  Cl  Cl3  1  0.25885982  0.52319918  0.33334508  1
  Cl  Cl4  1  0.69382643  0.20286147  0.56699624  1
  Cl  Cl5  1  0.30617357  0.43300376  0.79713853  1
  Cl  Cl6  1  0.79456221  0.04849091  0.04849091  1
  Cl  Cl7  1  0.20543779  0.95150909  0.95150909  1
  Cl  Cl8  1  0.77466927  0.23517385  0.87103276  1
  Cl  Cl9  1  0.22533073  0.12896724  0.76482615  1
  Cl  Cl10  1  0.22533073  0.76482615  0.12896724  1
  Cl  Cl11  1  0.77466927  0.87103276  0.23517385  1
  Cl  Cl12  1  0.20322663  0.18890102  0.99924620  1
  Cl  Cl13  1  0.79677337  0.00075380  0.81109898  1
  Cl  Cl14  1  0.79677337  0.81109898  0.00075380  1
  Cl  Cl15  1  0.20322663  0.99924620  0.18890102  1
  Cl  Cl16  1  0.27752101  0.28569217  0.28569217  1
  Cl  Cl17  1  0.72247899  0.71430783  0.71430783  1
  Cl  Cl18  1  0.25773104  0.46284934  0.09920801  1
  Cl  Cl19  1  0.74226896  0.90079199  0.53715066  1
  Cl  Cl20  1  0.74226896  0.53715066  0.90079199  1
  Cl  Cl21  1  0.25773104  0.09920801  0.46284934  1
  Cl  Cl22  1  0.69299237  0.33267413  0.14311773  1
  Cl  Cl23  1  0.30700763  0.85688227  0.66732587  1
  Cl  Cl24  1  0.30700763  0.66732587  0.85688227  1
  Cl  Cl25  1  0.69299237  0.14311773  0.33267413  1
  Cl  Cl26  1  0.67422807  0.38050229  0.38050229  1
  Cl  Cl27  1  0.32577193  0.61949771  0.61949771  1
  Cl  Cl28  1  0.69382643  0.56699624  0.20286147  1
  Cl  Cl29  1  0.30617357  0.79713853  0.43300376  1
  Ta  Ta30  1  0.47591417  0.22702646  0.43909784  1
  Ta  Ta31  1  0.52408583  0.56090216  0.77297354  1
  Ta  Ta32  1  0.52408583  0.77297354  0.56090216  1
  Ta  Ta33  1  0.47591417  0.43909784  0.22702646  1
  Ta  Ta34  1  0.00000000  0.89395314  0.10604686  1
  Ta  Ta35  1  0.00000000  0.10604686  0.89395314  1
