# generated using pymatgen
data_Bi2(SeO3)3
_symmetry_space_group_name_H-M   'P 1'
_cell_length_a   4.78517452
_cell_length_b   13.72754283
_cell_length_c   15.31584490
_cell_angle_alpha   115.42837596
_cell_angle_beta   90.00000000
_cell_angle_gamma   90.00000000
_symmetry_Int_Tables_number   1
_chemical_formula_structural   Bi2(SeO3)3
_chemical_formula_sum   'Bi8 Se12 O36'
_cell_volume   908.61171357
_cell_formula_units_Z   4
loop_
 _symmetry_equiv_pos_site_id
 _symmetry_equiv_pos_as_xyz
  1  'x, y, z'
loop_
 _atom_site_type_symbol
 _atom_site_label
 _atom_site_symmetry_multiplicity
 _atom_site_fract_x
 _atom_site_fract_y
 _atom_site_fract_z
 _atom_site_occupancy
  O  O0  1  0.74747147  0.19611408  0.01089598  1
  O  O1  1  0.24747147  0.30388592  0.48910402  1
  O  O2  1  0.25252853  0.80388592  0.98910402  1
  O  O3  1  0.75252853  0.69611408  0.51089598  1
  O  O4  1  0.53988409  0.49616254  0.29459146  1
  O  O5  1  0.03988409  0.00383746  0.20540854  1
  O  O6  1  0.46011591  0.50383746  0.70540854  1
  O  O7  1  0.96011591  0.99616254  0.79459146  1
  O  O8  1  0.53735068  0.31093855  0.30025171  1
  O  O9  1  0.03735068  0.18906145  0.19974829  1
  O  O10  1  0.46264932  0.68906145  0.69974829  1
  O  O11  1  0.96264932  0.81093855  0.80025171  1
  O  O12  1  0.54760892  0.87675518  0.43338450  1
  O  O13  1  0.04760892  0.62324482  0.06661550  1
  O  O14  1  0.45239108  0.12324482  0.56661550  1
  O  O15  1  0.95239108  0.37675518  0.93338450  1
  O  O16  1  0.56378389  0.02672518  0.68352957  1
  O  O17  1  0.06378389  0.47327482  0.81647043  1
  O  O18  1  0.43621611  0.97327482  0.31647043  1
  O  O19  1  0.93621611  0.52672518  0.18352957  1
  O  O20  1  0.94309083  0.57204290  0.65806696  1
  O  O21  1  0.44309083  0.92795710  0.84193304  1
  O  O22  1  0.05690917  0.42795710  0.34193304  1
  O  O23  1  0.55690917  0.07204290  0.15806696  1
  O  O24  1  0.84604069  0.82566047  0.28254496  1
  O  O25  1  0.34604069  0.67433953  0.21745504  1
  O  O26  1  0.15395931  0.17433953  0.71745504  1
  O  O27  1  0.65395931  0.32566047  0.78254496  1
  O  O28  1  0.80776103  0.29935081  0.58970858  1
  O  O29  1  0.30776103  0.20064919  0.91029142  1
  O  O30  1  0.19223897  0.70064919  0.41029142  1
  O  O31  1  0.69223897  0.79935081  0.08970858  1
  O  O32  1  0.82850227  0.17911133  0.39189794  1
  O  O33  1  0.32850227  0.32088867  0.10810206  1
  O  O34  1  0.17149773  0.82088867  0.60810206  1
  O  O35  1  0.67149773  0.67911133  0.89189794  1
  Se  Se36  1  0.71078267  0.94513883  0.37605796  1
  Se  Se37  1  0.21078267  0.55486117  0.12394204  1
  Se  Se38  1  0.28921733  0.05486117  0.62394204  1
  Se  Se39  1  0.78921733  0.44513883  0.87605796  1
  Se  Se40  1  0.61521616  0.80782409  0.98176509  1
  Se  Se41  1  0.11521616  0.69217591  0.51823491  1
  Se  Se42  1  0.38478384  0.19217591  0.01823491  1
  Se  Se43  1  0.88478384  0.30782409  0.48176509  1
  Se  Se44  1  0.59172722  0.56099775  0.63164165  1
  Se  Se45  1  0.09172722  0.93900225  0.86835835  1
  Se  Se46  1  0.40827278  0.43900225  0.36835835  1
  Se  Se47  1  0.90827278  0.06099775  0.13164165  1
  Bi  Bi48  1  0.63254568  0.69256490  0.34460225  1
  Bi  Bi49  1  0.13254568  0.80743510  0.15539775  1
  Bi  Bi50  1  0.36745432  0.30743510  0.65539775  1
  Bi  Bi51  1  0.86745432  0.19256490  0.84460225  1
  Bi  Bi52  1  0.63537424  0.85834897  0.69070639  1
  Bi  Bi53  1  0.13537424  0.64165103  0.80929361  1
  Bi  Bi54  1  0.36462576  0.14165103  0.30929361  1
  Bi  Bi55  1  0.86462576  0.35834897  0.19070639  1
