# generated using pymatgen
data_LiAuS
_symmetry_space_group_name_H-M   'P 1'
_cell_length_a   6.42695672
_cell_length_b   6.42695672
_cell_length_c   7.28736607
_cell_angle_alpha   116.42396885
_cell_angle_beta   116.42396882
_cell_angle_gamma   89.47452418
_symmetry_Int_Tables_number   1
_chemical_formula_structural   LiAuS
_chemical_formula_sum   'Li4 Au4 S4'
_cell_volume   234.61058348
_cell_formula_units_Z   4
loop_
 _symmetry_equiv_pos_site_id
 _symmetry_equiv_pos_as_xyz
  1  'x, y, z'
loop_
 _atom_site_type_symbol
 _atom_site_label
 _atom_site_symmetry_multiplicity
 _atom_site_fract_x
 _atom_site_fract_y
 _atom_site_fract_z
 _atom_site_occupancy
  Li  Li0  1  0.77400519  0.52400519  0.04801038  1
  Li  Li1  1  0.47599481  0.22599481  0.45198962  1
  Li  Li2  1  0.22599481  0.47599481  0.95198962  1
  Li  Li3  1  0.52400519  0.77400519  0.54801038  1
  S  S4  1  0.58713067  0.41286933  0.25000000  1
  S  S5  1  0.83713067  0.16286933  0.75000000  1
  S  S6  1  0.16286933  0.83713067  0.25000000  1
  S  S7  1  0.41286933  0.58713067  0.75000000  1
  Au  Au8  1  0.50000000  0.00000000  0.00000000  1
  Au  Au9  1  0.00000000  0.50000000  0.50000000  1
  Au  Au10  1  0.00000000  0.00000000  0.00000000  1
  Au  Au11  1  0.00000000  0.00000000  0.50000000  1
