# generated using pymatgen
data_Gd4B3C4
_symmetry_space_group_name_H-M   'P 1'
_cell_length_a   3.61633677
_cell_length_b   3.66670830
_cell_length_c   12.00648866
_cell_angle_alpha   92.63756075
_cell_angle_beta   98.29641022
_cell_angle_gamma   90.18544652
_symmetry_Int_Tables_number   1
_chemical_formula_structural   Gd4B3C4
_chemical_formula_sum   'Gd4 B3 C4'
_cell_volume   157.36578837
_cell_formula_units_Z   1
loop_
 _symmetry_equiv_pos_site_id
 _symmetry_equiv_pos_as_xyz
  1  'x, y, z'
loop_
 _atom_site_type_symbol
 _atom_site_label
 _atom_site_symmetry_multiplicity
 _atom_site_fract_x
 _atom_site_fract_y
 _atom_site_fract_z
 _atom_site_occupancy
  Gd  Gd0  1  0.20913036  0.97658895  0.34920891  1
  Gd  Gd1  1  0.79086964  0.02341105  0.65079109  1
  Gd  Gd2  1  0.60561626  0.44565665  0.13656641  1
  Gd  Gd3  1  0.39438374  0.55434335  0.86343359  1
  C  C4  1  0.09709687  0.94348435  0.12156261  1
  C  C5  1  0.90290313  0.05651565  0.87843739  1
  C  C6  1  0.70212786  0.47220675  0.33037152  1
  C  C7  1  0.29787214  0.52779325  0.66962848  1
  B  B8  1  0.00000000  0.00000000  0.00000000  1
  B  B9  1  0.79338504  0.49192421  0.45472050  1
  B  B10  1  0.20661496  0.50807579  0.54527950  1
