# generated using pymatgen
data_K2Si2O5
_symmetry_space_group_name_H-M   'P 1'
_cell_length_a   10.10588934
_cell_length_b   10.10588934
_cell_length_c   10.10100424
_cell_angle_alpha   68.61792177
_cell_angle_beta   68.61792174
_cell_angle_gamma   68.81756335
_symmetry_Int_Tables_number   1
_chemical_formula_structural   K2Si2O5
_chemical_formula_sum   'K12 Si12 O30'
_cell_volume   862.88678630
_cell_formula_units_Z   6
loop_
 _symmetry_equiv_pos_site_id
 _symmetry_equiv_pos_as_xyz
  1  'x, y, z'
loop_
 _atom_site_type_symbol
 _atom_site_label
 _atom_site_symmetry_multiplicity
 _atom_site_fract_x
 _atom_site_fract_y
 _atom_site_fract_z
 _atom_site_occupancy
  O  O0  1  0.11644426  0.52545309  0.17625192  1
  O  O1  1  0.96971998  0.51822399  0.01020781  1
  O  O2  1  0.51822399  0.96971998  0.51020781  1
  O  O3  1  0.56391988  0.82313654  0.78282041  1
  O  O4  1  0.82313654  0.56391988  0.28282041  1
  O  O5  1  0.06158643  0.07656828  0.15290724  1
  O  O6  1  0.07656828  0.06158643  0.65290724  1
  O  O7  1  0.76588354  0.56037927  0.75725127  1
  O  O8  1  0.56037927  0.76588354  0.25725127  1
  O  O9  1  0.07023848  0.58405827  0.43309895  1
  O  O10  1  0.58405827  0.07023848  0.93309895  1
  O  O11  1  0.09528223  0.26169355  0.75364022  1
  O  O12  1  0.79052114  0.12745007  0.66083718  1
  O  O13  1  0.12745007  0.79052114  0.16083718  1
  O  O14  1  0.00124459  0.03441817  0.44225200  1
  O  O15  1  0.03441817  0.00124459  0.94225200  1
  O  O16  1  0.60634676  0.56738583  0.51538708  1
  O  O17  1  0.56738583  0.60634676  0.01538708  1
  O  O18  1  0.59271531  0.47893788  0.29740005  1
  O  O19  1  0.47893788  0.59271531  0.79740005  1
  O  O20  1  0.95863496  0.84032114  0.71379334  1
  O  O21  1  0.84032114  0.95863496  0.21379334  1
  O  O22  1  0.32307194  0.55533273  0.66083122  1
  O  O23  1  0.55533273  0.32307194  0.16083122  1
  O  O24  1  0.55791961  0.33523991  0.73672046  1
  O  O25  1  0.33523991  0.55791961  0.23672046  1
  O  O26  1  0.52545309  0.11644426  0.67625192  1
  O  O27  1  0.30053006  0.99211882  0.76664343  1
  O  O28  1  0.99211882  0.30053006  0.26664343  1
  O  O29  1  0.26169355  0.09528223  0.25364022  1
  Si  Si30  1  0.48599989  0.51320196  0.67404040  1
  Si  Si31  1  0.15422702  0.61510570  0.26309068  1
  Si  Si32  1  0.61510570  0.15422702  0.76309068  1
  Si  Si33  1  0.00603004  0.95473899  0.12514925  1
  Si  Si34  1  0.95473899  0.00603004  0.62514925  1
  Si  Si35  1  0.12569624  0.09017561  0.77892647  1
  Si  Si36  1  0.09017561  0.12569624  0.27892647  1
  Si  Si37  1  0.97397187  0.47792790  0.17583078  1
  Si  Si38  1  0.47792790  0.97397187  0.67583078  1
  Si  Si39  1  0.60315018  0.63926386  0.83293272  1
  Si  Si40  1  0.63926386  0.60315018  0.33293272  1
  Si  Si41  1  0.51320196  0.48599989  0.17404040  1
  K  K42  1  0.38476495  0.90081468  0.07008212  1
  K  K43  1  0.90081468  0.38476495  0.57008212  1
  K  K44  1  0.71377286  0.16539147  0.37608774  1
  K  K45  1  0.16539147  0.71377286  0.87608774  1
  K  K46  1  0.76894803  0.79736560  0.97879266  1
  K  K47  1  0.79736560  0.76894803  0.47879266  1
  K  K48  1  0.56487150  0.03875409  0.21669355  1
  K  K49  1  0.03875409  0.56487150  0.71669355  1
  K  K50  1  0.36206494  0.31626963  0.03356118  1
  K  K51  1  0.31626963  0.36206494  0.53356118  1
  K  K52  1  0.32400272  0.85589357  0.47943989  1
  K  K53  1  0.85589357  0.32400272  0.97943989  1
