# generated using pymatgen
data_Sm10Se19
_symmetry_space_group_name_H-M   'P 1'
_cell_length_a   9.24002589
_cell_length_b   9.24002589
_cell_length_c   16.89414563
_cell_angle_alpha   90.00000000
_cell_angle_beta   90.00000000
_cell_angle_gamma   90.00000000
_symmetry_Int_Tables_number   1
_chemical_formula_structural   Sm10Se19
_chemical_formula_sum   'Sm20 Se38'
_cell_volume   1442.38969091
_cell_formula_units_Z   2
loop_
 _symmetry_equiv_pos_site_id
 _symmetry_equiv_pos_as_xyz
  1  'x, y, z'
loop_
 _atom_site_type_symbol
 _atom_site_label
 _atom_site_symmetry_multiplicity
 _atom_site_fract_x
 _atom_site_fract_y
 _atom_site_fract_z
 _atom_site_occupancy
  Se  Se0  1  0.75000000  0.75000000  0.75000000  1
  Se  Se1  1  0.25000000  0.25000000  0.25000000  1
  Se  Se2  1  0.17326528  0.52949587  0.74995677  1
  Se  Se3  1  0.47050413  0.67326528  0.24995677  1
  Se  Se4  1  0.02949587  0.82673472  0.24995677  1
  Se  Se5  1  0.32673472  0.97050413  0.74995677  1
  Se  Se6  1  0.82673472  0.47050413  0.25004323  1
  Se  Se7  1  0.52949587  0.32673472  0.75004323  1
  Se  Se8  1  0.97050413  0.17326528  0.75004323  1
  Se  Se9  1  0.67326528  0.02949587  0.25004323  1
  Se  Se10  1  0.65239237  0.54888855  0.92956507  1
  Se  Se11  1  0.45111145  0.15239237  0.42956507  1
  Se  Se12  1  0.04888855  0.34760763  0.42956507  1
  Se  Se13  1  0.84760763  0.95111145  0.92956507  1
  Se  Se14  1  0.34760763  0.45111145  0.07043493  1
  Se  Se15  1  0.54888855  0.84760763  0.57043493  1
  Se  Se16  1  0.95111145  0.65239237  0.57043493  1
  Se  Se17  1  0.15239237  0.04888855  0.07043493  1
  Se  Se18  1  0.64950693  0.55264220  0.43714662  1
  Se  Se19  1  0.44735780  0.14950693  0.93714662  1
  Se  Se20  1  0.12041996  0.56321536  0.25065731  1
  Se  Se21  1  0.43678464  0.62041996  0.75065731  1
  Se  Se22  1  0.06321536  0.87958004  0.75065731  1
  Se  Se23  1  0.37958004  0.93678464  0.25065731  1
  Se  Se24  1  0.87958004  0.43678464  0.74934269  1
  Se  Se25  1  0.56321536  0.37958004  0.24934269  1
  Se  Se26  1  0.93678464  0.12041996  0.24934269  1
  Se  Se27  1  0.62041996  0.06321536  0.74934269  1
  Se  Se28  1  0.75000000  0.25000000  0.06399957  1
  Se  Se29  1  0.75000000  0.25000000  0.56399957  1
  Se  Se30  1  0.25000000  0.75000000  0.93600043  1
  Se  Se31  1  0.25000000  0.75000000  0.43600043  1
  Se  Se32  1  0.14950693  0.05264220  0.56285338  1
  Se  Se33  1  0.94735780  0.64950693  0.06285338  1
  Se  Se34  1  0.55264220  0.85049307  0.06285338  1
  Se  Se35  1  0.35049307  0.44735780  0.56285338  1
  Se  Se36  1  0.85049307  0.94735780  0.43714662  1
  Se  Se37  1  0.05264220  0.35049307  0.93714662  1
  Sm  Sm38  1  0.55303563  0.85288298  0.39361666  1
  Sm  Sm39  1  0.14711702  0.05303563  0.89361666  1
  Sm  Sm40  1  0.35288298  0.44696437  0.89361666  1
  Sm  Sm41  1  0.94696437  0.64711702  0.39361666  1
  Sm  Sm42  1  0.44696437  0.14711702  0.60638334  1
  Sm  Sm43  1  0.85288298  0.94696437  0.10638334  1
  Sm  Sm44  1  0.64711702  0.55303563  0.10638334  1
  Sm  Sm45  1  0.05303563  0.35288298  0.60638334  1
  Sm  Sm46  1  0.54294952  0.84755016  0.88045223  1
  Sm  Sm47  1  0.15244984  0.04294952  0.38045223  1
  Sm  Sm48  1  0.34755016  0.45705048  0.38045223  1
  Sm  Sm49  1  0.95705048  0.65244984  0.88045223  1
  Sm  Sm50  1  0.45705048  0.15244984  0.11954777  1
  Sm  Sm51  1  0.84755016  0.95705048  0.61954777  1
  Sm  Sm52  1  0.65244984  0.54294952  0.61954777  1
  Sm  Sm53  1  0.04294952  0.34755016  0.11954777  1
  Sm  Sm54  1  0.25000000  0.75000000  0.11703299  1
  Sm  Sm55  1  0.25000000  0.75000000  0.61703299  1
  Sm  Sm56  1  0.75000000  0.25000000  0.88296701  1
  Sm  Sm57  1  0.75000000  0.25000000  0.38296701  1
