# generated using pymatgen
data_Cs4SiSe4
_symmetry_space_group_name_H-M   'P 1'
_cell_length_a   14.43525056
_cell_length_b   14.43525056
_cell_length_c   14.43525056
_cell_angle_alpha   90.00000000
_cell_angle_beta   90.00000000
_cell_angle_gamma   90.00000000
_symmetry_Int_Tables_number   1
_chemical_formula_structural   Cs4SiSe4
_chemical_formula_sum   'Cs32 Si8 Se32'
_cell_volume   3007.96639257
_cell_formula_units_Z   8
loop_
 _symmetry_equiv_pos_site_id
 _symmetry_equiv_pos_as_xyz
  1  'x, y, z'
loop_
 _atom_site_type_symbol
 _atom_site_label
 _atom_site_symmetry_multiplicity
 _atom_site_fract_x
 _atom_site_fract_y
 _atom_site_fract_z
 _atom_site_occupancy
  Si  Si0  1  0.00000000  0.25000000  0.50000000  1
  Si  Si1  1  0.00000000  0.75000000  0.50000000  1
  Si  Si2  1  0.50000000  0.00000000  0.75000000  1
  Si  Si3  1  0.50000000  0.00000000  0.25000000  1
  Si  Si4  1  0.75000000  0.50000000  0.00000000  1
  Si  Si5  1  0.00000000  0.00000000  0.00000000  1
  Si  Si6  1  0.50000000  0.50000000  0.50000000  1
  Si  Si7  1  0.25000000  0.50000000  0.00000000  1
  Se  Se8  1  0.10013013  0.16160445  0.58928733  1
  Se  Se9  1  0.33839555  0.60013013  0.91071267  1
  Se  Se10  1  0.39986987  0.08928733  0.33839555  1
  Se  Se11  1  0.60013013  0.08928733  0.66160445  1
  Se  Se12  1  0.08928733  0.33839555  0.39986987  1
  Se  Se13  1  0.91071267  0.66160445  0.39986987  1
  Se  Se14  1  0.16160445  0.41071267  0.89986987  1
  Se  Se15  1  0.16160445  0.58928733  0.10013013  1
  Se  Se16  1  0.83839555  0.41071267  0.10013013  1
  Se  Se17  1  0.59251761  0.59251761  0.59251761  1
  Se  Se18  1  0.10013013  0.83839555  0.41071267  1
  Se  Se19  1  0.33839555  0.39986987  0.08928733  1
  Se  Se20  1  0.41071267  0.89986987  0.16160445  1
  Se  Se21  1  0.89986987  0.16160445  0.41071267  1
  Se  Se22  1  0.41071267  0.10013013  0.83839555  1
  Se  Se23  1  0.58928733  0.89986987  0.83839555  1
  Se  Se24  1  0.89986987  0.83839555  0.58928733  1
  Se  Se25  1  0.91071267  0.33839555  0.60013013  1
  Se  Se26  1  0.08928733  0.66160445  0.60013013  1
  Se  Se27  1  0.39986987  0.91071267  0.66160445  1
  Se  Se28  1  0.60013013  0.91071267  0.33839555  1
  Se  Se29  1  0.66160445  0.60013013  0.08928733  1
  Se  Se30  1  0.66160445  0.39986987  0.91071267  1
  Se  Se31  1  0.83839555  0.58928733  0.89986987  1
  Se  Se32  1  0.90748239  0.09251761  0.90748239  1
  Se  Se33  1  0.90748239  0.90748239  0.09251761  1
  Se  Se34  1  0.09251761  0.90748239  0.90748239  1
  Se  Se35  1  0.40748239  0.40748239  0.59251761  1
  Se  Se36  1  0.59251761  0.40748239  0.40748239  1
  Se  Se37  1  0.40748239  0.59251761  0.40748239  1
  Se  Se38  1  0.09251761  0.09251761  0.09251761  1
  Se  Se39  1  0.58928733  0.10013013  0.16160445  1
  Cs  Cs40  1  0.34792447  0.34792447  0.34792447  1
  Cs  Cs41  1  0.15207553  0.84792447  0.15207553  1
  Cs  Cs42  1  0.84792447  0.15207553  0.15207553  1
  Cs  Cs43  1  0.15207553  0.15207553  0.84792447  1
  Cs  Cs44  1  0.34792447  0.65207553  0.65207553  1
  Cs  Cs45  1  0.65207553  0.65207553  0.34792447  1
  Cs  Cs46  1  0.65207553  0.34792447  0.65207553  1
  Cs  Cs47  1  0.84792447  0.84792447  0.84792447  1
  Cs  Cs48  1  0.34873909  0.13470911  0.08454738  1
  Cs  Cs49  1  0.34873909  0.86529089  0.91545262  1
  Cs  Cs50  1  0.13470911  0.08454738  0.34873909  1
  Cs  Cs51  1  0.86529089  0.08454738  0.65126091  1
  Cs  Cs52  1  0.08454738  0.34873909  0.13470911  1
  Cs  Cs53  1  0.91545262  0.65126091  0.13470911  1
  Cs  Cs54  1  0.15126091  0.41545262  0.63470911  1
  Cs  Cs55  1  0.15126091  0.58454738  0.36529089  1
  Cs  Cs56  1  0.84873909  0.41545262  0.36529089  1
  Cs  Cs57  1  0.58454738  0.36529089  0.15126091  1
  Cs  Cs58  1  0.36529089  0.84873909  0.41545262  1
  Cs  Cs59  1  0.36529089  0.15126091  0.58454738  1
  Cs  Cs60  1  0.41545262  0.63470911  0.15126091  1
  Cs  Cs61  1  0.63470911  0.15126091  0.41545262  1
  Cs  Cs62  1  0.41545262  0.36529089  0.84873909  1
  Cs  Cs63  1  0.58454738  0.63470911  0.84873909  1
  Cs  Cs64  1  0.63470911  0.84873909  0.58454738  1
  Cs  Cs65  1  0.91545262  0.34873909  0.86529089  1
  Cs  Cs66  1  0.08454738  0.65126091  0.86529089  1
  Cs  Cs67  1  0.13470911  0.91545262  0.65126091  1
  Cs  Cs68  1  0.86529089  0.91545262  0.34873909  1
  Cs  Cs69  1  0.65126091  0.86529089  0.08454738  1
  Cs  Cs70  1  0.65126091  0.13470911  0.91545262  1
  Cs  Cs71  1  0.84873909  0.58454738  0.63470911  1
