# generated using pymatgen
data_GaP2I9
_symmetry_space_group_name_H-M   'P 1'
_cell_length_a   11.47863558
_cell_length_b   18.88767700
_cell_length_c   21.71349674
_cell_angle_alpha   90.00000000
_cell_angle_beta   90.00000000
_cell_angle_gamma   90.00000000
_symmetry_Int_Tables_number   1
_chemical_formula_structural   GaP2I9
_chemical_formula_sum   'Ga8 P16 I72'
_cell_volume   4707.58947631
_cell_formula_units_Z   8
loop_
 _symmetry_equiv_pos_site_id
 _symmetry_equiv_pos_as_xyz
  1  'x, y, z'
loop_
 _atom_site_type_symbol
 _atom_site_label
 _atom_site_symmetry_multiplicity
 _atom_site_fract_x
 _atom_site_fract_y
 _atom_site_fract_z
 _atom_site_occupancy
  P  P0  1  0.80676835  0.49557980  0.13370762  1
  P  P1  1  0.30676835  0.00442020  0.86629238  1
  P  P2  1  0.19323165  0.99557980  0.36629238  1
  P  P3  1  0.69323165  0.50442020  0.63370762  1
  P  P4  1  0.19323165  0.50442020  0.86629238  1
  P  P5  1  0.69323165  0.99557980  0.13370762  1
  P  P6  1  0.80676835  0.00442020  0.63370762  1
  P  P7  1  0.30676835  0.49557980  0.36629238  1
  P  P8  1  0.67129625  0.42498986  0.08798951  1
  P  P9  1  0.17129625  0.07501014  0.91201049  1
  P  P10  1  0.32870375  0.92498986  0.41201049  1
  P  P11  1  0.82870375  0.57501014  0.58798951  1
  P  P12  1  0.32870375  0.57501014  0.91201049  1
  P  P13  1  0.82870375  0.92498986  0.08798951  1
  P  P14  1  0.67129625  0.07501014  0.58798951  1
  P  P15  1  0.17129625  0.42498986  0.41201049  1
  Ga  Ga16  1  0.12694624  0.22127218  0.12071744  1
  Ga  Ga17  1  0.62694624  0.27872782  0.87928256  1
  Ga  Ga18  1  0.87305376  0.72127218  0.37928256  1
  Ga  Ga19  1  0.37305376  0.77872782  0.62071744  1
  Ga  Ga20  1  0.87305376  0.77872782  0.87928256  1
  Ga  Ga21  1  0.37305376  0.72127218  0.12071744  1
  Ga  Ga22  1  0.12694624  0.27872782  0.62071744  1
  Ga  Ga23  1  0.62694624  0.22127218  0.37928256  1
  I  I24  1  0.99384826  0.21189160  0.21493088  1
  I  I25  1  0.49384826  0.28810840  0.78506912  1
  I  I26  1  0.00615174  0.71189160  0.28506912  1
  I  I27  1  0.50615174  0.78810840  0.71493088  1
  I  I28  1  0.00615174  0.78810840  0.78506912  1
  I  I29  1  0.50615174  0.71189160  0.21493088  1
  I  I30  1  0.99384826  0.28810840  0.71493088  1
  I  I31  1  0.49384826  0.21189160  0.28506912  1
  I  I32  1  0.27251419  0.11299782  0.12121718  1
  I  I33  1  0.77251419  0.38700218  0.87878282  1
  I  I34  1  0.72748581  0.61299782  0.37878282  1
  I  I35  1  0.22748581  0.88700218  0.62121718  1
  I  I36  1  0.72748581  0.88700218  0.87878282  1
  I  I37  1  0.22748581  0.61299782  0.12121718  1
  I  I38  1  0.27251419  0.38700218  0.62121718  1
  I  I39  1  0.77251419  0.11299782  0.37878282  1
  I  I40  1  0.02322520  0.22296418  0.01586027  1
  I  I41  1  0.52322520  0.27703582  0.98413973  1
  I  I42  1  0.97677480  0.72296418  0.48413973  1
  I  I43  1  0.47677480  0.77703582  0.51586027  1
  I  I44  1  0.97677480  0.77703582  0.98413973  1
  I  I45  1  0.47677480  0.72296418  0.01586027  1
  I  I46  1  0.02322520  0.27703582  0.51586027  1
  I  I47  1  0.52322520  0.22296418  0.48413973  1
  I  I48  1  0.24671750  0.33857553  0.12954012  1
  I  I49  1  0.74671750  0.16142447  0.87045988  1
  I  I50  1  0.75328250  0.83857553  0.37045988  1
  I  I51  1  0.25328250  0.66142447  0.62954012  1
  I  I52  1  0.75328250  0.66142447  0.87045988  1
  I  I53  1  0.25328250  0.83857553  0.12954012  1
  I  I54  1  0.24671750  0.16142447  0.62954012  1
  I  I55  1  0.74671750  0.33857553  0.37045988  1
  I  I56  1  0.76596179  0.54264111  0.23742381  1
  I  I57  1  0.26596179  0.95735889  0.76257619  1
  I  I58  1  0.23403821  0.04264111  0.26257619  1
  I  I59  1  0.73403821  0.45735889  0.73742381  1
  I  I60  1  0.23403821  0.45735889  0.76257619  1
  I  I61  1  0.73403821  0.04264111  0.23742381  1
  I  I62  1  0.76596179  0.95735889  0.73742381  1
  I  I63  1  0.26596179  0.54264111  0.26257619  1
  I  I64  1  0.99075281  0.42736052  0.13261677  1
  I  I65  1  0.49075281  0.07263948  0.86738323  1
  I  I66  1  0.00924719  0.92736052  0.36738323  1
  I  I67  1  0.50924719  0.57263948  0.63261677  1
  I  I68  1  0.00924719  0.57263948  0.86738323  1
  I  I69  1  0.50924719  0.92736052  0.13261677  1
  I  I70  1  0.99075281  0.07263948  0.63261677  1
  I  I71  1  0.49075281  0.42736052  0.36738323  1
  I  I72  1  0.82799351  0.59429181  0.06233743  1
  I  I73  1  0.32799351  0.90570819  0.93766257  1
  I  I74  1  0.17200649  0.09429181  0.43766257  1
  I  I75  1  0.67200649  0.40570819  0.56233743  1
  I  I76  1  0.17200649  0.40570819  0.93766257  1
  I  I77  1  0.67200649  0.09429181  0.06233743  1
  I  I78  1  0.82799351  0.90570819  0.56233743  1
  I  I79  1  0.32799351  0.59429181  0.43766257  1
  I  I80  1  0.65012455  0.33859700  0.17166854  1
  I  I81  1  0.15012455  0.16140300  0.82833146  1
  I  I82  1  0.34987545  0.83859700  0.32833146  1
  I  I83  1  0.84987545  0.66140300  0.67166854  1
  I  I84  1  0.34987545  0.66140300  0.82833146  1
  I  I85  1  0.84987545  0.83859700  0.17166854  1
  I  I86  1  0.65012455  0.16140300  0.67166854  1
  I  I87  1  0.15012455  0.33859700  0.32833146  1
  I  I88  1  0.50169465  0.50337154  0.10136936  1
  I  I89  1  0.00169465  0.99662846  0.89863064  1
  I  I90  1  0.49830535  0.00337154  0.39863064  1
  I  I91  1  0.99830535  0.49662846  0.60136936  1
  I  I92  1  0.49830535  0.49662846  0.89863064  1
  I  I93  1  0.99830535  0.00337154  0.10136936  1
  I  I94  1  0.50169465  0.99662846  0.60136936  1
  I  I95  1  0.00169465  0.50337154  0.39863064  1
