# generated using pymatgen
data_Na4W4O15
_symmetry_space_group_name_H-M   'P 1'
_cell_length_a   5.29731173
_cell_length_b   7.73992024
_cell_length_c   8.92151066
_cell_angle_alpha   112.86404675
_cell_angle_beta   96.30716730
_cell_angle_gamma   92.84355291
_symmetry_Int_Tables_number   1
_chemical_formula_structural   Na4W4O15
_chemical_formula_sum   'Na4 W4 O15'
_cell_volume   333.30306866
_cell_formula_units_Z   1
loop_
 _symmetry_equiv_pos_site_id
 _symmetry_equiv_pos_as_xyz
  1  'x, y, z'
loop_
 _atom_site_type_symbol
 _atom_site_label
 _atom_site_symmetry_multiplicity
 _atom_site_fract_x
 _atom_site_fract_y
 _atom_site_fract_z
 _atom_site_occupancy
  Na  Na0  1  0.73053465  0.22593750  0.12546186  1
  Na  Na1  1  0.26946535  0.77406250  0.87453814  1
  Na  Na2  1  0.32607752  0.51494491  0.31127583  1
  Na  Na3  1  0.67392248  0.48505509  0.68872417  1
  W  W4  1  0.34978332  0.03511768  0.34429005  1
  W  W5  1  0.65021668  0.96488232  0.65570995  1
  W  W6  1  0.18487186  0.23339058  0.81467723  1
  W  W7  1  0.81512814  0.76660942  0.18532277  1
  O  O8  1  0.33641593  0.08515761  0.57554255  1
  O  O9  1  0.66358407  0.91484239  0.42445745  1
  O  O10  1  0.01237548  0.06144900  0.27510039  1
  O  O11  1  0.98762452  0.93855100  0.72489961  1
  O  O12  1  0.00000000  -0.00000000  0.00000000  1
  O  O13  1  0.13245453  0.30956286  0.02604160  1
  O  O14  1  0.86754547  0.69043714  0.97395840  1
  O  O15  1  0.48778303  0.26641651  0.37494839  1
  O  O16  1  0.51221697  0.73358349  0.62505161  1
  O  O17  1  0.67601370  0.55404224  0.19001663  1
  O  O18  1  0.32398630  0.44595776  0.80998337  1
  O  O19  1  0.49351637  0.09845481  0.85007922  1
  O  O20  1  0.50648363  0.90154519  0.14992078  1
  O  O21  1  0.14396099  0.76711897  0.29355096  1
  O  O22  1  0.85603901  0.23288103  0.70644904  1
