# generated using pymatgen
data_Hg3SO6
_symmetry_space_group_name_H-M   'P 1'
_cell_length_a   7.17633367
_cell_length_b   7.17633367
_cell_length_c   10.56830222
_cell_angle_alpha   90.00000000
_cell_angle_beta   90.00000000
_cell_angle_gamma   120.00000002
_symmetry_Int_Tables_number   1
_chemical_formula_structural   Hg3SO6
_chemical_formula_sum   'Hg9 S3 O18'
_cell_volume   471.34738588
_cell_formula_units_Z   3
loop_
 _symmetry_equiv_pos_site_id
 _symmetry_equiv_pos_as_xyz
  1  'x, y, z'
loop_
 _atom_site_type_symbol
 _atom_site_label
 _atom_site_symmetry_multiplicity
 _atom_site_fract_x
 _atom_site_fract_y
 _atom_site_fract_z
 _atom_site_occupancy
  O  O0  1  0.12541354  0.40184332  0.56861786  1
  O  O1  1  0.27642978  0.87458646  0.23528452  1
  O  O2  1  0.59815668  0.72357022  0.90195119  1
  O  O3  1  0.80325287  0.05142514  0.58339864  1
  O  O4  1  0.24817227  0.19674713  0.25006530  1
  O  O5  1  0.94857486  0.75182773  0.91673197  1
  O  O6  1  0.32654238  0.85051895  0.71046944  1
  O  O7  1  0.52397657  0.67345762  0.37713610  1
  O  O8  1  0.14948105  0.47602343  0.04380277  1
  O  O9  1  0.89917981  0.30806493  0.75723929  1
  O  O10  1  0.40888512  0.10082019  0.42390595  1
  O  O11  1  0.69193507  0.59111488  0.09057262  1
  O  O12  1  0.48076388  0.14884171  0.94708645  1
  O  O13  1  0.85115829  0.33192217  0.28041978  1
  O  O14  1  0.66807783  0.51923612  0.61375311  1
  O  O15  1  0.86420987  0.97768272  0.05392309  1
  O  O16  1  0.02231728  0.88652714  0.38725642  1
  O  O17  1  0.11347286  0.13579013  0.72058976  1
  S  S18  1  0.77788477  0.76459165  0.99141570  1
  S  S19  1  0.98670688  0.22211523  0.65808237  1
  S  S20  1  0.23540835  0.01329312  0.32474904  1
  Hg  Hg21  1  0.49834835  0.18910547  0.67398564  1
  Hg  Hg22  1  0.69075712  0.50165165  0.34065231  1
  Hg  Hg23  1  0.81089453  0.30924288  0.00731898  1
  Hg  Hg24  1  0.29955214  0.29574205  0.99878670  1
  Hg  Hg25  1  0.99618991  0.70044786  0.66545337  1
  Hg  Hg26  1  0.70425795  0.00381009  0.33212004  1
  Hg  Hg27  1  0.49568613  0.68773969  0.64891053  1
  Hg  Hg28  1  0.19205356  0.50431387  0.31557720  1
  Hg  Hg29  1  0.31226031  0.80794644  0.98224386  1
