# generated using pymatgen
data_AlI3
_symmetry_space_group_name_H-M   'P 1'
_cell_length_a   6.74073954
_cell_length_b   10.21099745
_cell_length_c   12.94438097
_cell_angle_alpha   108.47088406
_cell_angle_beta   90.00000000
_cell_angle_gamma   90.00000000
_symmetry_Int_Tables_number   1
_chemical_formula_structural   AlI3
_chemical_formula_sum   'Al4 I12'
_cell_volume   845.05964985
_cell_formula_units_Z   4
loop_
 _symmetry_equiv_pos_site_id
 _symmetry_equiv_pos_as_xyz
  1  'x, y, z'
loop_
 _atom_site_type_symbol
 _atom_site_label
 _atom_site_symmetry_multiplicity
 _atom_site_fract_x
 _atom_site_fract_y
 _atom_site_fract_z
 _atom_site_occupancy
  Al  Al0  1  0.00284754  0.81372918  0.95397843  1
  Al  Al1  1  0.50284754  0.18627082  0.54602157  1
  Al  Al2  1  0.99715246  0.18627082  0.04602157  1
  Al  Al3  1  0.49715246  0.81372918  0.45397843  1
  I  I4  1  0.78050266  0.68164296  0.80272787  1
  I  I5  1  0.28050266  0.31835704  0.69727213  1
  I  I6  1  0.21949734  0.31835704  0.19727213  1
  I  I7  1  0.71949734  0.68164296  0.30272787  1
  I  I8  1  0.22949329  0.68702635  0.04159809  1
  I  I9  1  0.72949329  0.31297365  0.45840191  1
  I  I10  1  0.77050671  0.31297365  0.95840191  1
  I  I11  1  0.27050671  0.68702635  0.54159809  1
  I  I12  1  0.79054969  0.99896844  0.10783623  1
  I  I13  1  0.29054969  0.00103156  0.39216377  1
  I  I14  1  0.20945031  0.00103156  0.89216377  1
  I  I15  1  0.70945031  0.99896844  0.60783623  1
