# generated using pymatgen
data_LaB5O9
_symmetry_space_group_name_H-M   'P 1'
_cell_length_a   6.50456821
_cell_length_b   8.26343060
_cell_length_c   11.82438682
_cell_angle_alpha   90.00000000
_cell_angle_beta   90.00000000
_cell_angle_gamma   105.28031152
_symmetry_Int_Tables_number   1
_chemical_formula_structural   LaB5O9
_chemical_formula_sum   'La4 B20 O36'
_cell_volume   613.09301612
_cell_formula_units_Z   4
loop_
 _symmetry_equiv_pos_site_id
 _symmetry_equiv_pos_as_xyz
  1  'x, y, z'
loop_
 _atom_site_type_symbol
 _atom_site_label
 _atom_site_symmetry_multiplicity
 _atom_site_fract_x
 _atom_site_fract_y
 _atom_site_fract_z
 _atom_site_occupancy
  B  B0  1  0.22624403  0.16904542  0.24870431  1
  B  B1  1  0.77375597  0.33095458  0.74870431  1
  B  B2  1  0.77375597  0.83095458  0.75129569  1
  B  B3  1  0.22624403  0.66904542  0.25129569  1
  B  B4  1  0.81215872  0.59210106  0.63038622  1
  B  B5  1  0.18784128  0.90789894  0.13038622  1
  B  B6  1  0.48082522  0.27425941  0.40204385  1
  B  B7  1  0.51917478  0.22574059  0.90204385  1
  B  B8  1  0.51917478  0.72574059  0.59795615  1
  B  B9  1  0.48082522  0.77425941  0.09795615  1
  B  B10  1  0.28930199  0.54568861  0.94473181  1
  B  B11  1  0.71069801  0.95431139  0.44473181  1
  B  B12  1  0.71069801  0.45431139  0.05526819  1
  B  B13  1  0.28930199  0.04568861  0.55526819  1
  B  B14  1  0.85317696  0.25547823  0.46404416  1
  B  B15  1  0.14682304  0.24452177  0.96404416  1
  B  B16  1  0.14682304  0.74452177  0.53595584  1
  B  B17  1  0.85317696  0.75547823  0.03595584  1
  B  B18  1  0.18784128  0.40789894  0.36961378  1
  B  B19  1  0.81215872  0.09210106  0.86961378  1
  O  O20  1  0.06627965  0.33870589  0.47398254  1
  O  O21  1  0.75677137  0.45080959  0.16784225  1
  O  O22  1  0.75677137  0.95080959  0.33215775  1
  O  O23  1  0.24322863  0.54919041  0.83215775  1
  O  O24  1  0.77954789  0.59711963  0.98883947  1
  O  O25  1  0.22045211  0.90288037  0.48883947  1
  O  O26  1  0.22045211  0.40288037  0.01116053  1
  O  O27  1  0.24322863  0.04919041  0.66784225  1
  O  O28  1  0.41341754  0.66401651  0.19900108  1
  O  O29  1  0.58658246  0.83598349  0.69900108  1
  O  O30  1  0.93372035  0.16129411  0.97398254  1
  O  O31  1  0.41341754  0.16401651  0.30099892  1
  O  O32  1  0.13735873  0.56457383  0.33855480  1
  O  O33  1  0.86264127  0.93542617  0.83855480  1
  O  O34  1  0.86264127  0.43542617  0.66144520  1
  O  O35  1  0.13735873  0.06457383  0.16144520  1
  O  O36  1  0.11066247  0.78086940  0.22221480  1
  O  O37  1  0.88933753  0.71913060  0.72221480  1
  O  O38  1  0.88933753  0.21913060  0.77778520  1
  O  O39  1  0.11066247  0.28086940  0.27778520  1
  O  O40  1  0.93372035  0.66129411  0.52601746  1
  O  O41  1  0.06627965  0.83870589  0.02601746  1
  O  O42  1  0.71913913  0.32598120  0.40163052  1
  O  O43  1  0.28086087  0.17401880  0.90163052  1
  O  O44  1  0.28086087  0.67401880  0.59836948  1
  O  O45  1  0.58658246  0.33598349  0.80099892  1
  O  O46  1  0.39801178  0.19812801  0.50950173  1
  O  O47  1  0.60198822  0.30187199  0.00950173  1
  O  O48  1  0.60198822  0.80187199  0.49049827  1
  O  O49  1  0.39801178  0.69812801  0.99049827  1
  O  O50  1  0.41550423  0.43050050  0.38699628  1
  O  O51  1  0.58449577  0.06949950  0.88699628  1
  O  O52  1  0.58449577  0.56949950  0.61300372  1
  O  O53  1  0.41550423  0.93050050  0.11300372  1
  O  O54  1  0.77954789  0.09711963  0.51116053  1
  O  O55  1  0.71913913  0.82598120  0.09836948  1
  La  La56  1  0.25023602  0.36004151  0.67407823  1
  La  La57  1  0.74976398  0.13995849  0.17407823  1
  La  La58  1  0.74976398  0.63995849  0.32592177  1
  La  La59  1  0.25023602  0.86004151  0.82592177  1
