# generated using pymatgen
data_CsAs4F13
_symmetry_space_group_name_H-M   'P 1'
_cell_length_a   6.85449999
_cell_length_b   7.72389630
_cell_length_c   7.72389630
_cell_angle_alpha   78.64497802
_cell_angle_beta   63.65850363
_cell_angle_gamma   63.65850362
_symmetry_Int_Tables_number   1
_chemical_formula_structural   CsAs4F13
_chemical_formula_sum   'Cs1 As4 F13'
_cell_volume   328.41644709
_cell_formula_units_Z   1
loop_
 _symmetry_equiv_pos_site_id
 _symmetry_equiv_pos_as_xyz
  1  'x, y, z'
loop_
 _atom_site_type_symbol
 _atom_site_label
 _atom_site_symmetry_multiplicity
 _atom_site_fract_x
 _atom_site_fract_y
 _atom_site_fract_z
 _atom_site_occupancy
  F  F0  1  0.00734466  0.26966651  0.56423232  1
  F  F1  1  0.42842302  0.56423232  0.73033349  1
  F  F2  1  0.72298883  0.43576768  0.26966651  1
  F  F3  1  0.84124349  0.73033349  0.43576768  1
  F  F4  1  0.47432505  0.12568470  0.35704341  1
  F  F5  1  0.25000000  0.50000000  0.50000000  1
  F  F6  1  0.53153449  0.90929996  0.75456622  1
  F  F7  1  0.71389928  0.75456622  0.09070004  1
  F  F8  1  0.55916555  0.24543378  0.90929996  1
  F  F9  1  0.19540067  0.09070004  0.24543378  1
  F  F10  1  0.95705316  0.87431530  0.64295659  1
  F  F11  1  0.39999025  0.64295659  0.12568470  1
  F  F12  1  0.16863154  0.35704341  0.87431530  1
  As  As13  1  0.21170745  0.28927735  0.32354071  1
  As  As14  1  0.46475184  0.32354071  0.71072265  1
  As  As15  1  0.49901520  0.67645929  0.28927735  1
  As  As16  1  0.82452551  0.71072265  0.67645929  1
  Cs  Cs17  1  0.00000000  0.00000000  0.00000000  1
