# generated using pymatgen
data_YZn3
_symmetry_space_group_name_H-M   'P 1'
_cell_length_a   4.39204107
_cell_length_b   6.71303025
_cell_length_c   10.12188413
_cell_angle_alpha   90.00000000
_cell_angle_beta   90.00000000
_cell_angle_gamma   90.00000000
_symmetry_Int_Tables_number   1
_chemical_formula_structural   YZn3
_chemical_formula_sum   'Y4 Zn12'
_cell_volume   298.43266568
_cell_formula_units_Z   4
loop_
 _symmetry_equiv_pos_site_id
 _symmetry_equiv_pos_as_xyz
  1  'x, y, z'
loop_
 _atom_site_type_symbol
 _atom_site_label
 _atom_site_symmetry_multiplicity
 _atom_site_fract_x
 _atom_site_fract_y
 _atom_site_fract_z
 _atom_site_occupancy
  Zn  Zn0  1  0.25000000  0.03660417  0.60555358  1
  Zn  Zn1  1  0.75000000  0.96339583  0.39444642  1
  Zn  Zn2  1  0.25000000  0.53660417  0.89444642  1
  Zn  Zn3  1  0.75000000  0.46339583  0.10555358  1
  Zn  Zn4  1  0.75000000  0.78024183  0.95620288  1
  Zn  Zn5  1  0.25000000  0.21975817  0.04379712  1
  Zn  Zn6  1  0.75000000  0.28024183  0.54379712  1
  Zn  Zn7  1  0.25000000  0.71975817  0.45620288  1
  Zn  Zn8  1  0.75000000  0.08291522  0.14751369  1
  Zn  Zn9  1  0.25000000  0.91708478  0.85248631  1
  Zn  Zn10  1  0.75000000  0.58291522  0.35248631  1
  Zn  Zn11  1  0.25000000  0.41708478  0.64751369  1
  Y  Y12  1  0.25000000  0.77987995  0.16125007  1
  Y  Y13  1  0.75000000  0.22012005  0.83874993  1
  Y  Y14  1  0.25000000  0.27987995  0.33874993  1
  Y  Y15  1  0.75000000  0.72012005  0.66125007  1
