# generated using pymatgen
data_Mg2Ga5Cu6
_symmetry_space_group_name_H-M   'P 1'
_cell_length_a   8.29813701
_cell_length_b   8.29813701
_cell_length_c   8.29813701
_cell_angle_alpha   90.00000000
_cell_angle_beta   90.00000000
_cell_angle_gamma   90.00000000
_symmetry_Int_Tables_number   1
_chemical_formula_structural   Mg2Ga5Cu6
_chemical_formula_sum   'Mg6 Ga15 Cu18'
_cell_volume   571.40206227
_cell_formula_units_Z   3
loop_
 _symmetry_equiv_pos_site_id
 _symmetry_equiv_pos_as_xyz
  1  'x, y, z'
loop_
 _atom_site_type_symbol
 _atom_site_label
 _atom_site_symmetry_multiplicity
 _atom_site_fract_x
 _atom_site_fract_y
 _atom_site_fract_z
 _atom_site_occupancy
  Mg  Mg0  1  0.81884097  0.00000000  0.50000000  1
  Mg  Mg1  1  0.00000000  0.50000000  0.81884097  1
  Mg  Mg2  1  0.50000000  0.81884097  0.00000000  1
  Mg  Mg3  1  0.00000000  0.50000000  0.18115903  1
  Mg  Mg4  1  0.50000000  0.18115903  0.00000000  1
  Mg  Mg5  1  0.18115903  0.00000000  0.50000000  1
  Cu  Cu6  1  0.00000000  0.83632299  0.25772142  1
  Cu  Cu7  1  0.00000000  0.16367701  0.74227858  1
  Cu  Cu8  1  0.00000000  0.83632299  0.74227858  1
  Cu  Cu9  1  0.16367701  0.74227858  0.00000000  1
  Cu  Cu10  1  0.74227858  0.00000000  0.83632299  1
  Cu  Cu11  1  0.74227858  0.00000000  0.16367701  1
  Cu  Cu12  1  0.83632299  0.25772142  0.00000000  1
  Cu  Cu13  1  0.25772142  0.00000000  0.83632299  1
  Cu  Cu14  1  0.83632299  0.74227858  0.00000000  1
  Cu  Cu15  1  0.27509696  0.50000000  0.50000000  1
  Cu  Cu16  1  0.50000000  0.27509696  0.50000000  1
  Cu  Cu17  1  0.50000000  0.50000000  0.27509696  1
  Cu  Cu18  1  0.50000000  0.72490304  0.50000000  1
  Cu  Cu19  1  0.50000000  0.50000000  0.72490304  1
  Cu  Cu20  1  0.72490304  0.50000000  0.50000000  1
  Cu  Cu21  1  0.00000000  0.16367701  0.25772142  1
  Cu  Cu22  1  0.25772142  0.00000000  0.16367701  1
  Cu  Cu23  1  0.16367701  0.25772142  0.00000000  1
  Ga  Ga24  1  0.28199572  0.71800428  0.28199572  1
  Ga  Ga25  1  0.71800428  0.28199572  0.28199572  1
  Ga  Ga26  1  0.28199572  0.28199572  0.71800428  1
  Ga  Ga27  1  0.71800428  0.71800428  0.71800428  1
  Ga  Ga28  1  0.71800428  0.28199572  0.71800428  1
  Ga  Ga29  1  0.28199572  0.71800428  0.71800428  1
  Ga  Ga30  1  0.71800428  0.71800428  0.28199572  1
  Ga  Ga31  1  0.28199572  0.28199572  0.28199572  1
  Ga  Ga32  1  0.66342029  0.50000000  0.00000000  1
  Ga  Ga33  1  0.50000000  0.00000000  0.66342029  1
  Ga  Ga34  1  0.00000000  0.66342029  0.50000000  1
  Ga  Ga35  1  0.50000000  0.00000000  0.33657971  1
  Ga  Ga36  1  0.00000000  0.33657971  0.50000000  1
  Ga  Ga37  1  0.33657971  0.50000000  0.00000000  1
  Ga  Ga38  1  0.00000000  0.00000000  0.00000000  1
