# generated using pymatgen
data_Ce2B2Ir5
_symmetry_space_group_name_H-M   'P 1'
_cell_length_a   11.05070118
_cell_length_b   11.05070118
_cell_length_c   11.05070117
_cell_angle_alpha   28.86665939
_cell_angle_beta   28.86665935
_cell_angle_gamma   28.86665936
_symmetry_Int_Tables_number   1
_chemical_formula_structural   Ce2B2Ir5
_chemical_formula_sum   'Ce4 B4 Ir10'
_cell_volume   278.14120869
_cell_formula_units_Z   2
loop_
 _symmetry_equiv_pos_site_id
 _symmetry_equiv_pos_as_xyz
  1  'x, y, z'
loop_
 _atom_site_type_symbol
 _atom_site_label
 _atom_site_symmetry_multiplicity
 _atom_site_fract_x
 _atom_site_fract_y
 _atom_site_fract_z
 _atom_site_occupancy
  B  B0  1  0.61756267  0.61756267  0.61756267  1
  B  B1  1  0.71663256  0.71663256  0.71663256  1
  B  B2  1  0.38243733  0.38243733  0.38243733  1
  B  B3  1  0.28336744  0.28336744  0.28336744  1
  Ce  Ce4  1  0.15215549  0.15215549  0.15215549  1
  Ce  Ce5  1  0.94872134  0.94872134  0.94872134  1
  Ce  Ce6  1  0.84784451  0.84784451  0.84784451  1
  Ce  Ce7  1  0.05127866  0.05127866  0.05127866  1
  Ir  Ir8  1  0.89931066  0.40643371  0.40643371  1
  Ir  Ir9  1  0.40643371  0.89931066  0.40643371  1
  Ir  Ir10  1  0.50000000  0.50000000  0.00000000  1
  Ir  Ir11  1  0.00000000  0.50000000  0.50000000  1
  Ir  Ir12  1  0.50000000  0.00000000  0.50000000  1
  Ir  Ir13  1  0.50000000  0.50000000  0.50000000  1
  Ir  Ir14  1  0.10068934  0.59356629  0.59356629  1
  Ir  Ir15  1  0.59356629  0.59356629  0.10068934  1
  Ir  Ir16  1  0.59356629  0.10068934  0.59356629  1
  Ir  Ir17  1  0.40643371  0.40643371  0.89931066  1
