# generated using pymatgen
data_PAuS4
_symmetry_space_group_name_H-M   'P 1'
_cell_length_a   6.40575574
_cell_length_b   7.42168888
_cell_length_c   8.65910818
_cell_angle_alpha   83.08216243
_cell_angle_beta   84.04944226
_cell_angle_gamma   78.42375402
_symmetry_Int_Tables_number   1
_chemical_formula_structural   PAuS4
_chemical_formula_sum   'P2 Au2 S8'
_cell_volume   399.01736539
_cell_formula_units_Z   2
loop_
 _symmetry_equiv_pos_site_id
 _symmetry_equiv_pos_as_xyz
  1  'x, y, z'
loop_
 _atom_site_type_symbol
 _atom_site_label
 _atom_site_symmetry_multiplicity
 _atom_site_fract_x
 _atom_site_fract_y
 _atom_site_fract_z
 _atom_site_occupancy
  P  P0  1  0.73454721  0.24951419  0.24540037  1
  P  P1  1  0.26545279  0.75048581  0.75459963  1
  S  S2  1  0.26303007  0.72404623  -0.00619400  1
  S  S3  1  0.73696993  0.27595377  1.00619400  1
  S  S4  1  0.43796151  0.25856521  0.36321661  1
  S  S5  1  0.56203849  0.74143479  0.63678339  1
  S  S6  1  0.05846056  0.00074313  0.72428290  1
  S  S7  1  0.94153944  0.99925687  0.27571710  1
  S  S8  1  0.17599252  0.53572335  0.66411548  1
  S  S9  1  0.82400748  0.46427665  0.33588452  1
  Au  Au10  1  0.50000000  0.50000000  0.50000000  1
  Au  Au11  1  0.00000000  0.00000000  0.00000000  1
