# generated using pymatgen
data_SrAl2O4
_symmetry_space_group_name_H-M   'P 1'
_cell_length_a   5.21388642
_cell_length_b   8.54738167
_cell_length_c   8.91760562
_cell_angle_alpha   90.00000000
_cell_angle_beta   90.00000000
_cell_angle_gamma   93.51529815
_symmetry_Int_Tables_number   1
_chemical_formula_structural   SrAl2O4
_chemical_formula_sum   'Sr4 Al8 O16'
_cell_volume   396.66603376
_cell_formula_units_Z   4
loop_
 _symmetry_equiv_pos_site_id
 _symmetry_equiv_pos_as_xyz
  1  'x, y, z'
loop_
 _atom_site_type_symbol
 _atom_site_label
 _atom_site_symmetry_multiplicity
 _atom_site_fract_x
 _atom_site_fract_y
 _atom_site_fract_z
 _atom_site_occupancy
  O  O0  1  0.35634289  0.00862492  0.38410851  1
  O  O1  1  0.64365711  0.99137508  0.88410851  1
  O  O2  1  0.11861420  0.51121072  0.71435351  1
  O  O3  1  0.88138580  0.48878928  0.21435351  1
  O  O4  1  0.09011490  0.79828809  0.16724510  1
  O  O5  1  0.90988510  0.20171191  0.66724510  1
  O  O6  1  0.06061576  0.82424470  0.79707627  1
  O  O7  1  0.93938424  0.17575530  0.29707627  1
  O  O8  1  0.09938470  0.73558586  0.48466195  1
  O  O9  1  0.90061530  0.26441414  0.98466195  1
  O  O10  1  0.64839578  0.67381533  0.99012067  1
  O  O11  1  0.35160422  0.32618467  0.49012067  1
  O  O12  1  0.43906332  0.26425183  0.17082288  1
  O  O13  1  0.56093668  0.73574817  0.67082288  1
  O  O14  1  0.58581577  0.72960036  0.31469416  1
  O  O15  1  0.41418423  0.27039964  0.81469416  1
  Al  Al16  1  0.20428318  0.31877931  0.66831989  1
  Al  Al17  1  0.79571682  0.68122069  0.16831989  1
  Al  Al18  1  0.77977351  0.29266932  0.16825916  1
  Al  Al19  1  0.22022649  0.70733068  0.66825916  1
  Al  Al20  1  0.27423762  0.20045041  0.33757411  1
  Al  Al21  1  0.72576238  0.79954959  0.83757411  1
  Al  Al22  1  0.28479703  0.81087580  0.33070511  1
  Al  Al23  1  0.71520297  0.18912420  0.83070511  1
  Sr  Sr24  1  0.79853270  0.97277794  0.49057915  1
  Sr  Sr25  1  0.20146730  0.02722206  0.99057915  1
  Sr  Sr26  1  0.74619906  0.51438311  0.49727951  1
  Sr  Sr27  1  0.25380094  0.48561689  0.99727951  1
