# generated using pymatgen
data_Na4Zr2Ge5HO16
_symmetry_space_group_name_H-M   'P 1'
_cell_length_a   5.53294160
_cell_length_b   7.17018009
_cell_length_c   20.55648227
_cell_angle_alpha   92.45680947
_cell_angle_beta   90.00000000
_cell_angle_gamma   90.00000000
_symmetry_Int_Tables_number   1
_chemical_formula_structural   Na4Zr2Ge5HO16
_chemical_formula_sum   'Na8 Zr4 Ge10 H2 O32'
_cell_volume   814.77101170
_cell_formula_units_Z   2
loop_
 _symmetry_equiv_pos_site_id
 _symmetry_equiv_pos_as_xyz
  1  'x, y, z'
loop_
 _atom_site_type_symbol
 _atom_site_label
 _atom_site_symmetry_multiplicity
 _atom_site_fract_x
 _atom_site_fract_y
 _atom_site_fract_z
 _atom_site_occupancy
  Na  Na0  1  0.26019944  0.85772491  0.47320814  1
  Na  Na1  1  0.73980056  0.14227509  0.52679186  1
  Na  Na2  1  0.26019944  0.64227509  0.02679186  1
  Na  Na3  1  0.73980056  0.35772491  0.97320814  1
  Na  Na4  1  0.49525467  0.03205417  0.79066771  1
  Na  Na5  1  0.50474533  0.96794583  0.20933229  1
  Na  Na6  1  0.49525467  0.46794583  0.70933229  1
  Na  Na7  1  0.50474533  0.53205417  0.29066771  1
  Zr  Zr8  1  0.73573579  0.70226976  0.58880281  1
  Zr  Zr9  1  0.26426421  0.29773024  0.41119719  1
  Zr  Zr10  1  0.73573579  0.79773024  0.91119719  1
  Zr  Zr11  1  0.26426421  0.20226976  0.08880281  1
  Ge  Ge12  1  0.00746313  0.75000000  0.75000000  1
  Ge  Ge13  1  0.99253687  0.25000000  0.25000000  1
  Ge  Ge14  1  0.21250172  0.11470624  0.92157187  1
  Ge  Ge15  1  0.78749828  0.88529376  0.07842813  1
  Ge  Ge16  1  0.21250172  0.38529376  0.57842813  1
  Ge  Ge17  1  0.78749828  0.61470624  0.42157187  1
  Ge  Ge18  1  0.24448063  0.98856982  0.63487237  1
  Ge  Ge19  1  0.75551937  0.01143018  0.36512763  1
  Ge  Ge20  1  0.24448063  0.51143018  0.86512763  1
  Ge  Ge21  1  0.75551937  0.48856982  0.13487237  1
  H  H22  1  0.82244739  0.25000000  0.75000000  1
  H  H23  1  0.17755261  0.75000000  0.25000000  1
  O  O24  1  0.54384011  0.95318259  0.61019708  1
  O  O25  1  0.45615989  0.04681741  0.38980292  1
  O  O26  1  0.54384011  0.54681741  0.88980292  1
  O  O27  1  0.45615989  0.45318259  0.11019708  1
  O  O28  1  0.17126199  0.34658311  0.31238946  1
  O  O29  1  0.82873801  0.65341689  0.68761054  1
  O  O30  1  0.17126199  0.15341689  0.18761054  1
  O  O31  1  0.82873801  0.84658311  0.81238946  1
  O  O32  1  0.33227884  0.24345761  0.98924990  1
  O  O33  1  0.66772116  0.75654239  0.01075010  1
  O  O34  1  0.33227884  0.25654239  0.51075010  1
  O  O35  1  0.66772116  0.74345761  0.48924990  1
  O  O36  1  0.08960641  0.55337009  0.43527881  1
  O  O37  1  0.91039359  0.44662991  0.56472119  1
  O  O38  1  0.08960641  0.94662991  0.06472119  1
  O  O39  1  0.91039359  0.05337009  0.93527881  1
  O  O40  1  0.21233241  0.91859002  0.71807698  1
  O  O41  1  0.78766759  0.08140998  0.28192302  1
  O  O42  1  0.21233241  0.58140998  0.78192302  1
  O  O43  1  0.78766759  0.41859002  0.21807698  1
  O  O44  1  0.03305298  0.89203390  0.57948041  1
  O  O45  1  0.96694702  0.10796610  0.42051959  1
  O  O46  1  0.03305298  0.60796610  0.92051959  1
  O  O47  1  0.96694702  0.39203390  0.07948041  1
  O  O48  1  0.40926535  0.93515279  0.89344172  1
  O  O49  1  0.59073465  0.06484721  0.10655828  1
  O  O50  1  0.40926535  0.56484721  0.60655828  1
  O  O51  1  0.59073465  0.43515279  0.39344172  1
  O  O52  1  0.21140514  0.26324085  0.85173729  1
  O  O53  1  0.78859486  0.73675915  0.14826271  1
  O  O54  1  0.21140514  0.23675915  0.64826271  1
  O  O55  1  0.78859486  0.76324085  0.35173729  1
