# generated using pymatgen
data_Cd2Te2O7
_symmetry_space_group_name_H-M   'P 1'
_cell_length_a   7.54877032
_cell_length_b   8.50689665
_cell_length_c   10.13132682
_cell_angle_alpha   86.63089222
_cell_angle_beta   78.84978440
_cell_angle_gamma   77.18722926
_symmetry_Int_Tables_number   1
_chemical_formula_structural   Cd2Te2O7
_chemical_formula_sum   'Cd8 Te8 O28'
_cell_volume   622.33850622
_cell_formula_units_Z   4
loop_
 _symmetry_equiv_pos_site_id
 _symmetry_equiv_pos_as_xyz
  1  'x, y, z'
loop_
 _atom_site_type_symbol
 _atom_site_label
 _atom_site_symmetry_multiplicity
 _atom_site_fract_x
 _atom_site_fract_y
 _atom_site_fract_z
 _atom_site_occupancy
  O  O0  1  0.11388770  0.80626474  0.75575152  1
  O  O1  1  0.88611230  0.19373526  0.24424848  1
  O  O2  1  0.31899194  0.84528928  0.93460716  1
  O  O3  1  0.68100806  0.15471072  0.06539284  1
  O  O4  1  0.36778516  0.53254743  0.88808397  1
  O  O5  1  0.63221484  0.46745257  0.11191603  1
  O  O6  1  0.41118851  0.93718738  0.66363067  1
  O  O7  1  0.58881149  0.06281262  0.33636933  1
  O  O8  1  0.42968016  0.61482138  0.60634670  1
  O  O9  1  0.57031984  0.38517862  0.39365330  1
  O  O10  1  0.49489982  0.18177931  0.82684553  1
  O  O11  1  0.50510018  0.81822069  0.17315447  1
  O  O12  1  0.64226761  0.66604019  0.77568346  1
  O  O13  1  0.35773239  0.33395981  0.22431654  1
  O  O14  1  0.76791451  0.71151899  0.35681309  1
  O  O15  1  0.23208549  0.28848101  0.64318691  1
  O  O16  1  0.00359575  0.81896345  0.16177420  1
  O  O17  1  0.99640425  0.18103655  0.83822580  1
  O  O18  1  0.04242307  0.35258091  0.41219625  1
  O  O19  1  0.95757693  0.64741909  0.58780375  1
  O  O20  1  0.06289490  0.46335934  0.13286954  1
  O  O21  1  0.93710510  0.53664066  0.86713046  1
  O  O22  1  0.20147387  0.69359565  0.34258678  1
  O  O23  1  0.79852613  0.30640435  0.65741322  1
  O  O24  1  0.20654540  0.15360142  0.06735559  1
  O  O25  1  0.79345460  0.84639858  0.93264441  1
  O  O26  1  0.20968557  0.05017550  0.32931450  1
  O  O27  1  0.79031443  0.94982450  0.67068550  1
  Cd  Cd28  1  0.19058267  0.34823063  0.89013225  1
  Cd  Cd29  1  0.80941733  0.65176937  0.10986775  1
  Cd  Cd30  1  0.25627972  0.49081551  0.49186507  1
  Cd  Cd31  1  0.74372028  0.50918449  0.50813493  1
  Cd  Cd32  1  0.30748940  0.62420935  0.11353701  1
  Cd  Cd33  1  0.69251060  0.37579065  0.88646299  1
  Cd  Cd34  1  0.50000000  0.00000000  0.00000000  1
  Cd  Cd35  1  0.00000000  0.00000000  0.00000000  1
  Te  Te36  1  0.04165107  0.16779663  0.64588519  1
  Te  Te37  1  0.95834893  0.83220337  0.35411481  1
  Te  Te38  1  0.11979105  0.26847459  0.23451604  1
  Te  Te39  1  0.88020895  0.73152541  0.76548396  1
  Te  Te40  1  0.55919260  0.10134139  0.65064796  1
  Te  Te41  1  0.44080740  0.89865861  0.34935204  1
  Te  Te42  1  0.62341062  0.27585156  0.22788597  1
  Te  Te43  1  0.37658938  0.72414844  0.77211403  1
