# generated using pymatgen
data_Ga2PdI8
_symmetry_space_group_name_H-M   'P 1'
_cell_length_a   8.09923066
_cell_length_b   8.62953707
_cell_length_c   8.62953707
_cell_angle_alpha   65.77807340
_cell_angle_beta   82.65723869
_cell_angle_gamma   82.65723868
_symmetry_Int_Tables_number   1
_chemical_formula_structural   Ga2PdI8
_chemical_formula_sum   'Ga2 Pd1 I8'
_cell_volume   543.63423455
_cell_formula_units_Z   1
loop_
 _symmetry_equiv_pos_site_id
 _symmetry_equiv_pos_as_xyz
  1  'x, y, z'
loop_
 _atom_site_type_symbol
 _atom_site_label
 _atom_site_symmetry_multiplicity
 _atom_site_fract_x
 _atom_site_fract_y
 _atom_site_fract_z
 _atom_site_occupancy
  Ga  Ga0  1  0.66126992  0.20984524  0.20984524  1
  Ga  Ga1  1  0.33873008  0.79015476  0.79015476  1
  Pd  Pd2  1  0.00000000  0.00000000  0.00000000  1
  I  I3  1  0.14848611  0.68822467  0.08659591  1
  I  I4  1  0.85151389  0.91340409  0.31177533  1
  I  I5  1  0.36604866  0.17194258  0.17194258  1
  I  I6  1  0.63395134  0.82805742  0.82805742  1
  I  I7  1  0.14848611  0.08659591  0.68822467  1
  I  I8  1  0.85151389  0.31177533  0.91340409  1
  I  I9  1  0.68874063  0.38070554  0.38070554  1
  I  I10  1  0.31125937  0.61929446  0.61929446  1
