# generated using pymatgen
data_Na4SiSe4
_symmetry_space_group_name_H-M   'P 1'
_cell_length_a   7.21566859
_cell_length_b   9.31342122
_cell_length_c   14.44585691
_cell_angle_alpha   90.00000000
_cell_angle_beta   90.00000000
_cell_angle_gamma   90.00000000
_symmetry_Int_Tables_number   1
_chemical_formula_structural   Na4SiSe4
_chemical_formula_sum   'Na16 Si4 Se16'
_cell_volume   970.79857965
_cell_formula_units_Z   4
loop_
 _symmetry_equiv_pos_site_id
 _symmetry_equiv_pos_as_xyz
  1  'x, y, z'
loop_
 _atom_site_type_symbol
 _atom_site_label
 _atom_site_symmetry_multiplicity
 _atom_site_fract_x
 _atom_site_fract_y
 _atom_site_fract_z
 _atom_site_occupancy
  Na  Na0  1  0.00000000  0.00000000  0.00000000  1
  Na  Na1  1  0.50000000  0.00000000  0.50000000  1
  Na  Na2  1  0.00000000  0.50000000  0.00000000  1
  Na  Na3  1  0.50000000  0.50000000  0.50000000  1
  Na  Na4  1  -0.00337733  0.75000000  0.54554029  1
  Na  Na5  1  0.49662267  0.25000000  0.95445971  1
  Na  Na6  1  1.00337733  0.25000000  0.45445971  1
  Na  Na7  1  0.50337733  0.75000000  0.04554029  1
  Na  Na8  1  0.85973694  0.05165232  0.73271699  1
  Na  Na9  1  0.35973694  0.94834768  0.76728301  1
  Na  Na10  1  0.14026306  0.55165232  0.26728301  1
  Na  Na11  1  0.64026306  0.44834768  0.23271699  1
  Na  Na12  1  0.14026306  0.94834768  0.26728301  1
  Na  Na13  1  0.64026306  0.05165232  0.23271699  1
  Na  Na14  1  0.85973694  0.44834768  0.73271699  1
  Na  Na15  1  0.35973694  0.55165232  0.76728301  1
  Si  Si16  1  0.77989706  0.75000000  0.83506410  1
  Si  Si17  1  0.27989706  0.25000000  0.66493590  1
  Si  Si18  1  0.22010294  0.25000000  0.16493590  1
  Si  Si19  1  0.72010294  0.75000000  0.33506410  1
  Se  Se20  1  0.65736381  0.54890837  0.90445883  1
  Se  Se21  1  0.15736381  0.45109163  0.59554117  1
  Se  Se22  1  0.34263619  0.04890837  0.09554117  1
  Se  Se23  1  0.84263619  0.95109163  0.40445883  1
  Se  Se24  1  0.34263619  0.45109163  0.09554117  1
  Se  Se25  1  0.84263619  0.54890837  0.40445883  1
  Se  Se26  1  0.65736381  0.95109163  0.90445883  1
  Se  Se27  1  0.15736381  0.04890837  0.59554117  1
  Se  Se28  1  0.68473612  0.75000000  0.68260761  1
  Se  Se29  1  0.18473612  0.25000000  0.81739239  1
  Se  Se30  1  0.31526388  0.25000000  0.31739239  1
  Se  Se31  1  0.81526388  0.75000000  0.18260761  1
  Se  Se32  1  0.09441440  0.75000000  0.86081831  1
  Se  Se33  1  0.59441440  0.25000000  0.63918169  1
  Se  Se34  1  0.90558560  0.25000000  0.13918169  1
  Se  Se35  1  0.40558560  0.75000000  0.36081831  1
