# generated using pymatgen
data_Sr3SiO
_symmetry_space_group_name_H-M   'P 1'
_cell_length_a   7.20019712
_cell_length_b   7.15882967
_cell_length_c   10.15259766
_cell_angle_alpha   90.00000000
_cell_angle_beta   90.00000000
_cell_angle_gamma   90.00000000
_symmetry_Int_Tables_number   1
_chemical_formula_structural   Sr3SiO
_chemical_formula_sum   'Sr12 Si4 O4'
_cell_volume   523.31549179
_cell_formula_units_Z   4
loop_
 _symmetry_equiv_pos_site_id
 _symmetry_equiv_pos_as_xyz
  1  'x, y, z'
loop_
 _atom_site_type_symbol
 _atom_site_label
 _atom_site_symmetry_multiplicity
 _atom_site_fract_x
 _atom_site_fract_y
 _atom_site_fract_z
 _atom_site_occupancy
  O  O0  1  0.00000000  0.50000000  0.50000000  1
  O  O1  1  0.50000000  0.00000000  0.00000000  1
  O  O2  1  0.50000000  0.00000000  0.50000000  1
  O  O3  1  0.00000000  0.50000000  0.00000000  1
  Si  Si4  1  0.97242651  -0.00708943  0.25000000  1
  Si  Si5  1  0.47242651  0.50708943  0.25000000  1
  Si  Si6  1  0.52757349  0.49291057  0.75000000  1
  Si  Si7  1  0.02757349  1.00708943  0.75000000  1
  Sr  Sr8  1  0.21846801  0.78203917  0.03403646  1
  Sr  Sr9  1  0.71846801  0.71796083  0.46596354  1
  Sr  Sr10  1  0.28153199  0.28203917  0.96596354  1
  Sr  Sr11  1  0.78153199  0.21796083  0.53403646  1
  Sr  Sr12  1  0.21846801  0.78203917  0.46596354  1
  Sr  Sr13  1  0.71846801  0.71796083  0.03403646  1
  Sr  Sr14  1  0.28153199  0.28203917  0.53403646  1
  Sr  Sr15  1  0.78153199  0.21796083  0.96596354  1
  Sr  Sr16  1  0.51152237  0.06511124  0.25000000  1
  Sr  Sr17  1  0.01152237  0.43488876  0.25000000  1
  Sr  Sr18  1  0.98847763  0.56511124  0.75000000  1
  Sr  Sr19  1  0.48847763  0.93488876  0.75000000  1
