# generated using pymatgen
data_Ga2PdBr8
_symmetry_space_group_name_H-M   'P 1'
_cell_length_a   7.76254022
_cell_length_b   7.99158023
_cell_length_c   7.99158023
_cell_angle_alpha   67.07249441
_cell_angle_beta   82.67026802
_cell_angle_gamma   82.67026804
_symmetry_Int_Tables_number   1
_chemical_formula_structural   Ga2PdBr8
_chemical_formula_sum   'Ga2 Pd1 Br8'
_cell_volume   451.21188785
_cell_formula_units_Z   1
loop_
 _symmetry_equiv_pos_site_id
 _symmetry_equiv_pos_as_xyz
  1  'x, y, z'
loop_
 _atom_site_type_symbol
 _atom_site_label
 _atom_site_symmetry_multiplicity
 _atom_site_fract_x
 _atom_site_fract_y
 _atom_site_fract_z
 _atom_site_occupancy
  Ga  Ga0  1  0.66992832  0.21199775  0.21199775  1
  Ga  Ga1  1  0.33007168  0.78800225  0.78800225  1
  Br  Br2  1  0.15547749  0.08470500  0.69264486  1
  Br  Br3  1  0.15547749  0.69264486  0.08470500  1
  Br  Br4  1  0.84452251  0.91529500  0.30735514  1
  Br  Br5  1  0.28848133  0.62113355  0.62113355  1
  Br  Br6  1  0.84452251  0.30735514  0.91529500  1
  Br  Br7  1  0.38587391  0.18012464  0.18012464  1
  Br  Br8  1  0.61412609  0.81987536  0.81987536  1
  Br  Br9  1  0.71151867  0.37886645  0.37886645  1
  Pd  Pd10  1  0.00000000  0.00000000  0.00000000  1
