# generated using pymatgen
data_Ce4Ga5Br2
_symmetry_space_group_name_H-M   'P 1'
_cell_length_a   4.23407955
_cell_length_b   11.47938802
_cell_length_c   11.47938802
_cell_angle_alpha   93.79802042
_cell_angle_beta   90.00000000
_cell_angle_gamma   90.00000000
_symmetry_Int_Tables_number   1
_chemical_formula_structural   Ce4Ga5Br2
_chemical_formula_sum   'Ce8 Ga10 Br4'
_cell_volume   556.72614876
_cell_formula_units_Z   2
loop_
 _symmetry_equiv_pos_site_id
 _symmetry_equiv_pos_as_xyz
  1  'x, y, z'
loop_
 _atom_site_type_symbol
 _atom_site_label
 _atom_site_symmetry_multiplicity
 _atom_site_fract_x
 _atom_site_fract_y
 _atom_site_fract_z
 _atom_site_occupancy
  Ga  Ga0  1  0.50000000  0.57912797  0.57912797  1
  Ga  Ga1  1  0.50000000  0.42087203  0.42087203  1
  Ga  Ga2  1  0.00000000  0.89919757  0.53631061  1
  Ga  Ga3  1  0.00000000  0.10080243  0.46368939  1
  Ga  Ga4  1  0.00000000  0.53631061  0.89919757  1
  Ga  Ga5  1  0.00000000  0.46368939  0.10080243  1
  Ga  Ga6  1  0.50000000  0.78228181  0.51323595  1
  Ga  Ga7  1  0.50000000  0.21771819  0.48676405  1
  Ga  Ga8  1  0.50000000  0.48676405  0.21771819  1
  Ga  Ga9  1  0.50000000  0.51323595  0.78228181  1
  Br  Br10  1  0.50000000  0.12468558  0.12468558  1
  Br  Br11  1  0.50000000  0.87531442  0.87531442  1
  Br  Br12  1  0.00000000  0.17651961  0.82348039  1
  Br  Br13  1  0.00000000  0.82348039  0.17651961  1
  Ce  Ce14  1  0.50000000  0.04098355  0.67520413  1
  Ce  Ce15  1  0.50000000  0.95901645  0.32479587  1
  Ce  Ce16  1  0.50000000  0.67520413  0.04098355  1
  Ce  Ce17  1  0.50000000  0.32479587  0.95901645  1
  Ce  Ce18  1  0.00000000  0.73018307  0.73018307  1
  Ce  Ce19  1  0.00000000  0.26981693  0.26981693  1
  Ce  Ce20  1  0.00000000  0.63138106  0.36861894  1
  Ce  Ce21  1  0.00000000  0.36861894  0.63138106  1
