# generated using pymatgen
data_GaBr3
_symmetry_space_group_name_H-M   'P 1'
_cell_length_a   6.23690564
_cell_length_b   9.51865744
_cell_length_c   11.80304103
_cell_angle_alpha   108.35583308
_cell_angle_beta   90.00000000
_cell_angle_gamma   90.00000000
_symmetry_Int_Tables_number   1
_chemical_formula_structural   GaBr3
_chemical_formula_sum   'Ga4 Br12'
_cell_volume   665.05793281
_cell_formula_units_Z   4
loop_
 _symmetry_equiv_pos_site_id
 _symmetry_equiv_pos_as_xyz
  1  'x, y, z'
loop_
 _atom_site_type_symbol
 _atom_site_label
 _atom_site_symmetry_multiplicity
 _atom_site_fract_x
 _atom_site_fract_y
 _atom_site_fract_z
 _atom_site_occupancy
  Ga  Ga0  1  0.00366258  0.80926119  0.95376935  1
  Ga  Ga1  1  0.50366258  0.19073881  0.54623065  1
  Ga  Ga2  1  0.99633742  0.19073881  0.04623065  1
  Ga  Ga3  1  0.49633742  0.80926119  0.45376935  1
  Br  Br4  1  0.78210193  0.68071596  0.80175160  1
  Br  Br5  1  0.28210193  0.31928404  0.69824840  1
  Br  Br6  1  0.21789807  0.31928404  0.19824840  1
  Br  Br7  1  0.71789807  0.68071596  0.30175160  1
  Br  Br8  1  0.23094260  0.69072089  0.04603151  1
  Br  Br9  1  0.73094260  0.30927911  0.45396849  1
  Br  Br10  1  0.76905740  0.30927911  0.95396849  1
  Br  Br11  1  0.26905740  0.69072089  0.54603151  1
  Br  Br12  1  0.79526047  1.00024251  0.10847517  1
  Br  Br13  1  0.29526047  -0.00024251  0.39152483  1
  Br  Br14  1  0.20473953  -0.00024251  0.89152483  1
  Br  Br15  1  0.70473953  1.00024251  0.60847517  1
