# generated using pymatgen
data_Na3YbBr6
_symmetry_space_group_name_H-M   'P 1'
_cell_length_a   7.57762339
_cell_length_b   7.96945286
_cell_length_c   10.18878338
_cell_angle_alpha   90.00000000
_cell_angle_beta   90.11038002
_cell_angle_gamma   90.00000000
_symmetry_Int_Tables_number   1
_chemical_formula_structural   Na3YbBr6
_chemical_formula_sum   'Na6 Yb2 Br12'
_cell_volume   615.29451841
_cell_formula_units_Z   2
loop_
 _symmetry_equiv_pos_site_id
 _symmetry_equiv_pos_as_xyz
  1  'x, y, z'
loop_
 _atom_site_type_symbol
 _atom_site_label
 _atom_site_symmetry_multiplicity
 _atom_site_fract_x
 _atom_site_fract_y
 _atom_site_fract_z
 _atom_site_occupancy
  Na  Na0  1  -0.00000000  -0.00000000  0.50000000  1
  Na  Na1  1  0.50000000  0.50000000  -0.00000000  1
  Na  Na2  1  0.99354005  0.57606546  0.26065369  1
  Na  Na3  1  0.00645995  0.42393454  0.73934631  1
  Na  Na4  1  0.50645995  0.07606546  0.23934631  1
  Na  Na5  1  0.49354005  0.92393454  0.76065369  1
  Yb  Yb6  1  -0.00000000  -0.00000000  -0.00000000  1
  Yb  Yb7  1  0.50000000  0.50000000  0.50000000  1
  Br  Br8  1  0.82894520  0.30796651  0.08558530  1
  Br  Br9  1  0.17105480  0.69203349  0.91441470  1
  Br  Br10  1  0.67105480  0.80796651  0.41441470  1
  Br  Br11  1  0.32894520  0.19203349  0.58558530  1
  Br  Br12  1  0.15696421  0.90909252  0.24490234  1
  Br  Br13  1  0.84303579  0.09090748  0.75509766  1
  Br  Br14  1  0.34303579  0.40909252  0.25509766  1
  Br  Br15  1  0.65696421  0.59090748  0.74490234  1
  Br  Br16  1  0.68570543  0.81967909  0.07073208  1
  Br  Br17  1  0.31429457  0.18032091  0.92926792  1
  Br  Br18  1  0.81429457  0.31967909  0.42926792  1
  Br  Br19  1  0.18570543  0.68032091  0.57073208  1
