# generated using pymatgen
data_K4Ge9O20
_symmetry_space_group_name_H-M   'P 1'
_cell_length_a   7.63990498
_cell_length_b   11.92853459
_cell_length_c   11.92853459
_cell_angle_alpha   84.11388762
_cell_angle_beta   71.32277037
_cell_angle_gamma   71.32277036
_symmetry_Int_Tables_number   1
_chemical_formula_structural   K4Ge9O20
_chemical_formula_sum   'K8 Ge18 O40'
_cell_volume   975.59982490
_cell_formula_units_Z   2
loop_
 _symmetry_equiv_pos_site_id
 _symmetry_equiv_pos_as_xyz
  1  'x, y, z'
loop_
 _atom_site_type_symbol
 _atom_site_label
 _atom_site_symmetry_multiplicity
 _atom_site_fract_x
 _atom_site_fract_y
 _atom_site_fract_z
 _atom_site_occupancy
  O  O0  1  0.92143187  0.12725398  0.28018815  1
  O  O1  1  0.32887400  0.37274602  0.21981185  1
  O  O2  1  0.07856813  0.87274602  0.71981185  1
  O  O3  1  0.79837998  0.78018815  0.87274602  1
  O  O4  1  0.45131415  0.71981185  0.62725398  1
  O  O5  1  0.67112600  0.62725398  0.78018815  1
  O  O6  1  0.37595943  0.77415230  0.97111367  1
  O  O7  1  0.34707310  0.52888633  0.77415230  1
  O  O8  1  0.19890560  0.98129612  0.09438384  1
  O  O9  1  0.29328945  0.40561616  0.98129612  1
  O  O10  1  0.68020173  0.09438384  0.51870388  1
  O  O11  1  0.27458557  0.51870388  0.40561616  1
  O  O12  1  0.80109440  0.01870388  0.90561616  1
  O  O13  1  0.70671055  0.59438384  0.01870388  1
  O  O14  1  0.31979827  0.90561616  0.48129612  1
  O  O15  1  0.72541443  0.48129612  0.59438384  1
  O  O16  1  0.33746375  0.13218652  0.68920452  1
  O  O17  1  0.20162002  0.21981185  0.12725398  1
  O  O18  1  0.03034972  0.31079548  0.63218652  1
  O  O19  1  0.66253625  0.86781348  0.31079548  1
  O  O20  1  0.84114520  0.63218652  0.18920452  1
  O  O21  1  0.97333172  0.18920452  0.86781348  1
  O  O22  1  0.96965028  0.68920452  0.36781348  1
  O  O23  1  0.65011173  0.97111367  0.72584770  1
  O  O24  1  0.15885480  0.36781348  0.81079548  1
  O  O25  1  0.02666828  0.81079548  0.13218652  1
  O  O26  1  0.52699314  0.30756820  0.65001306  1
  O  O27  1  0.17700620  0.84998694  0.30756820  1
  O  O28  1  0.33456133  0.65001306  0.19243180  1
  O  O29  1  0.48457439  0.19243180  0.84998694  1
  O  O30  1  0.47300686  0.69243180  0.34998694  1
  O  O31  1  0.82299380  0.15001306  0.69243180  1
  O  O32  1  0.66543867  0.34998694  0.80756820  1
  O  O33  1  0.51542561  0.80756820  0.15001306  1
  O  O34  1  0.87877460  0.27415230  0.47111367  1
  O  O35  1  0.34988827  0.02888633  0.27415230  1
  O  O36  1  0.65292690  0.47111367  0.22584770  1
  O  O37  1  0.62404057  0.22584770  0.02888633  1
  O  O38  1  0.12122540  0.72584770  0.52888633  1
  O  O39  1  0.54868585  0.28018815  0.37274602  1
  K  K40  1  0.92858088  0.47078062  0.35674522  1
  K  K41  1  0.28532609  0.14325478  0.47078062  1
  K  K42  1  0.89936150  0.35674522  0.02921938  1
  K  K43  1  0.75610671  0.02921938  0.14325478  1
  K  K44  1  0.07141912  0.52921938  0.64325478  1
  K  K45  1  0.71467391  0.85674522  0.52921938  1
  K  K46  1  0.10063850  0.64325478  0.97078062  1
  K  K47  1  0.24389329  0.97078062  0.85674522  1
  Ge  Ge48  1  0.62601447  0.69826848  0.91596317  1
  Ge  Ge49  1  0.37398553  0.30173152  0.08403683  1
  Ge  Ge50  1  0.75975388  0.19826848  0.41596317  1
  Ge  Ge51  1  0.45802236  0.41596317  0.30173152  1
  Ge  Ge52  1  0.82428295  0.91596317  0.80173152  1
  Ge  Ge53  1  0.17571705  0.08403683  0.19826848  1
  Ge  Ge54  1  0.24024612  0.80173152  0.58403683  1
  Ge  Ge55  1  0.54197764  0.58403683  0.69826848  1
  Ge  Ge56  1  0.26531528  0.81836686  0.13419198  1
  Ge  Ge57  1  0.39950726  0.36580802  0.81836686  1
  Ge  Ge58  1  0.58368215  0.13419198  0.68163314  1
  Ge  Ge59  1  0.21787412  0.68163314  0.36580802  1
  Ge  Ge60  1  0.73468472  0.18163314  0.86580802  1
  Ge  Ge61  1  0.60049274  0.63419198  0.18163314  1
  Ge  Ge62  1  0.41631785  0.86580802  0.31836686  1
  Ge  Ge63  1  0.78212588  0.31836686  0.63419198  1
  Ge  Ge64  1  0.87500000  0.75000000  0.25000000  1
  Ge  Ge65  1  0.12500000  0.25000000  0.75000000  1
