# generated using pymatgen
data_LiHS
_symmetry_space_group_name_H-M   'P 1'
_cell_length_a   6.18884524
_cell_length_b   7.88985750
_cell_length_c   7.88985750
_cell_angle_alpha   90.00000000
_cell_angle_beta   90.00000000
_cell_angle_gamma   90.00000000
_symmetry_Int_Tables_number   1
_chemical_formula_structural   LiHS
_chemical_formula_sum   'Li8 H8 S8'
_cell_volume   385.25469634
_cell_formula_units_Z   8
loop_
 _symmetry_equiv_pos_site_id
 _symmetry_equiv_pos_as_xyz
  1  'x, y, z'
loop_
 _atom_site_type_symbol
 _atom_site_label
 _atom_site_symmetry_multiplicity
 _atom_site_fract_x
 _atom_site_fract_y
 _atom_site_fract_z
 _atom_site_occupancy
  H  H0  1  0.00000000  0.81324008  0.25113622  1
  H  H1  1  0.00000000  0.18675992  0.74886378  1
  H  H2  1  0.50000000  0.25113622  0.18675992  1
  H  H3  1  0.00000000  0.68675992  0.75113622  1
  H  H4  1  0.50000000  0.24886378  0.68675992  1
  H  H5  1  0.50000000  0.75113622  0.31324008  1
  H  H6  1  0.00000000  0.31324008  0.24886378  1
  H  H7  1  0.50000000  0.74886378  0.81324008  1
  Li  Li8  1  0.75000000  0.50000000  0.00000000  1
  Li  Li9  1  0.75000000  0.00000000  0.50000000  1
  Li  Li10  1  0.25000000  0.50000000  0.00000000  1
  Li  Li11  1  0.25000000  0.00000000  0.00000000  1
  Li  Li12  1  0.25000000  0.50000000  0.50000000  1
  Li  Li13  1  0.75000000  0.50000000  0.50000000  1
  Li  Li14  1  0.25000000  0.00000000  0.50000000  1
  Li  Li15  1  0.75000000  0.00000000  0.00000000  1
  S  S16  1  0.00000000  0.98452914  0.24982999  1
  S  S17  1  0.00000000  0.01547086  0.75017001  1
  S  S18  1  0.50000000  0.24982999  0.01547086  1
  S  S19  1  0.50000000  0.75017001  0.98452914  1
  S  S20  1  0.50000000  0.74982999  0.48452914  1
  S  S21  1  0.00000000  0.51547086  0.74982999  1
  S  S22  1  0.00000000  0.48452914  0.25017001  1
  S  S23  1  0.50000000  0.25017001  0.51547086  1
