# generated using pymatgen
data_Ho12Co7
_symmetry_space_group_name_H-M   'P 1'
_cell_length_a   8.24068620
_cell_length_b   9.18148480
_cell_length_c   11.14863875
_cell_angle_alpha   90.00000000
_cell_angle_beta   90.00000000
_cell_angle_gamma   102.09606883
_symmetry_Int_Tables_number   1
_chemical_formula_structural   Ho12Co7
_chemical_formula_sum   'Ho24 Co14'
_cell_volume   824.79707930
_cell_formula_units_Z   2
loop_
 _symmetry_equiv_pos_site_id
 _symmetry_equiv_pos_as_xyz
  1  'x, y, z'
loop_
 _atom_site_type_symbol
 _atom_site_label
 _atom_site_symmetry_multiplicity
 _atom_site_fract_x
 _atom_site_fract_y
 _atom_site_fract_z
 _atom_site_occupancy
  Co  Co0  1  0.00000000  0.50000000  0.50000000  1
  Co  Co1  1  0.50000000  0.00000000  0.00000000  1
  Co  Co2  1  0.06160148  0.97041089  0.32600741  1
  Co  Co3  1  0.43839852  0.52958911  0.82600741  1
  Co  Co4  1  0.93839852  0.02958911  0.67399259  1
  Co  Co5  1  0.56160148  0.47041089  0.17399259  1
  Co  Co6  1  0.40678366  0.90024177  0.59871927  1
  Co  Co7  1  0.09321634  0.59975823  0.09871927  1
  Co  Co8  1  0.59321634  0.09975823  0.40128073  1
  Co  Co9  1  0.90678366  0.40024177  0.90128073  1
  Co  Co10  1  0.05920897  0.15733719  0.18902868  1
  Co  Co11  1  0.44079103  0.34266281  0.68902868  1
  Co  Co12  1  0.94079103  0.84266281  0.81097132  1
  Co  Co13  1  0.55920897  0.65733719  0.31097132  1
  Ho  Ho14  1  0.22698593  0.46183493  0.29473799  1
  Ho  Ho15  1  0.27301407  0.03816507  0.79473799  1
  Ho  Ho16  1  0.83995369  0.34180738  0.15846407  1
  Ho  Ho17  1  0.66004631  0.15819262  0.65846407  1
  Ho  Ho18  1  0.16004631  0.65819262  0.84153593  1
  Ho  Ho19  1  0.33995369  0.84180738  0.34153593  1
  Ho  Ho20  1  0.80027781  0.64570995  0.99567540  1
  Ho  Ho21  1  0.69972219  0.85429005  0.49567540  1
  Ho  Ho22  1  0.19972219  0.35429005  0.00432460  1
  Ho  Ho23  1  0.30027781  0.14570995  0.50432460  1
  Ho  Ho24  1  0.72698593  0.96183493  0.20526201  1
  Ho  Ho25  1  0.77301407  0.53816507  0.70526201  1
  Ho  Ho26  1  0.14380132  0.91358778  0.07196356  1
  Ho  Ho27  1  0.35619868  0.58641222  0.57196356  1
  Ho  Ho28  1  0.85619868  0.08641222  0.92803644  1
  Ho  Ho29  1  0.64380132  0.41358778  0.42803644  1
  Ho  Ho30  1  0.07528391  0.32463248  0.69927031  1
  Ho  Ho31  1  0.42471609  0.17536752  0.19927031  1
  Ho  Ho32  1  0.92471609  0.67536752  0.30072969  1
  Ho  Ho33  1  0.57528391  0.82463248  0.80072969  1
  Ho  Ho34  1  0.42789000  0.69460100  0.07039949  1
  Ho  Ho35  1  0.07211000  0.80539900  0.57039949  1
  Ho  Ho36  1  0.57211000  0.30539900  0.92960051  1
  Ho  Ho37  1  0.92789000  0.19460100  0.42960051  1
