# generated using pymatgen
data_Er12Co7
_symmetry_space_group_name_H-M   'P 1'
_cell_length_a   8.20347448
_cell_length_b   9.16661111
_cell_length_c   11.07638444
_cell_angle_alpha   90.00000000
_cell_angle_beta   90.00000000
_cell_angle_gamma   102.22084124
_symmetry_Int_Tables_number   1
_chemical_formula_structural   Er12Co7
_chemical_formula_sum   'Er24 Co14'
_cell_volume   814.04773290
_cell_formula_units_Z   2
loop_
 _symmetry_equiv_pos_site_id
 _symmetry_equiv_pos_as_xyz
  1  'x, y, z'
loop_
 _atom_site_type_symbol
 _atom_site_label
 _atom_site_symmetry_multiplicity
 _atom_site_fract_x
 _atom_site_fract_y
 _atom_site_fract_z
 _atom_site_occupancy
  Co  Co0  1  0.00000000  0.50000000  0.50000000  1
  Co  Co1  1  0.50000000  0.00000000  0.00000000  1
  Co  Co2  1  0.05888844  0.96925715  0.32902902  1
  Co  Co3  1  0.44111156  0.53074285  0.82902902  1
  Co  Co4  1  0.94111156  0.03074285  0.67097098  1
  Co  Co5  1  0.55888844  0.46925715  0.17097098  1
  Co  Co6  1  0.40791714  0.90013638  0.59819613  1
  Co  Co7  1  0.09208286  0.59986362  0.09819613  1
  Co  Co8  1  0.59208286  0.09986362  0.40180387  1
  Co  Co9  1  0.90791714  0.40013638  0.90180387  1
  Co  Co10  1  0.05887671  0.15639405  0.18936548  1
  Co  Co11  1  0.44112329  0.34360595  0.68936548  1
  Co  Co12  1  0.94112329  0.84360595  0.81063452  1
  Co  Co13  1  0.55887671  0.65639405  0.31063452  1
  Er  Er14  1  0.22712395  0.46252475  0.29486560  1
  Er  Er15  1  0.27287605  0.03747525  0.79486560  1
  Er  Er16  1  0.84010379  0.34194737  0.15781210  1
  Er  Er17  1  0.65989621  0.15805263  0.65781210  1
  Er  Er18  1  0.15989621  0.65805263  0.84218790  1
  Er  Er19  1  0.34010379  0.84194737  0.34218790  1
  Er  Er20  1  0.79807742  0.64530657  0.99521606  1
  Er  Er21  1  0.70192258  0.85469343  0.49521606  1
  Er  Er22  1  0.20192258  0.35469343  0.00478394  1
  Er  Er23  1  0.29807742  0.14530657  0.50478394  1
  Er  Er24  1  0.72712395  0.96252475  0.20513440  1
  Er  Er25  1  0.77287605  0.53747525  0.70513440  1
  Er  Er26  1  0.14242116  0.91325314  0.07225829  1
  Er  Er27  1  0.35757884  0.58674686  0.57225829  1
  Er  Er28  1  0.85757884  0.08674686  0.92774171  1
  Er  Er29  1  0.64242116  0.41325314  0.42774171  1
  Er  Er30  1  0.07546093  0.32506995  0.69937519  1
  Er  Er31  1  0.42453907  0.17493005  0.19937519  1
  Er  Er32  1  0.92453907  0.67493005  0.30062481  1
  Er  Er33  1  0.57546093  0.82506995  0.80062481  1
  Er  Er34  1  0.42741503  0.69652701  0.07090885  1
  Er  Er35  1  0.07258497  0.80347299  0.57090885  1
  Er  Er36  1  0.57258497  0.30347299  0.92909115  1
  Er  Er37  1  0.92741503  0.19652701  0.42909115  1
