# generated using pymatgen
data_GaI3
_symmetry_space_group_name_H-M   'P 1'
_cell_length_a   6.69352320
_cell_length_b   10.15095257
_cell_length_c   12.71164859
_cell_angle_alpha   108.14193542
_cell_angle_beta   90.00000000
_cell_angle_gamma   90.00000000
_symmetry_Int_Tables_number   1
_chemical_formula_structural   GaI3
_chemical_formula_sum   'Ga4 I12'
_cell_volume   820.76482542
_cell_formula_units_Z   4
loop_
 _symmetry_equiv_pos_site_id
 _symmetry_equiv_pos_as_xyz
  1  'x, y, z'
loop_
 _atom_site_type_symbol
 _atom_site_label
 _atom_site_symmetry_multiplicity
 _atom_site_fract_x
 _atom_site_fract_y
 _atom_site_fract_z
 _atom_site_occupancy
  Ga  Ga0  1  0.00318253  0.80890246  0.95311770  1
  Ga  Ga1  1  0.50318253  0.19109754  0.54688230  1
  Ga  Ga2  1  0.99681747  0.19109754  0.04688230  1
  Ga  Ga3  1  0.49681747  0.80890246  0.45311770  1
  I  I4  1  0.77706230  0.67609160  0.79817150  1
  I  I5  1  0.27706230  0.32390840  0.70182850  1
  I  I6  1  0.22293770  0.32390840  0.20182850  1
  I  I7  1  0.72293770  0.67609160  0.29817150  1
  I  I8  1  0.23340297  0.68176691  0.04468472  1
  I  I9  1  0.73340297  0.31823309  0.45531528  1
  I  I10  1  0.76659703  0.31823309  0.95531528  1
  I  I11  1  0.26659703  0.68176691  0.54468472  1
  I  I12  1  0.78881692  0.99890014  0.11027376  1
  I  I13  1  0.28881692  0.00109986  0.38972624  1
  I  I14  1  0.21118308  0.00109986  0.88972624  1
  I  I15  1  0.71118308  0.99890014  0.61027376  1
