# generated using pymatgen
data_Dy2Zn17
_symmetry_space_group_name_H-M   'P 1'
_cell_length_a   6.79974291
_cell_length_b   6.79974291
_cell_length_c   6.79974292
_cell_angle_alpha   82.51178010
_cell_angle_beta   82.51178012
_cell_angle_gamma   82.51178014
_symmetry_Int_Tables_number   1
_chemical_formula_structural   Dy2Zn17
_chemical_formula_sum   'Dy2 Zn17'
_cell_volume   306.99559250
_cell_formula_units_Z   1
loop_
 _symmetry_equiv_pos_site_id
 _symmetry_equiv_pos_as_xyz
  1  'x, y, z'
loop_
 _atom_site_type_symbol
 _atom_site_label
 _atom_site_symmetry_multiplicity
 _atom_site_fract_x
 _atom_site_fract_y
 _atom_site_fract_z
 _atom_site_occupancy
  Zn  Zn0  1  0.35186028  0.35186028  0.83807185  1
  Zn  Zn1  1  0.35186028  0.83807185  0.35186028  1
  Zn  Zn2  1  0.09994973  0.09994973  0.09994973  1
  Zn  Zn3  1  0.90005027  0.90005027  0.90005027  1
  Zn  Zn4  1  0.00000000  0.00000000  0.50000000  1
  Zn  Zn5  1  0.50000000  0.00000000  0.00000000  1
  Zn  Zn6  1  0.00000000  0.50000000  0.00000000  1
  Zn  Zn7  1  0.70251358  0.29748642  0.00000000  1
  Zn  Zn8  1  0.00000000  0.70251358  0.29748642  1
  Zn  Zn9  1  0.29748642  0.00000000  0.70251358  1
  Zn  Zn10  1  0.29748642  0.70251358  0.00000000  1
  Zn  Zn11  1  0.00000000  0.29748642  0.70251358  1
  Zn  Zn12  1  0.70251358  0.00000000  0.29748642  1
  Zn  Zn13  1  0.64813972  0.16192815  0.64813972  1
  Zn  Zn14  1  0.64813972  0.64813972  0.16192815  1
  Zn  Zn15  1  0.16192815  0.64813972  0.64813972  1
  Zn  Zn16  1  0.83807185  0.35186028  0.35186028  1
  Dy  Dy17  1  0.66512343  0.66512343  0.66512343  1
  Dy  Dy18  1  0.33487657  0.33487657  0.33487657  1
