# generated using pymatgen
data_GaPS4
_symmetry_space_group_name_H-M   'P 1'
_cell_length_a   8.20691729
_cell_length_b   8.64432294
_cell_length_c   9.17571450
_cell_angle_alpha   94.66345410
_cell_angle_beta   90.00000000
_cell_angle_gamma   90.00000000
_symmetry_Int_Tables_number   1
_chemical_formula_structural   GaPS4
_chemical_formula_sum   'Ga4 P4 S16'
_cell_volume   648.79992696
_cell_formula_units_Z   4
loop_
 _symmetry_equiv_pos_site_id
 _symmetry_equiv_pos_as_xyz
  1  'x, y, z'
loop_
 _atom_site_type_symbol
 _atom_site_label
 _atom_site_symmetry_multiplicity
 _atom_site_fract_x
 _atom_site_fract_y
 _atom_site_fract_z
 _atom_site_occupancy
  P  P0  1  0.27252195  0.97912956  0.34765124  1
  P  P1  1  0.22747805  0.47912956  0.84765124  1
  P  P2  1  0.72747805  0.02087044  0.65234876  1
  P  P3  1  0.77252195  0.52087044  0.15234876  1
  S  S4  1  0.51343769  0.03834379  0.77082372  1
  S  S5  1  0.01343769  0.46165621  0.72917628  1
  S  S6  1  0.48656231  0.96165621  0.22917628  1
  S  S7  1  0.98656231  0.53834379  0.27082372  1
  S  S8  1  0.71853875  0.20517062  0.52257701  1
  S  S9  1  0.21853875  0.29482938  0.97742299  1
  S  S10  1  0.28146125  0.79482938  0.47742299  1
  S  S11  1  0.78146125  0.70517062  0.02257701  1
  S  S12  1  0.23742933  0.19373745  0.46120366  1
  S  S13  1  0.73742933  0.30626255  0.03879634  1
  S  S14  1  0.76257067  0.80626255  0.53879634  1
  S  S15  1  0.26257067  0.69373745  0.96120366  1
  S  S16  1  0.06456737  0.98047002  0.22003338  1
  S  S17  1  0.43543263  0.48047002  0.72003338  1
  S  S18  1  0.93543263  0.01952998  0.77996662  1
  S  S19  1  0.56456737  0.51952998  0.27996662  1
  Ga  Ga20  1  0.45584238  0.22949836  0.61630387  1
  Ga  Ga21  1  0.95584238  0.27050164  0.88369613  1
  Ga  Ga22  1  0.54415762  0.77050164  0.38369613  1
  Ga  Ga23  1  0.04415762  0.72949836  0.11630387  1
