# generated using pymatgen
data_Na3BO3
_symmetry_space_group_name_H-M   'P 1'
_cell_length_a   5.73027542
_cell_length_b   7.56721707
_cell_length_c   8.08201979
_cell_angle_alpha   90.00000000
_cell_angle_beta   92.65031995
_cell_angle_gamma   90.00000000
_symmetry_Int_Tables_number   1
_chemical_formula_structural   Na3BO3
_chemical_formula_sum   'Na12 B4 O12'
_cell_volume   350.07959985
_cell_formula_units_Z   4
loop_
 _symmetry_equiv_pos_site_id
 _symmetry_equiv_pos_as_xyz
  1  'x, y, z'
loop_
 _atom_site_type_symbol
 _atom_site_label
 _atom_site_symmetry_multiplicity
 _atom_site_fract_x
 _atom_site_fract_y
 _atom_site_fract_z
 _atom_site_occupancy
  B  B0  1  0.56864177  0.83828073  0.84673807  1
  B  B1  1  0.06864177  0.66171927  0.34673807  1
  B  B2  1  0.43135823  0.16171927  0.15326193  1
  B  B3  1  0.93135823  0.33828073  0.65326193  1
  O  O4  1  0.54241025  0.08294538  0.29219260  1
  O  O5  1  0.43926305  0.73133165  0.95071681  1
  O  O6  1  0.93926305  0.76866835  0.45071681  1
  O  O7  1  0.06073695  0.23133165  0.54928319  1
  O  O8  1  0.68854514  0.35238024  0.62663834  1
  O  O9  1  0.81145486  0.85238024  0.87336166  1
  O  O10  1  0.31145486  0.64761976  0.37336166  1
  O  O11  1  0.18854514  0.14761976  0.12663834  1
  O  O12  1  0.95758975  0.58294538  0.20780740  1
  O  O13  1  0.45758975  0.91705462  0.70780740  1
  O  O14  1  0.04241025  0.41705462  0.79219260  1
  O  O15  1  0.56073695  0.26866835  0.04928319  1
  Na  Na16  1  0.62094549  0.64898669  0.56948929  1
  Na  Na17  1  0.87905451  0.14898669  0.93051071  1
  Na  Na18  1  0.37905451  0.35101331  0.43051071  1
  Na  Na19  1  0.12094549  0.85101331  0.06948929  1
  Na  Na20  1  0.75224803  0.02649769  0.54337648  1
  Na  Na21  1  0.74775197  0.52649769  0.95662352  1
  Na  Na22  1  0.24775197  0.97350231  0.45662352  1
  Na  Na23  1  0.25224803  0.47350231  0.04337648  1
  Na  Na24  1  0.87372062  0.28098957  0.27785345  1
  Na  Na25  1  0.62627938  0.78098957  0.22214655  1
  Na  Na26  1  0.12627938  0.71901043  0.72214655  1
  Na  Na27  1  0.37372062  0.21901043  0.77785345  1
