# generated using pymatgen
data_CuTe2Cl
_symmetry_space_group_name_H-M   'P 1'
_cell_length_a   5.16216480
_cell_length_b   8.24194137
_cell_length_c   11.40076505
_cell_angle_alpha   103.49627354
_cell_angle_beta   90.00000000
_cell_angle_gamma   90.00000000
_symmetry_Int_Tables_number   1
_chemical_formula_structural   CuTe2Cl
_chemical_formula_sum   'Cu4 Te8 Cl4'
_cell_volume   471.66502936
_cell_formula_units_Z   4
loop_
 _symmetry_equiv_pos_site_id
 _symmetry_equiv_pos_as_xyz
  1  'x, y, z'
loop_
 _atom_site_type_symbol
 _atom_site_label
 _atom_site_symmetry_multiplicity
 _atom_site_fract_x
 _atom_site_fract_y
 _atom_site_fract_z
 _atom_site_occupancy
  Cl  Cl0  1  0.88812124  0.28767635  0.37259699  1
  Cl  Cl1  1  0.38812124  0.21232365  0.12740301  1
  Cl  Cl2  1  0.11187876  0.71232365  0.62740301  1
  Cl  Cl3  1  0.61187876  0.78767635  0.87259699  1
  Cu  Cu4  1  0.13899550  0.42196087  0.25209138  1
  Cu  Cu5  1  0.63899550  0.07803913  0.24790862  1
  Cu  Cu6  1  0.86100450  0.57803913  0.74790862  1
  Cu  Cu7  1  0.36100450  0.92196087  0.75209138  1
  Te  Te8  1  0.79692262  0.55976828  0.14497741  1
  Te  Te9  1  0.29692262  0.94023172  0.35502259  1
  Te  Te10  1  0.20307738  0.44023172  0.85502259  1
  Te  Te11  1  0.70307738  0.05976828  0.64497741  1
  Te  Te12  1  0.97748826  0.87024362  0.14074976  1
  Te  Te13  1  0.47748826  0.62975638  0.35925024  1
  Te  Te14  1  0.02251174  0.12975638  0.85925024  1
  Te  Te15  1  0.52251174  0.37024362  0.64074976  1
