# generated using pymatgen
data_CsWCl6
_symmetry_space_group_name_H-M   'P 1'
_cell_length_a   6.59259489
_cell_length_b   7.07439572
_cell_length_c   12.76027045
_cell_angle_alpha   100.82851974
_cell_angle_beta   90.00000000
_cell_angle_gamma   117.77156392
_symmetry_Int_Tables_number   1
_chemical_formula_structural   CsWCl6
_chemical_formula_sum   'Cs2 W2 Cl12'
_cell_volume   514.56421376
_cell_formula_units_Z   2
loop_
 _symmetry_equiv_pos_site_id
 _symmetry_equiv_pos_as_xyz
  1  'x, y, z'
loop_
 _atom_site_type_symbol
 _atom_site_label
 _atom_site_symmetry_multiplicity
 _atom_site_fract_x
 _atom_site_fract_y
 _atom_site_fract_z
 _atom_site_occupancy
  W  W0  1  0.00000000  0.00000000  0.00000000  1
  W  W1  1  0.50000000  0.00000000  0.50000000  1
  Cs  Cs2  1  0.61682705  0.50000000  0.25000000  1
  Cs  Cs3  1  0.38317295  0.50000000  0.75000000  1
  Cl  Cl4  1  0.12667173  0.93149293  0.15410946  1
  Cl  Cl5  1  0.69517880  0.06850707  0.34589054  1
  Cl  Cl6  1  0.87332827  0.06850707  0.84589054  1
  Cl  Cl7  1  0.30482120  0.93149293  0.65410946  1
  Cl  Cl8  1  0.61668147  0.81647631  0.03921021  1
  Cl  Cl9  1  0.30020517  0.18352369  0.46078979  1
  Cl  Cl10  1  0.38331853  0.18352369  0.96078979  1
  Cl  Cl11  1  0.69979483  0.81647631  0.53921021  1
  Cl  Cl12  1  0.03723639  0.33021121  0.10083021  1
  Cl  Cl13  1  0.20702518  0.66978879  0.39916979  1
  Cl  Cl14  1  0.96276361  0.66978879  0.89916979  1
  Cl  Cl15  1  0.79297482  0.33021121  0.60083021  1
