# generated using pymatgen
data_B5H6Br
_symmetry_space_group_name_H-M   'P 1'
_cell_length_a   7.59148504
_cell_length_b   12.22556961
_cell_length_c   13.77800809
_cell_angle_alpha   110.81086706
_cell_angle_beta   90.00000000
_cell_angle_gamma   90.00000000
_symmetry_Int_Tables_number   1
_chemical_formula_structural   B5H6Br
_chemical_formula_sum   'B40 H48 Br8'
_cell_volume   1195.31291603
_cell_formula_units_Z   8
loop_
 _symmetry_equiv_pos_site_id
 _symmetry_equiv_pos_as_xyz
  1  'x, y, z'
loop_
 _atom_site_type_symbol
 _atom_site_label
 _atom_site_symmetry_multiplicity
 _atom_site_fract_x
 _atom_site_fract_y
 _atom_site_fract_z
 _atom_site_occupancy
  H  H0  1  0.19705021  0.60383198  0.17026915  1
  H  H1  1  0.69705021  0.89616802  0.82973085  1
  H  H2  1  0.80294979  0.39616802  0.82973085  1
  H  H3  1  0.30294979  0.10383198  0.17026915  1
  H  H4  1  0.41751653  0.67980518  0.25029098  1
  H  H5  1  0.91751653  0.82019482  0.74970902  1
  H  H6  1  0.58248347  0.32019482  0.74970902  1
  H  H7  1  0.08248347  0.17980518  0.25029098  1
  H  H8  1  0.28228547  0.54853391  0.27698814  1
  H  H9  1  0.78228547  0.95146609  0.72301186  1
  H  H10  1  0.71771453  0.45146609  0.72301186  1
  H  H11  1  0.21771453  0.04853391  0.27698814  1
  H  H12  1  0.30326746  0.60571331  0.43141875  1
  H  H13  1  0.80326746  0.89428669  0.56858125  1
  H  H14  1  0.69673254  0.39428669  0.56858125  1
  H  H15  1  0.19673254  0.10571331  0.43141875  1
  H  H16  1  0.01099494  0.42400524  0.38311939  1
  H  H17  1  0.51099494  0.07599476  0.61688061  1
  H  H18  1  0.98900506  0.57599476  0.61688061  1
  H  H19  1  0.48900506  0.92400524  0.38311939  1
  H  H20  1  0.08953466  0.42475689  0.24503567  1
  H  H21  1  0.58953466  0.07524311  0.75496433  1
  H  H22  1  0.91046534  0.57524311  0.75496433  1
  H  H23  1  0.71164567  0.26032871  0.29781906  1
  H  H24  1  0.88220582  0.33867571  0.15558051  1
  H  H25  1  0.38220582  0.16132429  0.84441949  1
  H  H26  1  0.11779418  0.66132429  0.84441949  1
  H  H27  1  0.61779418  0.83867571  0.15558051  1
  H  H28  1  0.00447056  0.47868692  0.13710954  1
  H  H29  1  0.50447056  0.02131308  0.86289046  1
  H  H30  1  0.99552944  0.52131308  0.86289046  1
  H  H31  1  0.49552944  0.97868692  0.13710954  1
  H  H32  1  0.13410229  0.83030235  0.40126778  1
  H  H33  1  0.63410229  0.66969765  0.59873222  1
  H  H34  1  0.86589771  0.16969765  0.59873222  1
  H  H35  1  0.36589771  0.33030235  0.40126778  1
  H  H36  1  0.93362915  0.67179985  0.47944675  1
  H  H37  1  0.43362915  0.82820015  0.52055325  1
  H  H38  1  0.06637085  0.32820015  0.52055325  1
  H  H39  1  0.56637085  0.17179985  0.47944675  1
  H  H40  1  0.67582297  0.53872077  0.31981093  1
  H  H41  1  0.17582297  0.96127923  0.68018907  1
  H  H42  1  0.32417703  0.46127923  0.68018907  1
  H  H43  1  0.82417703  0.03872077  0.31981093  1
  H  H44  1  0.78835433  0.76032871  0.29781906  1
  H  H45  1  0.28835433  0.73967129  0.70218094  1
  H  H46  1  0.21164567  0.23967129  0.70218094  1
  H  H47  1  0.41046534  0.92475689  0.24503567  1
  B  B48  1  0.07570065  0.68625524  0.21039927  1
  B  B49  1  0.57570065  0.81374476  0.78960073  1
  B  B50  1  0.92429935  0.31374476  0.78960073  1
  B  B51  1  0.42429935  0.18625524  0.21039927  1
  B  B52  1  0.27233760  0.65239908  0.26486068  1
  B  B53  1  0.77233760  0.84760092  0.73513932  1
  B  B54  1  0.72766240  0.34760092  0.73513932  1
  B  B55  1  0.22766240  0.15239908  0.26486068  1
  B  B56  1  0.19966426  0.60506028  0.36626779  1
  B  B57  1  0.69966426  0.89493972  0.63373221  1
  B  B58  1  0.80033574  0.39493972  0.63373221  1
  B  B59  1  0.30033574  0.10506028  0.36626779  1
  B  B60  1  0.01332740  0.48743770  0.33453539  1
  B  B61  1  0.51332740  0.01256230  0.66546461  1
  B  B62  1  0.98667260  0.51256230  0.66546461  1
  B  B63  1  0.48667260  0.98743770  0.33453539  1
  B  B64  1  0.93144206  0.43465419  0.20521474  1
  B  B65  1  0.43144206  0.06534581  0.79478526  1
  B  B66  1  0.06855794  0.56534581  0.79478526  1
  B  B67  1  0.56855794  0.93465419  0.20521474  1
  B  B68  1  0.88578300  0.56285309  0.17621957  1
  B  B69  1  0.38578300  0.93714691  0.82378043  1
  B  B70  1  0.11421700  0.43714691  0.82378043  1
  B  B71  1  0.61421700  0.06285309  0.17621957  1
  B  B72  1  0.60401006  0.18678732  0.29067630  1
  B  B73  1  0.60864439  0.76882895  0.65288619  1
  B  B74  1  0.89135561  0.26882895  0.65288619  1
  B  B75  1  0.39135561  0.23117105  0.34711381  1
  B  B76  1  0.97555763  0.63817498  0.39021795  1
  B  B77  1  0.47555763  0.86182502  0.60978205  1
  B  B78  1  0.02444237  0.36182502  0.60978205  1
  B  B79  1  0.52444237  0.13817498  0.39021795  1
  B  B80  1  0.82416602  0.55012640  0.29672011  1
  B  B81  1  0.32416602  0.94987360  0.70327989  1
  B  B82  1  0.17583398  0.44987360  0.70327989  1
  B  B83  1  0.67583398  0.05012640  0.29672011  1
  B  B84  1  0.89598994  0.68678732  0.29067630  1
  B  B85  1  0.39598994  0.81321268  0.70932370  1
  B  B86  1  0.10401006  0.31321268  0.70932370  1
  B  B87  1  0.10864439  0.73117105  0.34711381  1
  Br  Br88  1  0.08359266  0.78592704  0.12660457  1
  Br  Br89  1  0.58359266  0.71407296  0.87339543  1
  Br  Br90  1  0.91640734  0.21407296  0.87339543  1
  Br  Br91  1  0.41640734  0.28592704  0.12660457  1
  Br  Br92  1  0.72703881  0.55362008  0.06164041  1
  Br  Br93  1  0.22703881  0.94637992  0.93835959  1
  Br  Br94  1  0.27296119  0.44637992  0.93835959  1
  Br  Br95  1  0.77296119  0.05362008  0.06164041  1
