# generated using pymatgen
data_NaYO2
_symmetry_space_group_name_H-M   'P 1'
_cell_length_a   5.99629682
_cell_length_b   6.11146532
_cell_length_c   7.45361435
_cell_angle_alpha   104.67128559
_cell_angle_beta   104.03637948
_cell_angle_gamma   112.92657485
_symmetry_Int_Tables_number   1
_chemical_formula_structural   NaYO2
_chemical_formula_sum   'Na4 Y4 O8'
_cell_volume   224.81437247
_cell_formula_units_Z   4
loop_
 _symmetry_equiv_pos_site_id
 _symmetry_equiv_pos_as_xyz
  1  'x, y, z'
loop_
 _atom_site_type_symbol
 _atom_site_label
 _atom_site_symmetry_multiplicity
 _atom_site_fract_x
 _atom_site_fract_y
 _atom_site_fract_z
 _atom_site_occupancy
  O  O0  1  0.06316103  0.76944112  0.62709106  1
  O  O1  1  0.56393004  0.35764994  0.62709106  1
  O  O2  1  0.93683897  0.23055888  0.37290894  1
  O  O3  1  0.43606996  0.64235006  0.37290894  1
  O  O4  1  0.83271283  0.54071020  0.12394077  1
  O  O5  1  0.70877206  0.91676943  0.87605923  1
  O  O6  1  0.16728717  0.45928980  0.87605923  1
  O  O7  1  0.29122794  0.08323057  0.12394077  1
  Na  Na8  1  0.43082007  0.18082007  0.86164013  1
  Na  Na9  1  0.19406596  0.94406596  0.38813191  1
  Na  Na10  1  0.56917993  0.81917993  0.13835987  1
  Na  Na11  1  0.80593404  0.05593404  0.61186809  1
  Y  Y12  1  0.31703991  0.56703991  0.63407982  1
  Y  Y13  1  0.68296009  0.43296009  0.36592018  1
  Y  Y14  1  0.05681682  0.30681682  0.11363363  1
  Y  Y15  1  0.94318318  0.69318318  0.88636637  1
