# generated using pymatgen
data_Na2Sb4O7
_symmetry_space_group_name_H-M   'P 1'
_cell_length_a   5.76979070
_cell_length_b   10.03876451
_cell_length_c   10.30880301
_cell_angle_alpha   118.20309106
_cell_angle_beta   104.77121940
_cell_angle_gamma   92.92990986
_symmetry_Int_Tables_number   1
_chemical_formula_structural   Na2Sb4O7
_chemical_formula_sum   'Na4 Sb8 O14'
_cell_volume   498.39805973
_cell_formula_units_Z   2
loop_
 _symmetry_equiv_pos_site_id
 _symmetry_equiv_pos_as_xyz
  1  'x, y, z'
loop_
 _atom_site_type_symbol
 _atom_site_label
 _atom_site_symmetry_multiplicity
 _atom_site_fract_x
 _atom_site_fract_y
 _atom_site_fract_z
 _atom_site_occupancy
  O  O0  1  0.73345677  0.22969202  0.23710975  1
  O  O1  1  0.14461835  0.61354251  0.13072274  1
  O  O2  1  0.26654323  0.77030798  0.76289025  1
  O  O3  1  0.49634701  0.49258227  0.76289025  1
  O  O4  1  0.94060442  0.69060442  0.88120883  1
  O  O5  1  0.05939558  0.30939558  0.11879117  1
  O  O6  1  0.01389562  0.98281978  0.86927726  1
  O  O7  1  0.85538165  0.38645749  0.86927726  1
  O  O8  1  0.98610438  0.01718022  0.13072274  1
  O  O9  1  0.72932619  0.30546288  0.52603234  1
  O  O10  1  0.20329385  0.27943054  0.47396766  1
  O  O11  1  0.27067381  0.69453712  0.47396766  1
  O  O12  1  0.50365299  0.50741773  0.23710975  1
  O  O13  1  0.79670615  0.72056946  0.52603234  1
  Na  Na14  1  0.59670077  0.67984881  0.68401006  1
  Na  Na15  1  0.08730929  0.50416125  0.68401006  1
  Na  Na16  1  0.40329923  0.32015119  0.31598994  1
  Na  Na17  1  0.91269071  0.49583875  0.31598994  1
  Sb  Sb18  1  0.79973997  0.11703067  0.01894237  1
  Sb  Sb19  1  0.78079760  0.59808830  0.98105763  1
  Sb  Sb20  1  0.20026003  0.88296933  0.98105763  1
  Sb  Sb21  1  0.21920240  0.40191170  0.01894237  1
  Sb  Sb22  1  0.12142487  0.86414511  0.63742995  1
  Sb  Sb23  1  0.51600508  0.27328484  0.63742995  1
  Sb  Sb24  1  0.87857513  0.13585489  0.36257005  1
  Sb  Sb25  1  0.48399492  0.72671516  0.36257005  1
