# generated using pymatgen
data_KAl2Br7
_symmetry_space_group_name_H-M   'P 1'
_cell_length_a   11.09634632
_cell_length_b   11.36825572
_cell_length_c   12.64468519
_cell_angle_alpha   90.00000000
_cell_angle_beta   102.55985502
_cell_angle_gamma   90.00000000
_symmetry_Int_Tables_number   1
_chemical_formula_structural   KAl2Br7
_chemical_formula_sum   'K4 Al8 Br28'
_cell_volume   1556.90653450
_cell_formula_units_Z   4
loop_
 _symmetry_equiv_pos_site_id
 _symmetry_equiv_pos_as_xyz
  1  'x, y, z'
loop_
 _atom_site_type_symbol
 _atom_site_label
 _atom_site_symmetry_multiplicity
 _atom_site_fract_x
 _atom_site_fract_y
 _atom_site_fract_z
 _atom_site_occupancy
  Al  Al0  1  0.60268756  0.28731532  0.20253056  1
  Al  Al1  1  0.89731244  0.78731532  0.29746944  1
  Al  Al2  1  0.39731244  0.71268468  0.79746944  1
  Al  Al3  1  0.10268756  0.21268468  0.70253056  1
  Al  Al4  1  0.28185445  0.21627834  0.45426541  1
  Al  Al5  1  0.21814555  0.71627834  0.04573459  1
  Al  Al6  1  0.71814555  0.78372166  0.54573459  1
  Al  Al7  1  0.78185445  0.28372166  0.95426541  1
  K  K8  1  0.73289765  0.38126573  0.61905931  1
  K  K9  1  0.76710235  0.88126573  0.88094069  1
  K  K10  1  0.26710235  0.61873427  0.38094069  1
  K  K11  1  0.23289765  0.11873427  0.11905931  1
  Br  Br12  1  0.70560269  0.40687614  0.08460210  1
  Br  Br13  1  0.79439731  0.90687614  0.41539790  1
  Br  Br14  1  0.29439731  0.59312386  0.91539790  1
  Br  Br15  1  0.20560269  0.09312386  0.58460210  1
  Br  Br16  1  0.89713579  0.13262650  0.04919601  1
  Br  Br17  1  0.60286421  0.63262650  0.45080399  1
  Br  Br18  1  0.10286421  0.86737350  0.95080399  1
  Br  Br19  1  0.39713579  0.36737350  0.54919601  1
  Br  Br20  1  0.61836766  0.21376171  0.82582067  1
  Br  Br21  1  0.88163234  0.71376171  0.67417933  1
  Br  Br22  1  0.38163234  0.78623829  0.17417933  1
  Br  Br23  1  0.11836766  0.28623829  0.32582067  1
  Br  Br24  1  0.89608945  0.41701658  0.88024739  1
  Br  Br25  1  0.60391055  0.91701658  0.61975261  1
  Br  Br26  1  0.10391055  0.58298342  0.11975261  1
  Br  Br27  1  0.39608945  0.08298342  0.38024739  1
  Br  Br28  1  0.24521425  0.22353650  0.86403983  1
  Br  Br29  1  0.25478575  0.72353650  0.63596017  1
  Br  Br30  1  0.75478575  0.77646350  0.13596017  1
  Br  Br31  1  0.74521425  0.27646350  0.36403983  1
  Br  Br32  1  0.92722243  0.10505093  0.70567970  1
  Br  Br33  1  0.57277757  0.60505093  0.79432030  1
  Br  Br34  1  0.07277757  0.89494907  0.29432030  1
  Br  Br35  1  0.42722243  0.39494907  0.20567970  1
  Br  Br36  1  0.05315376  0.39157682  0.62041665  1
  Br  Br37  1  0.44684624  0.89157682  0.87958335  1
  Br  Br38  1  0.94684624  0.60842318  0.37958335  1
  Br  Br39  1  0.55315376  0.10842318  0.12041665  1
