# generated using pymatgen
data_Te(HO)6
_symmetry_space_group_name_H-M   'P 1'
_cell_length_a   6.54252084
_cell_length_b   8.38834733
_cell_length_c   9.44044010
_cell_angle_alpha   90.00000000
_cell_angle_beta   90.00000000
_cell_angle_gamma   100.06037964
_symmetry_Int_Tables_number   1
_chemical_formula_structural   Te(HO)6
_chemical_formula_sum   'Te4 H24 O24'
_cell_volume   510.13400149
_cell_formula_units_Z   4
loop_
 _symmetry_equiv_pos_site_id
 _symmetry_equiv_pos_as_xyz
  1  'x, y, z'
loop_
 _atom_site_type_symbol
 _atom_site_label
 _atom_site_symmetry_multiplicity
 _atom_site_fract_x
 _atom_site_fract_y
 _atom_site_fract_z
 _atom_site_occupancy
  H  H0  1  0.29246344  0.30365006  0.83366409  1
  H  H1  1  0.70753656  0.19634994  0.33366409  1
  H  H2  1  0.70753656  0.69634994  0.16633591  1
  H  H3  1  0.29246344  0.80365006  0.66633591  1
  H  H4  1  0.68574193  0.76269478  0.46376201  1
  H  H5  1  0.31425807  0.73730522  0.96376201  1
  H  H6  1  0.75426196  0.01284702  0.70103731  1
  H  H7  1  0.24573804  0.48715298  0.20103731  1
  H  H8  1  0.24573804  0.98715298  0.29896269  1
  H  H9  1  0.75426196  0.51284702  0.79896269  1
  H  H10  1  0.64925081  0.37258975  0.59327483  1
  H  H11  1  0.35074919  0.12741025  0.09327483  1
  H  H12  1  0.35074919  0.62741025  0.40672517  1
  H  H13  1  0.64925081  0.87258975  0.90672517  1
  H  H14  1  0.95839493  0.20609318  0.56993602  1
  H  H15  1  0.04160507  0.29390682  0.06993602  1
  H  H16  1  0.04160507  0.79390682  0.43006398  1
  H  H17  1  0.95839493  0.70609318  0.93006398  1
  H  H18  1  0.23133268  0.03034298  0.78547302  1
  H  H19  1  0.76866732  0.46965702  0.28547302  1
  H  H20  1  0.76866732  0.96965702  0.21452698  1
  H  H21  1  0.23133268  0.53034298  0.71452698  1
  H  H22  1  0.31425807  0.23730522  0.53623799  1
  H  H23  1  0.68574193  0.26269478  0.03623799  1
  O  O24  1  0.35663513  0.92120514  0.67452352  1
  O  O25  1  0.64336487  0.57879486  0.17452352  1
  O  O26  1  0.64336487  0.07879486  0.32547648  1
  O  O27  1  0.35663513  0.42120514  0.82547648  1
  O  O28  1  0.53927652  0.28188954  0.04893091  1
  O  O29  1  0.46072348  0.21811046  0.54893091  1
  O  O30  1  0.76595396  0.04647941  0.59832060  1
  O  O31  1  0.23404604  0.45352059  0.09832060  1
  O  O32  1  0.23404604  0.95352059  0.40167940  1
  O  O33  1  0.76595396  0.54647941  0.90167940  1
  O  O34  1  0.76137325  0.96190759  0.87259321  1
  O  O35  1  0.23862675  0.53809241  0.37259321  1
  O  O36  1  0.23862675  0.03809241  0.12740679  1
  O  O37  1  0.76137325  0.46190759  0.62740679  1
  O  O38  1  0.08023895  0.29343018  0.54781126  1
  O  O39  1  0.91976105  0.20656982  0.04781126  1
  O  O40  1  0.91976105  0.70656982  0.45218874  1
  O  O41  1  0.08023895  0.79343018  0.95218874  1
  O  O42  1  0.16559009  0.60768976  0.65555653  1
  O  O43  1  0.83440991  0.89231024  0.15555653  1
  O  O44  1  0.83440991  0.39231024  0.34444347  1
  O  O45  1  0.16559009  0.10768976  0.84444347  1
  O  O46  1  0.46072348  0.71811046  0.95106909  1
  O  O47  1  0.53927652  0.78188954  0.45106909  1
  Te  Te48  1  0.50000000  0.00000000  0.50000000  1
  Te  Te49  1  0.50000000  0.50000000  0.00000000  1
  Te  Te50  1  0.00000000  0.50000000  0.50000000  1
  Te  Te51  1  0.00000000  0.00000000  0.00000000  1
