# generated using pymatgen
data_Na3Zn2(WO4)3
_symmetry_space_group_name_H-M   'P 1'
_cell_length_a   7.38881547
_cell_length_b   9.32191944
_cell_length_c   9.32191944
_cell_angle_alpha   98.39691938
_cell_angle_beta   105.52876528
_cell_angle_gamma   105.52876528
_symmetry_Int_Tables_number   1
_chemical_formula_structural   Na3Zn2(WO4)3
_chemical_formula_sum   'Na6 Zn4 W6 O24'
_cell_volume   579.43156583
_cell_formula_units_Z   2
loop_
 _symmetry_equiv_pos_site_id
 _symmetry_equiv_pos_as_xyz
  1  'x, y, z'
loop_
 _atom_site_type_symbol
 _atom_site_label
 _atom_site_symmetry_multiplicity
 _atom_site_fract_x
 _atom_site_fract_y
 _atom_site_fract_z
 _atom_site_occupancy
  Na  Na0  1  0.75000000  0.23477894  0.76522106  1
  Na  Na1  1  0.25000000  0.76522106  0.23477894  1
  Na  Na2  1  -0.00000000  -0.00000000  -0.00000000  1
  Na  Na3  1  0.50000000  -0.00000000  -0.00000000  1
  Na  Na4  1  0.75000000  0.52388668  0.47611332  1
  Na  Na5  1  0.25000000  0.47611332  0.52388668  1
  Zn  Zn6  1  0.63021416  0.55781875  0.86433234  1
  Zn  Zn7  1  0.36978584  0.44218125  0.13566766  1
  Zn  Zn8  1  0.86978584  0.13566766  0.44218125  1
  Zn  Zn9  1  0.13021416  0.86433234  0.55781875  1
  W  W10  1  0.75000000  0.77622265  0.22377735  1
  W  W11  1  0.25000000  0.22377735  0.77622265  1
  W  W12  1  0.87892323  0.38134658  0.16805780  1
  W  W13  1  0.12107677  0.61865342  0.83194220  1
  W  W14  1  0.62107677  0.83194220  0.61865342  1
  W  W15  1  0.37892323  0.16805780  0.38134658  1
  O  O16  1  0.67799720  0.46325515  0.11670479  1
  O  O17  1  0.32200280  0.53674485  0.88329521  1
  O  O18  1  0.82200280  0.88329521  0.53674485  1
  O  O19  1  0.17799720  0.11670479  0.46325515  1
  O  O20  1  0.88365077  0.50424082  0.84007599  1
  O  O21  1  0.11634923  0.49575918  0.15992401  1
  O  O22  1  0.61634923  0.15992401  0.49575918  1
  O  O23  1  0.38365077  0.84007599  0.50424082  1
  O  O24  1  0.80419241  0.20038508  0.03695596  1
  O  O25  1  0.19580759  0.79961492  0.96304404  1
  O  O26  1  0.69580759  0.96304404  0.79961492  1
  O  O27  1  0.30419241  0.03695596  0.20038508  1
  O  O28  1  0.76749939  0.75186509  0.02271318  1
  O  O29  1  0.23250061  0.24813491  0.97728682  1
  O  O30  1  0.73250061  0.97728682  0.24813491  1
  O  O31  1  0.26749939  0.02271318  0.75186509  1
  O  O32  1  0.52027704  0.65675265  0.25930929  1
  O  O33  1  0.47972296  0.34324735  0.74069071  1
  O  O34  1  0.97972296  0.74069071  0.34324735  1
  O  O35  1  0.02027704  0.25930929  0.65675265  1
  O  O36  1  0.58718869  0.63865027  0.65300244  1
  O  O37  1  0.41281131  0.36134973  0.34699756  1
  O  O38  1  0.91281131  0.34699756  0.36134973  1
  O  O39  1  0.08718869  0.65300244  0.63865027  1
