# generated using pymatgen
data_Na2Eu2Ti2O9
_symmetry_space_group_name_H-M   'P 1'
_cell_length_a   3.69748322
_cell_length_b   3.65759513
_cell_length_c   15.23091328
_cell_angle_alpha   83.10377667
_cell_angle_beta   83.02819818
_cell_angle_gamma   90.00000000
_symmetry_Int_Tables_number   1
_chemical_formula_structural   Na2Eu2Ti2O9
_chemical_formula_sum   'Na2 Eu2 Ti2 O9'
_cell_volume   202.95686890
_cell_formula_units_Z   1
loop_
 _symmetry_equiv_pos_site_id
 _symmetry_equiv_pos_as_xyz
  1  'x, y, z'
loop_
 _atom_site_type_symbol
 _atom_site_label
 _atom_site_symmetry_multiplicity
 _atom_site_fract_x
 _atom_site_fract_y
 _atom_site_fract_z
 _atom_site_occupancy
  Na  Na0  1  0.44849937  0.49933956  0.10300125  1
  Na  Na1  1  0.55150063  0.60234081  0.89699875  1
  Eu  Eu2  1  0.29746056  0.30307873  0.40507888  1
  Eu  Eu3  1  0.70253944  0.70815761  0.59492112  1
  Ti  Ti4  1  0.12743873  0.13469361  0.74512254  1
  Ti  Ti5  1  0.87256127  0.87981615  0.25487746  1
  O  O6  1  0.06903465  0.07202923  0.86193070  1
  O  O7  1  0.93096535  0.93395992  0.13806930  1
  O  O8  1  0.22144495  0.22643438  0.55711011  1
  O  O9  1  0.77855505  0.78354449  0.44288989  1
  O  O10  1  0.64672666  0.15185966  0.70654667  1
  O  O11  1  0.14819068  0.65459980  0.70361864  1
  O  O12  1  0.35327334  0.85840633  0.29345333  1
  O  O13  1  0.85180932  0.35821845  0.29638136  1
  O  O14  1  0.50000000  0.05352129  1.00000000  1
