# generated using pymatgen
data_B6H10N
_symmetry_space_group_name_H-M   'P 1'
_cell_length_a   7.77524665
_cell_length_b   7.77524666
_cell_length_c   7.77524665
_cell_angle_alpha   59.99999998
_cell_angle_beta   59.99999997
_cell_angle_gamma   60.00000001
_symmetry_Int_Tables_number   1
_chemical_formula_structural   B6H10N
_chemical_formula_sum   'B12 H20 N2'
_cell_volume   332.37436982
_cell_formula_units_Z   2
loop_
 _symmetry_equiv_pos_site_id
 _symmetry_equiv_pos_as_xyz
  1  'x, y, z'
loop_
 _atom_site_type_symbol
 _atom_site_label
 _atom_site_symmetry_multiplicity
 _atom_site_fract_x
 _atom_site_fract_y
 _atom_site_fract_z
 _atom_site_occupancy
  H  H0  1  0.80428675  0.80428675  0.58713975  1
  H  H1  1  0.80428675  0.58713975  0.80428675  1
  H  H2  1  0.58713975  0.80428675  0.80428675  1
  H  H3  1  0.80428675  0.80428675  0.80428675  1
  H  H4  1  0.19571325  0.19571325  0.41286025  1
  H  H5  1  0.19571325  0.41286025  0.19571325  1
  H  H6  1  0.41286025  0.19571325  0.19571325  1
  H  H7  1  0.19571325  0.19571325  0.19571325  1
  H  H8  1  0.91263687  0.36209310  0.63790690  1
  H  H9  1  0.63790690  0.08736313  0.91263687  1
  H  H10  1  0.08736313  0.63790690  0.36209310  1
  H  H11  1  0.36209310  0.63790690  0.91263687  1
  H  H12  1  0.36209310  0.08736313  0.63790690  1
  H  H13  1  0.08736313  0.91263687  0.63790690  1
  H  H14  1  0.36209310  0.91263687  0.08736313  1
  H  H15  1  0.08736313  0.36209310  0.91263687  1
  H  H16  1  0.91263687  0.08736313  0.36209310  1
  H  H17  1  0.63790690  0.36209310  0.08736313  1
  H  H18  1  0.91263687  0.63790690  0.08736313  1
  H  H19  1  0.63790690  0.91263687  0.36209310  1
  B  B20  1  0.94950979  0.21173836  0.78826164  1
  B  B21  1  0.78826164  0.05049021  0.94950979  1
  B  B22  1  0.05049021  0.78826164  0.21173836  1
  B  B23  1  0.21173836  0.78826164  0.94950979  1
  B  B24  1  0.21173836  0.05049021  0.78826164  1
  B  B25  1  0.05049021  0.94950979  0.78826164  1
  B  B26  1  0.78826164  0.94950979  0.21173836  1
  B  B27  1  0.94950979  0.78826164  0.05049021  1
  B  B28  1  0.78826164  0.21173836  0.05049021  1
  B  B29  1  0.94950979  0.05049021  0.21173836  1
  B  B30  1  0.05049021  0.21173836  0.94950979  1
  B  B31  1  0.21173836  0.94950979  0.05049021  1
  N  N32  1  0.75000000  0.75000000  0.75000000  1
  N  N33  1  0.25000000  0.25000000  0.25000000  1
