# generated using pymatgen
data_K3Zn2F7
_symmetry_space_group_name_H-M   'P 1'
_cell_length_a   4.14200924
_cell_length_b   4.14200925
_cell_length_c   11.12504404
_cell_angle_alpha   100.72859436
_cell_angle_beta   100.72859434
_cell_angle_gamma   90.00000008
_symmetry_Int_Tables_number   1
_chemical_formula_structural   K3Zn2F7
_chemical_formula_sum   'K3 Zn2 F7'
_cell_volume   184.13089356
_cell_formula_units_Z   1
loop_
 _symmetry_equiv_pos_site_id
 _symmetry_equiv_pos_as_xyz
  1  'x, y, z'
loop_
 _atom_site_type_symbol
 _atom_site_label
 _atom_site_symmetry_multiplicity
 _atom_site_fract_x
 _atom_site_fract_y
 _atom_site_fract_z
 _atom_site_occupancy
  F  F0  1  0.00000000  0.00000000  0.00000000  1
  F  F1  1  0.40468365  0.90468365  0.80936730  1
  F  F2  1  0.90468365  0.40468365  0.80936730  1
  F  F3  1  0.59531635  0.09531635  0.19063270  1
  F  F4  1  0.09531635  0.59531635  0.19063270  1
  F  F5  1  0.19193827  0.19193827  0.38387654  1
  F  F6  1  0.80806173  0.80806173  0.61612346  1
  K  K7  1  0.31529704  0.31529704  0.63059407  1
  K  K8  1  0.68470296  0.68470296  0.36940593  1
  K  K9  1  0.50000000  0.50000000  0.00000000  1
  Zn  Zn10  1  0.09680790  0.09680790  0.19361580  1
  Zn  Zn11  1  0.90319210  0.90319210  0.80638420  1
