# generated using pymatgen
data_Ta2VO6
_symmetry_space_group_name_H-M   'P 1'
_cell_length_a   4.84074081
_cell_length_b   4.84074081
_cell_length_c   9.24549995
_cell_angle_alpha   90.00000000
_cell_angle_beta   90.00000000
_cell_angle_gamma   90.00000000
_symmetry_Int_Tables_number   1
_chemical_formula_structural   Ta2VO6
_chemical_formula_sum   'Ta4 V2 O12'
_cell_volume   216.64768856
_cell_formula_units_Z   2
loop_
 _symmetry_equiv_pos_site_id
 _symmetry_equiv_pos_as_xyz
  1  'x, y, z'
loop_
 _atom_site_type_symbol
 _atom_site_label
 _atom_site_symmetry_multiplicity
 _atom_site_fract_x
 _atom_site_fract_y
 _atom_site_fract_z
 _atom_site_occupancy
  O  O0  1  0.70576634  0.70576634  0.67857236  1
  O  O1  1  0.29423366  0.29423366  0.67857236  1
  O  O2  1  0.70576634  0.70576634  0.32142764  1
  O  O3  1  0.20576634  0.79423366  0.17857236  1
  O  O4  1  0.79423366  0.20576634  0.17857236  1
  O  O5  1  0.79423366  0.20576634  0.82142764  1
  O  O6  1  0.31459785  0.31459785  0.00000000  1
  O  O7  1  0.18540215  0.81459785  0.50000000  1
  O  O8  1  0.81459785  0.18540215  0.50000000  1
  O  O9  1  0.68540215  0.68540215  0.00000000  1
  O  O10  1  0.29423366  0.29423366  0.32142764  1
  O  O11  1  0.20576634  0.79423366  0.82142764  1
  V  V12  1  0.00000000  0.00000000  0.00000000  1
  V  V13  1  0.50000000  0.50000000  0.50000000  1
  Ta  Ta14  1  0.50000000  0.50000000  0.83053901  1
  Ta  Ta15  1  0.00000000  0.00000000  0.33053901  1
  Ta  Ta16  1  0.50000000  0.50000000  0.16946099  1
  Ta  Ta17  1  0.00000000  0.00000000  0.66946099  1
