# generated using pymatgen
data_Hg2GeSe4
_symmetry_space_group_name_H-M   'P 1'
_cell_length_a   5.82767883
_cell_length_b   5.82767883
_cell_length_c   7.15338473
_cell_angle_alpha   114.03766867
_cell_angle_beta   114.03766869
_cell_angle_gamma   90.00000004
_symmetry_Int_Tables_number   1
_chemical_formula_structural   Hg2GeSe4
_chemical_formula_sum   'Hg2 Ge1 Se4'
_cell_volume   198.58238583
_cell_formula_units_Z   1
loop_
 _symmetry_equiv_pos_site_id
 _symmetry_equiv_pos_as_xyz
  1  'x, y, z'
loop_
 _atom_site_type_symbol
 _atom_site_label
 _atom_site_symmetry_multiplicity
 _atom_site_fract_x
 _atom_site_fract_y
 _atom_site_fract_z
 _atom_site_occupancy
  Ge  Ge0  1  0.75000000  0.25000000  0.50000000  1
  Se  Se1  1  0.07331591  0.63754626  0.75936928  1
  Se  Se2  1  0.87817699  0.92668409  0.24063072  1
  Se  Se3  1  0.68605336  0.12182301  0.75936928  1
  Se  Se4  1  0.36245374  0.31394664  0.24063072  1
  Hg  Hg5  1  0.50000000  0.50000000  0.00000000  1
  Hg  Hg6  1  0.25000000  0.75000000  0.50000000  1
