# generated using pymatgen
data_Na3La(AsO4)2
_symmetry_space_group_name_H-M   'P 1'
_cell_length_a   6.00066247
_cell_length_b   6.00066247
_cell_length_c   7.45561515
_cell_angle_alpha   90.00000000
_cell_angle_beta   90.00000000
_cell_angle_gamma   119.99999898
_symmetry_Int_Tables_number   1
_chemical_formula_structural   Na3La(AsO4)2
_chemical_formula_sum   'Na3 La1 As2 O8'
_cell_volume   232.49441024
_cell_formula_units_Z   1
loop_
 _symmetry_equiv_pos_site_id
 _symmetry_equiv_pos_as_xyz
  1  'x, y, z'
loop_
 _atom_site_type_symbol
 _atom_site_label
 _atom_site_symmetry_multiplicity
 _atom_site_fract_x
 _atom_site_fract_y
 _atom_site_fract_z
 _atom_site_occupancy
  Na  Na0  1  0.66666700  0.33333300  0.29332873  1
  Na  Na1  1  0.33333300  0.66666700  0.70667127  1
  Na  Na2  1  -0.00000000  -0.00000000  0.00000000  1
  La  La3  1  -0.00000000  -0.00000000  0.50000000  1
  As  As4  1  0.66666700  0.33333300  0.78342101  1
  As  As5  1  0.33333300  0.66666700  0.21657899  1
  O  O6  1  0.66666700  0.33333300  0.00716650  1
  O  O7  1  0.33333300  0.66666700  0.99283350  1
  O  O8  1  0.82077686  0.64155373  0.69389245  1
  O  O9  1  0.17922314  0.35844627  0.30610755  1
  O  O10  1  0.82077686  0.17922314  0.69389245  1
  O  O11  1  0.17922314  0.82077686  0.30610755  1
  O  O12  1  0.35844627  0.17922314  0.69389245  1
  O  O13  1  0.64155373  0.82077686  0.30610755  1
