# generated using pymatgen
data_S(IO3)2
_symmetry_space_group_name_H-M   'P 1'
_cell_length_a   4.76005727
_cell_length_b   8.02577103
_cell_length_c   9.46906467
_cell_angle_alpha   73.35183144
_cell_angle_beta   75.44271720
_cell_angle_gamma   72.74959744
_symmetry_Int_Tables_number   1
_chemical_formula_structural   S(IO3)2
_chemical_formula_sum   'S2 I4 O12'
_cell_volume   325.47528477
_cell_formula_units_Z   2
loop_
 _symmetry_equiv_pos_site_id
 _symmetry_equiv_pos_as_xyz
  1  'x, y, z'
loop_
 _atom_site_type_symbol
 _atom_site_label
 _atom_site_symmetry_multiplicity
 _atom_site_fract_x
 _atom_site_fract_y
 _atom_site_fract_z
 _atom_site_occupancy
  O  O0  1  0.33511212  0.39161911  0.65273016  1
  O  O1  1  0.37946139  0.10838089  0.84726984  1
  O  O2  1  0.66488788  0.60838089  0.34726984  1
  O  O3  1  0.62053861  0.89161911  0.15273016  1
  O  O4  1  0.90951706  0.32724297  0.85409359  1
  O  O5  1  0.09085363  0.17275703  0.64590641  1
  O  O6  1  0.74417321  0.21197167  0.34830220  1
  O  O7  1  0.30444708  0.28802833  0.15169780  1
  O  O8  1  0.25582679  0.78802833  0.65169780  1
  O  O9  1  0.69555292  0.71197167  0.84830220  1
  O  O10  1  0.90914637  0.82724297  0.35409359  1
  O  O11  1  0.09048294  0.67275703  0.14590641  1
  S  S12  1  0.18228889  0.25000000  0.75000000  1
  S  S13  1  0.81771111  0.75000000  0.25000000  1
  I  I14  1  0.54006003  0.57373974  0.75098170  1
  I  I15  1  0.86478147  0.92626026  0.74901830  1
  I  I16  1  0.45993997  0.42626026  0.24901830  1
  I  I17  1  0.13521853  0.07373974  0.25098170  1
