# generated using pymatgen
data_Mn3SiNi
_symmetry_space_group_name_H-M   'P 1'
_cell_length_a   6.05351345
_cell_length_b   6.05351345
_cell_length_c   6.05351345
_cell_angle_alpha   90.00000000
_cell_angle_beta   90.00000000
_cell_angle_gamma   90.00000000
_symmetry_Int_Tables_number   1
_chemical_formula_structural   Mn3SiNi
_chemical_formula_sum   'Mn12 Si4 Ni4'
_cell_volume   221.83115225
_cell_formula_units_Z   4
loop_
 _symmetry_equiv_pos_site_id
 _symmetry_equiv_pos_as_xyz
  1  'x, y, z'
loop_
 _atom_site_type_symbol
 _atom_site_label
 _atom_site_symmetry_multiplicity
 _atom_site_fract_x
 _atom_site_fract_y
 _atom_site_fract_z
 _atom_site_occupancy
  Mn  Mn0  1  0.12328102  0.20359774  0.45470696  1
  Mn  Mn1  1  0.37671898  0.79640226  0.95470696  1
  Mn  Mn2  1  0.87671898  0.70359774  0.04529304  1
  Mn  Mn3  1  0.45470696  0.12328102  0.20359774  1
  Mn  Mn4  1  0.62328102  0.29640226  0.54529304  1
  Mn  Mn5  1  0.95470696  0.37671898  0.79640226  1
  Mn  Mn6  1  0.04529304  0.87671898  0.70359774  1
  Mn  Mn7  1  0.54529304  0.62328102  0.29640226  1
  Mn  Mn8  1  0.20359774  0.45470696  0.12328102  1
  Mn  Mn9  1  0.70359774  0.04529304  0.87671898  1
  Mn  Mn10  1  0.29640226  0.54529304  0.62328102  1
  Mn  Mn11  1  0.79640226  0.95470696  0.37671898  1
  Si  Si12  1  0.06275531  0.06275531  0.06275531  1
  Si  Si13  1  0.43724469  0.93724469  0.56275531  1
  Si  Si14  1  0.93724469  0.56275531  0.43724469  1
  Si  Si15  1  0.56275531  0.43724469  0.93724469  1
  Ni  Ni16  1  0.68671436  0.68671436  0.68671436  1
  Ni  Ni17  1  0.81328564  0.31328564  0.18671436  1
  Ni  Ni18  1  0.31328564  0.18671436  0.81328564  1
  Ni  Ni19  1  0.18671436  0.81328564  0.31328564  1
