# generated using pymatgen
data_Be2SiO4
_symmetry_space_group_name_H-M   'P 1'
_cell_length_a   7.76980038
_cell_length_b   7.76980038
_cell_length_c   7.76980038
_cell_angle_alpha   108.01475708
_cell_angle_beta   108.01475708
_cell_angle_gamma   108.01475702
_symmetry_Int_Tables_number   1
_chemical_formula_structural   Be2SiO4
_chemical_formula_sum   'Be12 Si6 O24'
_cell_volume   379.30608284
_cell_formula_units_Z   6
loop_
 _symmetry_equiv_pos_site_id
 _symmetry_equiv_pos_as_xyz
  1  'x, y, z'
loop_
 _atom_site_type_symbol
 _atom_site_label
 _atom_site_symmetry_multiplicity
 _atom_site_fract_x
 _atom_site_fract_y
 _atom_site_fract_z
 _atom_site_occupancy
  Be  Be0  1  0.12707388  0.89851567  0.72123024  1
  Be  Be1  1  0.89851567  0.72123024  0.12707388  1
  Be  Be2  1  0.72123024  0.12707388  0.89851567  1
  Be  Be3  1  0.87292612  0.10148433  0.27876976  1
  Be  Be4  1  0.10148433  0.27876976  0.87292612  1
  Be  Be5  1  0.27876976  0.87292612  0.10148433  1
  Be  Be6  1  0.60992702  0.20580814  0.43112718  1
  Be  Be7  1  0.43112718  0.60992702  0.20580814  1
  Be  Be8  1  0.20580814  0.43112718  0.60992702  1
  Be  Be9  1  0.39007298  0.79419186  0.56887282  1
  Be  Be10  1  0.56887282  0.39007298  0.79419186  1
  Be  Be11  1  0.79419186  0.56887282  0.39007298  1
  O  O12  1  0.70642473  0.37605193  0.67092543  1
  O  O13  1  0.67092543  0.70642473  0.37605193  1
  O  O14  1  0.37605193  0.67092543  0.70642473  1
  O  O15  1  0.29357527  0.62394807  0.32907457  1
  O  O16  1  0.32907457  0.29357527  0.62394807  1
  O  O17  1  0.62394807  0.32907457  0.29357527  1
  O  O18  1  0.95949375  0.66278861  0.62864871  1
  O  O19  1  0.62864871  0.95949375  0.66278861  1
  O  O20  1  0.66278861  0.62864871  0.95949375  1
  O  O21  1  0.04050625  0.33721139  0.37135129  1
  O  O22  1  0.37135129  0.04050625  0.33721139  1
  O  O23  1  0.33721139  0.37135129  0.04050625  1
  O  O24  1  0.08381052  0.41643600  0.74941221  1
  O  O25  1  0.74941221  0.08381052  0.41643600  1
  O  O26  1  0.41643600  0.74941221  0.08381052  1
  O  O27  1  0.91618948  0.58356400  0.25058779  1
  O  O28  1  0.25058779  0.91618948  0.58356400  1
  O  O29  1  0.58356400  0.25058779  0.91618948  1
  O  O30  1  0.03761493  0.70595378  0.00300905  1
  O  O31  1  0.00300905  0.03761493  0.70595378  1
  O  O32  1  0.70595378  0.00300905  0.03761493  1
  O  O33  1  0.96238507  0.29404622  0.99699095  1
  O  O34  1  0.99699095  0.96238507  0.29404622  1
  O  O35  1  0.29404622  0.99699095  0.96238507  1
  Si  Si36  1  0.46137869  0.23433406  0.05443082  1
  Si  Si37  1  0.23433406  0.05443082  0.46137869  1
  Si  Si38  1  0.05443082  0.46137869  0.23433406  1
  Si  Si39  1  0.53862131  0.76566594  0.94556918  1
  Si  Si40  1  0.76566594  0.94556918  0.53862131  1
  Si  Si41  1  0.94556918  0.53862131  0.76566594  1
