# generated using pymatgen
data_U4N7
_symmetry_space_group_name_H-M   'P 1'
_cell_length_a   9.20417440
_cell_length_b   9.20417398
_cell_length_c   9.20417423
_cell_angle_alpha   109.53368610
_cell_angle_beta   109.46119142
_cell_angle_gamma   109.41880026
_symmetry_Int_Tables_number   1
_chemical_formula_structural   U4N7
_chemical_formula_sum   'U16 N28'
_cell_volume   600.25001363
_cell_formula_units_Z   4
loop_
 _symmetry_equiv_pos_site_id
 _symmetry_equiv_pos_as_xyz
  1  'x, y, z'
loop_
 _atom_site_type_symbol
 _atom_site_label
 _atom_site_symmetry_multiplicity
 _atom_site_fract_x
 _atom_site_fract_y
 _atom_site_fract_z
 _atom_site_occupancy
  U  U0  1  0.00589242  0.74933649  0.77234359  1
  U  U1  1  0.24972938  0.98273680  0.25749065  1
  U  U2  1  0.00574901  0.02247636  0.49931976  1
  U  U3  1  0.25000000  0.72960395  0.47960395  1
  U  U4  1  0.25027062  0.50776127  0.73300742  1
  U  U5  1  0.25000000  0.22960395  0.97960395  1
  U  U6  1  0.49410758  0.26645117  0.74344407  1
  U  U7  1  0.52315659  0.52247636  0.51672735  1
  U  U8  1  0.52300709  0.76645117  0.27234359  1
  U  U9  1  0.75000000  0.75502509  0.00502509  1
  U  U10  1  0.72524615  0.48273680  0.23300742  1
  U  U11  1  0.75000000  0.25502509  0.50502509  1
  U  U12  1  0.49425099  0.99357076  0.01672735  1
  U  U13  1  0.77475385  0.00776127  0.75749065  1
  U  U14  1  0.97699291  0.24933649  0.24344407  1
  U  U15  1  0.97684341  0.49357076  0.99931976  1
  N  N16  1  0.02025009  0.50236689  0.77857940  1
  N  N17  1  0.25000899  0.98086516  0.50519380  1
  N  N18  1  0.99794444  0.26644741  0.49441782  1
  N  N19  1  0.24999101  0.75518481  0.73085618  1
  N  N20  1  0.25042011  0.27791029  0.75761062  1
  N  N21  1  0.01792643  0.02717300  0.25108075  1
  N  N22  1  0.25027114  0.48296854  0.46224861  1
  N  N23  1  0.02432863  0.25518481  0.00519380  1
  N  N24  1  0.24972886  0.71197746  0.23269739  1
  N  N25  1  0.72378749  0.00236689  0.98211680  1
  N  N26  1  0.52029967  0.77791029  0.52749018  1
  N  N27  1  0.47928007  0.21197746  0.96224861  1
  N  N28  1  0.50349286  0.51928683  0.74720304  1
  N  N29  1  0.47567137  0.48086516  0.23085618  1
  N  N30  1  0.48207357  0.73315432  0.00924657  1
  N  N31  1  0.47974991  0.25832931  0.48211680  1
  N  N32  1  0.77202959  0.76644741  0.76850297  1
  N  N33  1  0.24957989  0.00719051  0.02749018  1
  N  N34  1  0.72390775  0.23315432  0.75108075  1
  N  N35  1  0.99650714  0.74371019  0.01579398  1
  N  N36  1  0.77609225  0.52717300  0.50924657  1
  N  N37  1  0.50205556  0.99647338  0.26850297  1
  N  N38  1  0.02071993  0.98296854  0.73269739  1
  N  N39  1  0.77621251  0.75832931  0.27857940  1
  N  N40  1  0.72797041  0.49647338  0.99441782  1
  N  N41  1  0.72791621  0.24371019  0.24720304  1
  N  N42  1  0.77208379  0.01928684  0.51579398  1
  N  N43  1  0.97970033  0.50719051  0.25761062  1
