# generated using pymatgen
data_Sr5(BiO4)3
_symmetry_space_group_name_H-M   'P 1'
_cell_length_a   6.02928843
_cell_length_b   6.20924853
_cell_length_c   8.60785901
_cell_angle_alpha   90.60164964
_cell_angle_beta   89.85652781
_cell_angle_gamma   90.05948596
_symmetry_Int_Tables_number   1
_chemical_formula_structural   Sr5(BiO4)3
_chemical_formula_sum   'Sr5 Bi3 O12'
_cell_volume   322.23649128
_cell_formula_units_Z   1
loop_
 _symmetry_equiv_pos_site_id
 _symmetry_equiv_pos_as_xyz
  1  'x, y, z'
loop_
 _atom_site_type_symbol
 _atom_site_label
 _atom_site_symmetry_multiplicity
 _atom_site_fract_x
 _atom_site_fract_y
 _atom_site_fract_z
 _atom_site_occupancy
  Sr  Sr0  1  -0.00000000  0.00000000  0.00000000  1
  Sr  Sr1  1  0.01873226  0.44840559  0.75807820  1
  Sr  Sr2  1  0.48816967  0.95232196  0.75377994  1
  Sr  Sr3  1  0.51183033  0.04767804  0.24622006  1
  Sr  Sr4  1  0.98126774  0.55159441  0.24192180  1
  Bi  Bi5  1  -0.00000000  0.00000000  0.50000000  1
  Bi  Bi6  1  0.50000000  0.50000000  0.50000000  1
  Bi  Bi7  1  0.50000000  0.50000000  0.00000000  1
  O  O8  1  0.10927423  0.95113488  0.27179373  1
  O  O9  1  0.20924620  0.71900051  0.56798368  1
  O  O10  1  0.21471550  0.67998280  0.95252035  1
  O  O11  1  0.28710048  0.21071620  0.55881598  1
  O  O12  1  0.32381439  0.21717046  0.94274460  1
  O  O13  1  0.38987047  0.45237159  0.25054961  1
  O  O14  1  0.61012953  0.54762841  0.74945039  1
  O  O15  1  0.67618561  0.78282954  0.05725540  1
  O  O16  1  0.71289952  0.78928380  0.44118402  1
  O  O17  1  0.78528450  0.32001720  0.04747965  1
  O  O18  1  0.79075380  0.28099949  0.43201632  1
  O  O19  1  0.89072577  0.04886512  0.72820627  1
