# generated using pymatgen
data_LiBIr
_symmetry_space_group_name_H-M   'P 1'
_cell_length_a   5.55593962
_cell_length_b   5.55593962
_cell_length_c   6.10096057
_cell_angle_alpha   106.41131833
_cell_angle_beta   106.41131834
_cell_angle_gamma   112.30316178
_symmetry_Int_Tables_number   1
_chemical_formula_structural   LiBIr
_chemical_formula_sum   'Li4 B4 Ir4'
_cell_volume   150.15950330
_cell_formula_units_Z   4
loop_
 _symmetry_equiv_pos_site_id
 _symmetry_equiv_pos_as_xyz
  1  'x, y, z'
loop_
 _atom_site_type_symbol
 _atom_site_label
 _atom_site_symmetry_multiplicity
 _atom_site_fract_x
 _atom_site_fract_y
 _atom_site_fract_z
 _atom_site_occupancy
  Li  Li0  1  0.50000000  0.50000000  0.00000000  1
  Li  Li1  1  0.50000000  0.00000000  0.50000000  1
  Li  Li2  1  0.50000000  0.50000000  0.50000000  1
  Li  Li3  1  0.00000000  0.50000000  0.00000000  1
  B  B4  1  0.94868300  0.05131700  0.75000000  1
  B  B5  1  0.69868300  0.30131700  0.25000000  1
  B  B6  1  0.30131700  0.69868300  0.75000000  1
  B  B7  1  0.05131700  0.94868300  0.25000000  1
  Ir  Ir8  1  0.25810825  0.00810825  0.01621649  1
  Ir  Ir9  1  0.74189175  0.99189175  0.98378351  1
  Ir  Ir10  1  0.00810825  0.25810825  0.51621649  1
  Ir  Ir11  1  0.99189175  0.74189175  0.48378351  1
