# generated using pymatgen
data_Rb2SO4
_symmetry_space_group_name_H-M   'P 1'
_cell_length_a   6.07831701
_cell_length_b   7.97611521
_cell_length_c   10.65453669
_cell_angle_alpha   90.00000000
_cell_angle_beta   90.00000000
_cell_angle_gamma   90.00000000
_symmetry_Int_Tables_number   1
_chemical_formula_structural   Rb2SO4
_chemical_formula_sum   'Rb8 S4 O16'
_cell_volume   516.54639432
_cell_formula_units_Z   4
loop_
 _symmetry_equiv_pos_site_id
 _symmetry_equiv_pos_as_xyz
  1  'x, y, z'
loop_
 _atom_site_type_symbol
 _atom_site_label
 _atom_site_symmetry_multiplicity
 _atom_site_fract_x
 _atom_site_fract_y
 _atom_site_fract_z
 _atom_site_occupancy
  O  O0  1  0.95137021  0.19996946  0.85285447  1
  O  O1  1  0.45137021  0.80003054  0.14714553  1
  O  O2  1  0.54862979  0.69996946  0.64714553  1
  O  O3  1  0.04862979  0.30003054  0.35285447  1
  O  O4  1  0.04862979  0.80003054  0.14714553  1
  O  O5  1  0.54862979  0.19996946  0.85285447  1
  O  O6  1  0.45137021  0.30003054  0.35285447  1
  O  O7  1  0.95137021  0.69996946  0.64714553  1
  O  O8  1  0.25000000  0.79818582  0.94890425  1
  O  O9  1  0.75000000  0.20181418  0.05109575  1
  O  O10  1  0.25000000  0.29818582  0.55109575  1
  O  O11  1  0.75000000  0.70181418  0.44890425  1
  O  O12  1  0.75000000  0.95155958  0.58396458  1
  O  O13  1  0.25000000  0.04844042  0.41603542  1
  O  O14  1  0.75000000  0.45155958  0.91603542  1
  O  O15  1  0.25000000  0.54844042  0.08396458  1
  S  S16  1  0.25000000  0.73523766  0.08186337  1
  S  S17  1  0.75000000  0.26476234  0.91813663  1
  S  S18  1  0.25000000  0.23523766  0.41813663  1
  S  S19  1  0.75000000  0.76476234  0.58186337  1
  Rb  Rb20  1  0.75000000  0.50845184  0.20020697  1
  Rb  Rb21  1  0.25000000  0.49154816  0.79979303  1
  Rb  Rb22  1  0.75000000  0.00845184  0.29979303  1
  Rb  Rb23  1  0.25000000  0.99154816  0.70020697  1
  Rb  Rb24  1  0.25000000  0.17389692  0.08840870  1
  Rb  Rb25  1  0.75000000  0.82610308  0.91159130  1
  Rb  Rb26  1  0.25000000  0.67389692  0.41159130  1
  Rb  Rb27  1  0.75000000  0.32610308  0.58840870  1
