# generated using pymatgen
data_Nd4Au2O9
_symmetry_space_group_name_H-M   'P 1'
_cell_length_a   6.21206526
_cell_length_b   12.07583955
_cell_length_c   12.06232243
_cell_angle_alpha   90.00000000
_cell_angle_beta   90.00000000
_cell_angle_gamma   90.00000000
_symmetry_Int_Tables_number   1
_chemical_formula_structural   Nd4Au2O9
_chemical_formula_sum   'Nd16 Au8 O36'
_cell_volume   904.86601363
_cell_formula_units_Z   4
loop_
 _symmetry_equiv_pos_site_id
 _symmetry_equiv_pos_as_xyz
  1  'x, y, z'
loop_
 _atom_site_type_symbol
 _atom_site_label
 _atom_site_symmetry_multiplicity
 _atom_site_fract_x
 _atom_site_fract_y
 _atom_site_fract_z
 _atom_site_occupancy
  O  O0  1  0.93892434  0.44613343  0.38514292  1
  O  O1  1  0.93892434  0.05386657  0.61485708  1
  O  O2  1  0.56107566  0.94613343  0.11485708  1
  O  O3  1  0.56107566  0.55386657  0.88514292  1
  O  O4  1  0.06107566  0.55386657  0.61485708  1
  O  O5  1  0.06107566  0.94613343  0.38514292  1
  O  O6  1  0.43892434  0.05386657  0.88514292  1
  O  O7  1  0.43892434  0.44613343  0.11485708  1
  O  O8  1  0.94092276  0.35234495  0.16380064  1
  O  O9  1  0.94092276  0.14765505  0.83619936  1
  O  O10  1  0.55907724  0.85234495  0.33619936  1
  O  O11  1  0.55907724  0.64765505  0.66380064  1
  O  O12  1  0.05907724  0.64765505  0.83619936  1
  O  O13  1  0.05907724  0.85234495  0.16380064  1
  O  O14  1  0.62558053  0.15845381  0.19702331  1
  O  O15  1  0.44092276  0.14765505  0.66380064  1
  O  O16  1  0.61116878  0.08815455  0.42254545  1
  O  O17  1  0.61116878  0.41184545  0.57745455  1
  O  O18  1  0.88883122  0.58815455  0.07745455  1
  O  O19  1  0.88883122  0.91184545  0.92254545  1
  O  O20  1  0.38883122  0.91184545  0.57745455  1
  O  O21  1  0.38883122  0.58815455  0.42254545  1
  O  O22  1  0.11116878  0.41184545  0.92254545  1
  O  O23  1  0.11116878  0.08815455  0.07745455  1
  O  O24  1  0.02387484  0.25000000  0.50000000  1
  O  O25  1  0.47612516  0.75000000  0.00000000  1
  O  O26  1  0.97612516  0.75000000  0.50000000  1
  O  O27  1  0.52387484  0.25000000  0.00000000  1
  O  O28  1  0.12558053  0.15845381  0.30297669  1
  O  O29  1  0.12558053  0.34154619  0.69702331  1
  O  O30  1  0.37441947  0.65845381  0.19702331  1
  O  O31  1  0.37441947  0.84154619  0.80297669  1
  O  O32  1  0.87441947  0.84154619  0.69702331  1
  O  O33  1  0.87441947  0.65845381  0.30297669  1
  O  O34  1  0.62558053  0.34154619  0.80297669  1
  O  O35  1  0.44092276  0.35234495  0.33619936  1
  Nd  Nd36  1  0.74209584  0.08935982  0.01143654  1
  Nd  Nd37  1  0.74209584  0.41064018  0.98856346  1
  Nd  Nd38  1  0.75790416  0.58935982  0.48856346  1
  Nd  Nd39  1  0.75790416  0.91064018  0.51143654  1
  Nd  Nd40  1  0.25790416  0.91064018  0.98856346  1
  Nd  Nd41  1  0.25790416  0.58935982  0.01143654  1
  Nd  Nd42  1  0.24209584  0.41064018  0.51143654  1
  Nd  Nd43  1  0.24209584  0.08935982  0.48856346  1
  Nd  Nd44  1  0.80374246  0.26416434  0.34026924  1
  Nd  Nd45  1  0.80374246  0.23583566  0.65973076  1
  Nd  Nd46  1  0.69625754  0.76416434  0.15973076  1
  Nd  Nd47  1  0.69625754  0.73583566  0.84026924  1
  Nd  Nd48  1  0.19625754  0.73583566  0.65973076  1
  Nd  Nd49  1  0.19625754  0.76416434  0.34026924  1
  Nd  Nd50  1  0.30374246  0.23583566  0.84026924  1
  Nd  Nd51  1  0.30374246  0.26416434  0.15973076  1
  Au  Au52  1  0.57997968  0.01090781  0.27106224  1
  Au  Au53  1  0.57997968  0.48909219  0.72893776  1
  Au  Au54  1  0.92002032  0.51090781  0.22893776  1
  Au  Au55  1  0.92002032  0.98909219  0.77106224  1
  Au  Au56  1  0.42002032  0.98909219  0.72893776  1
  Au  Au57  1  0.42002032  0.51090781  0.27106224  1
  Au  Au58  1  0.07997968  0.48909219  0.77106224  1
  Au  Au59  1  0.07997968  0.01090781  0.22893776  1
