# generated using pymatgen
data_Na3GdCl6
_symmetry_space_group_name_H-M   'P 1'
_cell_length_a   7.56556152
_cell_length_b   7.56556212
_cell_length_c   7.56556186
_cell_angle_alpha   56.23046760
_cell_angle_beta   56.23046752
_cell_angle_gamma   56.23046883
_symmetry_Int_Tables_number   1
_chemical_formula_structural   Na3GdCl6
_chemical_formula_sum   'Na3 Gd1 Cl6'
_cell_volume   279.49015591
_cell_formula_units_Z   1
loop_
 _symmetry_equiv_pos_site_id
 _symmetry_equiv_pos_as_xyz
  1  'x, y, z'
loop_
 _atom_site_type_symbol
 _atom_site_label
 _atom_site_symmetry_multiplicity
 _atom_site_fract_x
 _atom_site_fract_y
 _atom_site_fract_z
 _atom_site_occupancy
  Cl  Cl0  1  0.10687189  0.37391727  0.77706441  1
  Cl  Cl1  1  0.37391727  0.77706441  0.10687189  1
  Cl  Cl2  1  0.77706441  0.10687189  0.37391727  1
  Cl  Cl3  1  0.22293559  0.89312811  0.62608273  1
  Cl  Cl4  1  0.62608273  0.22293559  0.89312811  1
  Cl  Cl5  1  0.89312811  0.62608273  0.22293559  1
  Gd  Gd6  1  0.00000000  0.00000000  0.00000000  1
  Na  Na7  1  0.19967122  0.19967122  0.19967122  1
  Na  Na8  1  0.50000000  0.50000000  0.50000000  1
  Na  Na9  1  0.80032878  0.80032878  0.80032878  1
