# generated using pymatgen
data_Ba3Al2F12
_symmetry_space_group_name_H-M   'P 1'
_cell_length_a   9.67541957
_cell_length_b   10.04517697
_cell_length_c   10.35237733
_cell_angle_alpha   90.00000000
_cell_angle_beta   90.00000000
_cell_angle_gamma   90.00000000
_symmetry_Int_Tables_number   1
_chemical_formula_structural   Ba3Al2F12
_chemical_formula_sum   'Ba12 Al8 F48'
_cell_volume   1006.16102984
_cell_formula_units_Z   4
loop_
 _symmetry_equiv_pos_site_id
 _symmetry_equiv_pos_as_xyz
  1  'x, y, z'
loop_
 _atom_site_type_symbol
 _atom_site_label
 _atom_site_symmetry_multiplicity
 _atom_site_fract_x
 _atom_site_fract_y
 _atom_site_fract_z
 _atom_site_occupancy
  F  F0  1  0.15090248  0.04984100  0.75275966  1
  F  F1  1  0.15090248  0.95015900  0.24724034  1
  F  F2  1  0.34909752  0.54984100  0.74724034  1
  F  F3  1  0.34909752  0.45015900  0.25275966  1
  F  F4  1  0.84909752  0.95015900  0.24724034  1
  F  F5  1  0.84909752  0.04984100  0.75275966  1
  F  F6  1  0.65090248  0.45015900  0.25275966  1
  F  F7  1  0.65090248  0.54984100  0.74724034  1
  F  F8  1  0.36375434  0.09337561  0.89808119  1
  F  F9  1  0.36375434  0.90662439  0.10191881  1
  F  F10  1  0.13624566  0.59337561  0.60191881  1
  F  F11  1  0.13624566  0.40662439  0.39808119  1
  F  F12  1  0.63624566  0.90662439  0.10191881  1
  F  F13  1  0.63624566  0.09337561  0.89808119  1
  F  F14  1  0.86375434  0.40662439  0.39808119  1
  F  F15  1  0.86375434  0.59337561  0.60191881  1
  F  F16  1  0.71099960  0.73362388  0.45090448  1
  F  F17  1  0.28900040  0.26637612  0.54909552  1
  F  F18  1  0.21099960  0.76637612  0.95090448  1
  F  F19  1  0.21099960  0.23362388  0.04909552  1
  F  F20  1  0.86491064  0.00000000  0.00000000  1
  F  F21  1  0.63508936  0.50000000  0.50000000  1
  F  F22  1  0.13508936  0.00000000  0.00000000  1
  F  F23  1  0.36491064  0.50000000  0.50000000  1
  F  F24  1  0.00000000  0.19707543  0.90251096  1
  F  F25  1  0.00000000  0.80292457  0.09748904  1
  F  F26  1  0.50000000  0.69707543  0.59748904  1
  F  F27  1  0.50000000  0.30292457  0.40251096  1
  F  F28  1  0.00000000  0.85488931  0.52270087  1
  F  F29  1  0.00000000  0.14511069  0.47729913  1
  F  F30  1  0.50000000  0.35488931  0.97729913  1
  F  F31  1  0.50000000  0.64511069  0.02270087  1
  F  F32  1  0.00000000  0.53435945  0.85667319  1
  F  F33  1  0.00000000  0.46564055  0.14332681  1
  F  F34  1  0.50000000  0.03435945  0.64332681  1
  F  F35  1  0.50000000  0.96564055  0.35667319  1
  F  F36  1  0.72117372  0.79523074  0.68939047  1
  F  F37  1  0.72117372  0.20476926  0.31060953  1
  F  F38  1  0.77882628  0.29523074  0.81060953  1
  F  F39  1  0.77882628  0.70476926  0.18939047  1
  F  F40  1  0.27882628  0.20476926  0.31060953  1
  F  F41  1  0.27882628  0.79523074  0.68939047  1
  F  F42  1  0.22117372  0.70476926  0.18939047  1
  F  F43  1  0.22117372  0.29523074  0.81060953  1
  F  F44  1  0.78900040  0.76637612  0.95090448  1
  F  F45  1  0.78900040  0.23362388  0.04909552  1
  F  F46  1  0.71099960  0.26637612  0.54909552  1
  F  F47  1  0.28900040  0.73362388  0.45090448  1
  Al  Al48  1  0.18538407  0.14200093  0.89774363  1
  Al  Al49  1  0.18538407  0.85799907  0.10225637  1
  Al  Al50  1  0.31461593  0.64200093  0.60225637  1
  Al  Al51  1  0.31461593  0.35799907  0.39774363  1
  Al  Al52  1  0.81461593  0.85799907  0.10225637  1
  Al  Al53  1  0.81461593  0.14200093  0.89774363  1
  Al  Al54  1  0.68538407  0.35799907  0.39774363  1
  Al  Al55  1  0.68538407  0.64200093  0.60225637  1
  Ba  Ba56  1  0.50000000  0.85291247  0.85531852  1
  Ba  Ba57  1  0.50000000  0.14708753  0.14468148  1
  Ba  Ba58  1  0.00000000  0.35291247  0.64468148  1
  Ba  Ba59  1  0.00000000  0.64708753  0.35531852  1
  Ba  Ba60  1  0.50000000  0.71259349  0.26837186  1
  Ba  Ba61  1  0.50000000  0.28740651  0.73162814  1
  Ba  Ba62  1  0.00000000  0.21259349  0.23162814  1
  Ba  Ba63  1  0.00000000  0.78740651  0.76837186  1
  Ba  Ba64  1  0.25211355  0.00000000  0.50000000  1
  Ba  Ba65  1  0.24788645  0.50000000  0.00000000  1
  Ba  Ba66  1  0.74788645  0.00000000  0.50000000  1
  Ba  Ba67  1  0.75211355  0.50000000  0.00000000  1
