# generated using pymatgen
data_Nd4Ge3Rh4
_symmetry_space_group_name_H-M   'P 1'
_cell_length_a   5.71414606
_cell_length_b   8.04343470
_cell_length_c   11.02862976
_cell_angle_alpha   109.00488514
_cell_angle_beta   105.01427277
_cell_angle_gamma   90.00000000
_symmetry_Int_Tables_number   1
_chemical_formula_structural   Nd4Ge3Rh4
_chemical_formula_sum   'Nd8 Ge6 Rh8'
_cell_volume   460.91986880
_cell_formula_units_Z   2
loop_
 _symmetry_equiv_pos_site_id
 _symmetry_equiv_pos_as_xyz
  1  'x, y, z'
loop_
 _atom_site_type_symbol
 _atom_site_label
 _atom_site_symmetry_multiplicity
 _atom_site_fract_x
 _atom_site_fract_y
 _atom_site_fract_z
 _atom_site_occupancy
  Ge  Ge0  1  0.35444865  0.75000000  0.00000000  1
  Ge  Ge1  1  0.64555135  0.25000000  0.00000000  1
  Ge  Ge2  1  0.70854329  0.44196674  0.65648247  1
  Ge  Ge3  1  0.05206082  0.05803326  0.34351753  1
  Ge  Ge4  1  0.29145671  0.55803326  0.34351753  1
  Ge  Ge5  1  0.94793918  0.94196674  0.65648247  1
  Rh  Rh6  1  0.69684529  0.01737140  0.12472293  1
  Rh  Rh7  1  0.42787764  0.51737140  0.12472293  1
  Rh  Rh8  1  0.30315471  0.98262860  0.87527707  1
  Rh  Rh9  1  0.92843923  0.18591209  0.55735311  1
  Rh  Rh10  1  0.37108612  0.31408791  0.44264689  1
  Rh  Rh11  1  0.57212236  0.48262860  0.87527707  1
  Rh  Rh12  1  0.07156077  0.81408791  0.44264689  1
  Rh  Rh13  1  0.62891388  0.68591209  0.55735311  1
  Nd  Nd14  1  0.78581641  0.39896973  0.34054517  1
  Nd  Nd15  1  0.44527124  0.10103027  0.65945483  1
  Nd  Nd16  1  0.55472876  0.89896973  0.34054517  1
  Nd  Nd17  1  0.07892634  0.33108383  0.86629110  1
  Nd  Nd18  1  0.21263524  0.16891617  0.13370890  1
  Nd  Nd19  1  0.92107366  0.66891617  0.13370890  1
  Nd  Nd20  1  0.78736476  0.83108383  0.86629110  1
  Nd  Nd21  1  0.21418359  0.60103027  0.65945483  1
