# generated using pymatgen
data_Mn2V2PbO10
_symmetry_space_group_name_H-M   'P 1'
_cell_length_a   5.61149729
_cell_length_b   5.61149729
_cell_length_c   7.93965548
_cell_angle_alpha   93.97928711
_cell_angle_beta   109.45930545
_cell_angle_gamma   115.49673406
_symmetry_Int_Tables_number   1
_chemical_formula_structural   Mn2V2PbO10
_chemical_formula_sum   'Mn2 V2 Pb1 O10'
_cell_volume   206.01352786
_cell_formula_units_Z   1
loop_
 _symmetry_equiv_pos_site_id
 _symmetry_equiv_pos_as_xyz
  1  'x, y, z'
loop_
 _atom_site_type_symbol
 _atom_site_label
 _atom_site_symmetry_multiplicity
 _atom_site_fract_x
 _atom_site_fract_y
 _atom_site_fract_z
 _atom_site_occupancy
  Mn  Mn0  1  -0.00000000  0.00000000  0.50000000  1
  Mn  Mn1  1  0.50000000  0.50000000  0.50000000  1
  V  V2  1  0.80895406  0.42526762  0.23422168  1
  V  V3  1  0.19104594  0.57473238  0.76577832  1
  Pb  Pb4  1  -0.00000000  0.00000000  0.00000000  1
  O  O5  1  0.40349684  0.18094981  0.58444665  1
  O  O6  1  0.59650316  0.81905019  0.41555335  1
  O  O7  1  0.05991954  0.32432918  0.38424872  1
  O  O8  1  0.94008046  0.67567082  0.61575128  1
  O  O9  1  0.96013573  0.78215944  0.26955511  1
  O  O10  1  0.03986427  0.21784056  0.73044489  1
  O  O11  1  0.51260433  0.69058062  0.73044489  1
  O  O12  1  0.48739567  0.30941938  0.26955511  1
  O  O13  1  0.27162459  0.71191116  0.98353576  1
  O  O14  1  0.72837541  0.28808884  0.01646424  1
