# generated using pymatgen
data_Sr(LaSe2)2
_symmetry_space_group_name_H-M   'P 1'
_cell_length_a   7.94509252
_cell_length_b   7.94509251
_cell_length_c   7.94509190
_cell_angle_alpha   109.43938941
_cell_angle_beta   109.53489907
_cell_angle_gamma   109.43939169
_symmetry_Int_Tables_number   1
_chemical_formula_structural   Sr(LaSe2)2
_chemical_formula_sum   'Sr2 La4 Se8'
_cell_volume   386.07755240
_cell_formula_units_Z   2
loop_
 _symmetry_equiv_pos_site_id
 _symmetry_equiv_pos_as_xyz
  1  'x, y, z'
loop_
 _atom_site_type_symbol
 _atom_site_label
 _atom_site_symmetry_multiplicity
 _atom_site_fract_x
 _atom_site_fract_y
 _atom_site_fract_z
 _atom_site_occupancy
  La  La0  1  0.25000000  0.62625551  0.37625551  1
  La  La1  1  0.75000000  0.87374449  0.12374449  1
  La  La2  1  0.62374449  0.37374449  0.25000000  1
  La  La3  1  0.87625551  0.12625551  0.75000000  1
  Se  Se4  1  0.50677609  0.99910515  0.35462754  1
  Se  Se5  1  0.14447761  0.15214855  0.14537246  1
  Se  Se6  1  0.35552239  0.50089485  0.00767094  1
  Se  Se7  1  0.50767094  0.00089485  0.85552239  1
  Se  Se8  1  0.64537246  0.65214855  0.64447761  1
  Se  Se9  1  0.99232906  0.84785145  0.49322391  1
  Se  Se10  1  0.85462754  0.49910515  0.00677609  1
  Se  Se11  1  0.99322391  0.34785145  0.49232906  1
  Sr  Sr12  1  0.12500000  0.75000000  0.87500000  1
  Sr  Sr13  1  0.37500000  0.25000000  0.62500000  1
