# generated using pymatgen
data_Er3Al5O12
_symmetry_space_group_name_H-M   'P 1'
_cell_length_a   10.43577613
_cell_length_b   10.43577613
_cell_length_c   10.43577613
_cell_angle_alpha   109.47122062
_cell_angle_beta   109.47122062
_cell_angle_gamma   109.47122062
_symmetry_Int_Tables_number   1
_chemical_formula_structural   Er3Al5O12
_chemical_formula_sum   'Er12 Al20 O48'
_cell_volume   874.88782144
_cell_formula_units_Z   4
loop_
 _symmetry_equiv_pos_site_id
 _symmetry_equiv_pos_as_xyz
  1  'x, y, z'
loop_
 _atom_site_type_symbol
 _atom_site_label
 _atom_site_symmetry_multiplicity
 _atom_site_fract_x
 _atom_site_fract_y
 _atom_site_fract_z
 _atom_site_occupancy
  O  O0  1  0.70081926  0.67919902  0.08121155  1
  O  O1  1  0.82080098  0.52162024  0.40201253  1
  O  O2  1  0.41878845  0.09798747  0.61960771  1
  O  O3  1  0.79918074  0.88039229  0.97837976  1
  O  O4  1  0.79918074  0.41878845  0.82080098  1
  O  O5  1  0.88039229  0.97837976  0.79918074  1
  O  O6  1  0.09798747  0.97837976  0.67919902  1
  O  O7  1  0.97837976  0.79918074  0.88039229  1
  O  O8  1  0.40201253  0.08121155  0.88039229  1
  O  O9  1  0.52162024  0.61960771  0.70081926  1
  O  O10  1  0.61960771  0.70081926  0.52162024  1
  O  O11  1  0.82080098  0.79918074  0.41878845  1
  O  O12  1  0.97837976  0.67919902  0.09798747  1
  O  O13  1  0.88039229  0.40201253  0.08121155  1
  O  O14  1  0.41878845  0.82080098  0.79918074  1
  O  O15  1  0.67919902  0.09798747  0.97837976  1
  O  O16  1  0.08121155  0.88039229  0.40201253  1
  O  O17  1  0.40201253  0.82080098  0.52162024  1
  O  O18  1  0.09798747  0.61960771  0.41878845  1
  O  O19  1  0.59798747  0.91878845  0.11960771  1
  O  O20  1  0.61960771  0.41878845  0.09798747  1
  O  O21  1  0.08121155  0.70081926  0.67919902  1
  O  O22  1  0.52162024  0.40201253  0.82080098  1
  O  O23  1  0.70081926  0.52162024  0.61960771  1
  O  O24  1  0.29918074  0.32080098  0.91878845  1
  O  O25  1  0.17919902  0.47837976  0.59798747  1
  O  O26  1  0.58121155  0.90201253  0.38039229  1
  O  O27  1  0.20081926  0.11960771  0.02162024  1
  O  O28  1  0.20081926  0.58121155  0.17919902  1
  O  O29  1  0.11960771  0.02162024  0.20081926  1
  O  O30  1  0.90201253  0.02162024  0.32080098  1
  O  O31  1  0.02162024  0.20081926  0.11960771  1
  O  O32  1  0.29918074  0.47837976  0.38039229  1
  O  O33  1  0.47837976  0.59798747  0.17919902  1
  O  O34  1  0.91878845  0.29918074  0.32080098  1
  O  O35  1  0.32080098  0.91878845  0.29918074  1
  O  O36  1  0.38039229  0.58121155  0.90201253  1
  O  O37  1  0.90201253  0.38039229  0.58121155  1
  O  O38  1  0.59798747  0.17919902  0.47837976  1
  O  O39  1  0.91878845  0.11960771  0.59798747  1
  O  O40  1  0.32080098  0.90201253  0.02162024  1
  O  O41  1  0.58121155  0.17919902  0.20081926  1
  O  O42  1  0.11960771  0.59798747  0.91878845  1
  O  O43  1  0.02162024  0.32080098  0.90201253  1
  O  O44  1  0.17919902  0.20081926  0.58121155  1
  O  O45  1  0.38039229  0.29918074  0.47837976  1
  O  O46  1  0.47837976  0.38039229  0.29918074  1
  O  O47  1  0.67919902  0.08121155  0.70081926  1
  Al  Al48  1  0.25000000  0.12500000  0.87500000  1
  Al  Al49  1  0.75000000  0.87500000  0.12500000  1
  Al  Al50  1  0.37500000  0.25000000  0.62500000  1
  Al  Al51  1  0.62500000  0.37500000  0.25000000  1
  Al  Al52  1  0.12500000  0.75000000  0.87500000  1
  Al  Al53  1  0.87500000  0.12500000  0.75000000  1
  Al  Al54  1  0.75000000  0.37500000  0.62500000  1
  Al  Al55  1  0.37500000  0.62500000  0.75000000  1
  Al  Al56  1  0.12500000  0.87500000  0.25000000  1
  Al  Al57  1  0.87500000  0.25000000  0.12500000  1
  Al  Al58  1  0.62500000  0.75000000  0.37500000  1
  Al  Al59  1  0.25000000  0.62500000  0.37500000  1
  Al  Al60  1  0.50000000  0.50000000  0.50000000  1
  Al  Al61  1  0.50000000  0.50000000  0.00000000  1
  Al  Al62  1  0.50000000  0.00000000  0.50000000  1
  Al  Al63  1  0.00000000  0.50000000  0.50000000  1
  Al  Al64  1  0.50000000  0.00000000  0.00000000  1
  Al  Al65  1  0.00000000  0.00000000  0.50000000  1
  Al  Al66  1  0.00000000  0.50000000  0.00000000  1
  Al  Al67  1  0.00000000  0.00000000  0.00000000  1
  Er  Er68  1  0.25000000  0.87500000  0.62500000  1
  Er  Er69  1  0.87500000  0.62500000  0.25000000  1
  Er  Er70  1  0.62500000  0.87500000  0.75000000  1
  Er  Er71  1  0.87500000  0.75000000  0.62500000  1
  Er  Er72  1  0.62500000  0.25000000  0.87500000  1
  Er  Er73  1  0.75000000  0.62500000  0.87500000  1
  Er  Er74  1  0.75000000  0.12500000  0.37500000  1
  Er  Er75  1  0.12500000  0.37500000  0.75000000  1
  Er  Er76  1  0.37500000  0.12500000  0.25000000  1
  Er  Er77  1  0.12500000  0.25000000  0.37500000  1
  Er  Er78  1  0.37500000  0.75000000  0.12500000  1
  Er  Er79  1  0.25000000  0.37500000  0.12500000  1
