# generated using pymatgen
data_Mg2PtO4
_symmetry_space_group_name_H-M   'P 1'
_cell_length_a   6.10682593
_cell_length_b   6.10682600
_cell_length_c   6.00145278
_cell_angle_alpha   60.56917068
_cell_angle_beta   60.56917275
_cell_angle_gamma   61.07369508
_symmetry_Int_Tables_number   1
_chemical_formula_structural   Mg2PtO4
_chemical_formula_sum   'Mg4 Pt2 O8'
_cell_volume   160.88544266
_cell_formula_units_Z   2
loop_
 _symmetry_equiv_pos_site_id
 _symmetry_equiv_pos_as_xyz
  1  'x, y, z'
loop_
 _atom_site_type_symbol
 _atom_site_label
 _atom_site_symmetry_multiplicity
 _atom_site_fract_x
 _atom_site_fract_y
 _atom_site_fract_z
 _atom_site_occupancy
  Mg  Mg0  1  0.01855047  0.01855047  0.98144953  1
  Mg  Mg1  1  0.23144953  0.23144953  0.26855047  1
  Mg  Mg2  1  0.62500000  0.62500000  0.12500000  1
  Mg  Mg3  1  0.62500000  0.62500000  0.62500000  1
  O  O4  1  0.37769553  0.37769553  0.39614005  1
  O  O5  1  0.37769553  0.37769553  0.84846889  1
  O  O6  1  0.38319901  0.84259959  0.38710070  1
  O  O7  1  0.84259959  0.38319901  0.38710070  1
  O  O8  1  0.40740041  0.86680099  0.86289930  1
  O  O9  1  0.87230447  0.87230447  0.40153111  1
  O  O10  1  0.86680099  0.40740041  0.86289930  1
  O  O11  1  0.87230447  0.87230447  0.85385995  1
  Pt  Pt12  1  0.12500000  0.62500000  0.62500000  1
  Pt  Pt13  1  0.62500000  0.12500000  0.62500000  1
