# generated using pymatgen
data_Ba(TlHg)2
_symmetry_space_group_name_H-M   'P 1'
_cell_length_a   5.20950816
_cell_length_b   11.09264759
_cell_length_c   11.09264759
_cell_angle_alpha   90.00000000
_cell_angle_beta   90.00000000
_cell_angle_gamma   90.00000000
_symmetry_Int_Tables_number   1
_chemical_formula_structural   Ba(TlHg)2
_chemical_formula_sum   'Ba4 Tl8 Hg8'
_cell_volume   641.01346784
_cell_formula_units_Z   4
loop_
 _symmetry_equiv_pos_site_id
 _symmetry_equiv_pos_as_xyz
  1  'x, y, z'
loop_
 _atom_site_type_symbol
 _atom_site_label
 _atom_site_symmetry_multiplicity
 _atom_site_fract_x
 _atom_site_fract_y
 _atom_site_fract_z
 _atom_site_occupancy
  Ba  Ba0  1  0.00000000  0.14794224  0.85205776  1
  Ba  Ba1  1  0.50000000  0.64794224  0.64794224  1
  Ba  Ba2  1  0.50000000  0.35205776  0.35205776  1
  Ba  Ba3  1  0.00000000  0.85205776  0.14794224  1
  Hg  Hg4  1  0.00000000  0.81246768  0.81246768  1
  Hg  Hg5  1  0.50000000  0.68753232  0.31246768  1
  Hg  Hg6  1  0.50000000  0.31246768  0.68753232  1
  Hg  Hg7  1  0.00000000  0.18753232  0.18753232  1
  Hg  Hg8  1  0.00000000  0.59539089  0.40460911  1
  Hg  Hg9  1  0.50000000  0.09539089  0.09539089  1
  Hg  Hg10  1  0.50000000  0.90460911  0.90460911  1
  Hg  Hg11  1  0.00000000  0.40460911  0.59539089  1
  Tl  Tl12  1  0.00000000  0.85920505  0.52933157  1
  Tl  Tl13  1  0.00000000  0.14079495  0.47066843  1
  Tl  Tl14  1  0.50000000  0.02933157  0.64079495  1
  Tl  Tl15  1  0.50000000  0.97066843  0.35920505  1
  Tl  Tl16  1  0.00000000  0.52933157  0.85920505  1
  Tl  Tl17  1  0.50000000  0.64079495  0.02933157  1
  Tl  Tl18  1  0.50000000  0.35920505  0.97066843  1
  Tl  Tl19  1  0.00000000  0.47066843  0.14079495  1
