# generated using pymatgen
data_Rb6Fe2O5
_symmetry_space_group_name_H-M   'P 1'
_cell_length_a   7.05061181
_cell_length_b   7.05061112
_cell_length_c   7.10451788
_cell_angle_alpha   92.19099092
_cell_angle_beta   92.19099060
_cell_angle_gamma   117.65020078
_symmetry_Int_Tables_number   1
_chemical_formula_structural   Rb6Fe2O5
_chemical_formula_sum   'Rb6 Fe2 O5'
_cell_volume   311.98584051
_cell_formula_units_Z   1
loop_
 _symmetry_equiv_pos_site_id
 _symmetry_equiv_pos_as_xyz
  1  'x, y, z'
loop_
 _atom_site_type_symbol
 _atom_site_label
 _atom_site_symmetry_multiplicity
 _atom_site_fract_x
 _atom_site_fract_y
 _atom_site_fract_z
 _atom_site_occupancy
  Rb  Rb0  1  0.20957006  0.78858154  0.99628424  1
  Rb  Rb1  1  0.24277251  0.75562497  0.50229148  1
  Rb  Rb2  1  0.36089545  0.36089545  0.17497928  1
  Rb  Rb3  1  0.64800078  0.64800078  0.81959468  1
  Rb  Rb4  1  0.75562497  0.24277251  0.50229148  1
  Rb  Rb5  1  0.78858154  0.20957006  0.99628424  1
  Fe  Fe6  1  0.18812452  0.18812452  0.69403763  1
  Fe  Fe7  1  0.79464978  0.79464978  0.32881556  1
  O  O8  1  0.16483643  0.43769083  0.77146505  1
  O  O9  1  0.56834646  0.84065652  0.22117335  1
  O  O10  1  0.43769083  0.16483643  0.77146505  1
  O  O11  1  0.94175013  0.94175013  0.56914460  1
  O  O12  1  0.84065652  0.56834646  0.22117335  1
