# generated using pymatgen
data_TlCr5Se8
_symmetry_space_group_name_H-M   'P 1'
_cell_length_a   3.68055294
_cell_length_b   9.08444906
_cell_length_c   9.69331067
_cell_angle_alpha   105.06751902
_cell_angle_beta   100.94403918
_cell_angle_gamma   89.99999999
_symmetry_Int_Tables_number   1
_chemical_formula_structural   TlCr5Se8
_chemical_formula_sum   'Tl1 Cr5 Se8'
_cell_volume   306.85251111
_cell_formula_units_Z   1
loop_
 _symmetry_equiv_pos_site_id
 _symmetry_equiv_pos_as_xyz
  1  'x, y, z'
loop_
 _atom_site_type_symbol
 _atom_site_label
 _atom_site_symmetry_multiplicity
 _atom_site_fract_x
 _atom_site_fract_y
 _atom_site_fract_z
 _atom_site_occupancy
  Cr  Cr0  1  0.50000000  0.50000000  0.00000000  1
  Cr  Cr1  1  0.15773042  0.47496014  0.31546085  1
  Cr  Cr2  1  0.20424872  0.83332665  0.40849743  1
  Cr  Cr3  1  0.79575128  0.16667335  0.59150257  1
  Cr  Cr4  1  0.84226958  0.52503986  0.68453915  1
  Se  Se5  1  0.92418978  0.34746238  0.84837955  1
  Se  Se6  1  0.32933596  0.01117713  0.65867193  1
  Se  Se7  1  0.67066404  0.98882287  0.34132807  1
  Se  Se8  1  0.41621750  0.67634731  0.83243501  1
  Se  Se9  1  0.58378250  0.32365269  0.16756499  1
  Se  Se10  1  0.73826111  0.65567690  0.47652222  1
  Se  Se11  1  0.26173889  0.34432310  0.52347778  1
  Se  Se12  1  0.07581022  0.65253762  0.15162045  1
  Tl  Tl13  1  0.00000000  0.00000000  0.00000000  1
