# generated using pymatgen
data_NaAl11O17
_symmetry_space_group_name_H-M   'P 1'
_cell_length_a   5.65187028
_cell_length_b   5.65187029
_cell_length_c   22.78231427
_cell_angle_alpha   90.00000000
_cell_angle_beta   90.00000000
_cell_angle_gamma   119.99999996
_symmetry_Int_Tables_number   1
_chemical_formula_structural   NaAl11O17
_chemical_formula_sum   'Na2 Al22 O34'
_cell_volume   630.24998191
_cell_formula_units_Z   2
loop_
 _symmetry_equiv_pos_site_id
 _symmetry_equiv_pos_as_xyz
  1  'x, y, z'
loop_
 _atom_site_type_symbol
 _atom_site_label
 _atom_site_symmetry_multiplicity
 _atom_site_fract_x
 _atom_site_fract_y
 _atom_site_fract_z
 _atom_site_occupancy
  O  O0  1  0.15732814  0.84267186  0.04977010  1
  O  O1  1  0.31465628  0.15732814  0.54977010  1
  O  O2  1  0.84267186  0.68534372  0.54977010  1
  O  O3  1  0.15732814  0.31465628  0.04977010  1
  O  O4  1  0.68534372  0.84267186  0.04977010  1
  O  O5  1  0.31465628  0.15732814  0.95022990  1
  O  O6  1  0.84267186  0.68534372  0.95022990  1
  O  O7  1  0.84267186  0.15732814  0.54977010  1
  O  O8  1  0.84267186  0.15732814  0.95022990  1
  O  O9  1  0.15732814  0.84267186  0.45022990  1
  O  O10  1  0.68534372  0.84267186  0.45022990  1
  O  O11  1  0.15732814  0.31465628  0.45022990  1
  O  O12  1  0.66666667  0.33333333  0.05559580  1
  O  O13  1  0.33333333  0.66666667  0.55559580  1
  O  O14  1  0.33333333  0.66666667  0.94440420  1
  O  O15  1  0.66666667  0.33333333  0.44440420  1
  O  O16  1  0.00000000  0.00000000  0.14138050  1
  O  O17  1  0.00000000  0.00000000  0.64138050  1
  O  O18  1  0.00000000  0.00000000  0.85861950  1
  O  O19  1  0.00000000  0.00000000  0.35861950  1
  O  O20  1  0.50335381  0.49664619  0.14620995  1
  O  O21  1  0.00670762  0.50335381  0.64620995  1
  O  O22  1  0.49664619  0.99329238  0.64620995  1
  O  O23  1  0.50335381  0.00670762  0.14620995  1
  O  O24  1  0.99329238  0.49664619  0.14620995  1
  O  O25  1  0.00670762  0.50335381  0.85379005  1
  O  O26  1  0.49664619  0.99329238  0.85379005  1
  O  O27  1  0.49664619  0.50335381  0.64620995  1
  O  O28  1  0.49664619  0.50335381  0.85379005  1
  O  O29  1  0.50335381  0.49664619  0.35379005  1
  O  O30  1  0.99329238  0.49664619  0.35379005  1
  O  O31  1  0.50335381  0.00670762  0.35379005  1
  O  O32  1  0.33333333  0.66666667  0.25000000  1
  O  O33  1  0.66666667  0.33333333  0.75000000  1
  Na  Na34  1  0.66666667  0.33333333  0.25000000  1
  Na  Na35  1  0.33333333  0.66666667  0.75000000  1
  Al  Al36  1  0.00000000  0.00000000  0.00000000  1
  Al  Al37  1  0.00000000  0.00000000  0.50000000  1
  Al  Al38  1  0.33333333  0.66666667  0.02467965  1
  Al  Al39  1  0.66666667  0.33333333  0.52467965  1
  Al  Al40  1  0.66666667  0.33333333  0.97532035  1
  Al  Al41  1  0.33333333  0.66666667  0.47532035  1
  Al  Al42  1  0.83248427  0.16751573  0.10692996  1
  Al  Al43  1  0.66496854  0.83248427  0.60692996  1
  Al  Al44  1  0.16751573  0.33503146  0.60692996  1
  Al  Al45  1  0.83248427  0.66496854  0.10692996  1
  Al  Al46  1  0.33503146  0.16751573  0.10692996  1
  Al  Al47  1  0.66496854  0.83248427  0.89307004  1
  Al  Al48  1  0.16751573  0.33503146  0.89307004  1
  Al  Al49  1  0.16751573  0.83248427  0.60692996  1
  Al  Al50  1  0.16751573  0.83248427  0.89307004  1
  Al  Al51  1  0.83248427  0.16751573  0.39307004  1
  Al  Al52  1  0.33503146  0.16751573  0.39307004  1
  Al  Al53  1  0.83248427  0.66496854  0.39307004  1
  Al  Al54  1  0.33333333  0.66666667  0.17551430  1
  Al  Al55  1  0.66666667  0.33333333  0.67551430  1
  Al  Al56  1  0.66666667  0.33333333  0.82448570  1
  Al  Al57  1  0.33333333  0.66666667  0.32448570  1
