# generated using pymatgen
data_Mg2SnO4
_symmetry_space_group_name_H-M   'P 1'
_cell_length_a   6.18023154
_cell_length_b   6.18023187
_cell_length_c   6.12300873
_cell_angle_alpha   60.30581853
_cell_angle_beta   60.30581732
_cell_angle_gamma   61.28721433
_symmetry_Int_Tables_number   1
_chemical_formula_structural   Mg2SnO4
_chemical_formula_sum   'Mg4 Sn2 O8'
_cell_volume   167.70211884
_cell_formula_units_Z   2
loop_
 _symmetry_equiv_pos_site_id
 _symmetry_equiv_pos_as_xyz
  1  'x, y, z'
loop_
 _atom_site_type_symbol
 _atom_site_label
 _atom_site_symmetry_multiplicity
 _atom_site_fract_x
 _atom_site_fract_y
 _atom_site_fract_z
 _atom_site_occupancy
  Mg  Mg0  1  0.01263085  0.01263085  0.98736915  1
  Mg  Mg1  1  0.23736915  0.23736915  0.26263085  1
  Mg  Mg2  1  0.62500000  0.62500000  0.12500000  1
  Mg  Mg3  1  0.62500000  0.62500000  0.62500000  1
  O  O4  1  0.37872862  0.37872862  0.38688974  1
  O  O5  1  0.37964034  0.84289654  0.38873156  1
  O  O6  1  0.37872862  0.37872862  0.85565302  1
  O  O7  1  0.84289654  0.37964034  0.38873156  1
  O  O8  1  0.40710346  0.87035966  0.86126844  1
  O  O9  1  0.87035966  0.40710346  0.86126844  1
  O  O10  1  0.87127138  0.87127138  0.39434698  1
  O  O11  1  0.87127138  0.87127138  0.86311026  1
  Sn  Sn12  1  0.12500000  0.62500000  0.62500000  1
  Sn  Sn13  1  0.62500000  0.12500000  0.62500000  1
