# generated using pymatgen
data_Ba2TiO4
_symmetry_space_group_name_H-M   'P 1'
_cell_length_a   6.23985800
_cell_length_b   7.77455304
_cell_length_c   10.68334693
_cell_angle_alpha   90.00000000
_cell_angle_beta   93.85795267
_cell_angle_gamma   90.00000000
_symmetry_Int_Tables_number   1
_chemical_formula_structural   Ba2TiO4
_chemical_formula_sum   'Ba8 Ti4 O16'
_cell_volume   517.09722663
_cell_formula_units_Z   4
loop_
 _symmetry_equiv_pos_site_id
 _symmetry_equiv_pos_as_xyz
  1  'x, y, z'
loop_
 _atom_site_type_symbol
 _atom_site_label
 _atom_site_symmetry_multiplicity
 _atom_site_fract_x
 _atom_site_fract_y
 _atom_site_fract_z
 _atom_site_occupancy
  O  O0  1  0.16422629  0.31940427  0.42957152  1
  O  O1  1  0.33577371  0.81940427  0.07042848  1
  O  O2  1  0.83577371  0.68059573  0.57042848  1
  O  O3  1  0.66422629  0.18059573  0.92957152  1
  O  O4  1  0.49395663  0.32516920  0.63699819  1
  O  O5  1  0.00604337  0.82516920  0.86300181  1
  O  O6  1  0.50604337  0.67483080  0.36300181  1
  O  O7  1  0.99395663  0.17483080  0.13699819  1
  O  O8  1  0.02490463  0.25559146  0.69116601  1
  O  O9  1  0.47509537  0.75559146  0.80883399  1
  O  O10  1  0.97509537  0.74440854  0.30883399  1
  O  O11  1  0.52490463  0.24440854  0.19116601  1
  O  O12  1  0.71187987  0.00720558  0.43648785  1
  O  O13  1  0.78812013  0.50720558  0.06351215  1
  O  O14  1  0.28812013  0.99279442  0.56351215  1
  O  O15  1  0.21187987  0.49279442  0.93648785  1
  Ti  Ti16  1  0.23906251  0.22013268  0.58341839  1
  Ti  Ti17  1  0.26093749  0.72013268  0.91658161  1
  Ti  Ti18  1  0.76093749  0.77986732  0.41658161  1
  Ti  Ti19  1  0.73906251  0.27986732  0.08341839  1
  Ba  Ba20  1  0.72345393  0.99695052  0.69902325  1
  Ba  Ba21  1  0.77654607  0.49695052  0.80097675  1
  Ba  Ba22  1  0.27654607  0.00304948  0.30097675  1
  Ba  Ba23  1  0.22345393  0.50304948  0.19902325  1
  Ba  Ba24  1  0.26803454  0.66038344  0.57320844  1
  Ba  Ba25  1  0.23196546  0.16038344  0.92679156  1
  Ba  Ba26  1  0.73196546  0.33961656  0.42679156  1
  Ba  Ba27  1  0.76803454  0.83961656  0.07320844  1
