# generated using pymatgen
data_Ba2Ce3Si3O12F
_symmetry_space_group_name_H-M   'P 1'
_cell_length_a   9.94105010
_cell_length_b   9.94105020
_cell_length_c   7.44973938
_cell_angle_alpha   90.00000000
_cell_angle_beta   90.00000000
_cell_angle_gamma   119.99999966
_symmetry_Int_Tables_number   1
_chemical_formula_structural   Ba2Ce3Si3O12F
_chemical_formula_sum   'Ba4 Ce6 Si6 O24 F2'
_cell_volume   637.58228590
_cell_formula_units_Z   2
loop_
 _symmetry_equiv_pos_site_id
 _symmetry_equiv_pos_as_xyz
  1  'x, y, z'
loop_
 _atom_site_type_symbol
 _atom_site_label
 _atom_site_symmetry_multiplicity
 _atom_site_fract_x
 _atom_site_fract_y
 _atom_site_fract_z
 _atom_site_occupancy
  Ba  Ba0  1  0.33333300  0.66666700  0.50531891  1
  Ba  Ba1  1  0.33333300  0.66666700  0.00103650  1
  Ba  Ba2  1  0.66666700  0.33333300  0.00531891  1
  Ba  Ba3  1  0.66666700  0.33333300  0.50103650  1
  Ce  Ce4  1  0.25117465  0.99711705  0.25359066  1
  Ce  Ce5  1  0.00288295  0.25405760  0.25359066  1
  Ce  Ce6  1  0.25405760  0.25117465  0.75359066  1
  Ce  Ce7  1  0.74594240  0.74882535  0.25359066  1
  Ce  Ce8  1  0.99711705  0.74594240  0.75359066  1
  Ce  Ce9  1  0.74882535  0.00288295  0.75359066  1
  F  F10  1  0.00000000  0.00000000  0.76181760  1
  F  F11  1  0.00000000  0.00000000  0.26181760  1
  O  O12  1  0.24222943  0.90995478  0.92845967  1
  O  O13  1  0.24135559  0.91151624  0.57856446  1
  O  O14  1  0.17130527  0.71847637  0.25385467  1
  O  O15  1  0.08577670  0.56831528  0.75214332  1
  O  O16  1  0.08848376  0.32983935  0.57856446  1
  O  O17  1  0.09004522  0.33227466  0.92845967  1
  O  O18  1  0.48253858  0.91422330  0.75214332  1
  O  O19  1  0.54717110  0.82869473  0.25385467  1
  O  O20  1  0.28152363  0.45282890  0.25385467  1
  O  O21  1  0.43168472  0.51746142  0.75214332  1
  O  O22  1  0.33227466  0.24222943  0.42845967  1
  O  O23  1  0.32983935  0.24135559  0.07856446  1
  O  O24  1  0.67016065  0.75864441  0.57856446  1
  O  O25  1  0.66772534  0.75777057  0.92845967  1
  O  O26  1  0.56831528  0.48253858  0.25214332  1
  O  O27  1  0.71847637  0.54717110  0.75385467  1
  O  O28  1  0.45282890  0.17130527  0.75385467  1
  O  O29  1  0.51746142  0.08577670  0.25214332  1
  O  O30  1  0.91151624  0.67016065  0.07856446  1
  O  O31  1  0.90995478  0.66772534  0.42845967  1
  O  O32  1  0.91422330  0.43168472  0.25214332  1
  O  O33  1  0.82869473  0.28152363  0.75385467  1
  O  O34  1  0.75777057  0.09004522  0.42845967  1
  O  O35  1  0.75864441  0.08848376  0.07856446  1
  Si  Si36  1  0.01826399  0.37880870  0.75332954  1
  Si  Si37  1  0.36054470  0.98173601  0.75332954  1
  Si  Si38  1  0.37880870  0.36054470  0.25332954  1
  Si  Si39  1  0.62119130  0.63945530  0.75332954  1
  Si  Si40  1  0.63945530  0.01826399  0.25332954  1
  Si  Si41  1  0.98173601  0.62119130  0.25332954  1
