# generated using pymatgen
data_Th3N4
_symmetry_space_group_name_H-M   'P 1'
_cell_length_a   9.43064259
_cell_length_b   9.43064259
_cell_length_c   9.43064259
_cell_angle_alpha   23.75335967
_cell_angle_beta   23.75335967
_cell_angle_gamma   23.75335965
_symmetry_Int_Tables_number   1
_chemical_formula_structural   Th3N4
_chemical_formula_sum   'Th3 N4'
_cell_volume   119.53824953
_cell_formula_units_Z   1
loop_
 _symmetry_equiv_pos_site_id
 _symmetry_equiv_pos_as_xyz
  1  'x, y, z'
loop_
 _atom_site_type_symbol
 _atom_site_label
 _atom_site_symmetry_multiplicity
 _atom_site_fract_x
 _atom_site_fract_y
 _atom_site_fract_z
 _atom_site_occupancy
  N  N0  1  0.13253846  0.13253846  0.13253846  1
  N  N1  1  0.86746154  0.86746154  0.86746154  1
  N  N2  1  0.37694480  0.37694480  0.37694480  1
  N  N3  1  0.62305520  0.62305520  0.62305520  1
  Th  Th4  1  0.00000000  0.00000000  0.00000000  1
  Th  Th5  1  0.22191166  0.22191166  0.22191166  1
  Th  Th6  1  0.77808834  0.77808834  0.77808834  1
