# generated using pymatgen
data_Ba(SbSe2)2
_symmetry_space_group_name_H-M   'P 1'
_cell_length_a   8.78131583
_cell_length_b   9.29931542
_cell_length_c   21.30377419
_cell_angle_alpha   90.00000000
_cell_angle_beta   90.00000000
_cell_angle_gamma   90.96569551
_symmetry_Int_Tables_number   1
_chemical_formula_structural   Ba(SbSe2)2
_chemical_formula_sum   'Ba8 Sb16 Se32'
_cell_volume   1739.42391368
_cell_formula_units_Z   8
loop_
 _symmetry_equiv_pos_site_id
 _symmetry_equiv_pos_as_xyz
  1  'x, y, z'
loop_
 _atom_site_type_symbol
 _atom_site_label
 _atom_site_symmetry_multiplicity
 _atom_site_fract_x
 _atom_site_fract_y
 _atom_site_fract_z
 _atom_site_occupancy
  Se  Se0  1  0.32982158  0.63405397  0.85421019  1
  Se  Se1  1  0.17017842  0.86594603  0.35421019  1
  Se  Se2  1  0.67017842  0.36594603  0.14578981  1
  Se  Se3  1  0.82982158  0.13405397  0.64578981  1
  Se  Se4  1  0.99910342  0.89303941  0.92485762  1
  Se  Se5  1  0.50089658  0.60696059  0.42485762  1
  Se  Se6  1  0.00089658  0.10696059  0.07514238  1
  Se  Se7  1  0.49910342  0.39303941  0.57514238  1
  Se  Se8  1  0.16100215  0.42824414  0.34701161  1
  Se  Se9  1  0.33899785  0.07175586  0.84701161  1
  Se  Se10  1  0.83899785  0.57175586  0.65298839  1
  Se  Se11  1  0.66100215  0.92824414  0.15298839  1
  Se  Se12  1  0.14370694  0.66315516  0.53331344  1
  Se  Se13  1  0.35629306  0.83684484  0.03331344  1
  Se  Se14  1  0.85629306  0.33684484  0.46668656  1
  Se  Se15  1  0.64370694  0.16315516  0.96668656  1
  Se  Se16  1  0.05117102  0.32012391  0.91335896  1
  Se  Se17  1  0.44882898  0.17987609  0.41335896  1
  Se  Se18  1  0.94882898  0.67987609  0.08664104  1
  Se  Se19  1  0.55117102  0.82012391  0.58664104  1
  Se  Se20  1  0.29049554  0.43044634  0.06222598  1
  Se  Se21  1  0.20950446  0.06955366  0.56222598  1
  Se  Se22  1  0.70950446  0.56955366  0.93777402  1
  Se  Se23  1  0.79049554  0.93044634  0.43777402  1
  Se  Se24  1  0.83170471  0.64737691  0.27179821  1
  Se  Se25  1  0.66829529  0.85262309  0.77179821  1
  Se  Se26  1  0.16829529  0.35262309  0.72820179  1
  Se  Se27  1  0.33170471  0.14737691  0.22820179  1
  Se  Se28  1  0.65543672  0.35139014  0.78168116  1
  Se  Se29  1  0.84456328  0.14860986  0.28168116  1
  Se  Se30  1  0.34456328  0.64860986  0.21831884  1
  Se  Se31  1  0.15543672  0.85139014  0.71831884  1
  Sb  Sb32  1  0.19483974  0.09054796  0.96598950  1
  Sb  Sb33  1  0.30516026  0.40945204  0.46598950  1
  Sb  Sb34  1  0.80516026  0.90945204  0.03401050  1
  Sb  Sb35  1  0.69483974  0.59054796  0.53401050  1
  Sb  Sb36  1  0.15867310  0.64520932  0.99467998  1
  Sb  Sb37  1  0.34132690  0.85479068  0.49467998  1
  Sb  Sb38  1  0.84132690  0.35479068  0.00532002  1
  Sb  Sb39  1  0.65867310  0.14520932  0.50532002  1
  Sb  Sb40  1  0.00983211  0.88010858  0.61214725  1
  Sb  Sb41  1  0.49016789  0.61989142  0.11214725  1
  Sb  Sb42  1  0.99016789  0.11989142  0.38785275  1
  Sb  Sb43  1  0.50983211  0.38010858  0.88785275  1
  Sb  Sb44  1  0.01508980  0.35267683  0.62146782  1
  Sb  Sb45  1  0.48491020  0.14732317  0.12146782  1
  Sb  Sb46  1  0.98491020  0.64732317  0.37853218  1
  Sb  Sb47  1  0.51508980  0.85267683  0.87853218  1
  Ba  Ba48  1  0.94561590  0.10164301  0.79536720  1
  Ba  Ba49  1  0.55438410  0.39835699  0.29536720  1
  Ba  Ba50  1  0.05438410  0.89835699  0.20463280  1
  Ba  Ba51  1  0.44561590  0.60164301  0.70463280  1
  Ba  Ba52  1  0.05490301  0.39950574  0.19451543  1
  Ba  Ba53  1  0.44509699  0.10049426  0.69451543  1
  Ba  Ba54  1  0.94509699  0.60049426  0.80548457  1
  Ba  Ba55  1  0.55490301  0.89950574  0.30548457  1
