# generated using pymatgen
data_CuSnF6
_symmetry_space_group_name_H-M   'P 1'
_cell_length_a   5.17790952
_cell_length_b   5.27189789
_cell_length_c   5.49356565
_cell_angle_alpha   62.63697265
_cell_angle_beta   89.77824412
_cell_angle_gamma   62.29293779
_symmetry_Int_Tables_number   1
_chemical_formula_structural   CuSnF6
_chemical_formula_sum   'Cu1 Sn1 F6'
_cell_volume   113.63403923
_cell_formula_units_Z   1
loop_
 _symmetry_equiv_pos_site_id
 _symmetry_equiv_pos_as_xyz
  1  'x, y, z'
loop_
 _atom_site_type_symbol
 _atom_site_label
 _atom_site_symmetry_multiplicity
 _atom_site_fract_x
 _atom_site_fract_y
 _atom_site_fract_z
 _atom_site_occupancy
  F  F0  1  0.75546947  0.87526515  0.24653892  1
  F  F1  1  0.24453053  0.12473485  0.75346108  1
  F  F2  1  0.60619684  0.53258154  0.73432067  1
  F  F3  1  0.39380316  0.46741846  0.26567933  1
  F  F4  1  0.12931424  0.11511945  0.24747620  1
  F  F5  1  0.87068576  0.88488055  0.75252380  1
  Cu  Cu6  1  0.00000000  0.00000000  0.00000000  1
  Sn  Sn7  1  0.50000000  0.00000000  0.50000000  1
