# generated using pymatgen
data_PrNbO4
_symmetry_space_group_name_H-M   'P 1'
_cell_length_a   5.33987371
_cell_length_b   5.47773675
_cell_length_c   6.92587882
_cell_angle_alpha   112.58690788
_cell_angle_beta   111.95251640
_cell_angle_gamma   91.69011682
_symmetry_Int_Tables_number   1
_chemical_formula_structural   PrNbO4
_chemical_formula_sum   'Pr2 Nb2 O8'
_cell_volume   169.90395053
_cell_formula_units_Z   2
loop_
 _symmetry_equiv_pos_site_id
 _symmetry_equiv_pos_as_xyz
  1  'x, y, z'
loop_
 _atom_site_type_symbol
 _atom_site_label
 _atom_site_symmetry_multiplicity
 _atom_site_fract_x
 _atom_site_fract_y
 _atom_site_fract_z
 _atom_site_occupancy
  O  O0  1  0.29443197  0.13555815  0.08257800  1
  O  O1  1  0.78814603  0.44701985  0.08257800  1
  O  O2  1  0.70556803  0.86444185  0.91742200  1
  O  O3  1  0.21185397  0.55298015  0.91742200  1
  O  O4  1  0.53930119  0.71143111  0.42788142  1
  O  O5  1  0.88858023  0.21645031  0.42788142  1
  O  O6  1  0.46069881  0.28856889  0.57211858  1
  O  O7  1  0.11141977  0.78354969  0.57211858  1
  Nb  Nb8  1  0.36639806  0.61639806  0.73279612  1
  Nb  Nb9  1  0.63360194  0.38360194  0.26720388  1
  Pr  Pr10  1  0.87646011  0.12646011  0.75292021  1
  Pr  Pr11  1  0.12353989  0.87353989  0.24707979  1
