# generated using pymatgen
data_Nd(GePd)2
_symmetry_space_group_name_H-M   'P 1'
_cell_length_a   4.34410930
_cell_length_b   4.34410929
_cell_length_c   5.96925262
_cell_angle_alpha   111.33829106
_cell_angle_beta   111.33829097
_cell_angle_gamma   89.99999992
_symmetry_Int_Tables_number   1
_chemical_formula_structural   Nd(GePd)2
_chemical_formula_sum   'Nd1 Ge2 Pd2'
_cell_volume   96.58768252
_cell_formula_units_Z   1
loop_
 _symmetry_equiv_pos_site_id
 _symmetry_equiv_pos_as_xyz
  1  'x, y, z'
loop_
 _atom_site_type_symbol
 _atom_site_label
 _atom_site_symmetry_multiplicity
 _atom_site_fract_x
 _atom_site_fract_y
 _atom_site_fract_z
 _atom_site_occupancy
  Ge  Ge0  1  0.37813373  0.37813373  0.75626747  1
  Ge  Ge1  1  0.62186627  0.62186627  0.24373253  1
  Pd  Pd2  1  0.75000000  0.25000000  0.50000000  1
  Pd  Pd3  1  0.25000000  0.75000000  0.50000000  1
  Nd  Nd4  1  0.00000000  0.00000000  0.00000000  1
