# generated using pymatgen
data_K2U(MoO4)3
_symmetry_space_group_name_H-M   'P 1'
_cell_length_a   5.29487293
_cell_length_b   10.89032247
_cell_length_c   10.89032247
_cell_angle_alpha   68.82495548
_cell_angle_beta   79.14411871
_cell_angle_gamma   79.14411871
_symmetry_Int_Tables_number   1
_chemical_formula_structural   K2U(MoO4)3
_chemical_formula_sum   'K4 U2 Mo6 O24'
_cell_volume   570.10435624
_cell_formula_units_Z   2
loop_
 _symmetry_equiv_pos_site_id
 _symmetry_equiv_pos_as_xyz
  1  'x, y, z'
loop_
 _atom_site_type_symbol
 _atom_site_label
 _atom_site_symmetry_multiplicity
 _atom_site_fract_x
 _atom_site_fract_y
 _atom_site_fract_z
 _atom_site_occupancy
  K  K0  1  0.08038112  0.04342268  0.28952805  1
  K  K1  1  0.91961888  0.95657732  0.71047195  1
  K  K2  1  0.41961888  0.71047195  0.95657732  1
  K  K3  1  0.58038112  0.28952805  0.04342268  1
  U  U4  1  0.25000000  0.62552622  0.37447378  1
  U  U5  1  0.75000000  0.37447378  0.62552622  1
  Mo  Mo6  1  0.25000000  0.14953084  0.85046916  1
  Mo  Mo7  1  0.75000000  0.85046916  0.14953084  1
  Mo  Mo8  1  0.38649198  0.24380201  0.44728074  1
  Mo  Mo9  1  0.61350802  0.75619799  0.55271926  1
  Mo  Mo10  1  0.11350802  0.55271926  0.75619799  1
  Mo  Mo11  1  0.88649198  0.44728074  0.24380201  1
  O  O12  1  0.13055711  0.38825094  0.47125126  1
  O  O13  1  0.86944289  0.61174906  0.52874874  1
  O  O14  1  0.36944289  0.52874874  0.61174906  1
  O  O15  1  0.63055711  0.47125126  0.38825094  1
  O  O16  1  0.02436747  0.19167692  0.72577107  1
  O  O17  1  0.97563253  0.80832308  0.27422893  1
  O  O18  1  0.47563253  0.27422893  0.80832308  1
  O  O19  1  0.52436747  0.72577107  0.19167692  1
  O  O20  1  0.42506990  0.99308984  0.85914362  1
  O  O21  1  0.57493010  0.00691016  0.14085638  1
  O  O22  1  0.07493010  0.14085638  0.00691016  1
  O  O23  1  0.92506990  0.85914362  0.99308984  1
  O  O24  1  0.40823448  0.78207352  0.42343136  1
  O  O25  1  0.59176552  0.21792648  0.57656864  1
  O  O26  1  0.09176552  0.57656864  0.21792648  1
  O  O27  1  0.90823448  0.42343136  0.78207352  1
  O  O28  1  0.25609384  0.09598936  0.49242359  1
  O  O29  1  0.74390616  0.90401064  0.50757641  1
  O  O30  1  0.24390616  0.50757641  0.90401064  1
  O  O31  1  0.75609384  0.49242359  0.09598936  1
  O  O32  1  0.37686781  0.73935644  0.69673195  1
  O  O33  1  0.62313219  0.26064356  0.30326805  1
  O  O34  1  0.12313219  0.30326805  0.26064356  1
  O  O35  1  0.87686781  0.69673195  0.73935644  1
