# generated using pymatgen
data_K2Ge8O17
_symmetry_space_group_name_H-M   'P 1'
_cell_length_a   8.92518732
_cell_length_b   13.65934939
_cell_length_c   13.76841882
_cell_angle_alpha   90.00000000
_cell_angle_beta   90.00000000
_cell_angle_gamma   90.00000000
_symmetry_Int_Tables_number   1
_chemical_formula_structural   K2Ge8O17
_chemical_formula_sum   'K8 Ge32 O68'
_cell_volume   1678.53894448
_cell_formula_units_Z   4
loop_
 _symmetry_equiv_pos_site_id
 _symmetry_equiv_pos_as_xyz
  1  'x, y, z'
loop_
 _atom_site_type_symbol
 _atom_site_label
 _atom_site_symmetry_multiplicity
 _atom_site_fract_x
 _atom_site_fract_y
 _atom_site_fract_z
 _atom_site_occupancy
  O  O0  1  0.52941417  0.68000822  0.60684907  1
  O  O1  1  0.02941417  0.31999178  0.39315093  1
  O  O2  1  0.97058583  0.18000822  0.89315093  1
  O  O3  1  0.47058583  0.81999178  0.10684907  1
  O  O4  1  0.47058583  0.31999178  0.39315093  1
  O  O5  1  0.97058583  0.68000822  0.60684907  1
  O  O6  1  0.02941417  0.81999178  0.10684907  1
  O  O7  1  0.52941417  0.18000822  0.89315093  1
  O  O8  1  0.49046647  0.59670994  0.80950933  1
  O  O9  1  0.99046647  0.40329006  0.19049067  1
  O  O10  1  0.00953353  0.09670994  0.69049067  1
  O  O11  1  0.50953353  0.90329006  0.30950933  1
  O  O12  1  0.50953353  0.40329006  0.19049067  1
  O  O13  1  0.00953353  0.59670994  0.80950933  1
  O  O14  1  0.99046647  0.90329006  0.30950933  1
  O  O15  1  0.49046647  0.09670994  0.69049067  1
  O  O16  1  0.54666131  0.85882066  0.49665877  1
  O  O17  1  0.04666131  0.14117934  0.50334123  1
  O  O18  1  0.95333869  0.35882066  0.00334123  1
  O  O19  1  0.45333869  0.64117934  0.99665877  1
  O  O20  1  0.45333869  0.14117934  0.50334123  1
  O  O21  1  0.95333869  0.85882066  0.49665877  1
  O  O22  1  0.04666131  0.64117934  0.99665877  1
  O  O23  1  0.54666131  0.35882066  0.00334123  1
  O  O24  1  0.45048229  0.49821368  0.64508741  1
  O  O25  1  0.95048229  0.50178632  0.35491259  1
  O  O26  1  0.93573095  0.80207580  0.87874360  1
  O  O27  1  0.04951771  0.99821368  0.85491259  1
  O  O28  1  0.54951771  0.50178632  0.35491259  1
  O  O29  1  0.04951771  0.49821368  0.64508741  1
  O  O30  1  0.95048229  0.00178632  0.14508741  1
  O  O31  1  0.45048229  0.99821368  0.85491259  1
  O  O32  1  0.43971039  0.86543932  0.69026253  1
  O  O33  1  0.93971039  0.13456068  0.30973747  1
  O  O34  1  0.06028961  0.36543932  0.80973747  1
  O  O35  1  0.56028961  0.63456068  0.19026253  1
  O  O36  1  0.56028961  0.13456068  0.30973747  1
  O  O37  1  0.06028961  0.86543932  0.69026253  1
  O  O38  1  0.93971039  0.63456068  0.19026253  1
  O  O39  1  0.43971039  0.36543932  0.80973747  1
  O  O40  1  0.75000000  0.01315245  0.84922639  1
  O  O41  1  0.25000000  0.98684755  0.15077361  1
  O  O42  1  0.75000000  0.51315245  0.65077361  1
  O  O43  1  0.25000000  0.48684755  0.34922639  1
  O  O44  1  0.75000000  0.14853879  0.54519599  1
  O  O45  1  0.25000000  0.85146121  0.45480401  1
  O  O46  1  0.75000000  0.64853879  0.95480401  1
  O  O47  1  0.25000000  0.35146121  0.04519599  1
  O  O48  1  0.75000000  0.34873426  0.85169736  1
  O  O49  1  0.25000000  0.65126574  0.14830264  1
  O  O50  1  0.75000000  0.84873426  0.64830264  1
  O  O51  1  0.25000000  0.15126574  0.35169736  1
  O  O52  1  0.75000000  0.16357467  0.74777316  1
  O  O53  1  0.25000000  0.83642533  0.25222684  1
  O  O54  1  0.75000000  0.66357467  0.75222684  1
  O  O55  1  0.25000000  0.33642533  0.24777316  1
  O  O56  1  0.75000000  0.66587640  0.35627987  1
  O  O57  1  0.25000000  0.33412360  0.64372013  1
  O  O58  1  0.75000000  0.16587640  0.14372013  1
  O  O59  1  0.25000000  0.83412360  0.85627987  1
  O  O60  1  0.93573095  0.30207580  0.62125640  1
  O  O61  1  0.43573095  0.69792420  0.37874360  1
  O  O62  1  0.56426905  0.80207580  0.87874360  1
  O  O63  1  0.06426905  0.19792420  0.12125640  1
  O  O64  1  0.06426905  0.69792420  0.37874360  1
  O  O65  1  0.56426905  0.30207580  0.62125640  1
  O  O66  1  0.43573095  0.19792420  0.12125640  1
  O  O67  1  0.54951771  0.00178632  0.14508741  1
  K  K68  1  0.25000000  0.50753988  0.90649183  1
  K  K69  1  0.75000000  0.49246012  0.09350817  1
  K  K70  1  0.25000000  0.00753988  0.59350817  1
  K  K71  1  0.75000000  0.99246012  0.40649183  1
  K  K72  1  0.25000000  0.59217345  0.51823625  1
  K  K73  1  0.75000000  0.40782655  0.48176375  1
  K  K74  1  0.25000000  0.09217345  0.98176375  1
  K  K75  1  0.75000000  0.90782655  0.01823625  1
  Ge  Ge76  1  0.07034512  0.87619236  0.81914293  1
  Ge  Ge77  1  0.57034512  0.12380764  0.18085707  1
  Ge  Ge78  1  0.42965488  0.37619236  0.68085707  1
  Ge  Ge79  1  0.92965488  0.62380764  0.31914293  1
  Ge  Ge80  1  0.92965488  0.12380764  0.18085707  1
  Ge  Ge81  1  0.42965488  0.87619236  0.81914293  1
  Ge  Ge82  1  0.57034512  0.62380764  0.31914293  1
  Ge  Ge83  1  0.07034512  0.37619236  0.68085707  1
  Ge  Ge84  1  0.92527559  0.67342582  0.89714895  1
  Ge  Ge85  1  0.42527559  0.32657418  0.10285105  1
  Ge  Ge86  1  0.57472441  0.17342582  0.60285105  1
  Ge  Ge87  1  0.07472441  0.82657418  0.39714895  1
  Ge  Ge88  1  0.07472441  0.32657418  0.10285105  1
  Ge  Ge89  1  0.57472441  0.67342582  0.89714895  1
  Ge  Ge90  1  0.42527559  0.82657418  0.39714895  1
  Ge  Ge91  1  0.92527559  0.17342582  0.60285105  1
  Ge  Ge92  1  0.92893326  0.80596632  0.61302655  1
  Ge  Ge93  1  0.42893326  0.19403368  0.38697345  1
  Ge  Ge94  1  0.57106674  0.30596632  0.88697345  1
  Ge  Ge95  1  0.07106674  0.69403368  0.11302655  1
  Ge  Ge96  1  0.07106674  0.19403368  0.38697345  1
  Ge  Ge97  1  0.57106674  0.80596632  0.61302655  1
  Ge  Ge98  1  0.42893326  0.69403368  0.11302655  1
  Ge  Ge99  1  0.92893326  0.30596632  0.88697345  1
  Ge  Ge100  1  0.90703568  0.58762570  0.69352181  1
  Ge  Ge101  1  0.40703568  0.41237430  0.30647819  1
  Ge  Ge102  1  0.59296432  0.08762570  0.80647819  1
  Ge  Ge103  1  0.09296432  0.91237430  0.19352181  1
  Ge  Ge104  1  0.09296432  0.41237430  0.30647819  1
  Ge  Ge105  1  0.59296432  0.58762570  0.69352181  1
  Ge  Ge106  1  0.40703568  0.91237430  0.19352181  1
  Ge  Ge107  1  0.90703568  0.08762570  0.80647819  1
