# generated using pymatgen
data_Hg3(BO3)2
_symmetry_space_group_name_H-M   'P 1'
_cell_length_a   7.09713114
_cell_length_b   7.09713114
_cell_length_c   7.09713115
_cell_angle_alpha   79.18854844
_cell_angle_beta   79.18854849
_cell_angle_gamma   79.18854839
_symmetry_Int_Tables_number   1
_chemical_formula_structural   Hg3(BO3)2
_chemical_formula_sum   'Hg6 B4 O12'
_cell_volume   340.56987495
_cell_formula_units_Z   2
loop_
 _symmetry_equiv_pos_site_id
 _symmetry_equiv_pos_as_xyz
  1  'x, y, z'
loop_
 _atom_site_type_symbol
 _atom_site_label
 _atom_site_symmetry_multiplicity
 _atom_site_fract_x
 _atom_site_fract_y
 _atom_site_fract_z
 _atom_site_occupancy
  B  B0  1  0.10765199  0.10765199  0.10765199  1
  B  B1  1  0.89234801  0.89234801  0.89234801  1
  B  B2  1  0.60765199  0.60765199  0.60765199  1
  B  B3  1  0.39234801  0.39234801  0.39234801  1
  O  O4  1  0.96699610  0.71577733  0.99344783  1
  O  O5  1  0.71577733  0.99344783  0.96699610  1
  O  O6  1  0.99344783  0.96699610  0.71577733  1
  O  O7  1  0.78422267  0.53300390  0.50655217  1
  O  O8  1  0.50655217  0.78422267  0.53300390  1
  O  O9  1  0.53300390  0.50655217  0.78422267  1
  O  O10  1  0.28422267  0.00655217  0.03300390  1
  O  O11  1  0.03300390  0.28422267  0.00655217  1
  O  O12  1  0.00655217  0.03300390  0.28422267  1
  O  O13  1  0.49344783  0.21577733  0.46699610  1
  O  O14  1  0.46699610  0.49344783  0.21577733  1
  O  O15  1  0.21577733  0.46699610  0.49344783  1
  Hg  Hg16  1  0.10834559  0.75000000  0.39165441  1
  Hg  Hg17  1  0.75000000  0.39165441  0.10834559  1
  Hg  Hg18  1  0.39165441  0.10834559  0.75000000  1
  Hg  Hg19  1  0.89165441  0.25000000  0.60834559  1
  Hg  Hg20  1  0.25000000  0.60834559  0.89165441  1
  Hg  Hg21  1  0.60834559  0.89165441  0.25000000  1
