# generated using pymatgen
data_PrScGe
_symmetry_space_group_name_H-M   'P 1'
_cell_length_a   4.34528471
_cell_length_b   4.34528472
_cell_length_c   8.63021453
_cell_angle_alpha   104.58099531
_cell_angle_beta   104.58099534
_cell_angle_gamma   90.00000000
_symmetry_Int_Tables_number   1
_chemical_formula_structural   PrScGe
_chemical_formula_sum   'Pr2 Sc2 Ge2'
_cell_volume   152.27417388
_cell_formula_units_Z   2
loop_
 _symmetry_equiv_pos_site_id
 _symmetry_equiv_pos_as_xyz
  1  'x, y, z'
loop_
 _atom_site_type_symbol
 _atom_site_label
 _atom_site_symmetry_multiplicity
 _atom_site_fract_x
 _atom_site_fract_y
 _atom_site_fract_z
 _atom_site_occupancy
  Sc  Sc0  1  0.00000000  0.50000000  0.00000000  1
  Sc  Sc1  1  0.50000000  0.00000000  0.00000000  1
  Ge  Ge2  1  0.12168587  0.12168587  0.24337173  1
  Ge  Ge3  1  0.87831413  0.87831413  0.75662827  1
  Pr  Pr4  1  0.67644596  0.67644596  0.35289193  1
  Pr  Pr5  1  0.32355404  0.32355404  0.64710807  1
