# generated using pymatgen
data_ZrTe3O8
_symmetry_space_group_name_H-M   'P 1'
_cell_length_a   10.04141845
_cell_length_b   10.04141845
_cell_length_c   10.04141845
_cell_angle_alpha   109.47122062
_cell_angle_beta   109.47122061
_cell_angle_gamma   109.47122065
_symmetry_Int_Tables_number   1
_chemical_formula_structural   ZrTe3O8
_chemical_formula_sum   'Zr4 Te12 O32'
_cell_volume   779.40521263
_cell_formula_units_Z   4
loop_
 _symmetry_equiv_pos_site_id
 _symmetry_equiv_pos_as_xyz
  1  'x, y, z'
loop_
 _atom_site_type_symbol
 _atom_site_label
 _atom_site_symmetry_multiplicity
 _atom_site_fract_x
 _atom_site_fract_y
 _atom_site_fract_z
 _atom_site_occupancy
  O  O0  1  0.96903735  0.54542102  0.20533225  1
  O  O1  1  0.84008877  0.76370511  0.29466775  1
  O  O2  1  0.65991123  0.95457898  0.92361634  1
  O  O3  1  0.73629489  0.57638366  0.53096265  1
  O  O4  1  0.57638366  0.53096265  0.73629489  1
  O  O5  1  0.20533225  0.96903735  0.54542102  1
  O  O6  1  0.76370511  0.29466775  0.84008877  1
  O  O7  1  0.92361634  0.65991123  0.95457898  1
  O  O8  1  0.54542102  0.20533225  0.96903735  1
  O  O9  1  0.29466775  0.84008877  0.76370511  1
  O  O10  1  0.95457898  0.92361634  0.65991123  1
  O  O11  1  0.53096265  0.73629489  0.57638366  1
  O  O12  1  0.03096265  0.45457898  0.79466775  1
  O  O13  1  0.15991123  0.23629489  0.70533225  1
  O  O14  1  0.34008877  0.04542102  0.07638366  1
  O  O15  1  0.26370511  0.42361634  0.46903735  1
  O  O16  1  0.16896131  0.16896131  0.16896131  1
  O  O17  1  0.00000000  0.33103869  0.50000000  1
  O  O18  1  0.50000000  0.00000000  0.33103869  1
  O  O19  1  0.33103869  0.50000000  0.00000000  1
  O  O20  1  0.83103869  0.83103869  0.83103869  1
  O  O21  1  0.00000000  0.66896131  0.50000000  1
  O  O22  1  0.50000000  0.00000000  0.66896131  1
  O  O23  1  0.66896131  0.50000000  0.00000000  1
  O  O24  1  0.46903735  0.26370511  0.42361634  1
  O  O25  1  0.04542102  0.07638366  0.34008877  1
  O  O26  1  0.70533225  0.15991123  0.23629489  1
  O  O27  1  0.45457898  0.79466775  0.03096265  1
  O  O28  1  0.07638366  0.34008877  0.04542102  1
  O  O29  1  0.23629489  0.70533225  0.15991123  1
  O  O30  1  0.79466775  0.03096265  0.45457898  1
  O  O31  1  0.42361634  0.46903735  0.26370511  1
  Zr  Zr32  1  0.00000000  0.50000000  0.00000000  1
  Zr  Zr33  1  0.50000000  0.00000000  0.00000000  1
  Zr  Zr34  1  0.00000000  0.00000000  0.50000000  1
  Zr  Zr35  1  0.50000000  0.50000000  0.50000000  1
  Te  Te36  1  0.80154992  0.55154992  0.25000000  1
  Te  Te37  1  0.75000000  0.69845008  0.94845008  1
  Te  Te38  1  0.55154992  0.25000000  0.80154992  1
  Te  Te39  1  0.25000000  0.80154992  0.55154992  1
  Te  Te40  1  0.94845008  0.75000000  0.69845008  1
  Te  Te41  1  0.69845008  0.94845008  0.75000000  1
  Te  Te42  1  0.19845008  0.44845008  0.75000000  1
  Te  Te43  1  0.25000000  0.30154992  0.05154992  1
  Te  Te44  1  0.44845008  0.75000000  0.19845008  1
  Te  Te45  1  0.75000000  0.19845008  0.44845008  1
  Te  Te46  1  0.05154992  0.25000000  0.30154992  1
  Te  Te47  1  0.30154992  0.05154992  0.25000000  1
