# generated using pymatgen
data_NdP5O14
_symmetry_space_group_name_H-M   'P 1'
_cell_length_a   8.91431285
_cell_length_b   9.17748138
_cell_length_c   13.18110952
_cell_angle_alpha   90.00000000
_cell_angle_beta   90.29563512
_cell_angle_gamma   90.00000000
_symmetry_Int_Tables_number   1
_chemical_formula_structural   NdP5O14
_chemical_formula_sum   'Nd4 P20 O56'
_cell_volume   1078.34460816
_cell_formula_units_Z   4
loop_
 _symmetry_equiv_pos_site_id
 _symmetry_equiv_pos_as_xyz
  1  'x, y, z'
loop_
 _atom_site_type_symbol
 _atom_site_label
 _atom_site_symmetry_multiplicity
 _atom_site_fract_x
 _atom_site_fract_y
 _atom_site_fract_z
 _atom_site_occupancy
  O  O0  1  0.58527209  0.11543436  0.35123538  1
  O  O1  1  0.41472791  0.61543436  0.14876462  1
  O  O2  1  0.41472791  0.88456564  0.64876462  1
  O  O3  1  0.58527209  0.38456564  0.85123538  1
  O  O4  1  0.41248511  0.88546906  0.35045446  1
  O  O5  1  0.58751489  0.38546906  0.14954554  1
  O  O6  1  0.58751489  0.11453094  0.64954554  1
  O  O7  1  0.41248511  0.61453094  0.85045446  1
  O  O8  1  0.37962023  0.09195262  0.22372721  1
  O  O9  1  0.62037977  0.59195262  0.27627279  1
  O  O10  1  0.62037977  0.90804738  0.77627279  1
  O  O11  1  0.37962023  0.40804738  0.72372721  1
  O  O12  1  0.23124971  0.90484687  0.11427631  1
  O  O13  1  0.76875029  0.40484687  0.38572369  1
  O  O14  1  0.76875029  0.09515313  0.88572369  1
  O  O15  1  0.23124971  0.59515313  0.61427631  1
  O  O16  1  0.21194233  0.18420147  0.09066962  1
  O  O17  1  0.78805767  0.68420147  0.40933038  1
  O  O18  1  0.78805767  0.81579853  0.90933038  1
  O  O19  1  0.28641711  0.41278640  0.00018844  1
  O  O20  1  0.21194233  0.31579853  0.59066962  1
  O  O21  1  0.53069229  0.68986455  0.49679354  1
  O  O22  1  0.53069229  0.81013545  0.99679354  1
  O  O23  1  0.46930771  0.31013545  0.50320646  1
  O  O24  1  0.91814457  0.38451250  0.12273588  1
  O  O25  1  0.08185543  0.88451250  0.37726412  1
  O  O26  1  0.08185543  0.61548750  0.87726412  1
  O  O27  1  0.91814457  0.11548750  0.62273588  1
  O  O28  1  0.07963341  0.62043378  0.11795511  1
  O  O29  1  0.92036659  0.12043378  0.38204489  1
  O  O30  1  0.92036659  0.37956622  0.88204489  1
  O  O31  1  0.07963341  0.87956622  0.61795511  1
  O  O32  1  0.12552046  0.41957629  0.24891746  1
  O  O33  1  0.87447954  0.91957629  0.25108254  1
  O  O34  1  0.87447954  0.58042371  0.75108254  1
  O  O35  1  0.12552046  0.08042371  0.74891746  1
  O  O36  1  0.90046448  0.58135167  0.26072928  1
  O  O37  1  0.09953552  0.08135167  0.23927072  1
  O  O38  1  0.09953552  0.41864833  0.73927072  1
  O  O39  1  0.90046448  0.91864833  0.76072928  1
  O  O40  1  0.22523329  0.59400263  0.38861681  1
  O  O41  1  0.77476671  0.09400263  0.11138319  1
  O  O42  1  0.77476671  0.40599737  0.61138319  1
  O  O43  1  0.22523329  0.90599737  0.88861681  1
  O  O44  1  0.22102837  0.31283338  0.40311474  1
  O  O45  1  0.77897163  0.81283338  0.09688526  1
  O  O46  1  0.77897163  0.68716662  0.59688526  1
  O  O47  1  0.22102837  0.18716662  0.90311474  1
  O  O48  1  0.59863493  0.57696307  0.71274938  1
  O  O49  1  0.40136507  0.07696307  0.78725062  1
  O  O50  1  0.40136507  0.42303693  0.28725062  1
  O  O51  1  0.59863493  0.92303693  0.21274938  1
  O  O52  1  0.28641711  0.08721360  0.50018844  1
  O  O53  1  0.71358289  0.58721360  0.99981156  1
  O  O54  1  0.71358289  0.91278640  0.49981156  1
  O  O55  1  0.46930771  0.18986455  0.00320646  1
  P  P56  1  0.49504021  0.00321632  0.29710150  1
  P  P57  1  0.50495979  0.50321632  0.20289850  1
  P  P58  1  0.50495979  0.99678368  0.70289850  1
  P  P59  1  0.49504021  0.49678368  0.79710150  1
  P  P60  1  0.23172674  0.04921543  0.16359127  1
  P  P61  1  0.76827326  0.54921543  0.33640873  1
  P  P62  1  0.76827326  0.95078457  0.83640873  1
  P  P63  1  0.23172674  0.45078457  0.66359127  1
  P  P64  1  0.31527436  0.25330220  -0.00003289  1
  P  P65  1  0.68472564  0.75330220  0.50003289  1
  P  P66  1  0.68472564  0.74669780  1.00003289  1
  P  P67  1  0.31527436  0.24669780  0.49996711  1
  P  P68  1  0.24269061  0.04672572  0.83561989  1
  P  P69  1  0.75730939  0.54672572  0.66438011  1
  P  P70  1  0.75730939  0.95327428  0.16438011  1
  P  P71  1  0.24269061  0.45327428  0.33561989  1
  P  P72  1  0.00396254  0.99833019  0.67500246  1
  P  P73  1  0.99603746  0.49833019  0.82499754  1
  P  P74  1  0.99603746  0.00166981  0.32499754  1
  P  P75  1  0.00396254  0.50166981  0.17500246  1
  Nd  Nd76  1  0.27596407  0.68825352  0.99923990  1
  Nd  Nd77  1  0.72403593  0.18825352  0.50076010  1
  Nd  Nd78  1  0.72403593  0.31174648  0.00076010  1
  Nd  Nd79  1  0.27596407  0.81174648  0.49923990  1
