# generated using pymatgen
data_Ca2SnO4
_symmetry_space_group_name_H-M   'P 1'
_cell_length_a   3.30732929
_cell_length_b   5.80308684
_cell_length_c   9.84109017
_cell_angle_alpha   90.00000000
_cell_angle_beta   90.00000000
_cell_angle_gamma   90.00000000
_symmetry_Int_Tables_number   1
_chemical_formula_structural   Ca2SnO4
_chemical_formula_sum   'Ca4 Sn2 O8'
_cell_volume   188.87727906
_cell_formula_units_Z   2
loop_
 _symmetry_equiv_pos_site_id
 _symmetry_equiv_pos_as_xyz
  1  'x, y, z'
loop_
 _atom_site_type_symbol
 _atom_site_label
 _atom_site_symmetry_multiplicity
 _atom_site_fract_x
 _atom_site_fract_y
 _atom_site_fract_z
 _atom_site_occupancy
  O  O0  1  0.00000000  0.13602119  0.80675545  1
  O  O1  1  0.00000000  0.86397881  0.19324455  1
  O  O2  1  0.00000000  0.63602119  0.69324455  1
  O  O3  1  0.00000000  0.36397881  0.30675545  1
  O  O4  1  0.50000000  0.27068770  0.54792769  1
  O  O5  1  0.50000000  0.72931230  0.45207231  1
  O  O6  1  0.50000000  0.22931230  0.04792769  1
  O  O7  1  0.50000000  0.77068770  0.95207231  1
  Ca  Ca8  1  0.50000000  0.07037273  0.31834766  1
  Ca  Ca9  1  0.50000000  0.92962727  0.68165234  1
  Ca  Ca10  1  0.50000000  0.42962727  0.81834766  1
  Ca  Ca11  1  0.50000000  0.57037273  0.18165234  1
  Sn  Sn12  1  0.00000000  0.00000000  0.00000000  1
  Sn  Sn13  1  0.00000000  0.50000000  0.50000000  1
