# generated using pymatgen
data_K3AuF12
_symmetry_space_group_name_H-M   'P 1'
_cell_length_a   7.13444661
_cell_length_b   7.85029246
_cell_length_c   8.10363890
_cell_angle_alpha   118.97109154
_cell_angle_beta   108.13875307
_cell_angle_gamma   50.00411993
_symmetry_Int_Tables_number   1
_chemical_formula_structural   K3AuF12
_chemical_formula_sum   'K3 Au1 F12'
_cell_volume   304.19146627
_cell_formula_units_Z   1
loop_
 _symmetry_equiv_pos_site_id
 _symmetry_equiv_pos_as_xyz
  1  'x, y, z'
loop_
 _atom_site_type_symbol
 _atom_site_label
 _atom_site_symmetry_multiplicity
 _atom_site_fract_x
 _atom_site_fract_y
 _atom_site_fract_z
 _atom_site_occupancy
  K  K0  1  0.50000000  -0.00000000  -0.00000000  1
  K  K1  1  0.00000000  0.50000000  0.50000000  1
  K  K2  1  0.00000000  -0.00000000  0.50000000  1
  Au  Au3  1  0.00000000  -0.00000000  -0.00000000  1
  F  F4  1  0.70742335  0.51768552  0.89049597  1
  F  F5  1  0.29257665  0.48231448  0.10950403  1
  F  F6  1  0.64634466  0.89633127  0.41690267  1
  F  F7  1  0.29257665  0.37281045  0.89049597  1
  F  F8  1  0.35365534  0.10366873  0.58309733  1
  F  F9  1  0.70742335  0.62718955  0.10950403  1
  F  F10  1  0.18712594  0.90667852  0.80264638  1
  F  F11  1  0.35365534  0.52057140  0.41690267  1
  F  F12  1  0.81287406  0.09332148  0.19735362  1
  F  F13  1  0.64634466  0.47942860  0.58309733  1
  F  F14  1  0.81287406  0.89596785  0.80264638  1
  F  F15  1  0.18712594  0.10403215  0.19735362  1
