# generated using pymatgen
data_Sc3Fe2Si3
_symmetry_space_group_name_H-M   'P 1'
_cell_length_a   3.94716531
_cell_length_b   5.34184401
_cell_length_c   12.89573845
_cell_angle_alpha   90.00000000
_cell_angle_beta   90.00000000
_cell_angle_gamma   111.68214447
_symmetry_Int_Tables_number   1
_chemical_formula_structural   Sc3Fe2Si3
_chemical_formula_sum   'Sc6 Fe4 Si6'
_cell_volume   252.67033350
_cell_formula_units_Z   2
loop_
 _symmetry_equiv_pos_site_id
 _symmetry_equiv_pos_as_xyz
  1  'x, y, z'
loop_
 _atom_site_type_symbol
 _atom_site_label
 _atom_site_symmetry_multiplicity
 _atom_site_fract_x
 _atom_site_fract_y
 _atom_site_fract_z
 _atom_site_occupancy
  Si  Si0  1  0.32858182  0.65716365  0.25000000  1
  Si  Si1  1  0.61686884  0.23373767  0.45940143  1
  Si  Si2  1  0.61686884  0.23373767  0.04059857  1
  Si  Si3  1  0.38313116  0.76626233  0.54059857  1
  Si  Si4  1  0.67141818  0.34283635  0.75000000  1
  Si  Si5  1  0.38313116  0.76626233  0.95940143  1
  Sc  Sc6  1  0.36112400  0.72224800  0.75000000  1
  Sc  Sc7  1  0.08051088  0.16102176  0.61269009  1
  Sc  Sc8  1  0.08051088  0.16102176  0.88730991  1
  Sc  Sc9  1  0.91948912  0.83897824  0.11269009  1
  Sc  Sc10  1  0.63887600  0.27775200  0.25000000  1
  Sc  Sc11  1  0.91948912  0.83897824  0.38730991  1
  Fe  Fe12  1  0.21430325  0.42860650  0.08214164  1
  Fe  Fe13  1  0.78569675  0.57139350  0.58214164  1
  Fe  Fe14  1  0.21430325  0.42860650  0.41785836  1
  Fe  Fe15  1  0.78569675  0.57139350  0.91785836  1
