# generated using pymatgen
data_ErTiGe
_symmetry_space_group_name_H-M   'P 1'
_cell_length_a   4.03925142
_cell_length_b   4.03925142
_cell_length_c   7.61419549
_cell_angle_alpha   90.00000000
_cell_angle_beta   90.00000000
_cell_angle_gamma   90.00000000
_symmetry_Int_Tables_number   1
_chemical_formula_structural   ErTiGe
_chemical_formula_sum   'Er2 Ti2 Ge2'
_cell_volume   124.22980271
_cell_formula_units_Z   2
loop_
 _symmetry_equiv_pos_site_id
 _symmetry_equiv_pos_as_xyz
  1  'x, y, z'
loop_
 _atom_site_type_symbol
 _atom_site_label
 _atom_site_symmetry_multiplicity
 _atom_site_fract_x
 _atom_site_fract_y
 _atom_site_fract_z
 _atom_site_occupancy
  Ti  Ti0  1  0.25000000  0.75000000  0.00000000  1
  Ti  Ti1  1  0.75000000  0.25000000  0.00000000  1
  Ge  Ge2  1  0.25000000  0.25000000  0.24741238  1
  Ge  Ge3  1  0.75000000  0.75000000  0.75258762  1
  Er  Er4  1  0.75000000  0.75000000  0.34275142  1
  Er  Er5  1  0.25000000  0.25000000  0.65724858  1
