# generated using pymatgen
data_K2NbF7
_symmetry_space_group_name_H-M   'P 1'
_cell_length_a   5.95572570
_cell_length_b   8.72375547
_cell_length_c   12.91753938
_cell_angle_alpha   90.00000000
_cell_angle_beta   90.00000000
_cell_angle_gamma   90.28844392
_symmetry_Int_Tables_number   1
_chemical_formula_structural   K2NbF7
_chemical_formula_sum   'K8 Nb4 F28'
_cell_volume   671.13897807
_cell_formula_units_Z   4
loop_
 _symmetry_equiv_pos_site_id
 _symmetry_equiv_pos_as_xyz
  1  'x, y, z'
loop_
 _atom_site_type_symbol
 _atom_site_label
 _atom_site_symmetry_multiplicity
 _atom_site_fract_x
 _atom_site_fract_y
 _atom_site_fract_z
 _atom_site_occupancy
  F  F0  1  0.44260062  0.36713159  0.57884320  1
  F  F1  1  0.55739938  0.13286841  0.07884320  1
  F  F2  1  0.55739938  0.63286841  0.42115680  1
  F  F3  1  0.44260062  0.86713159  0.92115680  1
  F  F4  1  0.81797547  0.49345134  0.62138758  1
  F  F5  1  0.18202453  0.00654866  0.12138758  1
  F  F6  1  0.18202453  0.50654866  0.37861242  1
  F  F7  1  0.81797547  0.99345134  0.87861242  1
  F  F8  1  0.78963553  0.28332845  0.47807031  1
  F  F9  1  0.21036447  0.21667155  0.97807031  1
  F  F10  1  0.21036447  0.71667155  0.52192969  1
  F  F11  1  0.78963553  0.78332845  0.02192969  1
  F  F12  1  0.95669732  0.79874559  0.75585291  1
  F  F13  1  0.04330268  0.70125441  0.25585291  1
  F  F14  1  0.04330268  0.20125441  0.24414709  1
  F  F15  1  0.95669732  0.29874559  0.74414709  1
  F  F16  1  0.54320347  0.78677211  0.74188149  1
  F  F17  1  0.45679653  0.71322789  0.24188149  1
  F  F18  1  0.45679653  0.21322789  0.25811851  1
  F  F19  1  0.54320347  0.28677211  0.75811851  1
  F  F20  1  0.95706524  0.60919174  0.89202244  1
  F  F21  1  0.04293476  0.89080826  0.39202244  1
  F  F22  1  0.04293476  0.39080826  0.10797756  1
  F  F23  1  0.95706524  0.10919174  0.60797756  1
  F  F24  1  0.53778017  0.58879474  0.89005242  1
  F  F25  1  0.46221983  0.91120526  0.39005242  1
  F  F26  1  0.46221983  0.41120526  0.10994758  1
  F  F27  1  0.53778017  0.08879474  0.60994758  1
  K  K28  1  0.23772015  0.05352030  0.78457778  1
  K  K29  1  0.76227985  0.44647970  0.28457778  1
  K  K30  1  0.76227985  0.94647970  0.21542222  1
  K  K31  1  0.23772015  0.55352030  0.71542222  1
  K  K32  1  0.76183691  0.31909291  0.94139773  1
  K  K33  1  0.23816309  0.18090709  0.44139773  1
  K  K34  1  0.23816309  0.68090709  0.05860227  1
  K  K35  1  0.76183691  0.81909291  0.55860227  1
  Nb  Nb36  1  0.72999937  0.27568487  0.62918660  1
  Nb  Nb37  1  0.27000063  0.22431513  0.12918660  1
  Nb  Nb38  1  0.27000063  0.72431513  0.37081340  1
  Nb  Nb39  1  0.72999937  0.77568487  0.87081340  1
