# generated using pymatgen
data_SiP2O7
_symmetry_space_group_name_H-M   'P 1'
_cell_length_a   4.81301848
_cell_length_b   6.39682026
_cell_length_c   14.97215666
_cell_angle_alpha   90.00000000
_cell_angle_beta   90.02227059
_cell_angle_gamma   90.00000000
_symmetry_Int_Tables_number   1
_chemical_formula_structural   SiP2O7
_chemical_formula_sum   'Si4 P8 O28'
_cell_volume   460.96293604
_cell_formula_units_Z   4
loop_
 _symmetry_equiv_pos_site_id
 _symmetry_equiv_pos_as_xyz
  1  'x, y, z'
loop_
 _atom_site_type_symbol
 _atom_site_label
 _atom_site_symmetry_multiplicity
 _atom_site_fract_x
 _atom_site_fract_y
 _atom_site_fract_z
 _atom_site_occupancy
  O  O0  1  0.82960787  0.98966164  0.75313138  1
  O  O1  1  0.17039213  0.48966164  0.74686862  1
  O  O2  1  0.17039213  0.01033836  0.24686862  1
  O  O3  1  0.82960787  0.51033836  0.25313138  1
  O  O4  1  0.45335922  0.20267264  0.67766133  1
  O  O5  1  0.54664078  0.70267264  0.82233867  1
  O  O6  1  0.54664078  0.79732736  0.32233867  1
  O  O7  1  0.45335922  0.29732736  0.17766133  1
  O  O8  1  0.95511495  0.25439382  0.63375252  1
  O  O9  1  0.04488505  0.75439382  0.86624748  1
  O  O10  1  0.04488505  0.74560618  0.36624748  1
  O  O11  1  0.95511495  0.24560618  0.13375252  1
  O  O12  1  0.71692159  0.56580541  0.08989547  1
  O  O13  1  0.28307841  0.06580541  0.41010453  1
  O  O14  1  0.28307841  0.43419459  0.91010453  1
  O  O15  1  0.71692159  0.93419459  0.58989547  1
  O  O16  1  0.66795998  0.83146054  0.97516224  1
  O  O17  1  0.33204002  0.33146054  0.52483776  1
  O  O18  1  0.33204002  0.16853946  0.02483776  1
  O  O19  1  0.66795998  0.66853946  0.47516224  1
  O  O20  1  0.54221181  0.91893723  0.13541213  1
  O  O21  1  0.45778819  0.41893723  0.36458787  1
  O  O22  1  0.45778819  0.08106277  0.86458787  1
  O  O23  1  0.54221181  0.58106277  0.63541213  1
  O  O24  1  0.04801277  0.86948795  0.09305860  1
  O  O25  1  0.95198723  0.36948795  0.40694140  1
  O  O26  1  0.95198723  0.13051205  0.90694140  1
  O  O27  1  0.04801277  0.63051205  0.59305860  1
  Si  Si28  1  0.25034621  0.08523612  0.13500908  1
  Si  Si29  1  0.74965379  0.58523612  0.36499092  1
  Si  Si30  1  0.74965379  0.91476388  0.86499092  1
  Si  Si31  1  0.25034621  0.41476388  0.63500908  1
  P  P32  1  0.74688396  0.68907908  0.57287975  1
  P  P33  1  0.25311604  0.18907908  0.92712025  1
  P  P34  1  0.25311604  0.31092092  0.42712025  1
  P  P35  1  0.74688396  0.81092092  0.07287975  1
  P  P36  1  0.73921711  0.39696480  0.16879215  1
  P  P37  1  0.26078289  0.89696480  0.33120785  1
  P  P38  1  0.26078289  0.60303520  0.83120785  1
  P  P39  1  0.73921711  0.10303520  0.66879215  1
