# generated using pymatgen
data_Sm2As4O9
_symmetry_space_group_name_H-M   'P 1'
_cell_length_a   6.89698698
_cell_length_b   7.69751542
_cell_length_c   9.90055557
_cell_angle_alpha   95.27390532
_cell_angle_beta   104.17596227
_cell_angle_gamma   104.66683260
_symmetry_Int_Tables_number   1
_chemical_formula_structural   Sm2As4O9
_chemical_formula_sum   'Sm4 As8 O18'
_cell_volume   486.32128737
_cell_formula_units_Z   2
loop_
 _symmetry_equiv_pos_site_id
 _symmetry_equiv_pos_as_xyz
  1  'x, y, z'
loop_
 _atom_site_type_symbol
 _atom_site_label
 _atom_site_symmetry_multiplicity
 _atom_site_fract_x
 _atom_site_fract_y
 _atom_site_fract_z
 _atom_site_occupancy
  O  O0  1  0.72119434  0.75182333  0.25264507  1
  O  O1  1  0.27880566  0.24817667  0.74735493  1
  O  O2  1  0.31671771  0.97932334  0.87488068  1
  O  O3  1  0.68328229  0.02067666  0.12511932  1
  O  O4  1  0.60559870  0.31799394  0.98587522  1
  O  O5  1  0.39440130  0.68200606  0.01412478  1
  O  O6  1  0.13603652  0.65251732  0.73938418  1
  O  O7  1  0.86396348  0.34748268  0.26061582  1
  O  O8  1  0.84528697  0.87158634  0.55969933  1
  O  O9  1  0.15471303  0.12841366  0.44030067  1
  O  O10  1  0.49330977  0.77206831  0.66769915  1
  O  O11  1  0.50669023  0.22793169  0.33230085  1
  O  O12  1  0.37202926  0.53939669  0.37722995  1
  O  O13  1  0.62797074  0.46060331  0.62277005  1
  O  O14  1  0.09027609  0.66805465  0.45133158  1
  O  O15  1  0.90972391  0.33194535  0.54866842  1
  O  O16  1  0.36864782  0.89868381  0.35997579  1
  O  O17  1  0.63135218  0.10131619  0.64002421  1
  As  As18  1  0.67847160  0.77775461  0.07366079  1
  As  As19  1  0.32152840  0.22224539  0.92633921  1
  As  As20  1  0.17635332  0.75497959  0.91344859  1
  As  As21  1  0.82364668  0.24502041  0.08655141  1
  As  As22  1  0.74765450  0.91767671  0.70915507  1
  As  As23  1  0.25234550  0.08232329  0.29084493  1
  As  As24  1  0.80817610  0.34864742  0.70118499  1
  As  As25  1  0.19182390  0.65135258  0.29881501  1
  Sm  Sm26  1  0.24812996  0.94017156  0.61652753  1
  Sm  Sm27  1  0.75187004  0.05982844  0.38347247  1
  Sm  Sm28  1  0.71977285  0.53140668  0.40731014  1
  Sm  Sm29  1  0.28022715  0.46859332  0.59268986  1
