# generated using pymatgen
data_Ce4CdPd
_symmetry_space_group_name_H-M   'P 1'
_cell_length_a   9.85754750
_cell_length_b   9.85754750
_cell_length_c   9.85754750
_cell_angle_alpha   60.00000000
_cell_angle_beta   60.00000000
_cell_angle_gamma   60.00000000
_symmetry_Int_Tables_number   1
_chemical_formula_structural   Ce4CdPd
_chemical_formula_sum   'Ce16 Cd4 Pd4'
_cell_volume   677.31647107
_cell_formula_units_Z   4
loop_
 _symmetry_equiv_pos_site_id
 _symmetry_equiv_pos_as_xyz
  1  'x, y, z'
loop_
 _atom_site_type_symbol
 _atom_site_label
 _atom_site_symmetry_multiplicity
 _atom_site_fract_x
 _atom_site_fract_y
 _atom_site_fract_z
 _atom_site_occupancy
  Ce  Ce0  1  0.64567022  0.64567022  0.64567022  1
  Ce  Ce1  1  0.06298935  0.64567022  0.64567022  1
  Ce  Ce2  1  0.64567022  0.06298935  0.64567022  1
  Ce  Ce3  1  0.64567022  0.64567022  0.06298935  1
  Ce  Ce4  1  0.80342745  0.80342745  0.19657255  1
  Ce  Ce5  1  0.19657255  0.19657255  0.80342745  1
  Ce  Ce6  1  0.80342745  0.19657255  0.80342745  1
  Ce  Ce7  1  0.19657255  0.80342745  0.19657255  1
  Ce  Ce8  1  0.19657255  0.80342745  0.80342745  1
  Ce  Ce9  1  0.80342745  0.19657255  0.19657255  1
  Ce  Ce10  1  0.43528539  0.43528539  0.06471461  1
  Ce  Ce11  1  0.06471461  0.06471461  0.43528539  1
  Ce  Ce12  1  0.43528539  0.06471461  0.43528539  1
  Ce  Ce13  1  0.06471461  0.43528539  0.06471461  1
  Ce  Ce14  1  0.06471461  0.43528539  0.43528539  1
  Ce  Ce15  1  0.43528539  0.06471461  0.06471461  1
  Cd  Cd16  1  0.42032399  0.42032399  0.42032399  1
  Cd  Cd17  1  0.73902804  0.42032399  0.42032399  1
  Cd  Cd18  1  0.42032399  0.73902804  0.42032399  1
  Cd  Cd19  1  0.42032399  0.42032399  0.73902804  1
  Pd  Pd20  1  0.85667152  0.85667152  0.85667152  1
  Pd  Pd21  1  0.42998543  0.85667152  0.85667152  1
  Pd  Pd22  1  0.85667152  0.42998543  0.85667152  1
  Pd  Pd23  1  0.85667152  0.85667152  0.42998543  1
