# generated using pymatgen
data_Na2SO4
_symmetry_space_group_name_H-M   'P 1'
_cell_length_a   5.79473958
_cell_length_b   5.79473958
_cell_length_c   6.90161127
_cell_angle_alpha   102.71671122
_cell_angle_beta   102.71671117
_cell_angle_gamma   118.40121133
_symmetry_Int_Tables_number   1
_chemical_formula_structural   Na2SO4
_chemical_formula_sum   'Na4 S2 O8'
_cell_volume   184.05500056
_cell_formula_units_Z   2
loop_
 _symmetry_equiv_pos_site_id
 _symmetry_equiv_pos_as_xyz
  1  'x, y, z'
loop_
 _atom_site_type_symbol
 _atom_site_label
 _atom_site_symmetry_multiplicity
 _atom_site_fract_x
 _atom_site_fract_y
 _atom_site_fract_z
 _atom_site_occupancy
  O  O0  1  0.24977204  0.17695380  0.88548629  1
  O  O1  1  0.29146751  0.86428575  0.61451371  1
  O  O2  1  0.82304620  0.75022796  0.61451371  1
  O  O3  1  0.13571425  0.70853249  0.88548629  1
  O  O4  1  0.75022796  0.82304620  0.11451371  1
  O  O5  1  0.70853249  0.13571425  0.38548629  1
  O  O6  1  0.86428575  0.29146751  0.11451371  1
  O  O7  1  0.17695380  0.24977204  0.38548629  1
  Na  Na8  1  0.56017428  0.43982572  0.25000000  1
  Na  Na9  1  0.18982572  0.81017428  0.25000000  1
  Na  Na10  1  0.81017428  0.18982572  0.75000000  1
  Na  Na11  1  0.43982572  0.56017428  0.75000000  1
  S  S12  1  0.87500000  0.12500000  0.25000000  1
  S  S13  1  0.12500000  0.87500000  0.75000000  1
