# generated using pymatgen
data_ThGeO4
_symmetry_space_group_name_H-M   'P 1'
_cell_length_a   6.13047111
_cell_length_b   6.13047111
_cell_length_c   6.13047111
_cell_angle_alpha   106.84823837
_cell_angle_beta   106.84823842
_cell_angle_gamma   114.85508510
_symmetry_Int_Tables_number   1
_chemical_formula_structural   ThGeO4
_chemical_formula_sum   'Th2 Ge2 O8'
_cell_volume   176.17593888
_cell_formula_units_Z   2
loop_
 _symmetry_equiv_pos_site_id
 _symmetry_equiv_pos_as_xyz
  1  'x, y, z'
loop_
 _atom_site_type_symbol
 _atom_site_label
 _atom_site_symmetry_multiplicity
 _atom_site_fract_x
 _atom_site_fract_y
 _atom_site_fract_z
 _atom_site_occupancy
  O  O0  1  0.80367117  0.73568888  0.43201771  1
  O  O1  1  0.37165346  0.80367117  0.56798229  1
  O  O2  1  0.73568888  0.80367117  0.93201771  1
  O  O3  1  0.80367117  0.37165346  0.06798229  1
  O  O4  1  0.62834654  0.19632883  0.43201771  1
  O  O5  1  0.19632883  0.26431112  0.56798229  1
  O  O6  1  0.19632883  0.62834654  0.93201771  1
  O  O7  1  0.26431112  0.19632883  0.06798229  1
  Ge  Ge8  1  0.37500000  0.62500000  0.75000000  1
  Ge  Ge9  1  0.62500000  0.37500000  0.25000000  1
  Th  Th10  1  0.12500000  0.87500000  0.25000000  1
  Th  Th11  1  0.87500000  0.12500000  0.75000000  1
