# generated using pymatgen
data_GdScGe
_symmetry_space_group_name_H-M   'P 1'
_cell_length_a   4.26460119
_cell_length_b   4.26460119
_cell_length_c   8.42327556
_cell_angle_alpha   104.66362862
_cell_angle_beta   104.66362860
_cell_angle_gamma   90.00000010
_symmetry_Int_Tables_number   1
_chemical_formula_structural   GdScGe
_chemical_formula_sum   'Gd2 Sc2 Ge2'
_cell_volume   143.03928980
_cell_formula_units_Z   2
loop_
 _symmetry_equiv_pos_site_id
 _symmetry_equiv_pos_as_xyz
  1  'x, y, z'
loop_
 _atom_site_type_symbol
 _atom_site_label
 _atom_site_symmetry_multiplicity
 _atom_site_fract_x
 _atom_site_fract_y
 _atom_site_fract_z
 _atom_site_occupancy
  Sc  Sc0  1  0.00000000  0.50000000  0.00000000  1
  Sc  Sc1  1  0.50000000  0.00000000  0.00000000  1
  Ge  Ge2  1  0.12581180  0.12581180  0.25162360  1
  Ge  Ge3  1  0.87418820  0.87418820  0.74837640  1
  Gd  Gd4  1  0.67724638  0.67724638  0.35449276  1
  Gd  Gd5  1  0.32275362  0.32275362  0.64550724  1
