# generated using pymatgen
data_LaGaS3
_symmetry_space_group_name_H-M   'P 1'
_cell_length_a   10.43698939
_cell_length_b   10.61392782
_cell_length_c   12.94293640
_cell_angle_alpha   90.00000000
_cell_angle_beta   98.84422627
_cell_angle_gamma   90.00000000
_symmetry_Int_Tables_number   1
_chemical_formula_structural   LaGaS3
_chemical_formula_sum   'La12 Ga12 S36'
_cell_volume   1416.73780474
_cell_formula_units_Z   12
loop_
 _symmetry_equiv_pos_site_id
 _symmetry_equiv_pos_as_xyz
  1  'x, y, z'
loop_
 _atom_site_type_symbol
 _atom_site_label
 _atom_site_symmetry_multiplicity
 _atom_site_fract_x
 _atom_site_fract_y
 _atom_site_fract_z
 _atom_site_occupancy
  S  S0  1  0.10508159  0.76669013  0.24936100  1
  S  S1  1  0.89491841  0.26669013  0.25063900  1
  S  S2  1  0.89491841  0.23330987  0.75063900  1
  S  S3  1  0.10508159  0.73330987  0.74936100  1
  S  S4  1  0.70670890  0.72181846  0.07619587  1
  S  S5  1  0.29329110  0.22181846  0.42380413  1
  S  S6  1  0.29329110  0.27818154  0.92380413  1
  S  S7  1  0.70670890  0.77818154  0.57619587  1
  S  S8  1  0.43548924  0.68994839  0.70567943  1
  S  S9  1  0.56451076  0.18994839  0.79432057  1
  S  S10  1  0.56451076  0.31005161  0.29432057  1
  S  S11  1  0.43548924  0.81005161  0.20567943  1
  S  S12  1  0.00612817  0.66222885  0.98605518  1
  S  S13  1  0.99387183  0.16222885  0.51394482  1
  S  S14  1  0.75080326  0.54898387  0.82286397  1
  S  S15  1  0.99387183  0.33777115  0.01394482  1
  S  S16  1  0.33179057  0.58806618  0.95491122  1
  S  S17  1  0.66820943  0.08806618  0.54508878  1
  S  S18  1  0.66820943  0.41193382  0.04508878  1
  S  S19  1  0.33179057  0.91193382  0.45491122  1
  S  S20  1  0.75258258  0.59341955  0.32591171  1
  S  S21  1  0.24741742  0.09341955  0.17408829  1
  S  S22  1  0.24741742  0.40658045  0.67408829  1
  S  S23  1  0.75258258  0.90658045  0.82591171  1
  S  S24  1  0.94114107  0.98629611  0.10835026  1
  S  S25  1  0.05885893  0.48629611  0.39164974  1
  S  S26  1  0.05885893  0.01370389  0.89164974  1
  S  S27  1  0.94114107  0.51370389  0.60835026  1
  S  S28  1  0.39538700  0.92367486  0.91766114  1
  S  S29  1  0.60461300  0.42367486  0.58233886  1
  S  S30  1  0.60461300  0.07632514  0.08233886  1
  S  S31  1  0.39538700  0.57632514  0.41766114  1
  S  S32  1  0.75080326  0.95101613  0.32286397  1
  S  S33  1  0.24919674  0.45101613  0.17713603  1
  S  S34  1  0.24919674  0.04898387  0.67713603  1
  S  S35  1  0.00612817  0.83777115  0.48605518  1
  Ga  Ga36  1  0.74805721  0.91860030  0.14597459  1
  Ga  Ga37  1  0.25194279  0.41860030  0.35402541  1
  Ga  Ga38  1  0.25194279  0.08139970  0.85402541  1
  Ga  Ga39  1  0.74805721  0.58139970  0.64597459  1
  Ga  Ga40  1  0.80140853  0.77083305  0.42363305  1
  Ga  Ga41  1  0.19859147  0.27083305  0.07636695  1
  Ga  Ga42  1  0.19859147  0.22916695  0.57636695  1
  Ga  Ga43  1  0.80140853  0.72916695  0.92363305  1
  Ga  Ga44  1  0.31331024  0.74667936  0.83114083  1
  Ga  Ga45  1  0.68668976  0.24667936  0.66885917  1
  Ga  Ga46  1  0.68668976  0.25332064  0.16885917  1
  Ga  Ga47  1  0.31331024  0.75332064  0.33114083  1
  La  La48  1  0.94275456  0.96935912  0.67222737  1
  La  La49  1  0.05724544  0.46935912  0.82777263  1
  La  La50  1  0.05724544  0.03064088  0.32777263  1
  La  La51  1  0.94275456  0.53064088  0.17222737  1
  La  La52  1  0.51548808  0.94719417  0.67510756  1
  La  La53  1  0.48451192  0.44719417  0.82489244  1
  La  La54  1  0.48451192  0.05280583  0.32489244  1
  La  La55  1  0.51548808  0.55280583  0.17510756  1
  La  La56  1  0.18606152  0.85604768  0.05845922  1
  La  La57  1  0.81393848  0.35604768  0.44154078  1
  La  La58  1  0.81393848  0.14395232  0.94154078  1
  La  La59  1  0.18606152  0.64395232  0.55845922  1
