# generated using pymatgen
data_CeAl5Ni2
_symmetry_space_group_name_H-M   'P 1'
_cell_length_a   3.98218799
_cell_length_b   6.23454288
_cell_length_c   6.23454288
_cell_angle_alpha   68.63259717
_cell_angle_beta   71.37548055
_cell_angle_gamma   71.37548055
_symmetry_Int_Tables_number   1
_chemical_formula_structural   CeAl5Ni2
_chemical_formula_sum   'Ce1 Al5 Ni2'
_cell_volume   132.93436190
_cell_formula_units_Z   1
loop_
 _symmetry_equiv_pos_site_id
 _symmetry_equiv_pos_as_xyz
  1  'x, y, z'
loop_
 _atom_site_type_symbol
 _atom_site_label
 _atom_site_symmetry_multiplicity
 _atom_site_fract_x
 _atom_site_fract_y
 _atom_site_fract_z
 _atom_site_occupancy
  Al  Al0  1  0.00000000  0.50000000  0.50000000  1
  Al  Al1  1  0.65620471  0.15371714  0.53387343  1
  Al  Al2  1  0.34379529  0.84628286  0.46612657  1
  Al  Al3  1  0.34379529  0.46612657  0.84628286  1
  Al  Al4  1  0.65620471  0.53387343  0.15371714  1
  Ni  Ni5  1  0.75782295  0.74217705  0.74217705  1
  Ni  Ni6  1  0.24217705  0.25782295  0.25782295  1
  Ce  Ce7  1  0.00000000  0.00000000  0.00000000  1
