# generated using pymatgen
data_Li4TeO5
_symmetry_space_group_name_H-M   'P 1'
_cell_length_a   5.18559266
_cell_length_b   5.25848522
_cell_length_c   7.86604639
_cell_angle_alpha   107.54004090
_cell_angle_beta   102.04751018
_cell_angle_gamma   101.86486237
_symmetry_Int_Tables_number   1
_chemical_formula_structural   Li4TeO5
_chemical_formula_sum   'Li8 Te2 O10'
_cell_volume   191.54587750
_cell_formula_units_Z   2
loop_
 _symmetry_equiv_pos_site_id
 _symmetry_equiv_pos_as_xyz
  1  'x, y, z'
loop_
 _atom_site_type_symbol
 _atom_site_label
 _atom_site_symmetry_multiplicity
 _atom_site_fract_x
 _atom_site_fract_y
 _atom_site_fract_z
 _atom_site_occupancy
  Li  Li0  1  0.42302251  0.80150937  0.31734962  1
  Li  Li1  1  0.57697749  0.19849063  0.68265038  1
  Li  Li2  1  0.00000000  0.00000000  0.50000000  1
  Li  Li3  1  0.50000000  0.00000000  0.00000000  1
  Li  Li4  1  0.22575530  0.39327701  0.88792586  1
  Li  Li5  1  0.77424470  0.60672299  0.11207414  1
  Li  Li6  1  0.29549671  0.61459100  0.60409654  1
  Li  Li7  1  0.70450329  0.38540900  0.39590346  1
  O  O8  1  0.57621736  0.61003092  0.84682919  1
  O  O9  1  0.42378264  0.38996908  0.15317081  1
  O  O10  1  0.05095894  0.55855722  0.32937494  1
  O  O11  1  0.94904106  0.44144278  0.67062506  1
  O  O12  1  0.13206870  0.83167382  0.04425674  1
  O  O13  1  0.86793130  0.16832618  0.95574326  1
  O  O14  1  0.21810115  0.99065230  0.75057463  1
  O  O15  1  0.78189885  0.00934770  0.24942537  1
  O  O16  1  0.33580299  0.18091723  0.42651400  1
  O  O17  1  0.66419701  0.81908277  0.57348600  1
  Te  Te18  1  0.89119234  0.79035313  0.78843486  1
  Te  Te19  1  0.10880766  0.20964687  0.21156514  1
