# generated using pymatgen
data_CaLa2Cu2O7
_symmetry_space_group_name_H-M   'P 1'
_cell_length_a   3.83355474
_cell_length_b   3.83355474
_cell_length_c   10.56215325
_cell_angle_alpha   100.45574470
_cell_angle_beta   100.45574470
_cell_angle_gamma   90.00000000
_symmetry_Int_Tables_number   1
_chemical_formula_structural   CaLa2Cu2O7
_chemical_formula_sum   'Ca1 La2 Cu2 O7'
_cell_volume   150.02379298
_cell_formula_units_Z   1
loop_
 _symmetry_equiv_pos_site_id
 _symmetry_equiv_pos_as_xyz
  1  'x, y, z'
loop_
 _atom_site_type_symbol
 _atom_site_label
 _atom_site_symmetry_multiplicity
 _atom_site_fract_x
 _atom_site_fract_y
 _atom_site_fract_z
 _atom_site_occupancy
  Ca  Ca0  1  0.50000000  0.50000000  0.00000000  1
  La  La1  1  0.32099188  0.32099188  0.64198376  1
  La  La2  1  0.67900812  0.67900812  0.35801624  1
  Cu  Cu3  1  0.09401396  0.09401396  0.18802792  1
  Cu  Cu4  1  0.90598604  0.90598604  0.81197208  1
  O  O5  1  0.09966046  0.59966046  0.19932092  1
  O  O6  1  0.90033954  0.40033954  0.80067908  1
  O  O7  1  0.59966046  0.09966046  0.19932092  1
  O  O8  1  0.40033954  0.90033954  0.80067908  1
  O  O9  1  0.20421400  0.20421400  0.40842801  1
  O  O10  1  0.79578600  0.79578600  0.59157199  1
  O  O11  1  0.00000000  -0.00000000  0.00000000  1
