# generated using pymatgen
data_AgAsF7
_symmetry_space_group_name_H-M   'P 1'
_cell_length_a   7.22035947
_cell_length_b   7.85344719
_cell_length_c   10.01202803
_cell_angle_alpha   90.00000000
_cell_angle_beta   90.00000000
_cell_angle_gamma   90.00000000
_symmetry_Int_Tables_number   1
_chemical_formula_structural   AgAsF7
_chemical_formula_sum   'Ag4 As4 F28'
_cell_volume   567.72916388
_cell_formula_units_Z   4
loop_
 _symmetry_equiv_pos_site_id
 _symmetry_equiv_pos_as_xyz
  1  'x, y, z'
loop_
 _atom_site_type_symbol
 _atom_site_label
 _atom_site_symmetry_multiplicity
 _atom_site_fract_x
 _atom_site_fract_y
 _atom_site_fract_z
 _atom_site_occupancy
  F  F0  1  0.92473741  0.12564869  0.17066401  1
  F  F1  1  0.42473741  0.87435131  0.82933599  1
  F  F2  1  0.57526259  0.62564869  0.32933599  1
  F  F3  1  0.07526259  0.37435131  0.67066401  1
  F  F4  1  0.07526259  0.87435131  0.82933599  1
  F  F5  1  0.57526259  0.12564869  0.17066401  1
  F  F6  1  0.42473741  0.37435131  0.67066401  1
  F  F7  1  0.92473741  0.62564869  0.32933599  1
  F  F8  1  0.75000000  0.61097423  0.80619492  1
  F  F9  1  0.25000000  0.38902577  0.19380508  1
  F  F10  1  0.75000000  0.11097423  0.69380508  1
  F  F11  1  0.25000000  0.88902577  0.30619492  1
  F  F12  1  0.75000000  0.49357713  0.51740151  1
  F  F13  1  0.25000000  0.50642287  0.48259849  1
  F  F14  1  0.75000000  0.99357713  0.98259849  1
  F  F15  1  0.25000000  0.00642287  0.01740151  1
  F  F16  1  0.75000000  0.89921967  0.36531486  1
  F  F17  1  0.25000000  0.10078033  0.63468514  1
  F  F18  1  0.75000000  0.39921967  0.13468514  1
  F  F19  1  0.25000000  0.60078033  0.86531486  1
  F  F20  1  0.92216381  0.76716878  0.55801580  1
  F  F21  1  0.42216381  0.23283122  0.44198420  1
  F  F22  1  0.57783619  0.26716878  0.94198420  1
  F  F23  1  0.07783619  0.73283122  0.05801580  1
  F  F24  1  0.07783619  0.23283122  0.44198420  1
  F  F25  1  0.57783619  0.76716878  0.55801580  1
  F  F26  1  0.42216381  0.73283122  0.05801580  1
  F  F27  1  0.92216381  0.26716878  0.94198420  1
  As  As28  1  0.25000000  0.80032640  0.94005798  1
  As  As29  1  0.75000000  0.19967360  0.05994202  1
  As  As30  1  0.25000000  0.30032640  0.55994202  1
  As  As31  1  0.75000000  0.69967360  0.44005798  1
  Ag  Ag32  1  0.25000000  0.63612687  0.25721094  1
  Ag  Ag33  1  0.75000000  0.36387313  0.74278906  1
  Ag  Ag34  1  0.25000000  0.13612687  0.24278906  1
  Ag  Ag35  1  0.75000000  0.86387313  0.75721094  1
