# generated using pymatgen
data_La4Re6O19
_symmetry_space_group_name_H-M   'P 1'
_cell_length_a   7.92388566
_cell_length_b   7.92388566
_cell_length_c   7.92388566
_cell_angle_alpha   109.47122064
_cell_angle_beta   109.47122065
_cell_angle_gamma   109.47122061
_symmetry_Int_Tables_number   1
_chemical_formula_structural   La4Re6O19
_chemical_formula_sum   'La4 Re6 O19'
_cell_volume   382.99465179
_cell_formula_units_Z   1
loop_
 _symmetry_equiv_pos_site_id
 _symmetry_equiv_pos_as_xyz
  1  'x, y, z'
loop_
 _atom_site_type_symbol
 _atom_site_label
 _atom_site_symmetry_multiplicity
 _atom_site_fract_x
 _atom_site_fract_y
 _atom_site_fract_z
 _atom_site_occupancy
  O  O0  1  0.00000000  0.00000000  0.00000000  1
  O  O1  1  0.72930457  0.35608786  0.05979040  1
  O  O2  1  0.29629746  0.66951417  0.94020960  1
  O  O3  1  0.70370254  0.64391214  0.37321671  1
  O  O4  1  0.33048583  0.62678329  0.27069543  1
  O  O5  1  0.62678329  0.27069543  0.33048583  1
  O  O6  1  0.05979040  0.72930457  0.35608786  1
  O  O7  1  0.66951417  0.94020960  0.29629746  1
  O  O8  1  0.37321671  0.70370254  0.64391214  1
  O  O9  1  0.35608786  0.05979040  0.72930457  1
  O  O10  1  0.00000000  0.32139237  0.32139237  1
  O  O11  1  0.67860763  0.67860763  0.00000000  1
  O  O12  1  0.67860763  0.00000000  0.67860763  1
  O  O13  1  0.32139237  0.32139237  0.00000000  1
  O  O14  1  0.32139237  0.00000000  0.32139237  1
  O  O15  1  0.00000000  0.67860763  0.67860763  1
  O  O16  1  0.27069543  0.33048583  0.62678329  1
  O  O17  1  0.64391214  0.37321671  0.70370254  1
  O  O18  1  0.94020960  0.29629746  0.66951417  1
  La  La19  1  0.68702319  0.00000000  0.00000000  1
  La  La20  1  0.00000000  0.00000000  0.68702319  1
  La  La21  1  0.00000000  0.68702319  0.00000000  1
  La  La22  1  0.31297681  0.31297681  0.31297681  1
  Re  Re23  1  0.50000000  0.63275857  0.13275857  1
  Re  Re24  1  0.86724143  0.50000000  0.36724143  1
  Re  Re25  1  0.36724143  0.86724143  0.50000000  1
  Re  Re26  1  0.13275857  0.50000000  0.63275857  1
  Re  Re27  1  0.63275857  0.13275857  0.50000000  1
  Re  Re28  1  0.50000000  0.36724143  0.86724143  1
