# generated using pymatgen
data_FeSO5
_symmetry_space_group_name_H-M   'P 1'
_cell_length_a   5.21127372
_cell_length_b   5.21127372
_cell_length_c   7.26892633
_cell_angle_alpha   109.05504745
_cell_angle_beta   112.91589919
_cell_angle_gamma   90.08542088
_symmetry_Int_Tables_number   1
_chemical_formula_structural   FeSO5
_chemical_formula_sum   'Fe2 S2 O10'
_cell_volume   169.97648685
_cell_formula_units_Z   2
loop_
 _symmetry_equiv_pos_site_id
 _symmetry_equiv_pos_as_xyz
  1  'x, y, z'
loop_
 _atom_site_type_symbol
 _atom_site_label
 _atom_site_symmetry_multiplicity
 _atom_site_fract_x
 _atom_site_fract_y
 _atom_site_fract_z
 _atom_site_occupancy
  Fe  Fe0  1  0.50000000  0.00000000  0.50000000  1
  Fe  Fe1  1  -0.00000000  0.00000000  -0.00000000  1
  S  S2  1  0.87184549  0.62184549  0.25000000  1
  S  S3  1  0.12815451  0.37815451  0.75000000  1
  O  O4  1  0.66082658  0.68164467  0.34069023  1
  O  O5  1  0.84095444  0.32013635  0.15930977  1
  O  O6  1  0.33917342  0.31835533  0.65930977  1
  O  O7  1  0.15904556  0.67986365  0.84069023  1
  O  O8  1  0.83922000  0.26209180  0.57769384  1
  O  O9  1  0.18439796  0.26152616  0.92230616  1
  O  O10  1  0.16078000  0.73790820  0.42230616  1
  O  O11  1  0.81560204  0.73847384  0.07769384  1
  O  O12  1  0.32304066  0.07304066  0.25000000  1
  O  O13  1  0.67695934  0.92695934  0.75000000  1
