# generated using pymatgen
data_Bi12IrO20
_symmetry_space_group_name_H-M   'P 1'
_cell_length_a   8.97249307
_cell_length_b   8.97249307
_cell_length_c   8.97249307
_cell_angle_alpha   109.47122063
_cell_angle_beta   109.47122063
_cell_angle_gamma   109.47122063
_symmetry_Int_Tables_number   1
_chemical_formula_structural   Bi12IrO20
_chemical_formula_sum   'Bi12 Ir1 O20'
_cell_volume   556.05468492
_cell_formula_units_Z   1
loop_
 _symmetry_equiv_pos_site_id
 _symmetry_equiv_pos_as_xyz
  1  'x, y, z'
loop_
 _atom_site_type_symbol
 _atom_site_label
 _atom_site_symmetry_multiplicity
 _atom_site_fract_x
 _atom_site_fract_y
 _atom_site_fract_z
 _atom_site_occupancy
  Bi  Bi0  1  0.49755993  0.33636564  0.19364192  1
  Bi  Bi1  1  0.50244007  0.69608199  0.83880570  1
  Bi  Bi2  1  0.85727629  0.66363436  0.16119430  1
  Bi  Bi3  1  0.33636564  0.19364192  0.49755993  1
  Bi  Bi4  1  0.14272371  0.30391801  0.80635808  1
  Bi  Bi5  1  0.69608199  0.83880570  0.50244007  1
  Bi  Bi6  1  0.66363436  0.16119430  0.85727629  1
  Bi  Bi7  1  0.30391801  0.80635808  0.14272371  1
  Bi  Bi8  1  0.19364192  0.49755993  0.33636564  1
  Bi  Bi9  1  0.16119430  0.85727629  0.66363436  1
  Bi  Bi10  1  0.80635808  0.14272371  0.30391801  1
  Bi  Bi11  1  0.83880570  0.50244007  0.69608199  1
  Ir  Ir12  1  0.00000000  0.00000000  -0.00000000  1
  O  O13  1  0.38596915  0.38596915  0.38596915  1
  O  O14  1  0.61403085  0.00000000  0.00000000  1
  O  O15  1  0.00000000  0.61403085  -0.00000000  1
  O  O16  1  -0.00000000  -0.00000000  0.61403085  1
  O  O17  1  0.73928884  0.62167364  0.38116447  1
  O  O18  1  0.26071116  0.64187563  0.88238480  1
  O  O19  1  0.75949083  0.37832636  0.11761520  1
  O  O20  1  0.62167364  0.38116447  0.73928884  1
  O  O21  1  0.24050917  0.35812437  0.61883553  1
  O  O22  1  0.64187563  0.88238480  0.26071116  1
  O  O23  1  0.37832636  0.11761520  0.75949083  1
  O  O24  1  0.35812437  0.61883553  0.24050917  1
  O  O25  1  0.38116447  0.73928884  0.62167364  1
  O  O26  1  0.11761520  0.75949083  0.37832636  1
  O  O27  1  0.61883553  0.24050917  0.35812437  1
  O  O28  1  0.88238480  0.26071116  0.64187563  1
  O  O29  1  0.78220007  0.78220007  0.78220007  1
  O  O30  1  0.21779993  -0.00000000  -0.00000000  1
  O  O31  1  0.00000000  0.21779993  0.00000000  1
  O  O32  1  -0.00000000  -0.00000000  0.21779993  1
