# generated using pymatgen
data_Y4Al23Ni6
_symmetry_space_group_name_H-M   'P 1'
_cell_length_a   4.06984806
_cell_length_b   8.16796796
_cell_length_c   17.03543568
_cell_angle_alpha   85.75620563
_cell_angle_beta   83.13949866
_cell_angle_gamma   75.57368745
_symmetry_Int_Tables_number   1
_chemical_formula_structural   Y4Al23Ni6
_chemical_formula_sum   'Y4 Al23 Ni6'
_cell_volume   543.93897112
_cell_formula_units_Z   1
loop_
 _symmetry_equiv_pos_site_id
 _symmetry_equiv_pos_as_xyz
  1  'x, y, z'
loop_
 _atom_site_type_symbol
 _atom_site_label
 _atom_site_symmetry_multiplicity
 _atom_site_fract_x
 _atom_site_fract_y
 _atom_site_fract_z
 _atom_site_occupancy
  Al  Al0  1  0.00000000  0.50000000  0.50000000  1
  Al  Al1  1  0.85521758  0.43247734  0.85708750  1
  Al  Al2  1  0.91898670  0.47617803  0.68584857  1
  Al  Al3  1  0.08101330  0.52382197  0.31415143  1
  Al  Al4  1  0.91031880  0.12702683  0.05233556  1
  Al  Al5  1  0.08968120  0.87297317  0.94766444  1
  Al  Al6  1  0.90932807  0.89955850  0.28178536  1
  Al  Al7  1  0.09067193  0.10044150  0.71821464  1
  Al  Al8  1  0.79943279  0.88083622  0.52029820  1
  Al  Al9  1  0.20056721  0.11916378  0.47970180  1
  Al  Al10  1  0.14478242  0.56752266  0.14291250  1
  Al  Al11  1  0.61065633  0.94291913  0.83576820  1
  Al  Al12  1  0.74391196  0.46569310  0.04648297  1
  Al  Al13  1  0.25608804  0.53430690  0.95351703  1
  Al  Al14  1  0.38934367  0.05708087  0.16423180  1
  Al  Al15  1  0.46747858  0.28357066  0.78147217  1
  Al  Al16  1  0.72611539  0.87274220  0.67502702  1
  Al  Al17  1  0.27388461  0.12725780  0.32497298  1
  Al  Al18  1  0.62185522  0.35094892  0.40534065  1
  Al  Al19  1  0.37814478  0.64905108  0.59465935  1
  Al  Al20  1  0.56570667  0.80924466  0.05934201  1
  Al  Al21  1  0.43429333  0.19075534  0.94065799  1
  Al  Al22  1  0.53252142  0.71642934  0.21852783  1
  Ni  Ni23  1  0.99160784  0.87776635  0.13901797  1
  Ni  Ni24  1  0.00839216  0.12223365  0.86098203  1
  Ni  Ni25  1  0.77256868  0.05561013  0.39925251  1
  Ni  Ni26  1  0.68901444  0.69018667  0.93178444  1
  Ni  Ni27  1  0.22743132  0.94438987  0.60074749  1
  Ni  Ni28  1  0.31098556  0.30981333  0.06821556  1
  Y  Y29  1  0.73461584  0.31173625  0.21903206  1
  Y  Y30  1  0.57193693  0.26256034  0.59356579  1
  Y  Y31  1  0.42806307  0.73743966  0.40643421  1
  Y  Y32  1  0.26538416  0.68826375  0.78096794  1
