# generated using pymatgen
data_Li2SeO4
_symmetry_space_group_name_H-M   'P 1'
_cell_length_a   8.81410914
_cell_length_b   8.81410914
_cell_length_c   8.81410914
_cell_angle_alpha   107.82991865
_cell_angle_beta   107.82991863
_cell_angle_gamma   107.82991860
_symmetry_Int_Tables_number   1
_chemical_formula_structural   Li2SeO4
_chemical_formula_sum   'Li12 Se6 O24'
_cell_volume   556.85585278
_cell_formula_units_Z   6
loop_
 _symmetry_equiv_pos_site_id
 _symmetry_equiv_pos_as_xyz
  1  'x, y, z'
loop_
 _atom_site_type_symbol
 _atom_site_label
 _atom_site_symmetry_multiplicity
 _atom_site_fract_x
 _atom_site_fract_y
 _atom_site_fract_z
 _atom_site_occupancy
  Li  Li0  1  0.06414476  0.29599137  0.89154828  1
  Li  Li1  1  0.89154828  0.06414476  0.29599137  1
  Li  Li2  1  0.29599137  0.89154828  0.06414476  1
  Li  Li3  1  0.93585524  0.70400863  0.10845172  1
  Li  Li4  1  0.10845172  0.93585524  0.70400863  1
  Li  Li5  1  0.70400863  0.10845172  0.93585524  1
  Li  Li6  1  0.40015118  0.62195579  0.22184497  1
  Li  Li7  1  0.22184497  0.40015118  0.62195579  1
  Li  Li8  1  0.62195579  0.22184497  0.40015118  1
  Li  Li9  1  0.59984882  0.37804421  0.77815503  1
  Li  Li10  1  0.77815503  0.59984882  0.37804421  1
  Li  Li11  1  0.37804421  0.77815503  0.59984882  1
  O  O12  1  0.47296047  0.52667686  0.80982522  1
  O  O13  1  0.19017478  0.52703953  0.47332314  1
  O  O14  1  0.52703953  0.47332314  0.19017478  1
  O  O15  1  0.47332314  0.19017478  0.52703953  1
  O  O16  1  0.80982522  0.47296047  0.52667686  1
  O  O17  1  0.13835099  0.14676456  0.46593059  1
  O  O18  1  0.86164901  0.85323544  0.53406941  1
  O  O19  1  0.53406941  0.86164901  0.85323544  1
  O  O20  1  0.85323544  0.53406941  0.86164901  1
  O  O21  1  0.25220368  0.92556421  0.56790170  1
  O  O22  1  0.46593059  0.13835099  0.14676456  1
  O  O23  1  0.14676456  0.46593059  0.13835099  1
  O  O24  1  0.74779632  0.07443579  0.43209830  1
  O  O25  1  0.43209830  0.74779632  0.07443579  1
  O  O26  1  0.07443579  0.43209830  0.74779632  1
  O  O27  1  0.89982297  0.23451415  0.18637710  1
  O  O28  1  0.56790170  0.25220368  0.92556421  1
  O  O29  1  0.92556421  0.56790170  0.25220368  1
  O  O30  1  0.81362290  0.10017703  0.76548585  1
  O  O31  1  0.76548585  0.81362290  0.10017703  1
  O  O32  1  0.10017703  0.76548585  0.81362290  1
  O  O33  1  0.18637710  0.89982297  0.23451415  1
  O  O34  1  0.23451415  0.18637710  0.89982297  1
  O  O35  1  0.52667686  0.80982522  0.47296047  1
  Se  Se36  1  0.73597043  0.96033648  0.55179037  1
  Se  Se37  1  0.03966352  0.44820963  0.26402957  1
  Se  Se38  1  0.44820963  0.26402957  0.03966352  1
  Se  Se39  1  0.26402957  0.03966352  0.44820963  1
  Se  Se40  1  0.96033648  0.55179037  0.73597043  1
  Se  Se41  1  0.55179037  0.73597043  0.96033648  1
