# generated using pymatgen
data_NdScGe
_symmetry_space_group_name_H-M   'P 1'
_cell_length_a   4.32580151
_cell_length_b   4.32580152
_cell_length_c   8.57562553
_cell_angle_alpha   104.60861883
_cell_angle_beta   104.60861888
_cell_angle_gamma   89.99999998
_symmetry_Int_Tables_number   1
_chemical_formula_structural   NdScGe
_chemical_formula_sum   'Nd2 Sc2 Ge2'
_cell_volume   149.91676413
_cell_formula_units_Z   2
loop_
 _symmetry_equiv_pos_site_id
 _symmetry_equiv_pos_as_xyz
  1  'x, y, z'
loop_
 _atom_site_type_symbol
 _atom_site_label
 _atom_site_symmetry_multiplicity
 _atom_site_fract_x
 _atom_site_fract_y
 _atom_site_fract_z
 _atom_site_occupancy
  Sc  Sc0  1  0.00000000  0.50000000  0.00000000  1
  Sc  Sc1  1  0.50000000  0.00000000  0.00000000  1
  Ge  Ge2  1  0.12295048  0.12295048  0.24590096  1
  Ge  Ge3  1  0.87704952  0.87704952  0.75409904  1
  Nd  Nd4  1  0.67656496  0.67656496  0.35312992  1
  Nd  Nd5  1  0.32343504  0.32343504  0.64687008  1
