# generated using pymatgen
data_LaCuS2
_symmetry_space_group_name_H-M   'P 1'
_cell_length_a   6.60557441
_cell_length_b   6.94595599
_cell_length_c   7.31786381
_cell_angle_alpha   90.00000000
_cell_angle_beta   90.00000000
_cell_angle_gamma   97.89205707
_symmetry_Int_Tables_number   1
_chemical_formula_structural   LaCuS2
_chemical_formula_sum   'La4 Cu4 S8'
_cell_volume   332.57830685
_cell_formula_units_Z   4
loop_
 _symmetry_equiv_pos_site_id
 _symmetry_equiv_pos_as_xyz
  1  'x, y, z'
loop_
 _atom_site_type_symbol
 _atom_site_label
 _atom_site_symmetry_multiplicity
 _atom_site_fract_x
 _atom_site_fract_y
 _atom_site_fract_z
 _atom_site_occupancy
  S  S0  1  0.90973615  0.00073171  0.72687581  1
  S  S1  1  0.09026385  0.49926829  0.22687581  1
  S  S2  1  0.09026385  0.99926829  0.27312419  1
  S  S3  1  0.90973615  0.50073171  0.77312419  1
  S  S4  1  0.58672073  0.77836477  0.11696290  1
  S  S5  1  0.58672073  0.27836477  0.38303710  1
  S  S6  1  0.41327927  0.22163523  0.88303710  1
  S  S7  1  0.41327927  0.72163523  0.61696290  1
  Cu  Cu8  1  0.57202939  0.04350477  0.66613155  1
  Cu  Cu9  1  0.42797061  0.95649523  0.33386845  1
  Cu  Cu10  1  0.42797061  0.45649523  0.16613155  1
  Cu  Cu11  1  0.57202939  0.54350477  0.83386845  1
  La  La12  1  0.18977154  0.79946224  0.94765763  1
  La  La13  1  0.81022846  0.70053776  0.44765763  1
  La  La14  1  0.81022846  0.20053776  0.05234237  1
  La  La15  1  0.18977154  0.29946224  0.55234237  1
