# generated using pymatgen
data_Ca2Fe3Si3O14
_symmetry_space_group_name_H-M   'P 1'
_cell_length_a   6.03551015
_cell_length_b   8.78764848
_cell_length_c   10.47020456
_cell_angle_alpha   96.20068317
_cell_angle_beta   106.75160397
_cell_angle_gamma   90.00000000
_symmetry_Int_Tables_number   1
_chemical_formula_structural   Ca2Fe3Si3O14
_chemical_formula_sum   'Ca4 Fe6 Si6 O28'
_cell_volume   528.35855275
_cell_formula_units_Z   2
loop_
 _symmetry_equiv_pos_site_id
 _symmetry_equiv_pos_as_xyz
  1  'x, y, z'
loop_
 _atom_site_type_symbol
 _atom_site_label
 _atom_site_symmetry_multiplicity
 _atom_site_fract_x
 _atom_site_fract_y
 _atom_site_fract_z
 _atom_site_occupancy
  Ca  Ca0  1  0.65445710  0.17388446  0.30891420  1
  Ca  Ca1  1  0.34554290  0.82611554  0.69108580  1
  Ca  Ca2  1  0.16009633  0.74674366  0.32019266  1
  Ca  Ca3  1  0.83990367  0.25325634  0.67980734  1
  Fe  Fe4  1  0.73948792  0.25499281  0.98737323  1
  Fe  Fe5  1  0.26051208  0.74500719  0.01262677  1
  Fe  Fe6  1  0.75211470  0.74500719  0.01262677  1
  Fe  Fe7  1  0.24788530  0.25499281  0.98737323  1
  Fe  Fe8  1  0.50000000  0.50000000  0.50000000  1
  Fe  Fe9  1  -0.00000000  0.50000000  0.50000000  1
  Si  Si10  1  0.24732688  0.16062953  0.49465376  1
  Si  Si11  1  0.75267312  0.83937047  0.50534624  1
  Si  Si12  1  0.40186977  0.46388024  0.80373954  1
  Si  Si13  1  0.59813023  0.53611976  0.19626046  1
  Si  Si14  1  0.09226258  0.05705170  0.18452515  1
  Si  Si15  1  0.90773742  0.94294830  0.81547485  1
  O  O16  1  0.02419700  0.37126811  0.04839400  1
  O  O17  1  0.97580300  0.62873189  0.95160600  1
  O  O18  1  0.32598898  0.52495918  0.65197797  1
  O  O19  1  0.67401102  0.47504082  0.34802203  1
  O  O20  1  0.17420215  0.04267515  0.34840430  1
  O  O21  1  0.82579785  0.95732485  0.65159570  1
  O  O22  1  0.30696601  0.05541989  0.61393201  1
  O  O23  1  0.69303399  0.94458011  0.38606799  1
  O  O24  1  0.47742453  0.26615762  0.49398764  1
  O  O25  1  0.52257547  0.73384238  0.50601236  1
  O  O26  1  0.98343689  0.73384238  0.50601236  1
  O  O27  1  0.01656311  0.26615762  0.49398764  1
  O  O28  1  0.19389298  0.50259412  0.38778595  1
  O  O29  1  0.80610702  0.49740588  0.61221405  1
  O  O30  1  0.05879018  0.87644354  0.11758036  1
  O  O31  1  0.94120982  0.12355646  0.88241964  1
  O  O32  1  0.29760938  0.14432151  0.14692891  1
  O  O33  1  0.70239062  0.85567849  0.85307109  1
  O  O34  1  0.15068047  0.85567849  0.85307109  1
  O  O35  1  0.84931953  0.14432151  0.14692891  1
  O  O36  1  0.46469209  0.13789677  0.92938418  1
  O  O37  1  0.53530791  0.86210323  0.07061582  1
  O  O38  1  0.63709971  0.36423588  0.82719807  1
  O  O39  1  0.36290029  0.63576412  0.17280193  1
  O  O40  1  0.80990164  0.63576412  0.17280193  1
  O  O41  1  0.19009836  0.36423588  0.82719807  1
  O  O42  1  0.54511529  0.37836059  0.09023058  1
  O  O43  1  0.45488471  0.62163941  0.90976942  1
