# generated using pymatgen
data_CaAl4O7
_symmetry_space_group_name_H-M   'P 1'
_cell_length_a   5.49729110
_cell_length_b   7.88671026
_cell_length_c   7.88671026
_cell_angle_alpha   69.28947288
_cell_angle_beta   76.63767097
_cell_angle_gamma   76.63767101
_symmetry_Int_Tables_number   1
_chemical_formula_structural   CaAl4O7
_chemical_formula_sum   'Ca2 Al8 O14'
_cell_volume   306.95744959
_cell_formula_units_Z   2
loop_
 _symmetry_equiv_pos_site_id
 _symmetry_equiv_pos_as_xyz
  1  'x, y, z'
loop_
 _atom_site_type_symbol
 _atom_site_label
 _atom_site_symmetry_multiplicity
 _atom_site_fract_x
 _atom_site_fract_y
 _atom_site_fract_z
 _atom_site_occupancy
  O  O0  1  0.92018502  0.74844333  0.63743138  1
  O  O1  1  0.57981498  0.36256862  0.25155667  1
  O  O2  1  0.07981498  0.25155667  0.36256862  1
  O  O3  1  0.42018502  0.63743138  0.74844333  1
  O  O4  1  0.34991756  0.86430705  0.37226012  1
  O  O5  1  0.15008244  0.62773988  0.13569295  1
  O  O6  1  0.65008244  0.13569295  0.62773988  1
  O  O7  1  0.84991756  0.37226012  0.86430705  1
  O  O8  1  0.92760314  0.06136231  0.16989898  1
  O  O9  1  0.57239686  0.83010102  0.93863769  1
  O  O10  1  0.75000000  0.53138726  0.46861274  1
  O  O11  1  0.25000000  0.46861274  0.53138726  1
  O  O12  1  0.42760314  0.16989898  0.06136231  1
  O  O13  1  0.07239686  0.93863769  0.83010102  1
  Al  Al14  1  0.25610876  0.68065150  0.56018037  1
  Al  Al15  1  0.24389124  0.43981963  0.31934850  1
  Al  Al16  1  0.74389124  0.31934850  0.43981963  1
  Al  Al17  1  0.75610876  0.56018037  0.68065150  1
  Al  Al18  1  0.19427792  0.07756013  0.24890322  1
  Al  Al19  1  0.30572208  0.75109678  0.92243987  1
  Al  Al20  1  0.80572208  0.92243987  0.75109678  1
  Al  Al21  1  0.69427792  0.24890322  0.07756013  1
  Ca  Ca22  1  0.25000000  0.19518776  0.80481224  1
  Ca  Ca23  1  0.75000000  0.80481224  0.19518776  1
