# generated using pymatgen
data_ErP5O14
_symmetry_space_group_name_H-M   'P 1'
_cell_length_a   9.17991353
_cell_length_b   9.17991353
_cell_length_c   12.55056132
_cell_angle_alpha   88.90080344
_cell_angle_beta   88.90080344
_cell_angle_gamma   89.58541198
_symmetry_Int_Tables_number   1
_chemical_formula_structural   ErP5O14
_chemical_formula_sum   'Er4 P20 O56'
_cell_volume   1057.23182880
_cell_formula_units_Z   4
loop_
 _symmetry_equiv_pos_site_id
 _symmetry_equiv_pos_as_xyz
  1  'x, y, z'
loop_
 _atom_site_type_symbol
 _atom_site_label
 _atom_site_symmetry_multiplicity
 _atom_site_fract_x
 _atom_site_fract_y
 _atom_site_fract_z
 _atom_site_occupancy
  O  O0  1  0.96602243  0.14936642  0.36780743  1
  O  O1  1  0.85063358  0.03397757  0.13219257  1
  O  O2  1  0.03397757  0.85063358  0.63219257  1
  O  O3  1  0.14936642  0.96602243  0.86780743  1
  O  O4  1  0.07831578  0.87153169  0.42616054  1
  O  O5  1  0.12846831  0.92168422  0.07383946  1
  O  O6  1  0.92168422  0.12846831  0.57383946  1
  O  O7  1  0.87153169  0.07831578  0.92616054  1
  O  O8  1  0.35912886  0.48459362  0.08937816  1
  O  O9  1  0.51540638  0.64087114  0.41062184  1
  O  O10  1  0.64087114  0.51540638  0.91062184  1
  O  O11  1  0.48459362  0.35912886  0.58937816  1
  O  O12  1  0.64540744  0.57768917  0.11212275  1
  O  O13  1  0.42231083  0.35459256  0.38787725  1
  O  O14  1  0.35459256  0.42231083  0.88787725  1
  O  O15  1  0.57768917  0.64540744  0.61212275  1
  O  O16  1  0.15141305  0.34619795  0.00832560  1
  O  O17  1  0.65380205  0.84858695  0.49167440  1
  O  O18  1  0.84858695  0.65380205  0.99167440  1
  O  O19  1  0.89820527  0.28821886  0.05619738  1
  O  O20  1  0.34619795  0.15141305  0.50832560  1
  O  O21  1  0.80000193  0.89526671  0.31869037  1
  O  O22  1  0.89526671  0.80000193  0.81869037  1
  O  O23  1  0.19999807  0.10473329  0.68130963  1
  O  O24  1  0.54078905  0.23141475  0.78352008  1
  O  O25  1  0.76858525  0.45921095  0.71647992  1
  O  O26  1  0.45921095  0.76858525  0.21647992  1
  O  O27  1  0.23141475  0.54078905  0.28352008  1
  O  O28  1  0.72028421  0.02424642  0.73100219  1
  O  O29  1  0.97575358  0.27971579  0.76899781  1
  O  O30  1  0.27971579  0.97575358  0.26899781  1
  O  O31  1  0.02424642  0.72028421  0.23100219  1
  O  O32  1  0.46938878  0.02091103  0.66168189  1
  O  O33  1  0.97908897  0.53061122  0.83831811  1
  O  O34  1  0.53061122  0.97908897  0.33831811  1
  O  O35  1  0.02091103  0.46938878  0.16168189  1
  O  O36  1  0.50373105  0.98245841  0.86007956  1
  O  O37  1  0.01754159  0.49626895  0.63992044  1
  O  O38  1  0.49626895  0.01754159  0.13992044  1
  O  O39  1  0.98245841  0.50373105  0.36007956  1
  O  O40  1  0.60631566  0.77870665  0.97111315  1
  O  O41  1  0.22129335  0.39368434  0.52888685  1
  O  O42  1  0.39368434  0.22129335  0.02888685  1
  O  O43  1  0.77870665  0.60631566  0.47111315  1
  O  O44  1  0.46244309  0.71801082  0.80330927  1
  O  O45  1  0.28198918  0.53755691  0.69669073  1
  O  O46  1  0.53755691  0.28198918  0.19669073  1
  O  O47  1  0.71801082  0.46244309  0.30330927  1
  O  O48  1  0.34243693  0.82536391  0.97238419  1
  O  O49  1  0.17463609  0.65756307  0.52761581  1
  O  O50  1  0.65756307  0.17463609  0.02761581  1
  O  O51  1  0.82536391  0.34243693  0.47238419  1
  O  O52  1  0.28821886  0.89820527  0.55619738  1
  O  O53  1  0.10179473  0.71178114  0.94380262  1
  O  O54  1  0.71178114  0.10179473  0.44380262  1
  O  O55  1  0.10473329  0.19999807  0.18130963  1
  P  P56  1  0.32449601  0.38460796  0.00115730  1
  P  P57  1  0.61539204  0.67550399  0.49884270  1
  P  P58  1  0.67550399  0.61539204  0.99884270  1
  P  P59  1  0.38460796  0.32449601  0.50115730  1
  P  P60  1  0.04967300  0.31657349  0.10991007  1
  P  P61  1  0.68342651  0.95032700  0.39008993  1
  P  P62  1  0.95032700  0.68342651  0.89008993  1
  P  P63  1  0.31657349  0.04967300  0.60991007  1
  P  P64  1  0.87411519  0.17180062  0.46567280  1
  P  P65  1  0.82819938  0.12588481  0.03432720  1
  P  P66  1  0.12588481  0.82819938  0.53432720  1
  P  P67  1  0.17180062  0.87411519  0.96567280  1
  P  P68  1  0.81785684  0.47797960  0.39289698  1
  P  P69  1  0.52202040  0.18214316  0.10710302  1
  P  P70  1  0.18214316  0.52202040  0.60710302  1
  P  P71  1  0.47797960  0.81785684  0.89289698  1
  P  P72  1  0.07685085  0.57101258  0.25822491  1
  P  P73  1  0.42898742  0.92314915  0.24177509  1
  P  P74  1  0.92314915  0.42898742  0.74177509  1
  P  P75  1  0.57101258  0.07685085  0.75822491  1
  Er  Er76  1  0.47983346  0.52016654  0.25000000  1
  Er  Er77  1  0.52016654  0.47983346  0.75000000  1
  Er  Er78  1  0.03385592  0.96614408  0.25000000  1
  Er  Er79  1  0.96614408  0.03385592  0.75000000  1
