# generated using pymatgen
data_Cu(BO2)2
_symmetry_space_group_name_H-M   'P 1'
_cell_length_a   5.67314721
_cell_length_b   8.67244027
_cell_length_c   8.67244027
_cell_angle_alpha   83.85870415
_cell_angle_beta   70.90841812
_cell_angle_gamma   70.90841812
_symmetry_Int_Tables_number   1
_chemical_formula_structural   Cu(BO2)2
_chemical_formula_sum   'Cu6 B12 O24'
_cell_volume   381.03733168
_cell_formula_units_Z   6
loop_
 _symmetry_equiv_pos_site_id
 _symmetry_equiv_pos_as_xyz
  1  'x, y, z'
loop_
 _atom_site_type_symbol
 _atom_site_label
 _atom_site_symmetry_multiplicity
 _atom_site_fract_x
 _atom_site_fract_y
 _atom_site_fract_z
 _atom_site_occupancy
  Cu  Cu0  1  0.75000000  0.50000000  0.50000000  1
  Cu  Cu1  1  0.50000000  0.00000000  -0.00000000  1
  Cu  Cu2  1  0.12500000  0.66788742  0.83211258  1
  Cu  Cu3  1  0.62500000  0.33211258  0.16788742  1
  Cu  Cu4  1  0.20711258  0.16788742  0.66788742  1
  Cu  Cu5  1  0.04288742  0.83211258  0.33211258  1
  B  B6  1  0.79944072  0.46320050  0.83252364  1
  B  B7  1  0.45055928  0.66747636  0.03679950  1
  B  B8  1  0.09516486  0.53679950  0.16747636  1
  B  B9  1  0.15483514  0.33252364  0.96320050  1
  B  B10  1  0.73735877  0.16747636  0.46320050  1
  B  B11  1  0.51264123  0.03679950  0.33252364  1
  B  B12  1  0.36803564  0.83252364  0.53679950  1
  B  B13  1  0.88196436  0.96320050  0.66747636  1
  B  B14  1  0.62500000  0.75081255  0.74918745  1
  B  B15  1  0.12500000  0.24918745  0.25081255  1
  B  B16  1  0.62418745  0.25081255  0.75081255  1
  B  B17  1  0.62581255  0.74918745  0.24918745  1
  O  O18  1  0.67360160  0.41122132  0.72974480  1
  O  O19  1  0.57639840  0.77025520  0.08877868  1
  O  O20  1  0.81456772  0.58877868  0.27025520  1
  O  O21  1  0.43543228  0.22974480  0.91122132  1
  O  O22  1  0.91517707  0.27025520  0.41122132  1
  O  O23  1  0.33482293  0.08877868  0.22974480  1
  O  O24  1  0.59665360  0.72974480  0.58877868  1
  O  O25  1  0.65334640  0.91122132  0.77025520  1
  O  O26  1  0.62500000  0.49791536  0.00208464  1
  O  O27  1  0.12500000  0.50208464  0.99791536  1
  O  O28  1  0.87708464  0.99791536  0.49791536  1
  O  O29  1  0.37291536  0.00208464  0.50208464  1
  O  O30  1  0.04081552  0.33418448  0.83418448  1
  O  O31  1  0.20918448  0.66581552  0.16581552  1
  O  O32  1  0.62500000  0.16581552  0.33418448  1
  O  O33  1  0.12500000  0.83418448  0.66581552  1
  O  O34  1  0.85965317  0.61395606  0.76044932  1
  O  O35  1  0.39034683  0.73955068  0.88604394  1
  O  O36  1  0.23405855  0.38604394  0.23955068  1
  O  O37  1  0.01594145  0.26044932  0.11395606  1
  O  O38  1  0.52639077  0.23955068  0.61395606  1
  O  O39  1  0.72360923  0.88604394  0.26044932  1
  O  O40  1  0.37989751  0.76044932  0.38604394  1
  O  O41  1  0.87010249  0.11395606  0.73955068  1
