# generated using pymatgen
data_Be3Tl2Co2F12
_symmetry_space_group_name_H-M   'P 1'
_cell_length_a   10.36131254
_cell_length_b   10.36131254
_cell_length_c   10.36131254
_cell_angle_alpha   90.00000000
_cell_angle_beta   90.00000000
_cell_angle_gamma   90.00000000
_symmetry_Int_Tables_number   1
_chemical_formula_structural   Be3Tl2Co2F12
_chemical_formula_sum   'Be12 Tl8 Co8 F48'
_cell_volume   1112.35733273
_cell_formula_units_Z   4
loop_
 _symmetry_equiv_pos_site_id
 _symmetry_equiv_pos_as_xyz
  1  'x, y, z'
loop_
 _atom_site_type_symbol
 _atom_site_label
 _atom_site_symmetry_multiplicity
 _atom_site_fract_x
 _atom_site_fract_y
 _atom_site_fract_z
 _atom_site_occupancy
  Be  Be0  1  0.01980347  0.21515609  0.37604354  1
  Be  Be1  1  0.48019653  0.78484391  0.87604354  1
  Be  Be2  1  0.98019653  0.71515609  0.12395646  1
  Be  Be3  1  0.37604354  0.01980347  0.21515609  1
  Be  Be4  1  0.51980347  0.28484391  0.62395646  1
  Be  Be5  1  0.87604354  0.48019653  0.78484391  1
  Be  Be6  1  0.12395646  0.98019653  0.71515609  1
  Be  Be7  1  0.62395646  0.51980347  0.28484391  1
  Be  Be8  1  0.21515609  0.37604354  0.01980347  1
  Be  Be9  1  0.71515609  0.12395646  0.98019653  1
  Be  Be10  1  0.28484391  0.62395646  0.51980347  1
  Be  Be11  1  0.78484391  0.87604354  0.48019653  1
  Tl  Tl12  1  0.04886957  0.04886957  0.04886957  1
  Tl  Tl13  1  0.45113043  0.95113043  0.54886957  1
  Tl  Tl14  1  0.95113043  0.54886957  0.45113043  1
  Tl  Tl15  1  0.54886957  0.45113043  0.95113043  1
  Tl  Tl16  1  0.81695926  0.81695926  0.81695926  1
  Tl  Tl17  1  0.68304074  0.18304074  0.31695926  1
  Tl  Tl18  1  0.18304074  0.31695926  0.68304074  1
  Tl  Tl19  1  0.31695926  0.68304074  0.18304074  1
  Co  Co20  1  0.33544154  0.33544154  0.33544154  1
  Co  Co21  1  0.16455846  0.66455846  0.83544154  1
  Co  Co22  1  0.66455846  0.83544154  0.16455846  1
  Co  Co23  1  0.83544154  0.16455846  0.66455846  1
  Co  Co24  1  0.59842841  0.59842841  0.59842841  1
  Co  Co25  1  0.90157159  0.40157159  0.09842841  1
  Co  Co26  1  0.40157159  0.09842841  0.90157159  1
  Co  Co27  1  0.09842841  0.90157159  0.40157159  1
  F  F28  1  0.01237305  0.06880005  0.32926892  1
  F  F29  1  0.48762695  0.93119995  0.82926892  1
  F  F30  1  0.98762695  0.56880005  0.17073108  1
  F  F31  1  0.32926892  0.01237305  0.06880005  1
  F  F32  1  0.51237305  0.43119995  0.67073108  1
  F  F33  1  0.82926892  0.48762695  0.93119995  1
  F  F34  1  0.17073108  0.98762695  0.56880005  1
  F  F35  1  0.67073108  0.51237305  0.43119995  1
  F  F36  1  0.06880005  0.32926892  0.01237305  1
  F  F37  1  0.56880005  0.17073108  0.98762695  1
  F  F38  1  0.43119995  0.67073108  0.51237305  1
  F  F39  1  0.93119995  0.82926892  0.48762695  1
  F  F40  1  0.26685439  0.49593119  0.43754536  1
  F  F41  1  0.23314561  0.50406881  0.93754536  1
  F  F42  1  0.73314561  0.99593119  0.06245464  1
  F  F43  1  0.43754536  0.26685439  0.49593119  1
  F  F44  1  0.76685439  0.00406881  0.56245464  1
  F  F45  1  0.93754536  0.23314561  0.50406881  1
  F  F46  1  0.06245464  0.73314561  0.99593119  1
  F  F47  1  0.56245464  0.76685439  0.00406881  1
  F  F48  1  0.49593119  0.43754536  0.26685439  1
  F  F49  1  0.99593119  0.06245464  0.73314561  1
  F  F50  1  0.00406881  0.56245464  0.76685439  1
  F  F51  1  0.50406881  0.93754536  0.23314561  1
  F  F52  1  0.04496074  0.80639446  0.22995711  1
  F  F53  1  0.45503926  0.19360554  0.72995711  1
  F  F54  1  0.95503926  0.30639446  0.27004289  1
  F  F55  1  0.22995711  0.04496074  0.80639446  1
  F  F56  1  0.54496074  0.69360554  0.77004289  1
  F  F57  1  0.72995711  0.45503926  0.19360554  1
  F  F58  1  0.27004289  0.95503926  0.30639446  1
  F  F59  1  0.77004289  0.54496074  0.69360554  1
  F  F60  1  0.80639446  0.22995711  0.04496074  1
  F  F61  1  0.30639446  0.27004289  0.95503926  1
  F  F62  1  0.69360554  0.77004289  0.54496074  1
  F  F63  1  0.19360554  0.72995711  0.45503926  1
  F  F64  1  0.16367209  0.25581536  0.40187422  1
  F  F65  1  0.33632791  0.74418464  0.90187422  1
  F  F66  1  0.83632791  0.75581536  0.09812578  1
  F  F67  1  0.40187422  0.16367209  0.25581536  1
  F  F68  1  0.66367209  0.24418464  0.59812578  1
  F  F69  1  0.90187422  0.33632791  0.74418464  1
  F  F70  1  0.09812578  0.83632791  0.75581536  1
  F  F71  1  0.59812578  0.66367209  0.24418464  1
  F  F72  1  0.25581536  0.40187422  0.16367209  1
  F  F73  1  0.75581536  0.09812578  0.83632791  1
  F  F74  1  0.24418464  0.59812578  0.66367209  1
  F  F75  1  0.74418464  0.90187422  0.33632791  1
