# generated using pymatgen
data_Na6Sn2S7
_symmetry_space_group_name_H-M   'P 1'
_cell_length_a   7.22199840
_cell_length_b   7.22199840
_cell_length_c   15.34021702
_cell_angle_alpha   99.89871622
_cell_angle_beta   99.89871623
_cell_angle_gamma   97.00238583
_symmetry_Int_Tables_number   1
_chemical_formula_structural   Na6Sn2S7
_chemical_formula_sum   'Na12 Sn4 S14'
_cell_volume   766.94366670
_cell_formula_units_Z   2
loop_
 _symmetry_equiv_pos_site_id
 _symmetry_equiv_pos_as_xyz
  1  'x, y, z'
loop_
 _atom_site_type_symbol
 _atom_site_label
 _atom_site_symmetry_multiplicity
 _atom_site_fract_x
 _atom_site_fract_y
 _atom_site_fract_z
 _atom_site_occupancy
  Na  Na0  1  0.26116751  0.04865781  0.42732812  1
  Na  Na1  1  0.45134219  0.23883249  0.07267188  1
  Na  Na2  1  0.73883249  0.95134219  0.57267188  1
  Na  Na3  1  0.54865781  0.76116751  0.92732812  1
  Na  Na4  1  0.53813885  0.49628075  0.63642126  1
  Na  Na5  1  0.00371925  0.96186115  0.86357874  1
  Na  Na6  1  0.93158960  0.56841040  0.25000000  1
  Na  Na7  1  0.06841040  0.43158960  0.75000000  1
  Na  Na8  1  0.00000000  0.50000000  0.00000000  1
  Na  Na9  1  0.00000000  0.50000000  0.50000000  1
  Na  Na10  1  0.46186115  0.50371925  0.36357874  1
  Na  Na11  1  0.99628075  0.03813885  0.13642126  1
  S  S12  1  0.18868948  0.22905348  0.60364411  1
  S  S13  1  0.81131052  0.77094652  0.39635589  1
  S  S14  1  0.76639023  0.14296373  0.98311732  1
  S  S15  1  0.35703627  0.73360977  0.51688268  1
  S  S16  1  0.23360977  0.85703627  0.01688268  1
  S  S17  1  0.64296373  0.26639023  0.48311732  1
  S  S18  1  0.01164772  0.24012698  0.31877136  1
  S  S19  1  0.25987302  0.48835228  0.18122864  1
  S  S20  1  0.98835228  0.75987302  0.68122864  1
  S  S21  1  0.74012698  0.51164772  0.81877136  1
  S  S22  1  0.45390389  0.04609611  0.25000000  1
  S  S23  1  0.54609611  0.95390389  0.75000000  1
  S  S24  1  0.72905348  0.68868948  0.10364411  1
  S  S25  1  0.27094652  0.31131052  0.89635589  1
  Sn  Sn26  1  0.42947074  0.75173619  0.13737609  1
  Sn  Sn27  1  0.74826381  0.07052926  0.36262391  1
  Sn  Sn28  1  0.57052926  0.24826381  0.86262391  1
  Sn  Sn29  1  0.25173619  0.92947074  0.63737609  1
