# generated using pymatgen
data_KBF4
_symmetry_space_group_name_H-M   'P 1'
_cell_length_a   5.58416628
_cell_length_b   7.15274299
_cell_length_c   8.78728191
_cell_angle_alpha   90.00000000
_cell_angle_beta   90.00000000
_cell_angle_gamma   90.00000000
_symmetry_Int_Tables_number   1
_chemical_formula_structural   KBF4
_chemical_formula_sum   'K4 B4 F16'
_cell_volume   350.98254738
_cell_formula_units_Z   4
loop_
 _symmetry_equiv_pos_site_id
 _symmetry_equiv_pos_as_xyz
  1  'x, y, z'
loop_
 _atom_site_type_symbol
 _atom_site_label
 _atom_site_symmetry_multiplicity
 _atom_site_fract_x
 _atom_site_fract_y
 _atom_site_fract_z
 _atom_site_occupancy
  B  B0  1  0.25000000  0.68877841  0.06260295  1
  B  B1  1  0.25000000  0.81122159  0.56260295  1
  B  B2  1  0.75000000  0.18877841  0.43739705  1
  B  B3  1  0.75000000  0.31122159  0.93739705  1
  F  F4  1  0.54264149  0.30420460  0.42288944  1
  F  F5  1  0.95735851  0.19579540  0.92288944  1
  F  F6  1  0.45735851  0.80420460  0.07711056  1
  F  F7  1  0.04264149  0.69579540  0.57711056  1
  F  F8  1  0.25000000  0.60225037  0.91877698  1
  F  F9  1  0.75000000  0.39774963  0.08122302  1
  F  F10  1  0.75000000  0.10225037  0.58122302  1
  F  F11  1  0.25000000  0.89774963  0.41877698  1
  F  F12  1  0.25000000  0.55428087  0.18065852  1
  F  F13  1  0.75000000  0.44571913  0.81934148  1
  F  F14  1  0.75000000  0.05428087  0.31934148  1
  F  F15  1  0.25000000  0.94571913  0.68065852  1
  F  F16  1  0.04264149  0.80420460  0.07711056  1
  F  F17  1  0.54264149  0.19579540  0.92288944  1
  F  F18  1  0.95735851  0.30420460  0.42288944  1
  F  F19  1  0.45735851  0.69579540  0.57711056  1
  K  K20  1  0.25000000  0.33956213  0.68445553  1
  K  K21  1  0.75000000  0.66043787  0.31554447  1
  K  K22  1  0.75000000  0.83956213  0.81554447  1
  K  K23  1  0.25000000  0.16043787  0.18445553  1
