# generated using pymatgen
data_Pr(CuGe)2
_symmetry_space_group_name_H-M   'P 1'
_cell_length_a   4.17121011
_cell_length_b   4.17121011
_cell_length_c   5.94658056
_cell_angle_alpha   110.53156893
_cell_angle_beta   110.53156891
_cell_angle_gamma   89.99999999
_symmetry_Int_Tables_number   1
_chemical_formula_structural   Pr(CuGe)2
_chemical_formula_sum   'Pr1 Cu2 Ge2'
_cell_volume   89.84070060
_cell_formula_units_Z   1
loop_
 _symmetry_equiv_pos_site_id
 _symmetry_equiv_pos_as_xyz
  1  'x, y, z'
loop_
 _atom_site_type_symbol
 _atom_site_label
 _atom_site_symmetry_multiplicity
 _atom_site_fract_x
 _atom_site_fract_y
 _atom_site_fract_z
 _atom_site_occupancy
  Cu  Cu0  1  0.75000000  0.25000000  0.50000000  1
  Cu  Cu1  1  0.25000000  0.75000000  0.50000000  1
  Ge  Ge2  1  0.62295791  0.62295791  0.24591583  1
  Ge  Ge3  1  0.37704209  0.37704209  0.75408417  1
  Pr  Pr4  1  0.00000000  0.00000000  0.00000000  1
