# generated using pymatgen
data_CsNb(CuTe2)2
_symmetry_space_group_name_H-M   'P 1'
_cell_length_a   6.05765220
_cell_length_b   8.34499565
_cell_length_c   21.03435105
_cell_angle_alpha   90.00000000
_cell_angle_beta   90.00000000
_cell_angle_gamma   90.00000000
_symmetry_Int_Tables_number   1
_chemical_formula_structural   CsNb(CuTe2)2
_chemical_formula_sum   'Cs4 Nb4 Cu8 Te16'
_cell_volume   1063.30918914
_cell_formula_units_Z   4
loop_
 _symmetry_equiv_pos_site_id
 _symmetry_equiv_pos_as_xyz
  1  'x, y, z'
loop_
 _atom_site_type_symbol
 _atom_site_label
 _atom_site_symmetry_multiplicity
 _atom_site_fract_x
 _atom_site_fract_y
 _atom_site_fract_z
 _atom_site_occupancy
  Cs  Cs0  1  0.01481745  0.70357249  0.43835909  1
  Cs  Cs1  1  0.51481745  0.29642751  0.56164091  1
  Cs  Cs2  1  0.51481745  0.79642751  0.93835909  1
  Cs  Cs3  1  0.01481745  0.20357249  0.06164091  1
  Nb  Nb4  1  0.25911602  0.70355352  0.14725917  1
  Nb  Nb5  1  0.75911602  0.29644648  0.85274083  1
  Nb  Nb6  1  0.75911602  0.79644648  0.64725917  1
  Nb  Nb7  1  0.25911602  0.20355352  0.35274083  1
  Cu  Cu8  1  0.26660989  0.96141065  0.24716831  1
  Cu  Cu9  1  0.76660989  0.03858935  0.75283169  1
  Cu  Cu10  1  0.76660989  0.53858935  0.74716831  1
  Cu  Cu11  1  0.26660989  0.46141065  0.25283169  1
  Cu  Cu12  1  0.25933774  0.79573162  0.64700230  1
  Cu  Cu13  1  0.75933774  0.20426838  0.35299770  1
  Cu  Cu14  1  0.75933774  0.70426838  0.14700230  1
  Cu  Cu15  1  0.25933774  0.29573162  0.85299770  1
  Te  Te16  1  0.51213232  0.96304250  0.14409279  1
  Te  Te17  1  0.01213232  0.03695750  0.85590721  1
  Te  Te18  1  0.01213232  0.53695750  0.64409279  1
  Te  Te19  1  0.51213232  0.46304250  0.35590721  1
  Te  Te20  1  0.51336129  0.94635563  0.34904454  1
  Te  Te21  1  0.01336129  0.05364437  0.65095546  1
  Te  Te22  1  0.01336129  0.55364437  0.84904454  1
  Te  Te23  1  0.51336129  0.44635563  0.15095546  1
  Te  Te24  1  0.00220245  0.71103729  0.25044936  1
  Te  Te25  1  0.50220245  0.28896271  0.74955064  1
  Te  Te26  1  0.50220245  0.78896271  0.75044936  1
  Te  Te27  1  0.00220245  0.21103729  0.24955064  1
  Te  Te28  1  0.00692284  0.69073443  0.04519919  1
  Te  Te29  1  0.50692284  0.30926557  0.95480081  1
  Te  Te30  1  0.50692284  0.80926557  0.54519919  1
  Te  Te31  1  0.00692284  0.19073443  0.45480081  1
