# generated using pymatgen
data_HfNCl
_symmetry_space_group_name_H-M   'P 1'
_cell_length_a   3.58233314
_cell_length_b   3.58233314
_cell_length_c   10.08772822
_cell_angle_alpha   79.77239160
_cell_angle_beta   79.77239160
_cell_angle_gamma   59.99998086
_symmetry_Int_Tables_number   1
_chemical_formula_structural   HfNCl
_chemical_formula_sum   'Hf2 N2 Cl2'
_cell_volume   109.73126901
_cell_formula_units_Z   2
loop_
 _symmetry_equiv_pos_site_id
 _symmetry_equiv_pos_as_xyz
  1  'x, y, z'
loop_
 _atom_site_type_symbol
 _atom_site_label
 _atom_site_symmetry_multiplicity
 _atom_site_fract_x
 _atom_site_fract_y
 _atom_site_fract_z
 _atom_site_occupancy
  Hf  Hf0  1  0.12247762  0.12247762  0.63256714  1
  Hf  Hf1  1  0.87752238  0.87752238  0.36743286  1
  N  N2  1  0.19606810  0.19606810  0.41179569  1
  N  N3  1  0.80393190  0.80393190  0.58820431  1
  Cl  Cl4  1  0.39441849  0.39441849  0.81674452  1
  Cl  Cl5  1  0.60558151  0.60558151  0.18325548  1
