# generated using pymatgen
data_Al3FeSi2
_symmetry_space_group_name_H-M   'P 1'
_cell_length_a   6.06556238
_cell_length_b   6.07229832
_cell_length_c   9.48355178
_cell_angle_alpha   90.00000000
_cell_angle_beta   90.00000000
_cell_angle_gamma   90.00000000
_symmetry_Int_Tables_number   1
_chemical_formula_structural   Al3FeSi2
_chemical_formula_sum   'Al12 Fe4 Si8'
_cell_volume   349.29727111
_cell_formula_units_Z   4
loop_
 _symmetry_equiv_pos_site_id
 _symmetry_equiv_pos_as_xyz
  1  'x, y, z'
loop_
 _atom_site_type_symbol
 _atom_site_label
 _atom_site_symmetry_multiplicity
 _atom_site_fract_x
 _atom_site_fract_y
 _atom_site_fract_z
 _atom_site_occupancy
  Fe  Fe0  1  0.00000000  0.01116415  0.25000000  1
  Fe  Fe1  1  0.50000000  0.48883585  0.75000000  1
  Fe  Fe2  1  0.00000000  0.98883585  0.75000000  1
  Fe  Fe3  1  0.50000000  0.51116415  0.25000000  1
  Al  Al4  1  0.00000000  0.00000000  0.00000000  1
  Al  Al5  1  0.50000000  0.50000000  0.00000000  1
  Al  Al6  1  0.00000000  0.00000000  0.50000000  1
  Al  Al7  1  0.50000000  0.50000000  0.50000000  1
  Al  Al8  1  0.14039308  0.63359605  0.86378989  1
  Al  Al9  1  0.64039308  0.86640395  0.13621011  1
  Al  Al10  1  0.85960692  0.63359605  0.63621011  1
  Al  Al11  1  0.35960692  0.86640395  0.36378989  1
  Al  Al12  1  0.85960692  0.36640395  0.13621011  1
  Al  Al13  1  0.35960692  0.13359605  0.86378989  1
  Al  Al14  1  0.14039308  0.36640395  0.36378989  1
  Al  Al15  1  0.64039308  0.13359605  0.63621011  1
  Si  Si16  1  0.16279378  0.67116977  0.15444043  1
  Si  Si17  1  0.66279378  0.82883023  0.84555957  1
  Si  Si18  1  0.83720622  0.67116977  0.34555957  1
  Si  Si19  1  0.33720622  0.82883023  0.65444043  1
  Si  Si20  1  0.83720622  0.32883023  0.84555957  1
  Si  Si21  1  0.33720622  0.17116977  0.15444043  1
  Si  Si22  1  0.16279378  0.32883023  0.65444043  1
  Si  Si23  1  0.66279378  0.17116977  0.34555957  1
