# generated using pymatgen
data_Rb2Ti(GeO3)3
_symmetry_space_group_name_H-M   'P 1'
_cell_length_a   12.46049621
_cell_length_b   12.46049651
_cell_length_c   10.28619956
_cell_angle_alpha   90.00000000
_cell_angle_beta   90.00000000
_cell_angle_gamma   119.99999918
_symmetry_Int_Tables_number   1
_chemical_formula_structural   Rb2Ti(GeO3)3
_chemical_formula_sum   'Rb12 Ti6 Ge18 O54'
_cell_volume   1383.10855080
_cell_formula_units_Z   6
loop_
 _symmetry_equiv_pos_site_id
 _symmetry_equiv_pos_as_xyz
  1  'x, y, z'
loop_
 _atom_site_type_symbol
 _atom_site_label
 _atom_site_symmetry_multiplicity
 _atom_site_fract_x
 _atom_site_fract_y
 _atom_site_fract_z
 _atom_site_occupancy
  Rb  Rb0  1  0.00313723  0.33723129  0.43055598  1
  Rb  Rb1  1  0.66590594  0.66276871  0.06944402  1
  Rb  Rb2  1  0.33723129  0.33409406  0.56944402  1
  Rb  Rb3  1  0.66590594  0.00313723  0.56944402  1
  Rb  Rb4  1  0.33723129  0.00313723  0.06944402  1
  Rb  Rb5  1  0.33409406  0.33723129  0.93055598  1
  Rb  Rb6  1  0.00313723  0.66590594  0.93055598  1
  Rb  Rb7  1  0.99686277  0.33409406  0.06944402  1
  Rb  Rb8  1  0.33409406  0.99686277  0.43055598  1
  Rb  Rb9  1  0.99686277  0.66276871  0.56944402  1
  Rb  Rb10  1  0.66276871  0.99686277  0.93055598  1
  Rb  Rb11  1  0.66276871  0.66590594  0.43055598  1
  Ti  Ti12  1  0.33333300  0.66666700  0.47135133  1
  Ti  Ti13  1  0.66666700  0.33333300  0.52864867  1
  Ti  Ti14  1  0.66666700  0.33333300  0.02864867  1
  Ti  Ti15  1  0.33333300  0.66666700  0.97135133  1
  Ti  Ti16  1  0.00000000  0.00000000  0.50000000  1
  Ti  Ti17  1  0.00000000  0.00000000  0.00000000  1
  Ge  Ge18  1  0.33238064  0.47939576  0.22185093  1
  Ge  Ge19  1  0.47939576  0.33238064  0.27814907  1
  Ge  Ge20  1  1.00000000  0.82024060  0.25000000  1
  Ge  Ge21  1  0.52060424  0.66761936  0.72185093  1
  Ge  Ge22  1  0.85298488  0.52060424  0.27814907  1
  Ge  Ge23  1  0.85298488  0.33238064  0.77814907  1
  Ge  Ge24  1  0.14701512  0.66761936  0.22185093  1
  Ge  Ge25  1  0.33238064  0.85298488  0.72185093  1
  Ge  Ge26  1  0.82024060  0.82024060  0.75000000  1
  Ge  Ge27  1  0.52060424  0.85298488  0.22185093  1
  Ge  Ge28  1  0.66761936  0.52060424  0.77814907  1
  Ge  Ge29  1  0.17975940  0.00000000  0.75000000  1
  Ge  Ge30  1  0.47939576  0.14701512  0.77814907  1
  Ge  Ge31  1  0.00000000  0.17975940  0.75000000  1
  Ge  Ge32  1  0.14701512  0.47939576  0.72185093  1
  Ge  Ge33  1  0.82024060  0.00000000  0.25000000  1
  Ge  Ge34  1  0.17975940  0.17975940  0.25000000  1
  Ge  Ge35  1  0.66761936  0.14701512  0.27814907  1
  O  O36  1  0.88497904  0.21036110  0.82241454  1
  O  O37  1  0.27723190  0.51683734  0.35949430  1
  O  O38  1  0.62049376  0.43219109  0.92021492  1
  O  O39  1  0.81169733  0.43219109  0.42021492  1
  O  O40  1  0.72276810  0.23960544  0.14050570  1
  O  O41  1  0.00000000  0.47038482  0.75000000  1
  O  O42  1  0.37950624  0.81169733  0.57978508  1
  O  O43  1  0.23960544  0.72276810  0.35949430  1
  O  O44  1  0.08110074  0.14862272  0.38397822  1
  O  O45  1  0.48316266  0.72276810  0.85949430  1
  O  O46  1  0.62049376  0.18830267  0.42021492  1
  O  O47  1  0.78963890  0.67461794  0.82241454  1
  O  O48  1  0.48316266  0.76039456  0.35949430  1
  O  O49  1  0.23960544  0.51683734  0.85949430  1
  O  O50  1  0.91889926  0.06752197  0.11602178  1
  O  O51  1  0.14862272  0.08110074  0.11602178  1
  O  O52  1  0.67461794  0.78963890  0.67758546  1
  O  O53  1  0.43219109  0.62049376  0.57978508  1
  O  O54  1  0.93247803  0.85137728  0.11602178  1
  O  O55  1  0.11502096  0.32538206  0.67758546  1
  O  O56  1  0.27723190  0.76039456  0.85949430  1
  O  O57  1  0.52961518  0.00000000  0.25000000  1
  O  O58  1  0.76039456  0.27723190  0.64050570  1
  O  O59  1  0.47038482  0.00000000  0.75000000  1
  O  O60  1  0.21036110  0.32538206  0.17758546  1
  O  O61  1  0.14862272  0.06752197  0.61602178  1
  O  O62  1  0.93247803  0.08110074  0.61602178  1
  O  O63  1  0.88497904  0.67461794  0.32241454  1
  O  O64  1  0.47038482  0.47038482  0.25000000  1
  O  O65  1  0.51683734  0.23960544  0.64050570  1
  O  O66  1  0.56780891  0.37950624  0.42021492  1
  O  O67  1  0.78963890  0.11502096  0.32241454  1
  O  O68  1  0.32538206  0.21036110  0.32241454  1
  O  O69  1  0.85137728  0.91889926  0.88397822  1
  O  O70  1  0.72276810  0.48316266  0.64050570  1
  O  O71  1  1.00000000  0.52961518  0.25000000  1
  O  O72  1  0.51683734  0.27723190  0.14050570  1
  O  O73  1  0.32538206  0.11502096  0.82241454  1
  O  O74  1  0.76039456  0.48316266  0.14050570  1
  O  O75  1  0.56780891  0.18830267  0.92021492  1
  O  O76  1  0.43219109  0.81169733  0.07978508  1
  O  O77  1  0.81169733  0.37950624  0.92021492  1
  O  O78  1  0.06752197  0.14862272  0.88397822  1
  O  O79  1  0.08110074  0.93247803  0.88397822  1
  O  O80  1  0.67461794  0.88497904  0.17758546  1
  O  O81  1  0.18830267  0.62049376  0.07978508  1
  O  O82  1  0.21036110  0.88497904  0.67758546  1
  O  O83  1  0.11502096  0.78963890  0.17758546  1
  O  O84  1  0.91889926  0.85137728  0.61602178  1
  O  O85  1  0.52961518  0.52961518  0.75000000  1
  O  O86  1  0.37950624  0.56780891  0.07978508  1
  O  O87  1  0.18830267  0.56780891  0.57978508  1
  O  O88  1  0.06752197  0.91889926  0.38397822  1
  O  O89  1  0.85137728  0.93247803  0.38397822  1
