# generated using pymatgen
data_NaAlSiO4
_symmetry_space_group_name_H-M   'P 1'
_cell_length_a   5.22057180
_cell_length_b   10.39842149
_cell_length_c   14.17657247
_cell_angle_alpha   90.00000000
_cell_angle_beta   90.00000000
_cell_angle_gamma   90.00000000
_symmetry_Int_Tables_number   1
_chemical_formula_structural   NaAlSiO4
_chemical_formula_sum   'Na8 Al8 Si8 O32'
_cell_volume   769.58524513
_cell_formula_units_Z   8
loop_
 _symmetry_equiv_pos_site_id
 _symmetry_equiv_pos_as_xyz
  1  'x, y, z'
loop_
 _atom_site_type_symbol
 _atom_site_label
 _atom_site_symmetry_multiplicity
 _atom_site_fract_x
 _atom_site_fract_y
 _atom_site_fract_z
 _atom_site_occupancy
  Na  Na0  1  0.94729633  0.47477613  0.74714052  1
  Na  Na1  1  0.94729633  0.02522387  0.24714052  1
  Na  Na2  1  0.44738188  0.28554999  0.49937258  1
  Na  Na3  1  0.05270367  0.97477613  0.74714052  1
  Na  Na4  1  0.55261812  0.78554999  0.49937258  1
  Na  Na5  1  0.05270367  0.52522387  0.24714052  1
  Na  Na6  1  0.44738188  0.21445001  0.99937258  1
  Na  Na7  1  0.55261812  0.71445001  0.99937258  1
  Al  Al8  1  0.54727810  0.72152436  0.24970664  1
  Al  Al9  1  0.93719769  0.52806931  0.49754127  1
  Al  Al10  1  0.93719769  0.97193069  0.99754127  1
  Al  Al11  1  0.45272190  0.27847564  0.74970664  1
  Al  Al12  1  0.06280231  0.47193069  0.99754127  1
  Al  Al13  1  0.45272190  0.22152436  0.24970664  1
  Al  Al14  1  0.06280231  0.02806931  0.49754127  1
  Al  Al15  1  0.54727810  0.77847564  0.74970664  1
  Si  Si16  1  0.56170665  0.03062812  0.62406401  1
  Si  Si17  1  0.56170665  0.46937188  0.12406401  1
  Si  Si18  1  0.95368882  0.27766292  0.37269819  1
  Si  Si19  1  0.04631118  0.77766292  0.37269819  1
  Si  Si20  1  0.95368882  0.22233708  0.87269819  1
  Si  Si21  1  0.43829335  0.53062812  0.62406401  1
  Si  Si22  1  0.04631118  0.72233708  0.87269819  1
  Si  Si23  1  0.43829335  0.96937188  0.12406401  1
  O  O24  1  0.12648350  0.23909706  0.28044628  1
  O  O25  1  0.48296153  0.81812305  0.15034069  1
  O  O26  1  0.12648350  0.26090294  0.78044628  1
  O  O27  1  0.62116657  0.00640782  0.03402619  1
  O  O28  1  0.50777471  0.05977581  0.21561193  1
  O  O29  1  0.65036453  0.25348454  0.34831010  1
  O  O30  1  0.99303925  0.92903186  0.39920816  1
  O  O31  1  0.87351650  0.76090294  0.78044628  1
  O  O32  1  0.96058363  0.69064425  0.46358593  1
  O  O33  1  0.50777471  0.44022419  0.71561193  1
  O  O34  1  0.96058363  0.80935575  0.96358593  1
  O  O35  1  0.34963547  0.74651546  0.84831010  1
  O  O36  1  0.85924897  -0.00032760  0.59494750  1
  O  O37  1  0.49222529  0.94022419  0.71561193  1
  O  O38  1  0.65036453  0.24651546  0.84831010  1
  O  O39  1  0.49222529  0.55977581  0.21561193  1
  O  O40  1  0.51703847  0.18187695  0.65034069  1
  O  O41  1  0.37883343  0.50640782  0.03402619  1
  O  O42  1  0.87351650  0.73909706  0.28044628  1
  O  O43  1  0.48296153  0.68187695  0.65034069  1
  O  O44  1  0.37883343  0.99359218  0.53402619  1
  O  O45  1  0.14075103  0.49967240  0.59494750  1
  O  O46  1  0.14075103  1.00032760  0.09494750  1
  O  O47  1  0.51703847  0.31812305  0.15034069  1
  O  O48  1  0.62116657  0.49359218  0.53402619  1
  O  O49  1  0.85924897  0.50032760  0.09494750  1
  O  O50  1  0.00696075  0.07096814  0.89920816  1
  O  O51  1  0.03941637  0.30935575  0.96358593  1
  O  O52  1  0.34963547  0.75348454  0.34831010  1
  O  O53  1  0.03941637  0.19064425  0.46358593  1
  O  O54  1  0.99303925  0.57096814  0.89920816  1
  O  O55  1  0.00696075  0.42903186  0.39920816  1
