# generated using pymatgen
data_SbSe(BrF2)3
_symmetry_space_group_name_H-M   'P 1'
_cell_length_a   8.52494285
_cell_length_b   9.72428654
_cell_length_c   12.85796603
_cell_angle_alpha   90.00000000
_cell_angle_beta   90.00000000
_cell_angle_gamma   90.00000000
_symmetry_Int_Tables_number   1
_chemical_formula_structural   SbSe(BrF2)3
_chemical_formula_sum   'Sb4 Se4 Br12 F24'
_cell_volume   1065.91235890
_cell_formula_units_Z   4
loop_
 _symmetry_equiv_pos_site_id
 _symmetry_equiv_pos_as_xyz
  1  'x, y, z'
loop_
 _atom_site_type_symbol
 _atom_site_label
 _atom_site_symmetry_multiplicity
 _atom_site_fract_x
 _atom_site_fract_y
 _atom_site_fract_z
 _atom_site_occupancy
  Sb  Sb0  1  0.81255265  0.45996201  0.18341052  1
  Sb  Sb1  1  0.68744735  0.54003799  0.68341052  1
  Sb  Sb2  1  0.18744735  0.95996201  0.31658948  1
  Sb  Sb3  1  0.31255265  0.04003799  0.81658948  1
  Se  Se4  1  0.36431911  0.46616894  0.97092976  1
  Se  Se5  1  0.13568089  0.53383106  0.47092976  1
  Se  Se6  1  0.86431911  0.03383106  0.02907024  1
  Se  Se7  1  0.63568089  0.96616894  0.52907024  1
  Br  Br8  1  0.85965228  0.98891034  0.63046260  1
  Br  Br9  1  0.86051505  0.82508924  0.94231897  1
  Br  Br10  1  0.35965228  0.51108966  0.36953740  1
  Br  Br11  1  0.20936886  0.68402164  0.60207281  1
  Br  Br12  1  0.14034772  0.48891034  0.86953740  1
  Br  Br13  1  0.29063114  0.31597836  0.10207281  1
  Br  Br14  1  0.79063114  0.18402164  0.89792719  1
  Br  Br15  1  0.64034772  0.01108966  0.13046260  1
  Br  Br16  1  0.36051505  0.67491076  0.05768103  1
  Br  Br17  1  0.13948495  0.32508924  0.55768103  1
  Br  Br18  1  0.70936886  0.81597836  0.39792719  1
  Br  Br19  1  0.63948495  0.17491076  0.44231897  1
  F  F20  1  0.26121244  0.13949879  0.27716762  1
  F  F21  1  0.05397744  0.95204160  0.19583376  1
  F  F22  1  0.67588443  0.45941471  0.06371555  1
  F  F23  1  0.82411557  0.54058529  0.56371555  1
  F  F24  1  0.38623248  0.22071175  0.85534721  1
  F  F25  1  0.61376752  0.72071175  0.64465279  1
  F  F26  1  0.85488903  0.61996735  0.76401414  1
  F  F27  1  0.44602256  0.04795840  0.69583376  1
  F  F28  1  0.11376752  0.77928825  0.35534721  1
  F  F29  1  0.73878756  0.63949879  0.22283238  1
  F  F30  1  0.35488903  0.88003265  0.23598586  1
  F  F31  1  0.17588443  0.04058529  0.93628445  1
  F  F32  1  0.97600777  0.54226729  0.10331427  1
  F  F33  1  0.23878756  0.86050121  0.77716762  1
  F  F34  1  0.64511097  0.38003265  0.26401414  1
  F  F35  1  0.94602256  0.45204160  0.30416624  1
  F  F36  1  0.47600777  0.95773271  0.89668573  1
  F  F37  1  0.14511097  0.11996735  0.73598586  1
  F  F38  1  0.55397744  0.54795840  0.80416624  1
  F  F39  1  0.52399223  0.45773271  0.60331427  1
  F  F40  1  0.02399223  0.04226729  0.39668573  1
  F  F41  1  0.88623248  0.27928825  0.14465279  1
  F  F42  1  0.32411557  0.95941471  0.43628445  1
  F  F43  1  0.76121244  0.36050121  0.72283238  1
