# generated using pymatgen
data_Ag5P(S2Cl)2
_symmetry_space_group_name_H-M   'P 1'
_cell_length_a   6.33350757
_cell_length_b   6.45252602
_cell_length_c   7.48753624
_cell_angle_alpha   90.00000000
_cell_angle_beta   90.00000000
_cell_angle_gamma   119.39168908
_symmetry_Int_Tables_number   1
_chemical_formula_structural   Ag5P(S2Cl)2
_chemical_formula_sum   'Ag5 P1 S4 Cl2'
_cell_volume   266.60803721
_cell_formula_units_Z   1
loop_
 _symmetry_equiv_pos_site_id
 _symmetry_equiv_pos_as_xyz
  1  'x, y, z'
loop_
 _atom_site_type_symbol
 _atom_site_label
 _atom_site_symmetry_multiplicity
 _atom_site_fract_x
 _atom_site_fract_y
 _atom_site_fract_z
 _atom_site_occupancy
  Ag  Ag0  1  0.93816609  0.61805433  0.21872550  1
  Ag  Ag1  1  0.59531984  0.00000000  0.50000000  1
  Ag  Ag2  1  0.93816609  0.61805433  0.78127450  1
  Ag  Ag3  1  0.32011176  0.38194567  0.78127450  1
  Ag  Ag4  1  0.32011176  0.38194567  0.21872550  1
  P  P5  1  0.53888258  0.00000000  0.00000000  1
  S  S6  1  0.34997812  0.00000000  0.22781144  1
  S  S7  1  0.34997812  0.00000000  0.77218856  1
  S  S8  1  0.58930457  0.70403889  0.00000000  1
  S  S9  1  0.88526568  0.29596111  0.00000000  1
  Cl  Cl10  1  0.05651890  0.34451241  0.50000000  1
  Cl  Cl11  1  0.71200649  0.65548759  0.50000000  1
