# generated using pymatgen
data_Cd3H10C4S2N10O7
_symmetry_space_group_name_H-M   'P 1'
_cell_length_a   8.74447362
_cell_length_b   10.86150821
_cell_length_c   17.50023722
_cell_angle_alpha   94.39757637
_cell_angle_beta   90.00000000
_cell_angle_gamma   90.00000000
_symmetry_Int_Tables_number   1
_chemical_formula_structural   Cd3H10C4S2N10O7
_chemical_formula_sum   'Cd12 H40 C16 S8 N40 O28'
_cell_volume   1657.24719258
_cell_formula_units_Z   4
loop_
 _symmetry_equiv_pos_site_id
 _symmetry_equiv_pos_as_xyz
  1  'x, y, z'
loop_
 _atom_site_type_symbol
 _atom_site_label
 _atom_site_symmetry_multiplicity
 _atom_site_fract_x
 _atom_site_fract_y
 _atom_site_fract_z
 _atom_site_occupancy
  Cd  Cd0  1  0.64871183  0.68272418  0.94525778  1
  Cd  Cd1  1  0.35128817  0.31727582  0.05474222  1
  Cd  Cd2  1  0.14871183  0.31727582  0.55474222  1
  Cd  Cd3  1  0.85128817  0.68272418  0.44525778  1
  Cd  Cd4  1  0.56163594  0.83591202  0.58645918  1
  Cd  Cd5  1  0.43836406  0.16408798  0.41354082  1
  Cd  Cd6  1  0.06163594  0.16408798  0.91354082  1
  Cd  Cd7  1  0.93836406  0.83591202  0.08645918  1
  Cd  Cd8  1  0.26957279  0.86913059  0.94182238  1
  Cd  Cd9  1  0.73042721  0.13086941  0.05817762  1
  Cd  Cd10  1  0.76957279  0.13086941  0.55817762  1
  Cd  Cd11  1  0.23042721  0.86913059  0.44182238  1
  H  H12  1  0.61281925  0.31813631  0.75514440  1
  H  H13  1  0.38718075  0.68186369  0.24485560  1
  H  H14  1  0.11281925  0.68186369  0.74485560  1
  H  H15  1  0.88718075  0.31813631  0.25514440  1
  H  H16  1  0.37334725  0.59998351  0.87699125  1
  H  H17  1  0.62665275  0.40001649  0.12300875  1
  H  H18  1  0.87334725  0.40001649  0.62300875  1
  H  H19  1  0.12665275  0.59998351  0.37699125  1
  H  H20  1  0.71323394  0.42775512  0.78317661  1
  H  H21  1  0.28676606  0.57224488  0.21682339  1
  H  H22  1  0.21323394  0.57224488  0.71682339  1
  H  H23  1  0.78676606  0.42775512  0.28317661  1
  H  H24  1  0.79442762  0.69735453  0.68634769  1
  H  H25  1  0.20557238  0.30264547  0.31365231  1
  H  H26  1  0.29442762  0.30264547  0.81365231  1
  H  H27  1  0.70557238  0.69735453  0.18634769  1
  H  H28  1  0.18503219  0.90177610  0.76935382  1
  H  H29  1  0.81496781  0.09822390  0.23064618  1
  H  H30  1  0.68503219  0.09822390  0.73064618  1
  H  H31  1  0.31496781  0.90177610  0.26935382  1
  H  H32  1  0.91424103  0.53601641  0.58632844  1
  H  H33  1  0.08575897  0.46398359  0.41367156  1
  H  H34  1  0.41424103  0.46398359  0.91367156  1
  H  H35  1  0.58575897  0.53601641  0.08632844  1
  H  H36  1  0.51636279  0.56060997  0.66539274  1
  H  H37  1  0.48363721  0.43939003  0.33460726  1
  H  H38  1  0.01636279  0.43939003  0.83460726  1
  H  H39  1  0.98363721  0.56060997  0.16539274  1
  H  H40  1  0.80684098  0.63086065  0.77326542  1
  H  H41  1  0.19315902  0.36913935  0.22673458  1
  H  H42  1  0.30684098  0.36913935  0.72673458  1
  H  H43  1  0.69315902  0.63086065  0.27326542  1
  H  H44  1  0.26179663  0.89563574  0.67850189  1
  H  H45  1  0.73820337  0.10436426  0.32149811  1
  H  H46  1  0.76179663  0.10436426  0.82149811  1
  H  H47  1  0.23820337  0.89563574  0.17850189  1
  H  H48  1  0.96813043  0.57866407  0.87301812  1
  H  H49  1  0.03186957  0.42133593  0.12698188  1
  H  H50  1  0.46813043  0.42133593  0.62698188  1
  H  H51  1  0.53186957  0.57866407  0.37301812  1
  C  C52  1  0.77849406  0.42145574  0.52010177  1
  C  C53  1  0.22150594  0.57854426  0.47989823  1
  C  C54  1  0.27849406  0.57854426  0.97989823  1
  C  C55  1  0.72150594  0.42145574  0.02010177  1
  C  C56  1  0.39363327  0.81853768  0.75836175  1
  C  C57  1  0.60636673  0.18146232  0.24163825  1
  C  C58  1  0.89363327  0.18146232  0.74163825  1
  C  C59  1  0.10636673  0.81853768  0.25836175  1
  C  C60  1  0.61829271  0.74060164  0.76292842  1
  C  C61  1  0.38170729  0.25939836  0.23707158  1
  C  C62  1  0.11829271  0.25939836  0.73707158  1
  C  C63  1  0.88170729  0.74060164  0.26292842  1
  C  C64  1  0.86909850  0.43970906  0.92493457  1
  C  C65  1  0.13090150  0.56029094  0.07506543  1
  C  C66  1  0.36909850  0.56029094  0.57506543  1
  C  C67  1  0.63090150  0.43970906  0.42493457  1
  S  S68  1  0.94283664  0.84509239  0.58838331  1
  S  S69  1  0.05716336  0.15490761  0.41161669  1
  S  S70  1  0.44283664  0.15490761  0.91161669  1
  S  S71  1  0.55716336  0.84509239  0.08838331  1
  S  S72  1  0.88171967  0.90553096  0.89196967  1
  S  S73  1  0.11828033  0.09446904  0.10803033  1
  S  S74  1  0.38171967  0.09446904  0.60803033  1
  S  S75  1  0.61828033  0.90553096  0.39196967  1
  N  N76  1  0.75852756  0.50139311  0.96713407  1
  N  N77  1  0.24147244  0.49860689  0.03286593  1
  N  N78  1  0.25852756  0.49860689  0.53286593  1
  N  N79  1  0.74147244  0.50139311  0.46713407  1
  N  N80  1  0.25769193  0.85873769  0.73015955  1
  N  N81  1  0.74230807  0.14126231  0.26984045  1
  N  N82  1  0.75769193  0.14126231  0.76984045  1
  N  N83  1  0.24230807  0.85873769  0.23015955  1
  N  N84  1  0.56020044  0.73926448  0.83323504  1
  N  N85  1  0.43979956  0.26073552  0.16676496  1
  N  N86  1  0.06020044  0.26073552  0.66676496  1
  N  N87  1  0.93979956  0.73926448  0.33323504  1
  N  N88  1  0.89916818  0.32947270  0.94963243  1
  N  N89  1  0.10083182  0.67052730  0.05036757  1
  N  N90  1  0.39916818  0.67052730  0.55036757  1
  N  N91  1  0.60083182  0.32947270  0.44963243  1
  N  N92  1  0.41182484  0.78909049  0.83056817  1
  N  N93  1  0.58817516  0.21090951  0.16943183  1
  N  N94  1  0.91182484  0.21090951  0.66943183  1
  N  N95  1  0.08817516  0.78909049  0.33056817  1
  N  N96  1  0.51978404  0.79213409  0.71366570  1
  N  N97  1  0.48021596  0.20786591  0.28633430  1
  N  N98  1  0.01978404  0.20786591  0.78633430  1
  N  N99  1  0.98021596  0.79213409  0.21366570  1
  N  N100  1  0.19867515  0.68310274  0.98860514  1
  N  N101  1  0.80132485  0.31689726  0.01139486  1
  N  N102  1  0.69867515  0.31689726  0.51139486  1
  N  N103  1  0.30132485  0.68310274  0.48860514  1
  N  N104  1  0.93111364  0.48999574  0.86130044  1
  N  N105  1  0.06888636  0.51000426  0.13869956  1
  N  N106  1  0.43111364  0.51000426  0.63869956  1
  N  N107  1  0.56888636  0.48999574  0.36130044  1
  N  N108  1  0.89319157  0.44351145  0.57414683  1
  N  N109  1  0.10680843  0.55648855  0.42585317  1
  N  N110  1  0.39319157  0.55648855  0.92585317  1
  N  N111  1  0.60680843  0.44351145  0.07414683  1
  N  N112  1  0.75810844  0.69491943  0.74184866  1
  N  N113  1  0.24189156  0.30508057  0.25815134  1
  N  N114  1  0.25810844  0.30508057  0.75815134  1
  N  N115  1  0.74189156  0.69491943  0.24184866  1
  O  O116  1  0.44819860  0.90775516  0.36937739  1
  O  O117  1  0.55180140  0.09224484  0.63062261  1
  O  O118  1  0.94819860  0.09224484  0.13062261  1
  O  O119  1  0.05180140  0.90775516  0.86937739  1
  O  O120  1  0.80041644  0.93181465  0.59778969  1
  O  O121  1  0.19958356  0.06818535  0.40221031  1
  O  O122  1  0.30041644  0.06818535  0.90221031  1
  O  O123  1  0.69958356  0.93181465  0.09778969  1
  O  O124  1  0.86684464  0.71560781  0.58798322  1
  O  O125  1  0.13315536  0.28439219  0.41201678  1
  O  O126  1  0.36684464  0.28439219  0.91201678  1
  O  O127  1  0.63315536  0.71560781  0.08798322  1
  O  O128  1  0.99398524  0.84833261  0.50373693  1
  O  O129  1  0.00601476  0.15166739  0.49626307  1
  O  O130  1  0.49398524  0.15166739  0.99626307  1
  O  O131  1  0.50601476  0.84833261  0.00373693  1
  O  O132  1  0.35612134  0.96464115  0.56394498  1
  O  O133  1  0.64387866  0.03535885  0.43605502  1
  O  O134  1  0.85612134  0.03535885  0.93605502  1
  O  O135  1  0.14387866  0.96464115  0.06394498  1
  O  O136  1  0.86941251  0.80929249  0.95355942  1
  O  O137  1  0.13058749  0.19070751  0.04644058  1
  O  O138  1  0.36941251  0.19070751  0.54644058  1
  O  O139  1  0.63058749  0.80929249  0.45355942  1
  O  O140  1  0.61582219  0.40846770  0.75762149  1
  O  O141  1  0.38417781  0.59153230  0.24237851  1
  O  O142  1  0.11582219  0.59153230  0.74237851  1
  O  O143  1  0.88417781  0.40846770  0.25762149  1
