# generated using pymatgen
data_ErMoO4F
_symmetry_space_group_name_H-M   'P 1'
_cell_length_a   5.23592222
_cell_length_b   6.68302218
_cell_length_c   12.36896129
_cell_angle_alpha   90.00000000
_cell_angle_beta   90.00000000
_cell_angle_gamma   113.33228081
_symmetry_Int_Tables_number   1
_chemical_formula_structural   ErMoO4F
_chemical_formula_sum   'Er4 Mo4 O16 F4'
_cell_volume   397.41812245
_cell_formula_units_Z   4
loop_
 _symmetry_equiv_pos_site_id
 _symmetry_equiv_pos_as_xyz
  1  'x, y, z'
loop_
 _atom_site_type_symbol
 _atom_site_label
 _atom_site_symmetry_multiplicity
 _atom_site_fract_x
 _atom_site_fract_y
 _atom_site_fract_z
 _atom_site_occupancy
  Er  Er0  1  0.63942777  0.80035708  0.05072779  1
  Er  Er1  1  0.63942777  0.30035708  0.44927221  1
  Er  Er2  1  0.36057223  0.19964292  0.94927221  1
  Er  Er3  1  0.36057223  0.69964292  0.55072779  1
  Mo  Mo4  1  0.92040709  0.36938805  0.14352306  1
  Mo  Mo5  1  0.92040709  0.86938805  0.35647694  1
  Mo  Mo6  1  0.07959291  0.13061195  0.64352306  1
  Mo  Mo7  1  0.07959291  0.63061195  0.85647694  1
  O  O8  1  0.31080023  0.53763386  0.93501893  1
  O  O9  1  0.75989218  0.40514882  0.84739748  1
  O  O10  1  0.19281349  0.70447484  0.72133422  1
  O  O11  1  0.68919977  0.96236614  0.43501893  1
  O  O12  1  0.24010782  0.09485118  0.34739748  1
  O  O13  1  0.68919977  0.46236614  0.06498107  1
  O  O14  1  0.80718651  0.79552516  0.22133422  1
  O  O15  1  0.31080023  0.03763386  0.56498107  1
  O  O16  1  0.19281349  0.20447484  0.77866578  1
  O  O17  1  0.00221010  0.83864338  0.93142343  1
  O  O18  1  0.00221010  0.33864338  0.56857657  1
  O  O19  1  0.99778990  0.66135662  0.43142343  1
  O  O20  1  0.24010782  0.59485118  0.15260252  1
  O  O21  1  0.99778990  0.16135662  0.06857657  1
  O  O22  1  0.80718651  0.29552516  0.27866578  1
  O  O23  1  0.75989218  0.90514882  0.65260252  1
  F  F24  1  0.45738991  0.53650662  0.40242006  1
  F  F25  1  0.54261009  0.96349338  0.90242006  1
  F  F26  1  0.45738991  0.03650662  0.09757994  1
  F  F27  1  0.54261009  0.46349338  0.59757994  1
