# generated using pymatgen
data_SiSe2
_symmetry_space_group_name_H-M   'P 1'
_cell_length_a   5.93148989
_cell_length_b   6.60920838
_cell_length_c   7.03264345
_cell_angle_alpha   118.02748091
_cell_angle_beta   114.94266902
_cell_angle_gamma   90.00000134
_symmetry_Int_Tables_number   1
_chemical_formula_structural   SiSe2
_chemical_formula_sum   'Si2 Se4'
_cell_volume   213.79547761
_cell_formula_units_Z   2
loop_
 _symmetry_equiv_pos_site_id
 _symmetry_equiv_pos_as_xyz
  1  'x, y, z'
loop_
 _atom_site_type_symbol
 _atom_site_label
 _atom_site_symmetry_multiplicity
 _atom_site_fract_x
 _atom_site_fract_y
 _atom_site_fract_z
 _atom_site_occupancy
  Si  Si0  1  0.75000000  0.00000000  0.00000000  1
  Si  Si1  1  0.25000000  0.00000000  0.00000000  1
  Se  Se2  1  0.11176462  0.30442807  0.22352924  1
  Se  Se3  1  0.88823538  0.69557193  0.77647076  1
  Se  Se4  1  0.38823538  0.08089882  0.77647076  1
  Se  Se5  1  0.61176462  0.91910118  0.22352924  1
