# generated using pymatgen
data_NdOF
_symmetry_space_group_name_H-M   'P 1'
_cell_length_a   3.98742623
_cell_length_b   3.98742623
_cell_length_c   7.02443565
_cell_angle_alpha   73.51135420
_cell_angle_beta   73.51135420
_cell_angle_gamma   60.00001650
_symmetry_Int_Tables_number   1
_chemical_formula_structural   NdOF
_chemical_formula_sum   'Nd2 O2 F2'
_cell_volume   91.38053353
_cell_formula_units_Z   2
loop_
 _symmetry_equiv_pos_site_id
 _symmetry_equiv_pos_as_xyz
  1  'x, y, z'
loop_
 _atom_site_type_symbol
 _atom_site_label
 _atom_site_symmetry_multiplicity
 _atom_site_fract_x
 _atom_site_fract_y
 _atom_site_fract_z
 _atom_site_occupancy
  Nd  Nd0  1  0.74153907  0.74153907  0.77538278  1
  Nd  Nd1  1  0.25846093  0.25846093  0.22461722  1
  O  O2  1  0.62197361  0.62197361  0.13407918  1
  O  O3  1  0.37802639  0.37802639  0.86592082  1
  F  F4  1  0.86995630  0.86995630  0.39013111  1
  F  F5  1  0.13004370  0.13004370  0.60986889  1
