# generated using pymatgen
data_WCl6
_symmetry_space_group_name_H-M   'P 1'
_cell_length_a   6.62259210
_cell_length_b   6.62259210
_cell_length_c   7.13311011
_cell_angle_alpha   62.34057549
_cell_angle_beta   62.34057547
_cell_angle_gamma   59.99999820
_symmetry_Int_Tables_number   1
_chemical_formula_structural   WCl6
_chemical_formula_sum   'W1 Cl6'
_cell_volume   228.72341336
_cell_formula_units_Z   1
loop_
 _symmetry_equiv_pos_site_id
 _symmetry_equiv_pos_as_xyz
  1  'x, y, z'
loop_
 _atom_site_type_symbol
 _atom_site_label
 _atom_site_symmetry_multiplicity
 _atom_site_fract_x
 _atom_site_fract_y
 _atom_site_fract_z
 _atom_site_occupancy
  W  W0  1  0.00000000  0.00000000  -0.00000000  1
  Cl  Cl1  1  0.78663364  0.35602834  0.77810257  1
  Cl  Cl2  1  0.35602834  0.07923546  0.77810257  1
  Cl  Cl3  1  0.07923546  0.78663364  0.77810257  1
  Cl  Cl4  1  0.21336636  0.64397166  0.22189743  1
  Cl  Cl5  1  0.64397166  0.92076454  0.22189743  1
  Cl  Cl6  1  0.92076454  0.21336636  0.22189743  1
