# generated using pymatgen
data_ZnSiAs2
_symmetry_space_group_name_H-M   'P 1'
_cell_length_a   4.01025246
_cell_length_b   4.01025246
_cell_length_c   6.89408690
_cell_angle_alpha   73.09130790
_cell_angle_beta   90.00000000
_cell_angle_gamma   120.00000000
_symmetry_Int_Tables_number   1
_chemical_formula_structural   ZnSiAs2
_chemical_formula_sum   'Zn1 Si1 As2'
_cell_volume   90.44074535
_cell_formula_units_Z   1
loop_
 _symmetry_equiv_pos_site_id
 _symmetry_equiv_pos_as_xyz
  1  'x, y, z'
loop_
 _atom_site_type_symbol
 _atom_site_label
 _atom_site_symmetry_multiplicity
 _atom_site_fract_x
 _atom_site_fract_y
 _atom_site_fract_z
 _atom_site_occupancy
  Zn  Zn0  1  0.36739726  0.73479452  0.89780822  1
  Si  Si1  1  0.88243281  0.76486561  0.35270158  1
  As  As2  1  0.00124147  0.00248293  0.99627560  1
  As  As3  1  0.49892847  0.99785694  0.50321459  1
