# generated using pymatgen
data_EuSb2
_symmetry_space_group_name_H-M   'P 1'
_cell_length_a   4.41853822
_cell_length_b   4.67199006
_cell_length_c   8.85974417
_cell_angle_alpha   103.98976475
_cell_angle_beta   90.00000000
_cell_angle_gamma   90.00000000
_symmetry_Int_Tables_number   1
_chemical_formula_structural   EuSb2
_chemical_formula_sum   'Eu2 Sb4'
_cell_volume   177.47008686
_cell_formula_units_Z   2
loop_
 _symmetry_equiv_pos_site_id
 _symmetry_equiv_pos_as_xyz
  1  'x, y, z'
loop_
 _atom_site_type_symbol
 _atom_site_label
 _atom_site_symmetry_multiplicity
 _atom_site_fract_x
 _atom_site_fract_y
 _atom_site_fract_z
 _atom_site_occupancy
  Eu  Eu0  1  0.25000000  0.41073515  0.29466098  1
  Eu  Eu1  1  0.75000000  0.58926485  0.70533902  1
  Sb  Sb2  1  0.25000000  0.05078552  0.61900098  1
  Sb  Sb3  1  0.75000000  0.94921448  0.38099902  1
  Sb  Sb4  1  0.75000000  0.21338398  0.98776887  1
  Sb  Sb5  1  0.25000000  0.78661602  0.01223113  1
