# generated using pymatgen
data_Mg3ReH7
_symmetry_space_group_name_H-M   'P 1'
_cell_length_a   4.84683513
_cell_length_b   4.84687777
_cell_length_c   10.62130435
_cell_angle_alpha   90.00000000
_cell_angle_beta   90.00000000
_cell_angle_gamma   119.99970908
_symmetry_Int_Tables_number   1
_chemical_formula_structural   Mg3ReH7
_chemical_formula_sum   'Mg6 Re2 H14'
_cell_volume   216.08771286
_cell_formula_units_Z   2
loop_
 _symmetry_equiv_pos_site_id
 _symmetry_equiv_pos_as_xyz
  1  'x, y, z'
loop_
 _atom_site_type_symbol
 _atom_site_label
 _atom_site_symmetry_multiplicity
 _atom_site_fract_x
 _atom_site_fract_y
 _atom_site_fract_z
 _atom_site_occupancy
  Mg  Mg0  1  0.33332998  0.66665995  0.43127578  1
  Mg  Mg1  1  0.66667002  0.33334005  0.56872422  1
  Mg  Mg2  1  0.66667002  0.33334005  0.93127578  1
  Mg  Mg3  1  0.33332998  0.66665995  0.06872422  1
  Mg  Mg4  1  0.00000053  0.00000106  0.25000000  1
  Mg  Mg5  1  -0.00000053  -0.00000106  0.75000000  1
  Re  Re6  1  0.00000000  0.00000000  0.50000000  1
  Re  Re7  1  0.00000000  0.00000000  0.00000000  1
  H  H8  1  0.16875552  0.83124983  0.90224178  1
  H  H9  1  0.16875338  0.33750677  0.90223979  1
  H  H10  1  0.66249431  0.83124983  0.90224178  1
  H  H11  1  0.83124448  0.16875017  0.09775822  1
  H  H12  1  0.83124662  0.66249323  0.09776021  1
  H  H13  1  0.33750569  0.16875017  0.09775822  1
  H  H14  1  0.83124448  0.16875017  0.40224178  1
  H  H15  1  0.83124662  0.66249323  0.40223979  1
  H  H16  1  0.33750569  0.16875017  0.40224178  1
  H  H17  1  0.16875552  0.83124983  0.59775822  1
  H  H18  1  0.16875338  0.33750677  0.59776021  1
  H  H19  1  0.66249431  0.83124983  0.59775822  1
  H  H20  1  0.33330472  0.66660945  0.25000000  1
  H  H21  1  0.66669528  0.33339055  0.75000000  1
