# generated using pymatgen
data_NaMoF6
_symmetry_space_group_name_H-M   'P 1'
_cell_length_a   6.00001067
_cell_length_b   6.00001024
_cell_length_c   6.00001072
_cell_angle_alpha   60.00000337
_cell_angle_beta   60.00000578
_cell_angle_gamma   60.00000504
_symmetry_Int_Tables_number   1
_chemical_formula_structural   NaMoF6
_chemical_formula_sum   'Na1 Mo1 F6'
_cell_volume   152.73588652
_cell_formula_units_Z   1
loop_
 _symmetry_equiv_pos_site_id
 _symmetry_equiv_pos_as_xyz
  1  'x, y, z'
loop_
 _atom_site_type_symbol
 _atom_site_label
 _atom_site_symmetry_multiplicity
 _atom_site_fract_x
 _atom_site_fract_y
 _atom_site_fract_z
 _atom_site_occupancy
  Mo  Mo0  1  0.00000000  0.00000000  0.00000000  1
  Na  Na1  1  0.50000000  0.50000000  0.50000000  1
  F  F2  1  0.77293510  0.22706489  0.22706490  1
  F  F3  1  0.77293510  0.77293511  0.22706490  1
  F  F4  1  0.22706490  0.22706489  0.77293510  1
  F  F5  1  0.77293510  0.22706490  0.77293510  1
  F  F6  1  0.22706490  0.77293510  0.22706490  1
  F  F7  1  0.22706490  0.77293511  0.77293510  1
