# generated using pymatgen
data_Nd2Fe2Si2C
_symmetry_space_group_name_H-M   'P 1'
_cell_length_a   3.99893510
_cell_length_b   5.76478864
_cell_length_c   5.89862382
_cell_angle_alpha   73.39900794
_cell_angle_beta   70.18575281
_cell_angle_gamma   69.70575577
_symmetry_Int_Tables_number   1
_chemical_formula_structural   Nd2Fe2Si2C
_chemical_formula_sum   'Nd2 Fe2 Si2 C1'
_cell_volume   117.79070149
_cell_formula_units_Z   1
loop_
 _symmetry_equiv_pos_site_id
 _symmetry_equiv_pos_as_xyz
  1  'x, y, z'
loop_
 _atom_site_type_symbol
 _atom_site_label
 _atom_site_symmetry_multiplicity
 _atom_site_fract_x
 _atom_site_fract_y
 _atom_site_fract_z
 _atom_site_occupancy
  C  C0  1  0.50000000  0.50000000  0.50000000  1
  Si  Si1  1  0.32322633  0.11422923  0.23931811  1
  Si  Si2  1  0.67677367  0.88577077  0.76068189  1
  Fe  Fe3  1  0.69562391  0.19651303  0.41223914  1
  Fe  Fe4  1  0.30437609  0.80348697  0.58776086  1
  Nd  Nd5  1  0.05839346  0.68244165  0.20077142  1
  Nd  Nd6  1  0.94160654  0.31755835  0.79922858  1
