# generated using pymatgen
data_ZnCdTeSe
_symmetry_space_group_name_H-M   'P 1'
_cell_length_a   4.37085757
_cell_length_b   4.37085757
_cell_length_c   7.64127631
_cell_angle_alpha   73.38118139
_cell_angle_beta   90.00000000
_cell_angle_gamma   120.00000000
_symmetry_Int_Tables_number   1
_chemical_formula_structural   ZnCdTeSe
_chemical_formula_sum   'Zn1 Cd1 Te1 Se1'
_cell_volume   119.33097015
_cell_formula_units_Z   1
loop_
 _symmetry_equiv_pos_site_id
 _symmetry_equiv_pos_as_xyz
  1  'x, y, z'
loop_
 _atom_site_type_symbol
 _atom_site_label
 _atom_site_symmetry_multiplicity
 _atom_site_fract_x
 _atom_site_fract_y
 _atom_site_fract_z
 _atom_site_occupancy
  Zn  Zn0  1  0.36985000  0.73970000  0.89045000  1
  Cd  Cd1  1  0.88170544  0.76341088  0.35488368  1
  Te  Te2  1  0.49331351  0.98662702  0.52005947  1
  Se  Se3  1  0.00513105  0.01026210  0.98460685  1
