# generated using pymatgen
data_UTe2
_symmetry_space_group_name_H-M   'P 1'
_cell_length_a   4.22084329
_cell_length_b   6.19078544
_cell_length_c   7.86181883
_cell_angle_alpha   113.18646418
_cell_angle_beta   105.57142100
_cell_angle_gamma   90.00000004
_symmetry_Int_Tables_number   1
_chemical_formula_structural   UTe2
_chemical_formula_sum   'U2 Te4'
_cell_volume   180.60742484
_cell_formula_units_Z   2
loop_
 _symmetry_equiv_pos_site_id
 _symmetry_equiv_pos_as_xyz
  1  'x, y, z'
loop_
 _atom_site_type_symbol
 _atom_site_label
 _atom_site_symmetry_multiplicity
 _atom_site_fract_x
 _atom_site_fract_y
 _atom_site_fract_z
 _atom_site_occupancy
  Te  Te0  1  0.50000000  0.74979488  0.00000000  1
  Te  Te1  1  0.50000000  0.25020512  0.00000000  1
  Te  Te2  1  0.20333942  0.70333942  0.40667884  1
  Te  Te3  1  0.79666058  0.29666058  0.59332116  1
  U  U4  1  0.13321308  0.13321308  0.26642617  1
  U  U5  1  0.86678692  0.86678692  0.73357383  1
