# generated using pymatgen
data_K2H2RuO5
_symmetry_space_group_name_H-M   'P 1'
_cell_length_a   8.17447736
_cell_length_b   6.84473737
_cell_length_c   10.71409318
_cell_angle_alpha   90.00000000
_cell_angle_beta   90.00000000
_cell_angle_gamma   90.00000000
_symmetry_Int_Tables_number   1
_chemical_formula_structural   K2H2RuO5
_chemical_formula_sum   'K8 H8 Ru4 O20'
_cell_volume   599.47655586
_cell_formula_units_Z   4
loop_
 _symmetry_equiv_pos_site_id
 _symmetry_equiv_pos_as_xyz
  1  'x, y, z'
loop_
 _atom_site_type_symbol
 _atom_site_label
 _atom_site_symmetry_multiplicity
 _atom_site_fract_x
 _atom_site_fract_y
 _atom_site_fract_z
 _atom_site_occupancy
  K  K0  1  0.34734126  0.87399763  0.20738539  1
  K  K1  1  0.15265874  0.12600237  0.70738539  1
  K  K2  1  0.84734126  0.62600237  0.79261461  1
  K  K3  1  0.65265874  0.37399763  0.29261461  1
  K  K4  1  0.99543437  0.28807172  0.06257431  1
  K  K5  1  0.50456563  0.71192828  0.56257431  1
  K  K6  1  0.49543437  0.21192828  0.93742569  1
  K  K7  1  0.00456563  0.78807172  0.43742569  1
  H  H8  1  0.67542994  0.88911106  0.34465137  1
  H  H9  1  0.82457006  0.11088894  0.84465137  1
  H  H10  1  0.17542994  0.61088894  0.65534863  1
  H  H11  1  0.32457006  0.38911106  0.15534863  1
  H  H12  1  0.47900277  0.10014447  0.45830119  1
  H  H13  1  0.02099723  0.89985553  0.95830119  1
  H  H14  1  0.97900277  0.39985553  0.54169881  1
  H  H15  1  0.52099723  0.60014447  0.04169881  1
  Ru  Ru16  1  0.19047353  0.34126280  0.36829224  1
  Ru  Ru17  1  0.30952647  0.65873720  0.86829224  1
  Ru  Ru18  1  0.69047353  0.15873720  0.63170776  1
  Ru  Ru19  1  0.80952647  0.84126280  0.13170776  1
  O  O20  1  0.82695047  0.95544432  0.62343150  1
  O  O21  1  0.67304953  0.04455568  0.12343150  1
  O  O22  1  0.32695047  0.54455568  0.37656850  1
  O  O23  1  0.17304953  0.45544432  0.87656850  1
  O  O24  1  0.70910001  0.76738706  0.30062727  1
  O  O25  1  0.79089999  0.23261294  0.80062727  1
  O  O26  1  0.20910001  0.73261294  0.69937273  1
  O  O27  1  0.29089999  0.26738706  0.19937273  1
  O  O28  1  0.75689061  0.60302187  0.07311267  1
  O  O29  1  0.74310939  0.39697813  0.57311267  1
  O  O30  1  0.25689061  0.89697813  0.92688733  1
  O  O31  1  0.24310939  0.10302187  0.42688733  1
  O  O32  1  0.50757181  0.62040339  0.80597488  1
  O  O33  1  0.99242819  0.37959661  0.30597488  1
  O  O34  1  0.00757181  0.87959661  0.19402512  1
  O  O35  1  0.49242819  0.12040339  0.69402512  1
  O  O36  1  0.90236158  0.92535948  0.95905080  1
  O  O37  1  0.59763842  0.07464052  0.45905080  1
  O  O38  1  0.40236158  0.57464052  0.04094920  1
  O  O39  1  0.09763842  0.42535948  0.54094920  1
