# generated using pymatgen
data_Ba2PrSbO6
_symmetry_space_group_name_H-M   'P 1'
_cell_length_a   6.13191466
_cell_length_b   6.13191467
_cell_length_c   6.13191467
_cell_angle_alpha   60.39351401
_cell_angle_beta   60.39351395
_cell_angle_gamma   60.39351403
_symmetry_Int_Tables_number   1
_chemical_formula_structural   Ba2PrSbO6
_chemical_formula_sum   'Ba2 Pr1 Sb1 O6'
_cell_volume   164.48308125
_cell_formula_units_Z   1
loop_
 _symmetry_equiv_pos_site_id
 _symmetry_equiv_pos_as_xyz
  1  'x, y, z'
loop_
 _atom_site_type_symbol
 _atom_site_label
 _atom_site_symmetry_multiplicity
 _atom_site_fract_x
 _atom_site_fract_y
 _atom_site_fract_z
 _atom_site_occupancy
  O  O0  1  0.68671501  0.27186103  0.77480627  1
  O  O1  1  0.27186103  0.77480627  0.68671501  1
  O  O2  1  0.77480627  0.68671501  0.27186103  1
  O  O3  1  0.31328499  0.72813897  0.22519373  1
  O  O4  1  0.22519373  0.31328499  0.72813897  1
  O  O5  1  0.72813897  0.22519373  0.31328499  1
  Sb  Sb6  1  0.50000000  0.50000000  0.50000000  1
  Ba  Ba7  1  0.74868563  0.74868563  0.74868563  1
  Ba  Ba8  1  0.25131437  0.25131437  0.25131437  1
  Pr  Pr9  1  0.00000000  0.00000000  0.00000000  1
