# generated using pymatgen
data_BaAg2GeS4
_symmetry_space_group_name_H-M   'P 1'
_cell_length_a   6.38553882
_cell_length_b   6.38553882
_cell_length_c   6.38553883
_cell_angle_alpha   98.91010415
_cell_angle_beta   114.99617110
_cell_angle_gamma   114.99617103
_symmetry_Int_Tables_number   1
_chemical_formula_structural   BaAg2GeS4
_chemical_formula_sum   'Ba1 Ag2 Ge1 S4'
_cell_volume   195.46736139
_cell_formula_units_Z   1
loop_
 _symmetry_equiv_pos_site_id
 _symmetry_equiv_pos_as_xyz
  1  'x, y, z'
loop_
 _atom_site_type_symbol
 _atom_site_label
 _atom_site_symmetry_multiplicity
 _atom_site_fract_x
 _atom_site_fract_y
 _atom_site_fract_z
 _atom_site_occupancy
  S  S0  1  0.62212119  0.15552728  0.15552728  1
  S  S1  1  0.00000000  0.84447272  0.46659391  1
  S  S2  1  0.00000000  0.46659391  0.84447272  1
  S  S3  1  0.37787881  0.53340609  0.53340609  1
  Ge  Ge4  1  0.00000000  0.50000000  0.50000000  1
  Ag  Ag5  1  0.50000000  0.25000000  0.75000000  1
  Ag  Ag6  1  0.50000000  0.75000000  0.25000000  1
  Ba  Ba7  1  0.00000000  0.00000000  0.00000000  1
