# generated using pymatgen
data_RbSb
_symmetry_space_group_name_H-M   'P 1'
_cell_length_a   7.36311963
_cell_length_b   7.50967656
_cell_length_c   13.03722916
_cell_angle_alpha   90.00000000
_cell_angle_beta   90.00000000
_cell_angle_gamma   90.00000000
_symmetry_Int_Tables_number   1
_chemical_formula_structural   RbSb
_chemical_formula_sum   'Rb8 Sb8'
_cell_volume   720.88898288
_cell_formula_units_Z   8
loop_
 _symmetry_equiv_pos_site_id
 _symmetry_equiv_pos_as_xyz
  1  'x, y, z'
loop_
 _atom_site_type_symbol
 _atom_site_label
 _atom_site_symmetry_multiplicity
 _atom_site_fract_x
 _atom_site_fract_y
 _atom_site_fract_z
 _atom_site_occupancy
  Rb  Rb0  1  0.08152321  0.60144126  0.95884657  1
  Rb  Rb1  1  0.58152321  0.39855874  0.54115343  1
  Rb  Rb2  1  0.41847679  0.10144126  0.04115343  1
  Rb  Rb3  1  0.91847679  0.89855874  0.45884657  1
  Rb  Rb4  1  0.34643254  0.85037743  0.66910963  1
  Rb  Rb5  1  0.84643254  0.14962257  0.83089037  1
  Rb  Rb6  1  0.15356746  0.35037743  0.33089037  1
  Rb  Rb7  1  0.65356746  0.64962257  0.16910963  1
  Sb  Sb8  1  0.84144624  0.69449575  0.71479451  1
  Sb  Sb9  1  0.34144624  0.30550425  0.78520549  1
  Sb  Sb10  1  0.65855376  0.19449575  0.28520549  1
  Sb  Sb11  1  0.15855376  0.80550425  0.21479451  1
  Sb  Sb12  1  0.58006366  0.57638393  0.86811145  1
  Sb  Sb13  1  0.08006366  0.42361607  0.63188855  1
  Sb  Sb14  1  0.91993634  0.07638393  0.13188855  1
  Sb  Sb15  1  0.41993634  0.92361607  0.36811145  1
