# generated using pymatgen
data_Sm3Al5O12
_symmetry_space_group_name_H-M   'P 1'
_cell_length_a   10.62242368
_cell_length_b   10.62242368
_cell_length_c   10.62242368
_cell_angle_alpha   109.47122063
_cell_angle_beta   109.47122063
_cell_angle_gamma   109.47122063
_symmetry_Int_Tables_number   1
_chemical_formula_structural   Sm3Al5O12
_chemical_formula_sum   'Sm12 Al20 O48'
_cell_volume   922.67545438
_cell_formula_units_Z   4
loop_
 _symmetry_equiv_pos_site_id
 _symmetry_equiv_pos_as_xyz
  1  'x, y, z'
loop_
 _atom_site_type_symbol
 _atom_site_label
 _atom_site_symmetry_multiplicity
 _atom_site_fract_x
 _atom_site_fract_y
 _atom_site_fract_z
 _atom_site_occupancy
  Sm  Sm0  1  0.75000000  0.12500000  0.37500000  1
  Sm  Sm1  1  0.37500000  0.12500000  0.25000000  1
  Sm  Sm2  1  0.87500000  0.62500000  0.25000000  1
  Sm  Sm3  1  0.25000000  0.37500000  0.12500000  1
  Sm  Sm4  1  0.37500000  0.75000000  0.12500000  1
  Sm  Sm5  1  0.12500000  0.25000000  0.37500000  1
  Sm  Sm6  1  0.87500000  0.75000000  0.62500000  1
  Sm  Sm7  1  0.62500000  0.25000000  0.87500000  1
  Sm  Sm8  1  0.75000000  0.62500000  0.87500000  1
  Sm  Sm9  1  0.62500000  0.87500000  0.75000000  1
  Sm  Sm10  1  0.12500000  0.37500000  0.75000000  1
  Sm  Sm11  1  0.25000000  0.87500000  0.62500000  1
  Al  Al12  1  0.87500000  0.25000000  0.12500000  1
  Al  Al13  1  0.50000000  0.00000000  0.00000000  1
  Al  Al14  1  0.00000000  0.00000000  0.00000000  1
  Al  Al15  1  0.62500000  0.37500000  0.25000000  1
  Al  Al16  1  0.50000000  0.00000000  0.50000000  1
  Al  Al17  1  0.50000000  0.50000000  0.00000000  1
  Al  Al18  1  0.87500000  0.12500000  0.75000000  1
  Al  Al19  1  0.75000000  0.87500000  0.12500000  1
  Al  Al20  1  0.75000000  0.37500000  0.62500000  1
  Al  Al21  1  0.62500000  0.75000000  0.37500000  1
  Al  Al22  1  0.50000000  0.50000000  0.50000000  1
  Al  Al23  1  0.00000000  0.50000000  0.00000000  1
  Al  Al24  1  0.00000000  0.00000000  0.50000000  1
  Al  Al25  1  0.37500000  0.25000000  0.62500000  1
  Al  Al26  1  0.25000000  0.62500000  0.37500000  1
  Al  Al27  1  0.25000000  0.12500000  0.87500000  1
  Al  Al28  1  0.37500000  0.62500000  0.75000000  1
  Al  Al29  1  0.12500000  0.87500000  0.25000000  1
  Al  Al30  1  0.00000000  0.50000000  0.50000000  1
  Al  Al31  1  0.12500000  0.75000000  0.87500000  1
  O  O32  1  0.90002168  0.01637370  0.31983961  1
  O  O33  1  0.88364798  0.40002168  0.08018107  1
  O  O34  1  0.91981893  0.30346691  0.31983961  1
  O  O35  1  0.98362630  0.68016039  0.09997832  1
  O  O36  1  0.91981893  0.11635202  0.59997832  1
  O  O37  1  0.58018107  0.18016039  0.19653309  1
  O  O38  1  0.61635202  0.41981893  0.09997832  1
  O  O39  1  0.19653309  0.11635202  0.01637370  1
  O  O40  1  0.69653309  0.68016039  0.08018107  1
  O  O41  1  0.59997832  0.18016039  0.48362630  1
  O  O42  1  0.90002168  0.38364798  0.58018107  1
  O  O43  1  0.11635202  0.01637370  0.19653309  1
  O  O44  1  0.81983961  0.51637370  0.40002168  1
  O  O45  1  0.68016039  0.08018107  0.69653309  1
  O  O46  1  0.48362630  0.38364798  0.30346691  1
  O  O47  1  0.48362630  0.59997832  0.18016039  1
  O  O48  1  0.41981893  0.09997832  0.61635202  1
  O  O49  1  0.01637370  0.19653309  0.11635202  1
  O  O50  1  0.81983961  0.80346691  0.41981893  1
  O  O51  1  0.38364798  0.30346691  0.48362630  1
  O  O52  1  0.68016039  0.09997832  0.98362630  1
  O  O53  1  0.69653309  0.51637370  0.61635202  1
  O  O54  1  0.80346691  0.41981893  0.81983961  1
  O  O55  1  0.59997832  0.91981893  0.11635202  1
  O  O56  1  0.30346691  0.48362630  0.38364798  1
  O  O57  1  0.40002168  0.08018107  0.88364798  1
  O  O58  1  0.19653309  0.58018107  0.18016039  1
  O  O59  1  0.18016039  0.19653309  0.58018107  1
  O  O60  1  0.61635202  0.69653309  0.51637370  1
  O  O61  1  0.31983961  0.90002168  0.01637370  1
  O  O62  1  0.58018107  0.90002168  0.38364798  1
  O  O63  1  0.51637370  0.40002168  0.81983961  1
  O  O64  1  0.98362630  0.80346691  0.88364798  1
  O  O65  1  0.51637370  0.61635202  0.69653309  1
  O  O66  1  0.31983961  0.91981893  0.30346691  1
  O  O67  1  0.18016039  0.48362630  0.59997832  1
  O  O68  1  0.88364798  0.98362630  0.80346691  1
  O  O69  1  0.40002168  0.81983961  0.51637370  1
  O  O70  1  0.30346691  0.31983961  0.91981893  1
  O  O71  1  0.09997832  0.61635202  0.41981893  1
  O  O72  1  0.80346691  0.88364798  0.98362630  1
  O  O73  1  0.38364798  0.58018107  0.90002168  1
  O  O74  1  0.41981893  0.81983961  0.80346691  1
  O  O75  1  0.01637370  0.31983961  0.90002168  1
  O  O76  1  0.08018107  0.88364798  0.40002168  1
  O  O77  1  0.08018107  0.69653309  0.68016039  1
  O  O78  1  0.11635202  0.59997832  0.91981893  1
  O  O79  1  0.09997832  0.98362630  0.68016039  1
