# generated using pymatgen
data_LuBO3
_symmetry_space_group_name_H-M   'P 1'
_cell_length_a   6.10764968
_cell_length_b   6.10764968
_cell_length_c   6.10764967
_cell_angle_alpha   47.54425104
_cell_angle_beta   47.54425100
_cell_angle_gamma   47.54425110
_symmetry_Int_Tables_number   1
_chemical_formula_structural   LuBO3
_chemical_formula_sum   'Lu2 B2 O6'
_cell_volume   113.50524789
_cell_formula_units_Z   2
loop_
 _symmetry_equiv_pos_site_id
 _symmetry_equiv_pos_as_xyz
  1  'x, y, z'
loop_
 _atom_site_type_symbol
 _atom_site_label
 _atom_site_symmetry_multiplicity
 _atom_site_fract_x
 _atom_site_fract_y
 _atom_site_fract_z
 _atom_site_occupancy
  B  B0  1  0.75000000  0.75000000  0.75000000  1
  B  B1  1  0.25000000  0.25000000  0.25000000  1
  O  O2  1  0.75000000  0.03194472  0.46805528  1
  O  O3  1  0.46805528  0.75000000  0.03194472  1
  O  O4  1  0.96805528  0.53194472  0.25000000  1
  O  O5  1  0.25000000  0.96805528  0.53194472  1
  O  O6  1  0.53194472  0.25000000  0.96805528  1
  O  O7  1  0.03194472  0.46805528  0.75000000  1
  Lu  Lu8  1  0.50000000  0.50000000  0.50000000  1
  Lu  Lu9  1  0.00000000  0.00000000  0.00000000  1
