# generated using pymatgen
data_YbGaCuO4
_symmetry_space_group_name_H-M   'P 1'
_cell_length_a   3.51845627
_cell_length_b   3.51845627
_cell_length_c   8.31836359
_cell_angle_alpha   77.79047501
_cell_angle_beta   77.79047501
_cell_angle_gamma   60.00000235
_symmetry_Int_Tables_number   1
_chemical_formula_structural   YbGaCuO4
_chemical_formula_sum   'Yb1 Ga1 Cu1 O4'
_cell_volume   86.48103818
_cell_formula_units_Z   1
loop_
 _symmetry_equiv_pos_site_id
 _symmetry_equiv_pos_as_xyz
  1  'x, y, z'
loop_
 _atom_site_type_symbol
 _atom_site_label
 _atom_site_symmetry_multiplicity
 _atom_site_fract_x
 _atom_site_fract_y
 _atom_site_fract_z
 _atom_site_occupancy
  Yb  Yb0  1  0.99676063  0.99676063  0.00971811  1
  Ga  Ga1  1  0.78555418  0.78555418  0.64333746  1
  Cu  Cu2  1  0.21158390  0.21158390  0.36524830  1
  O  O3  1  0.28512103  0.28512103  0.14463691  1
  O  O4  1  0.71164481  0.71164481  0.86506556  1
  O  O5  1  0.13234223  0.13234223  0.60297331  1
  O  O6  1  0.86835321  0.86835321  0.39494036  1
