# generated using pymatgen
data_Zr2V3Si
_symmetry_space_group_name_H-M   'P 1'
_cell_length_a   5.12962059
_cell_length_b   5.12972506
_cell_length_c   8.66282934
_cell_angle_alpha   90.00000000
_cell_angle_beta   90.00000000
_cell_angle_gamma   59.99932627
_symmetry_Int_Tables_number   1
_chemical_formula_structural   Zr2V3Si
_chemical_formula_sum   'Zr4 V6 Si2'
_cell_volume   197.40892079
_cell_formula_units_Z   2
loop_
 _symmetry_equiv_pos_site_id
 _symmetry_equiv_pos_as_xyz
  1  'x, y, z'
loop_
 _atom_site_type_symbol
 _atom_site_label
 _atom_site_symmetry_multiplicity
 _atom_site_fract_x
 _atom_site_fract_y
 _atom_site_fract_z
 _atom_site_occupancy
  Zr  Zr0  1  0.33332038  0.33333981  0.55824005  1
  Zr  Zr1  1  0.66667962  0.66666019  0.44175995  1
  Zr  Zr2  1  0.66667962  0.66666019  0.05824005  1
  Zr  Zr3  1  0.33332038  0.33333981  0.94175995  1
  V  V4  1  0.82588678  0.34826671  0.75000000  1
  V  V5  1  0.34834723  0.82582639  0.75000000  1
  V  V6  1  0.82588678  0.82584652  0.75000000  1
  V  V7  1  0.17411322  0.65173329  0.25000000  1
  V  V8  1  0.65165277  0.17417361  0.25000000  1
  V  V9  1  0.17411322  0.17415348  0.25000000  1
  Si  Si10  1  -0.00000000  0.00000000  0.50000000  1
  Si  Si11  1  -0.00000000  0.00000000  0.00000000  1
