# generated using pymatgen
data_KLiS
_symmetry_space_group_name_H-M   'P 1'
_cell_length_a   4.33422723
_cell_length_b   4.33422723
_cell_length_c   7.02727304
_cell_angle_alpha   90.00000000
_cell_angle_beta   90.00000000
_cell_angle_gamma   90.00000000
_symmetry_Int_Tables_number   1
_chemical_formula_structural   KLiS
_chemical_formula_sum   'K2 Li2 S2'
_cell_volume   132.01101816
_cell_formula_units_Z   2
loop_
 _symmetry_equiv_pos_site_id
 _symmetry_equiv_pos_as_xyz
  1  'x, y, z'
loop_
 _atom_site_type_symbol
 _atom_site_label
 _atom_site_symmetry_multiplicity
 _atom_site_fract_x
 _atom_site_fract_y
 _atom_site_fract_z
 _atom_site_occupancy
  Li  Li0  1  0.25000000  0.75000000  0.00000000  1
  Li  Li1  1  0.75000000  0.25000000  0.00000000  1
  S  S2  1  0.25000000  0.25000000  0.18774629  1
  S  S3  1  0.75000000  0.75000000  0.81225371  1
  K  K4  1  0.25000000  0.25000000  0.65989879  1
  K  K5  1  0.75000000  0.75000000  0.34010121  1
