# generated using pymatgen
data_ThNF
_symmetry_space_group_name_H-M   'P 1'
_cell_length_a   7.21574340
_cell_length_b   7.21574340
_cell_length_c   7.21574340
_cell_angle_alpha   32.31845416
_cell_angle_beta   32.31845413
_cell_angle_gamma   32.31845421
_symmetry_Int_Tables_number   1
_chemical_formula_structural   ThNF
_chemical_formula_sum   'Th2 N2 F2'
_cell_volume   95.45841222
_cell_formula_units_Z   2
loop_
 _symmetry_equiv_pos_site_id
 _symmetry_equiv_pos_as_xyz
  1  'x, y, z'
loop_
 _atom_site_type_symbol
 _atom_site_label
 _atom_site_symmetry_multiplicity
 _atom_site_fract_x
 _atom_site_fract_y
 _atom_site_fract_z
 _atom_site_occupancy
  N  N0  1  0.62294626  0.62294626  0.62294626  1
  N  N1  1  0.37705374  0.37705374  0.37705374  1
  F  F2  1  0.13113808  0.13113808  0.13113808  1
  F  F3  1  0.86886192  0.86886192  0.86886192  1
  Th  Th4  1  0.73806256  0.73806256  0.73806256  1
  Th  Th5  1  0.26193744  0.26193744  0.26193744  1
