# generated using pymatgen
data_Zn13Fe
_symmetry_space_group_name_H-M   'P 1'
_cell_length_a   5.26288697
_cell_length_b   6.57229752
_cell_length_c   6.57229752
_cell_angle_alpha   70.49783725
_cell_angle_beta   79.97077702
_cell_angle_gamma   79.97077702
_symmetry_Int_Tables_number   1
_chemical_formula_structural   Zn13Fe
_chemical_formula_sum   'Zn13 Fe1'
_cell_volume   209.35957432
_cell_formula_units_Z   1
loop_
 _symmetry_equiv_pos_site_id
 _symmetry_equiv_pos_as_xyz
  1  'x, y, z'
loop_
 _atom_site_type_symbol
 _atom_site_label
 _atom_site_symmetry_multiplicity
 _atom_site_fract_x
 _atom_site_fract_y
 _atom_site_fract_z
 _atom_site_occupancy
  Zn  Zn0  1  0.69368905  0.79177682  0.37956998  1
  Zn  Zn1  1  0.69368905  0.37956998  0.79177682  1
  Zn  Zn2  1  0.30631095  0.20822318  0.62043002  1
  Zn  Zn3  1  0.30631095  0.62043002  0.20822318  1
  Zn  Zn4  1  0.64010377  0.22700490  0.22700490  1
  Zn  Zn5  1  0.35989623  0.77299510  0.77299510  1
  Zn  Zn6  1  0.18461366  0.99101714  0.34891194  1
  Zn  Zn7  1  0.18461366  0.34891194  0.99101714  1
  Zn  Zn8  1  0.81538634  0.00898286  0.65108806  1
  Zn  Zn9  1  0.81538634  0.65108806  0.00898286  1
  Zn  Zn10  1  0.07855437  0.60794472  0.60794472  1
  Zn  Zn11  1  0.92144563  0.39205528  0.39205528  1
  Zn  Zn12  1  0.50000000  0.00000000  0.00000000  1
  Fe  Fe13  1  0.00000000  0.00000000  0.00000000  1
