# generated using pymatgen
data_YbCuPbS3
_symmetry_space_group_name_H-M   'P 1'
_cell_length_a   3.82092267
_cell_length_b   6.88574449
_cell_length_c   10.46596653
_cell_angle_alpha   90.00000000
_cell_angle_beta   90.00000000
_cell_angle_gamma   73.89182869
_symmetry_Int_Tables_number   1
_chemical_formula_structural   YbCuPbS3
_chemical_formula_sum   'Yb2 Cu2 Pb2 S6'
_cell_volume   264.54781725
_cell_formula_units_Z   2
loop_
 _symmetry_equiv_pos_site_id
 _symmetry_equiv_pos_as_xyz
  1  'x, y, z'
loop_
 _atom_site_type_symbol
 _atom_site_label
 _atom_site_symmetry_multiplicity
 _atom_site_fract_x
 _atom_site_fract_y
 _atom_site_fract_z
 _atom_site_occupancy
  Yb  Yb0  1  0.99422546  0.01154909  0.49605873  1
  Yb  Yb1  1  0.00577454  0.98845091  0.99605873  1
  Cu  Cu2  1  0.47243641  0.05512718  0.24791597  1
  Cu  Cu3  1  0.52756359  0.94487282  0.74791597  1
  Pb  Pb4  1  0.75693127  0.48613745  0.23783210  1
  Pb  Pb5  1  0.24306873  0.51386255  0.73783210  1
  S  S6  1  0.07133331  0.85733338  0.24852154  1
  S  S7  1  0.92866669  0.14266662  0.74852154  1
  S  S8  1  0.35479420  0.29041160  0.41377621  1
  S  S9  1  0.63556822  0.72886356  0.57339545  1
  S  S10  1  0.36443178  0.27113644  0.07339545  1
  S  S11  1  0.64520580  0.70958840  0.91377621  1
