# generated using pymatgen
data_Sr2MgGe2O7
_symmetry_space_group_name_H-M   'P 1'
_cell_length_a   8.26416478
_cell_length_b   8.26416478
_cell_length_c   5.37278757
_cell_angle_alpha   90.00000000
_cell_angle_beta   90.00000000
_cell_angle_gamma   90.00000000
_symmetry_Int_Tables_number   1
_chemical_formula_structural   Sr2MgGe2O7
_chemical_formula_sum   'Sr4 Mg2 Ge4 O14'
_cell_volume   366.94215382
_cell_formula_units_Z   2
loop_
 _symmetry_equiv_pos_site_id
 _symmetry_equiv_pos_as_xyz
  1  'x, y, z'
loop_
 _atom_site_type_symbol
 _atom_site_label
 _atom_site_symmetry_multiplicity
 _atom_site_fract_x
 _atom_site_fract_y
 _atom_site_fract_z
 _atom_site_occupancy
  Sr  Sr0  1  0.83486825  0.33486825  0.49186525  1
  Sr  Sr1  1  0.16513175  0.66513075  0.49186525  1
  Sr  Sr2  1  0.33486825  0.16513175  0.50813375  1
  Sr  Sr3  1  0.66513075  0.83486825  0.50813375  1
  Mg  Mg4  1  -0.00000000  0.00000000  0.00000000  1
  Mg  Mg5  1  0.50000000  0.50000000  0.00000000  1
  Ge  Ge6  1  0.64326328  0.14326328  0.05046259  1
  Ge  Ge7  1  0.35673572  0.85673572  0.05046259  1
  Ge  Ge8  1  0.14326328  0.35673572  0.94953941  1
  Ge  Ge9  1  0.85673572  0.64326328  0.94953941  1
  O  O10  1  0.50000000  0.00000000  0.18432847  1
  O  O11  1  0.82200425  0.08236071  0.20667237  1
  O  O12  1  0.58236071  0.32200425  0.20667237  1
  O  O13  1  0.41763929  0.67799575  0.20667237  1
  O  O14  1  0.17799575  0.91763929  0.20667237  1
  O  O15  1  0.13892859  0.36107141  0.27380888  1
  O  O16  1  0.86107141  0.63892859  0.27380888  1
  O  O17  1  0.63892859  0.13892859  0.72619012  1
  O  O18  1  0.36107141  0.86107141  0.72619012  1
  O  O19  1  0.08236071  0.17799575  0.79332863  1
  O  O20  1  0.32200425  0.41763929  0.79332863  1
  O  O21  1  0.67799575  0.58236071  0.79332863  1
  O  O22  1  0.91763929  0.82200425  0.79332863  1
  O  O23  1  0.00000000  0.50000000  0.81567253  1
