# generated using pymatgen
data_YbSm2CuS5
_symmetry_space_group_name_H-M   'P 1'
_cell_length_a   3.88132187
_cell_length_b   11.71025486
_cell_length_c   16.66569773
_cell_angle_alpha   90.00000000
_cell_angle_beta   90.00000000
_cell_angle_gamma   90.00000000
_symmetry_Int_Tables_number   1
_chemical_formula_structural   YbSm2CuS5
_chemical_formula_sum   'Yb4 Sm8 Cu4 S20'
_cell_volume   757.47709879
_cell_formula_units_Z   4
loop_
 _symmetry_equiv_pos_site_id
 _symmetry_equiv_pos_as_xyz
  1  'x, y, z'
loop_
 _atom_site_type_symbol
 _atom_site_label
 _atom_site_symmetry_multiplicity
 _atom_site_fract_x
 _atom_site_fract_y
 _atom_site_fract_z
 _atom_site_occupancy
  Yb  Yb0  1  0.75000000  0.69814038  0.12954308  1
  Yb  Yb1  1  0.75000000  0.19814038  0.37045692  1
  Yb  Yb2  1  0.25000000  0.30185962  0.87045692  1
  Yb  Yb3  1  0.25000000  0.80185962  0.62954308  1
  Sm  Sm4  1  0.75000000  0.62704654  0.89765302  1
  Sm  Sm5  1  0.75000000  0.12704654  0.60234698  1
  Sm  Sm6  1  0.25000000  0.37295346  0.10234698  1
  Sm  Sm7  1  0.25000000  0.87295346  0.39765302  1
  Sm  Sm8  1  0.25000000  0.53631872  0.31532054  1
  Sm  Sm9  1  0.25000000  0.03631872  0.18467946  1
  Sm  Sm10  1  0.75000000  0.46368128  0.68467946  1
  Sm  Sm11  1  0.75000000  0.96368128  0.81532054  1
  Cu  Cu12  1  0.25000000  0.91162762  0.00255711  1
  Cu  Cu13  1  0.25000000  0.41162762  0.49744289  1
  Cu  Cu14  1  0.75000000  0.08837238  0.99744289  1
  Cu  Cu15  1  0.75000000  0.58837238  0.50255711  1
  S  S16  1  0.25000000  0.76593574  0.23533535  1
  S  S17  1  0.25000000  0.26593574  0.26466465  1
  S  S18  1  0.75000000  0.23406426  0.76466465  1
  S  S19  1  0.75000000  0.73406426  0.73533535  1
  S  S20  1  0.75000000  0.68844391  0.38645361  1
  S  S21  1  0.75000000  0.18844391  0.11354639  1
  S  S22  1  0.25000000  0.31155609  0.61354639  1
  S  S23  1  0.25000000  0.81155609  0.88645361  1
  S  S24  1  0.25000000  0.61269019  0.02417263  1
  S  S25  1  0.25000000  0.11269019  0.47582737  1
  S  S26  1  0.75000000  0.38730981  0.97582737  1
  S  S27  1  0.75000000  0.88730981  0.52417263  1
  S  S28  1  0.75000000  0.92110366  0.07975463  1
  S  S29  1  0.75000000  0.42110366  0.42024537  1
  S  S30  1  0.25000000  0.07889634  0.92024537  1
  S  S31  1  0.25000000  0.57889634  0.57975463  1
  S  S32  1  0.75000000  0.49005956  0.19757949  1
  S  S33  1  0.75000000  0.99005956  0.30242051  1
  S  S34  1  0.25000000  0.50994044  0.80242051  1
  S  S35  1  0.25000000  0.00994044  0.69757949  1
