# generated using pymatgen
data_Ca2Sb
_symmetry_space_group_name_H-M   'P 1'
_cell_length_a   4.79154087
_cell_length_b   4.79154087
_cell_length_c   9.03273014
_cell_angle_alpha   105.38074438
_cell_angle_beta   105.38074438
_cell_angle_gamma   90.00000000
_symmetry_Int_Tables_number   1
_chemical_formula_structural   Ca2Sb
_chemical_formula_sum   'Ca4 Sb2'
_cell_volume   192.23958195
_cell_formula_units_Z   2
loop_
 _symmetry_equiv_pos_site_id
 _symmetry_equiv_pos_as_xyz
  1  'x, y, z'
loop_
 _atom_site_type_symbol
 _atom_site_label
 _atom_site_symmetry_multiplicity
 _atom_site_fract_x
 _atom_site_fract_y
 _atom_site_fract_z
 _atom_site_occupancy
  Ca  Ca0  1  0.32048505  0.32048505  0.64097010  1
  Ca  Ca1  1  0.66928283  0.66928283  0.33856566  1
  Ca  Ca2  1  0.49470887  0.99470887  0.98941773  1
  Ca  Ca3  1  0.99470887  0.49470887  0.98941773  1
  Sb  Sb4  1  0.13072225  0.13072225  0.26144450  1
  Sb  Sb5  1  0.85899214  0.85899214  0.71798428  1
