# generated using pymatgen
data_Tc7B3
_symmetry_space_group_name_H-M   'P 1'
_cell_length_a   7.51702959
_cell_length_b   7.51702970
_cell_length_c   4.86651267
_cell_angle_alpha   90.00000000
_cell_angle_beta   90.00000000
_cell_angle_gamma   120.00093643
_symmetry_Int_Tables_number   1
_chemical_formula_structural   Tc7B3
_chemical_formula_sum   'Tc14 B6'
_cell_volume   238.14250509
_cell_formula_units_Z   2
loop_
 _symmetry_equiv_pos_site_id
 _symmetry_equiv_pos_as_xyz
  1  'x, y, z'
loop_
 _atom_site_type_symbol
 _atom_site_label
 _atom_site_symmetry_multiplicity
 _atom_site_fract_x
 _atom_site_fract_y
 _atom_site_fract_z
 _atom_site_occupancy
  Tc  Tc0  1  0.54564661  0.45435439  0.04891456  1
  Tc  Tc1  1  0.45435439  0.54564661  0.54891456  1
  Tc  Tc2  1  0.54564623  0.09129195  0.04892061  1
  Tc  Tc3  1  0.90870705  0.45435477  0.04892061  1
  Tc  Tc4  1  0.09129295  0.54564423  0.54892161  1
  Tc  Tc5  1  0.45435577  0.90870805  0.54892161  1
  Tc  Tc6  1  0.12364093  0.87636007  0.25431461  1
  Tc  Tc7  1  0.87635807  0.12364093  0.75431661  1
  Tc  Tc8  1  0.12363689  0.24727664  0.25432027  1
  Tc  Tc9  1  0.75272236  0.87636411  0.25432027  1
  Tc  Tc10  1  0.24727764  0.12363589  0.75431827  1
  Tc  Tc11  1  0.87636511  0.75272236  0.75431827  1
  Tc  Tc12  1  0.33333147  0.66666853  0.08282883  1
  Tc  Tc13  1  0.66666853  0.33333247  0.58282883  1
  B  B14  1  0.81055776  0.62111304  0.33982028  1
  B  B15  1  0.18944132  0.81055868  0.83982067  1
  B  B16  1  0.81055868  0.18944032  0.33982067  1
  B  B17  1  0.37888696  0.18944324  0.33982028  1
  B  B18  1  0.62111304  0.81055776  0.83981828  1
  B  B19  1  0.18944224  0.37888696  0.83981828  1
