# generated using pymatgen
data_LiGe2N3
_symmetry_space_group_name_H-M   'P 1'
_cell_length_a   5.57622304
_cell_length_b   9.62844384
_cell_length_c   5.10168246
_cell_angle_alpha   90.00000000
_cell_angle_beta   90.00000000
_cell_angle_gamma   90.00000000
_symmetry_Int_Tables_number   1
_chemical_formula_structural   LiGe2N3
_chemical_formula_sum   'Li4 Ge8 N12'
_cell_volume   273.91111880
_cell_formula_units_Z   4
loop_
 _symmetry_equiv_pos_site_id
 _symmetry_equiv_pos_as_xyz
  1  'x, y, z'
loop_
 _atom_site_type_symbol
 _atom_site_label
 _atom_site_symmetry_multiplicity
 _atom_site_fract_x
 _atom_site_fract_y
 _atom_site_fract_z
 _atom_site_occupancy
  Li  Li0  1  0.84149363  0.50000000  0.51167940  1
  Li  Li1  1  0.15850637  0.50000000  0.01167940  1
  Li  Li2  1  0.34149363  -0.00000000  0.51167940  1
  Li  Li3  1  0.65850637  -0.00000000  0.01167940  1
  Ge  Ge4  1  0.33339104  0.66332297  0.50734532  1
  Ge  Ge5  1  0.33339104  0.33667703  0.50734532  1
  Ge  Ge6  1  0.66660896  0.33667703  0.00734532  1
  Ge  Ge7  1  0.66660896  0.66332297  0.00734532  1
  Ge  Ge8  1  0.83339104  0.16332297  0.50734532  1
  Ge  Ge9  1  0.83339104  0.83667703  0.50734532  1
  Ge  Ge10  1  0.16660896  0.83667703  0.00734532  1
  Ge  Ge11  1  0.16660896  0.16332297  0.00734532  1
  N  N12  1  0.85148827  0.18707031  0.13863727  1
  N  N13  1  0.85148827  0.81292969  0.13863727  1
  N  N14  1  0.14851173  0.81292969  0.63863727  1
  N  N15  1  0.14851173  0.18707031  0.63863727  1
  N  N16  1  0.79849145  0.50000000  0.10835441  1
  N  N17  1  0.20150855  0.50000000  0.60835441  1
  N  N18  1  0.35148827  0.68707031  0.13863727  1
  N  N19  1  0.35148827  0.31292969  0.13863727  1
  N  N20  1  0.64851173  0.31292969  0.63863727  1
  N  N21  1  0.64851173  0.68707031  0.63863727  1
  N  N22  1  0.29849145  -0.00000000  0.10835441  1
  N  N23  1  0.70150855  -0.00000000  0.60835441  1
