# generated using pymatgen
data_CaRhO3
_symmetry_space_group_name_H-M   'P 1'
_cell_length_a   3.16105543
_cell_length_b   5.21010291
_cell_length_c   7.37753062
_cell_angle_alpha   90.00000000
_cell_angle_beta   90.00000000
_cell_angle_gamma   107.65941962
_symmetry_Int_Tables_number   1
_chemical_formula_structural   CaRhO3
_chemical_formula_sum   'Ca2 Rh2 O6'
_cell_volume   115.77801129
_cell_formula_units_Z   2
loop_
 _symmetry_equiv_pos_site_id
 _symmetry_equiv_pos_as_xyz
  1  'x, y, z'
loop_
 _atom_site_type_symbol
 _atom_site_label
 _atom_site_symmetry_multiplicity
 _atom_site_fract_x
 _atom_site_fract_y
 _atom_site_fract_z
 _atom_site_occupancy
  Ca  Ca0  1  0.25061461  0.50122923  0.25000000  1
  Ca  Ca1  1  0.74938539  0.49877077  0.75000000  1
  Rh  Rh2  1  -0.00000000  -0.00000000  0.50000000  1
  Rh  Rh3  1  -0.00000000  0.00000000  0.00000000  1
  O  O4  1  0.92317451  0.84634902  0.25000000  1
  O  O5  1  0.07682549  0.15365098  0.75000000  1
  O  O6  1  0.62707950  0.25415901  0.44778083  1
  O  O7  1  0.37292050  0.74584099  0.55221917  1
  O  O8  1  0.62707950  0.25415901  0.05221917  1
  O  O9  1  0.37292050  0.74584099  0.94778083  1
