# generated using pymatgen
data_BaGeN2
_symmetry_space_group_name_H-M   'P 1'
_cell_length_a   5.59308406
_cell_length_b   11.22342405
_cell_length_c   16.66279849
_cell_angle_alpha   90.00000000
_cell_angle_beta   90.00000000
_cell_angle_gamma   90.00000000
_symmetry_Int_Tables_number   1
_chemical_formula_structural   BaGeN2
_chemical_formula_sum   'Ba16 Ge16 N32'
_cell_volume   1045.98308335
_cell_formula_units_Z   16
loop_
 _symmetry_equiv_pos_site_id
 _symmetry_equiv_pos_as_xyz
  1  'x, y, z'
loop_
 _atom_site_type_symbol
 _atom_site_label
 _atom_site_symmetry_multiplicity
 _atom_site_fract_x
 _atom_site_fract_y
 _atom_site_fract_z
 _atom_site_occupancy
  Ba  Ba0  1  0.75495077  0.01979757  0.43393693  1
  Ba  Ba1  1  0.25495077  0.48020243  0.56606307  1
  Ba  Ba2  1  0.24504923  0.51979757  0.06606307  1
  Ba  Ba3  1  0.74504923  0.98020243  0.93393693  1
  Ba  Ba4  1  0.24504923  0.98020243  0.56606307  1
  Ba  Ba5  1  0.74504923  0.51979757  0.43393693  1
  Ba  Ba6  1  0.75495077  0.48020243  0.93393693  1
  Ba  Ba7  1  0.25495077  0.01979757  0.06606307  1
  Ba  Ba8  1  0.83694113  0.26733692  0.31412004  1
  Ba  Ba9  1  0.33694113  0.23266308  0.68587996  1
  Ba  Ba10  1  0.16305887  0.76733692  0.18587996  1
  Ba  Ba11  1  0.66305887  0.73266308  0.81412004  1
  Ba  Ba12  1  0.16305887  0.73266308  0.68587996  1
  Ba  Ba13  1  0.66305887  0.76733692  0.31412004  1
  Ba  Ba14  1  0.83694113  0.23266308  0.81412004  1
  Ba  Ba15  1  0.33694113  0.26733692  0.18587996  1
  Ge  Ge16  1  0.75509442  0.00923958  0.18795136  1
  Ge  Ge17  1  0.25509442  0.49076042  0.81204864  1
  Ge  Ge18  1  0.24490558  0.50923958  0.31204864  1
  Ge  Ge19  1  0.74490558  0.99076042  0.68795136  1
  Ge  Ge20  1  0.24490558  0.99076042  0.81204864  1
  Ge  Ge21  1  0.74490558  0.50923958  0.18795136  1
  Ge  Ge22  1  0.75509442  0.49076042  0.68795136  1
  Ge  Ge23  1  0.25509442  0.00923958  0.31204864  1
  Ge  Ge24  1  0.80597574  0.26254238  0.06278545  1
  Ge  Ge25  1  0.30597574  0.23745762  0.93721455  1
  Ge  Ge26  1  0.19402426  0.76254238  0.43721455  1
  Ge  Ge27  1  0.69402426  0.73745762  0.56278545  1
  Ge  Ge28  1  0.19402426  0.73745762  0.93721455  1
  Ge  Ge29  1  0.69402426  0.76254238  0.06278545  1
  Ge  Ge30  1  0.80597574  0.23745762  0.56278545  1
  Ge  Ge31  1  0.30597574  0.26254238  0.43721455  1
  N  N32  1  0.56408710  0.47469801  0.28128603  1
  N  N33  1  0.06408710  0.02530199  0.71871397  1
  N  N34  1  0.43591290  0.97469801  0.21871397  1
  N  N35  1  0.93591290  0.52530199  0.78128603  1
  N  N36  1  0.43591290  0.52530199  0.71871397  1
  N  N37  1  0.93591290  0.97469801  0.28128603  1
  N  N38  1  0.56408710  0.02530199  0.78128603  1
  N  N39  1  0.06408710  0.47469801  0.21871397  1
  N  N40  1  0.62037011  0.29166428  0.47506444  1
  N  N41  1  0.12037011  0.20833572  0.52493556  1
  N  N42  1  0.37962989  0.79166428  0.02493556  1
  N  N43  1  0.87962989  0.70833572  0.97506444  1
  N  N44  1  0.37962989  0.70833572  0.52493556  1
  N  N45  1  0.87962989  0.79166428  0.47506444  1
  N  N46  1  0.62037011  0.20833572  0.97506444  1
  N  N47  1  0.12037011  0.29166428  0.02493556  1
  N  N48  1  0.67786109  0.41289577  0.09655345  1
  N  N49  1  0.17786109  0.08710423  0.90344655  1
  N  N50  1  0.32213891  0.91289577  0.40344655  1
  N  N51  1  0.82213891  0.58710423  0.59655345  1
  N  N52  1  0.32213891  0.58710423  0.90344655  1
  N  N53  1  0.82213891  0.91289577  0.09655345  1
  N  N54  1  0.67786109  0.08710423  0.59655345  1
  N  N55  1  0.17786109  0.41289577  0.40344655  1
  N  N56  1  0.82576893  0.16835906  0.15742080  1
  N  N57  1  0.32576893  0.33164094  0.84257920  1
  N  N58  1  0.17423107  0.66835906  0.34257920  1
  N  N59  1  0.67423107  0.83164094  0.65742080  1
  N  N60  1  0.17423107  0.83164094  0.84257920  1
  N  N61  1  0.67423107  0.66835906  0.15742080  1
  N  N62  1  0.82576893  0.33164094  0.65742080  1
  N  N63  1  0.32576893  0.16835906  0.34257920  1
