# generated using pymatgen
data_Tm4MgCo
_symmetry_space_group_name_H-M   'P 1'
_cell_length_a   9.43855079
_cell_length_b   9.43855079
_cell_length_c   9.43855079
_cell_angle_alpha   60.00000000
_cell_angle_beta   60.00000000
_cell_angle_gamma   60.00000000
_symmetry_Int_Tables_number   1
_chemical_formula_structural   Tm4MgCo
_chemical_formula_sum   'Tm16 Mg4 Co4'
_cell_volume   594.56720935
_cell_formula_units_Z   4
loop_
 _symmetry_equiv_pos_site_id
 _symmetry_equiv_pos_as_xyz
  1  'x, y, z'
loop_
 _atom_site_type_symbol
 _atom_site_label
 _atom_site_symmetry_multiplicity
 _atom_site_fract_x
 _atom_site_fract_y
 _atom_site_fract_z
 _atom_site_occupancy
  Tm  Tm0  1  0.65572744  0.65572744  0.65572744  1
  Tm  Tm1  1  0.03281768  0.65572744  0.65572744  1
  Tm  Tm2  1  0.65572744  0.03281768  0.65572744  1
  Tm  Tm3  1  0.65572744  0.65572744  0.03281768  1
  Tm  Tm4  1  0.81404936  0.81404936  0.18595064  1
  Tm  Tm5  1  0.18595064  0.18595064  0.81404936  1
  Tm  Tm6  1  0.81404936  0.18595064  0.81404936  1
  Tm  Tm7  1  0.18595064  0.81404936  0.18595064  1
  Tm  Tm8  1  0.18595064  0.81404936  0.81404936  1
  Tm  Tm9  1  0.81404936  0.18595064  0.18595064  1
  Tm  Tm10  1  0.43757735  0.43757735  0.06242265  1
  Tm  Tm11  1  0.06242265  0.06242265  0.43757735  1
  Tm  Tm12  1  0.43757735  0.06242265  0.43757735  1
  Tm  Tm13  1  0.06242265  0.43757735  0.06242265  1
  Tm  Tm14  1  0.06242265  0.43757735  0.43757735  1
  Tm  Tm15  1  0.43757735  0.06242265  0.06242265  1
  Mg  Mg16  1  0.42065052  0.42065052  0.42065052  1
  Mg  Mg17  1  0.73804844  0.42065052  0.42065052  1
  Mg  Mg18  1  0.42065052  0.73804844  0.42065052  1
  Mg  Mg19  1  0.42065052  0.42065052  0.73804844  1
  Co  Co20  1  0.85909514  0.85909514  0.85909514  1
  Co  Co21  1  0.42271458  0.85909514  0.85909514  1
  Co  Co22  1  0.85909514  0.42271458  0.85909514  1
  Co  Co23  1  0.85909514  0.85909514  0.42271458  1
