# generated using pymatgen
data_Y4Ge(O4F)2
_symmetry_space_group_name_H-M   'P 1'
_cell_length_a   5.64553163
_cell_length_b   6.41743323
_cell_length_c   6.92104502
_cell_angle_alpha   90.27496054
_cell_angle_beta   109.78371003
_cell_angle_gamma   110.42804024
_symmetry_Int_Tables_number   1
_chemical_formula_structural   Y4Ge(O4F)2
_chemical_formula_sum   'Y4 Ge1 O8 F2'
_cell_volume   218.95051564
_cell_formula_units_Z   1
loop_
 _symmetry_equiv_pos_site_id
 _symmetry_equiv_pos_as_xyz
  1  'x, y, z'
loop_
 _atom_site_type_symbol
 _atom_site_label
 _atom_site_symmetry_multiplicity
 _atom_site_fract_x
 _atom_site_fract_y
 _atom_site_fract_z
 _atom_site_occupancy
  Y  Y0  1  0.86104253  0.71521939  0.86509759  1
  Y  Y1  1  0.12327181  0.27258675  0.13939452  1
  Y  Y2  1  0.55105087  0.94035399  0.25558753  1
  Y  Y3  1  0.44974697  0.07388569  0.74833282  1
  Ge  Ge4  1  0.09076063  0.44333983  0.63693687  1
  O  O5  1  0.93414027  0.26346574  0.39725071  1
  O  O6  1  0.10223132  0.72382276  0.64655300  1
  O  O7  1  0.51901640  0.57863157  0.21691558  1
  O  O8  1  0.41977721  0.43296280  0.75554334  1
  O  O9  1  0.15184250  0.63649634  0.16929896  1
  O  O10  1  0.89312909  0.34822289  0.80292492  1
  O  O11  1  0.73371348  0.96485824  0.01215885  1
  O  O12  1  0.25795054  0.04131309  0.98897132  1
  F  F13  1  0.64918561  0.87683883  0.59944501  1
  F  F14  1  0.35884076  0.12290208  0.40668898  1
