# generated using pymatgen
data_LuB4Ru
_symmetry_space_group_name_H-M   'P 1'
_cell_length_a   3.52037702
_cell_length_b   5.91026675
_cell_length_c   11.41777919
_cell_angle_alpha   90.00000000
_cell_angle_beta   90.00000000
_cell_angle_gamma   90.00000000
_symmetry_Int_Tables_number   1
_chemical_formula_structural   LuB4Ru
_chemical_formula_sum   'Lu4 B16 Ru4'
_cell_volume   237.56250699
_cell_formula_units_Z   4
loop_
 _symmetry_equiv_pos_site_id
 _symmetry_equiv_pos_as_xyz
  1  'x, y, z'
loop_
 _atom_site_type_symbol
 _atom_site_label
 _atom_site_symmetry_multiplicity
 _atom_site_fract_x
 _atom_site_fract_y
 _atom_site_fract_z
 _atom_site_occupancy
  Lu  Lu0  1  0.00000000  0.62971289  0.35046885  1
  Lu  Lu1  1  0.00000000  0.37028711  0.64953115  1
  Lu  Lu2  1  -0.00000000  0.12971289  0.14953115  1
  Lu  Lu3  1  0.00000000  0.87028711  0.85046885  1
  B  B4  1  0.50000000  0.79127759  0.18635078  1
  B  B5  1  0.50000000  0.20872241  0.81364922  1
  B  B6  1  0.50000000  0.29127759  0.31364922  1
  B  B7  1  0.50000000  0.70872241  0.68635078  1
  B  B8  1  0.50000000  0.86520539  0.03005096  1
  B  B9  1  0.50000000  0.13479461  0.96994904  1
  B  B10  1  0.50000000  0.36520539  0.46994904  1
  B  B11  1  0.50000000  0.63479461  0.53005096  1
  B  B12  1  0.50000000  0.88701398  0.45254990  1
  B  B13  1  0.50000000  0.11298602  0.54745010  1
  B  B14  1  0.50000000  0.38701398  0.04745010  1
  B  B15  1  0.50000000  0.61298602  0.95254990  1
  B  B16  1  0.50000000  0.97715594  0.30718835  1
  B  B17  1  0.50000000  0.02284406  0.69281165  1
  B  B18  1  0.50000000  0.47715594  0.19281165  1
  B  B19  1  0.50000000  0.52284406  0.80718835  1
  Ru  Ru20  1  -0.00000000  0.64183371  0.09347382  1
  Ru  Ru21  1  -0.00000000  0.35816629  0.90652618  1
  Ru  Ru22  1  0.00000000  0.14183371  0.40652618  1
  Ru  Ru23  1  -0.00000000  0.85816629  0.59347382  1
