# generated using pymatgen
data_ZnAg
_symmetry_space_group_name_H-M   'P 1'
_cell_length_a   2.91399659
_cell_length_b   2.91398209
_cell_length_c   4.50503988
_cell_angle_alpha   89.81613191
_cell_angle_beta   90.18386042
_cell_angle_gamma   119.98922557
_symmetry_Int_Tables_number   1
_chemical_formula_structural   ZnAg
_chemical_formula_sum   'Zn1 Ag1'
_cell_volume   33.13212936
_cell_formula_units_Z   1
loop_
 _symmetry_equiv_pos_site_id
 _symmetry_equiv_pos_as_xyz
  1  'x, y, z'
loop_
 _atom_site_type_symbol
 _atom_site_label
 _atom_site_symmetry_multiplicity
 _atom_site_fract_x
 _atom_site_fract_y
 _atom_site_fract_z
 _atom_site_occupancy
  Zn  Zn0  1  0.33333303  0.66666377  0.24999857  1
  Ag  Ag1  1  0.66666497  0.33333423  0.75000243  1
