# generated using pymatgen
data_BIr
_symmetry_space_group_name_H-M   'P 1'
_cell_length_a   3.05034497
_cell_length_b   3.05037453
_cell_length_c   2.71945093
_cell_angle_alpha   89.99149642
_cell_angle_beta   90.00850646
_cell_angle_gamma   119.99769158
_symmetry_Int_Tables_number   1
_chemical_formula_structural   BIr
_chemical_formula_sum   'B1 Ir1'
_cell_volume   21.91412210
_cell_formula_units_Z   1
loop_
 _symmetry_equiv_pos_site_id
 _symmetry_equiv_pos_as_xyz
  1  'x, y, z'
loop_
 _atom_site_type_symbol
 _atom_site_label
 _atom_site_symmetry_multiplicity
 _atom_site_fract_x
 _atom_site_fract_y
 _atom_site_fract_z
 _atom_site_occupancy
  B  B0  1  0.66667123  0.33332757  0.74999898  1
  Ir  Ir1  1  0.33332877  0.66667343  0.25000002  1
