# generated using pymatgen
data_WN
_symmetry_space_group_name_H-M   'P 1'
_cell_length_a   2.86407825
_cell_length_b   2.86407825
_cell_length_c   6.47372489
_cell_angle_alpha   77.22001346
_cell_angle_beta   77.22001346
_cell_angle_gamma   60.00001869
_symmetry_Int_Tables_number   1
_chemical_formula_structural   WN
_chemical_formula_sum   'W2 N2'
_cell_volume   44.46352241
_cell_formula_units_Z   2
loop_
 _symmetry_equiv_pos_site_id
 _symmetry_equiv_pos_as_xyz
  1  'x, y, z'
loop_
 _atom_site_type_symbol
 _atom_site_label
 _atom_site_symmetry_multiplicity
 _atom_site_fract_x
 _atom_site_fract_y
 _atom_site_fract_z
 _atom_site_occupancy
  W  W0  1  0.98727447  0.98727447  0.03817659  1
  W  W1  1  0.14374356  0.14374356  0.56876932  1
  N  N2  1  0.25225718  0.25225718  0.24322845  1
  N  N3  1  0.73672479  0.73672479  0.78982563  1
