# generated using pymatgen
data_Na4Tb2(IrO4)3
_symmetry_space_group_name_H-M   'P 1'
_cell_length_a   3.20770869
_cell_length_b   9.48117457
_cell_length_c   9.48117457
_cell_angle_alpha   119.99999602
_cell_angle_beta   90.00000000
_cell_angle_gamma   90.00000000
_symmetry_Int_Tables_number   1
_chemical_formula_structural   Na4Tb2(IrO4)3
_chemical_formula_sum   'Na4 Tb2 Ir3 O12'
_cell_volume   249.71800446
_cell_formula_units_Z   1
loop_
 _symmetry_equiv_pos_site_id
 _symmetry_equiv_pos_as_xyz
  1  'x, y, z'
loop_
 _atom_site_type_symbol
 _atom_site_label
 _atom_site_symmetry_multiplicity
 _atom_site_fract_x
 _atom_site_fract_y
 _atom_site_fract_z
 _atom_site_occupancy
  Na  Na0  1  0.50000000  0.30097966  0.30097966  1
  Na  Na1  1  0.50000000  0.00000000  0.69902034  1
  Na  Na2  1  0.50000000  0.69902034  0.00000000  1
  Na  Na3  1  -0.00000000  0.00000000  0.00000000  1
  Tb  Tb4  1  0.50000000  0.66666700  0.33333300  1
  Tb  Tb5  1  0.50000000  0.33333300  0.66666700  1
  Ir  Ir6  1  0.00000000  0.67042278  0.67042278  1
  Ir  Ir7  1  -0.00000000  1.00000000  0.32957722  1
  Ir  Ir8  1  0.00000000  0.32957722  1.00000000  1
  O  O9  1  0.50000000  0.54350573  0.54350573  1
  O  O10  1  0.50000000  0.00000000  0.45649427  1
  O  O11  1  0.50000000  0.45649427  0.00000000  1
  O  O12  1  0.50000000  0.80346691  0.80346691  1
  O  O13  1  0.50000000  1.00000000  0.19653309  1
  O  O14  1  0.50000000  0.19653309  1.00000000  1
  O  O15  1  0.00000000  0.75671806  0.21622424  1
  O  O16  1  0.00000000  0.45950618  0.24328194  1
  O  O17  1  0.00000000  0.54049382  0.78377576  1
  O  O18  1  -0.00000000  0.78377576  0.54049382  1
  O  O19  1  -0.00000000  0.21622424  0.75671806  1
  O  O20  1  0.00000000  0.24328194  0.45950618  1
