# generated using pymatgen
data_Gd2(Ga3Ir)3
_symmetry_space_group_name_H-M   'P 1'
_cell_length_a   7.60477568
_cell_length_b   7.60477568
_cell_length_c   9.55598159
_cell_angle_alpha   90.00000000
_cell_angle_beta   90.00000000
_cell_angle_gamma   119.86107657
_symmetry_Int_Tables_number   1
_chemical_formula_structural   Gd2(Ga3Ir)3
_chemical_formula_sum   'Gd4 Ga18 Ir6'
_cell_volume   479.27526263
_cell_formula_units_Z   2
loop_
 _symmetry_equiv_pos_site_id
 _symmetry_equiv_pos_as_xyz
  1  'x, y, z'
loop_
 _atom_site_type_symbol
 _atom_site_label
 _atom_site_symmetry_multiplicity
 _atom_site_fract_x
 _atom_site_fract_y
 _atom_site_fract_z
 _atom_site_occupancy
  Gd  Gd0  1  0.66807094  0.99714738  0.25000000  1
  Gd  Gd1  1  0.33192906  0.00285262  0.75000000  1
  Gd  Gd2  1  0.99714738  0.66807094  0.25000000  1
  Gd  Gd3  1  0.00285262  0.33192906  0.75000000  1
  Ga  Ga4  1  0.12557579  0.12557579  0.25000000  1
  Ga  Ga5  1  0.87442421  0.87442421  0.75000000  1
  Ga  Ga6  1  0.33398695  0.00067964  0.07633427  1
  Ga  Ga7  1  0.66601305  0.99932036  0.92366573  1
  Ga  Ga8  1  0.66601305  0.99932036  0.57633427  1
  Ga  Ga9  1  0.00067964  0.33398695  0.42366573  1
  Ga  Ga10  1  0.33398695  0.00067964  0.42366573  1
  Ga  Ga11  1  0.99932036  0.66601305  0.57633427  1
  Ga  Ga12  1  0.99932036  0.66601305  0.92366573  1
  Ga  Ga13  1  0.00067964  0.33398695  0.07633427  1
  Ga  Ga14  1  0.33392009  0.33392009  0.56049894  1
  Ga  Ga15  1  0.66607991  0.66607991  0.43950106  1
  Ga  Ga16  1  0.66607991  0.66607991  0.06049894  1
  Ga  Ga17  1  0.33392009  0.33392009  0.93950106  1
  Ga  Ga18  1  0.54572037  0.33686367  0.25000000  1
  Ga  Ga19  1  0.45427963  0.66313633  0.75000000  1
  Ga  Ga20  1  0.33686367  0.54572037  0.25000000  1
  Ga  Ga21  1  0.66313633  0.45427963  0.75000000  1
  Ir  Ir22  1  0.32857970  0.67142030  -0.00000000  1
  Ir  Ir23  1  0.67142030  0.32857970  -0.00000000  1
  Ir  Ir24  1  0.67142030  0.32857970  0.50000000  1
  Ir  Ir25  1  0.32857970  0.67142030  0.50000000  1
  Ir  Ir26  1  0.00000000  0.00000000  -0.00000000  1
  Ir  Ir27  1  0.00000000  0.00000000  0.50000000  1
