# generated using pymatgen
data_AsRhSe
_symmetry_space_group_name_H-M   'P 1'
_cell_length_a   6.01289419
_cell_length_b   6.01289419
_cell_length_c   6.01289419
_cell_angle_alpha   90.00000000
_cell_angle_beta   90.00000000
_cell_angle_gamma   90.00000000
_symmetry_Int_Tables_number   1
_chemical_formula_structural   AsRhSe
_chemical_formula_sum   'As4 Rh4 Se4'
_cell_volume   217.39556735
_cell_formula_units_Z   4
loop_
 _symmetry_equiv_pos_site_id
 _symmetry_equiv_pos_as_xyz
  1  'x, y, z'
loop_
 _atom_site_type_symbol
 _atom_site_label
 _atom_site_symmetry_multiplicity
 _atom_site_fract_x
 _atom_site_fract_y
 _atom_site_fract_z
 _atom_site_occupancy
  As  As0  1  0.88046536  0.38046536  0.11953464  1
  As  As1  1  0.38046536  0.11953464  0.88046536  1
  As  As2  1  0.11953464  0.88046536  0.38046536  1
  As  As3  1  0.61953464  0.61953464  0.61953464  1
  Rh  Rh4  1  0.49508142  0.99508142  0.50491858  1
  Rh  Rh5  1  0.99508142  0.50491858  0.49508142  1
  Rh  Rh6  1  0.50491858  0.49508142  0.99508142  1
  Rh  Rh7  1  0.00491858  0.00491858  0.00491858  1
  Se  Se8  1  0.11757516  0.61757516  0.88242484  1
  Se  Se9  1  0.61757516  0.88242484  0.11757516  1
  Se  Se10  1  0.88242484  0.11757516  0.61757516  1
  Se  Se11  1  0.38242484  0.38242484  0.38242484  1
