# generated using pymatgen
data_LaIn2Cu9
_symmetry_space_group_name_H-M   'P 1'
_cell_length_a   5.04648266
_cell_length_b   8.51858850
_cell_length_c   8.51858850
_cell_angle_alpha   90.00000000
_cell_angle_beta   90.00000000
_cell_angle_gamma   90.00000000
_symmetry_Int_Tables_number   1
_chemical_formula_structural   LaIn2Cu9
_chemical_formula_sum   'La2 In4 Cu18'
_cell_volume   366.20482714
_cell_formula_units_Z   2
loop_
 _symmetry_equiv_pos_site_id
 _symmetry_equiv_pos_as_xyz
  1  'x, y, z'
loop_
 _atom_site_type_symbol
 _atom_site_label
 _atom_site_symmetry_multiplicity
 _atom_site_fract_x
 _atom_site_fract_y
 _atom_site_fract_z
 _atom_site_occupancy
  La  La0  1  0.00000000  -0.00000000  -0.00000000  1
  La  La1  1  0.00000000  0.50000000  0.50000000  1
  In  In2  1  0.00000000  0.62249381  0.12249381  1
  In  In3  1  0.00000000  0.37750619  0.87750619  1
  In  In4  1  0.00000000  0.87750619  0.62249381  1
  In  In5  1  0.00000000  0.12249381  0.37750619  1
  Cu  Cu6  1  0.50000000  0.00000000  0.50000000  1
  Cu  Cu7  1  0.50000000  0.50000000  -0.00000000  1
  Cu  Cu8  1  0.50000000  0.06434845  0.20760982  1
  Cu  Cu9  1  0.50000000  0.93565155  0.79239018  1
  Cu  Cu10  1  0.50000000  0.79239018  0.06434845  1
  Cu  Cu11  1  0.50000000  0.43565155  0.70760982  1
  Cu  Cu12  1  0.50000000  0.20760982  0.93565155  1
  Cu  Cu13  1  0.50000000  0.56434845  0.29239018  1
  Cu  Cu14  1  0.50000000  0.70760982  0.56434845  1
  Cu  Cu15  1  0.50000000  0.29239018  0.43565155  1
  Cu  Cu16  1  0.24657887  0.17655661  0.67655661  1
  Cu  Cu17  1  0.75342113  0.82344339  0.32344339  1
  Cu  Cu18  1  0.24657887  0.82344339  0.32344339  1
  Cu  Cu19  1  0.24657887  0.32344339  0.17655661  1
  Cu  Cu20  1  0.75342113  0.32344339  0.17655661  1
  Cu  Cu21  1  0.75342113  0.17655661  0.67655661  1
  Cu  Cu22  1  0.75342113  0.67655661  0.82344339  1
  Cu  Cu23  1  0.24657887  0.67655661  0.82344339  1
