# generated using pymatgen
data_Hf2Sb2Pb4O13
_symmetry_space_group_name_H-M   'P 1'
_cell_length_a   7.60716087
_cell_length_b   7.62408087
_cell_length_c   7.59463537
_cell_angle_alpha   90.00000000
_cell_angle_beta   60.05445221
_cell_angle_gamma   120.07360396
_symmetry_Int_Tables_number   1
_chemical_formula_structural   Hf2Sb2Pb4O13
_chemical_formula_sum   'Hf2 Sb2 Pb4 O13'
_cell_volume   311.36924558
_cell_formula_units_Z   1
loop_
 _symmetry_equiv_pos_site_id
 _symmetry_equiv_pos_as_xyz
  1  'x, y, z'
loop_
 _atom_site_type_symbol
 _atom_site_label
 _atom_site_symmetry_multiplicity
 _atom_site_fract_x
 _atom_site_fract_y
 _atom_site_fract_z
 _atom_site_occupancy
  Hf  Hf0  1  0.50074443  0.00117427  0.49962778  1
  Hf  Hf1  1  0.50074443  0.49957016  0.49962778  1
  Sb  Sb2  1  0.99956768  0.49978384  0.00083101  1
  Sb  Sb3  1  0.99956768  0.49978384  0.49960131  1
  Pb  Pb4  1  0.50028470  0.50096386  0.99985765  1
  Pb  Pb5  1  0.50028470  0.99932084  0.99985765  1
  Pb  Pb6  1  0.99882085  0.99941042  0.50003667  1
  Pb  Pb7  1  0.99882085  0.99941042  0.00114248  1
  O  O8  1  0.65484969  0.82742484  0.42257516  1
  O  O9  1  0.85988137  0.42994068  0.82005932  1
  O  O10  1  0.24619519  0.81385896  0.82950305  1
  O  O11  1  0.24619519  0.43233624  0.42430175  1
  O  O12  1  0.24619519  0.43233624  0.82950305  1
  O  O13  1  0.24619519  0.81385896  0.42430175  1
  O  O14  1  0.35154032  0.17577016  0.57422984  1
  O  O15  1  0.13622226  0.56811113  0.18188887  1
  O  O16  1  0.75234018  0.18781515  0.17367858  1
  O  O17  1  0.75234018  0.56452503  0.57398124  1
  O  O18  1  0.75234018  0.56452503  0.17367858  1
  O  O19  1  0.75234018  0.18781515  0.57398124  1
  O  O20  1  0.25452953  0.12726477  0.12273523  1
