# generated using pymatgen
data_PrP5O14
_symmetry_space_group_name_H-M   'P 1'
_cell_length_a   8.93033062
_cell_length_b   9.21727633
_cell_length_c   13.22445898
_cell_angle_alpha   90.00000000
_cell_angle_beta   90.27821690
_cell_angle_gamma   90.00000000
_symmetry_Int_Tables_number   1
_chemical_formula_structural   PrP5O14
_chemical_formula_sum   'Pr4 P20 O56'
_cell_volume   1088.53635783
_cell_formula_units_Z   4
loop_
 _symmetry_equiv_pos_site_id
 _symmetry_equiv_pos_as_xyz
  1  'x, y, z'
loop_
 _atom_site_type_symbol
 _atom_site_label
 _atom_site_symmetry_multiplicity
 _atom_site_fract_x
 _atom_site_fract_y
 _atom_site_fract_z
 _atom_site_occupancy
  O  O0  1  0.58145506  0.61522683  0.87625722  1
  O  O1  1  0.41854494  0.11522683  0.62374278  1
  O  O2  1  0.41854494  0.38477317  0.12374278  1
  O  O3  1  0.58145506  0.88477317  0.37625722  1
  O  O4  1  0.42054064  0.38019764  0.88061088  1
  O  O5  1  0.57945936  0.88019764  0.61938912  1
  O  O6  1  0.57945936  0.61980236  0.11938912  1
  O  O7  1  0.42054064  0.11980236  0.38061088  1
  O  O8  1  0.37526395  0.58055691  0.75011580  1
  O  O9  1  0.62473605  0.08055691  0.74988420  1
  O  O10  1  0.62473605  0.41944309  0.24988420  1
  O  O11  1  0.37526395  0.91944309  0.25011580  1
  O  O12  1  0.27509694  0.40666508  0.61147021  1
  O  O13  1  0.72490306  0.90666508  0.88852979  1
  O  O14  1  0.72490306  0.59333492  0.38852979  1
  O  O15  1  0.27509694  0.09333492  0.11147021  1
  O  O16  1  0.27922848  0.68662399  0.59652015  1
  O  O17  1  0.72077152  0.18662399  0.90347985  1
  O  O18  1  0.72077152  0.31337601  0.40347985  1
  O  O19  1  0.21413255  0.58852203  0.99975809  1
  O  O20  1  0.27922848  0.81337601  0.09652015  1
  O  O21  1  0.96858313  0.31027310  0.50314613  1
  O  O22  1  0.96858313  0.18972690  0.00314613  1
  O  O23  1  0.03141687  0.68972690  0.49685387  1
  O  O24  1  0.08487726  0.11517959  0.35017436  1
  O  O25  1  0.91512274  0.61517959  0.14982564  1
  O  O26  1  0.91512274  0.88482041  0.64982564  1
  O  O27  1  0.08487726  0.38482041  0.85017436  1
  O  O28  1  0.08708054  0.11402616  0.65052033  1
  O  O29  1  0.91291946  0.61402616  0.84947967  1
  O  O30  1  0.91291946  0.88597384  0.34947967  1
  O  O31  1  0.08708054  0.38597384  0.15052033  1
  O  O32  1  0.88014816  0.09119326  0.22274491  1
  O  O33  1  0.11985184  0.59119326  0.27725509  1
  O  O34  1  0.11985184  0.90880674  0.77725509  1
  O  O35  1  0.88014816  0.40880674  0.72274491  1
  O  O36  1  0.09942386  0.92298452  0.21249188  1
  O  O37  1  0.90057614  0.42298452  0.28750812  1
  O  O38  1  0.90057614  0.07701548  0.78750812  1
  O  O39  1  0.09942386  0.57701548  0.71249188  1
  O  O40  1  0.73081065  0.90548457  0.11411072  1
  O  O41  1  0.26918935  0.40548457  0.38588928  1
  O  O42  1  0.26918935  0.09451543  0.88588928  1
  O  O43  1  0.73081065  0.59451543  0.61411072  1
  O  O44  1  0.71200120  0.18373560  0.09066249  1
  O  O45  1  0.28799880  0.68373560  0.40933751  1
  O  O46  1  0.28799880  0.81626440  0.90933751  1
  O  O47  1  0.71200120  0.31626440  0.59066249  1
  O  O48  1  0.60031095  0.08113691  0.23898975  1
  O  O49  1  0.39968905  0.58113691  0.26101025  1
  O  O50  1  0.39968905  0.91886309  0.76101025  1
  O  O51  1  0.60031095  0.41886309  0.73898975  1
  O  O52  1  0.21413255  0.91147797  0.49975809  1
  O  O53  1  0.78586745  0.41147797  0.00024191  1
  O  O54  1  0.78586745  0.08852203  0.50024191  1
  O  O55  1  0.03141687  0.81027310  0.99685387  1
  P  P56  1  0.49623816  0.49851476  0.82392444  1
  P  P57  1  0.50376184  0.99851476  0.67607556  1
  P  P58  1  0.50376184  0.50148524  0.17607556  1
  P  P59  1  0.49623816  0.00148524  0.32392444  1
  P  P60  1  0.25773572  0.54696536  0.66405464  1
  P  P61  1  0.74226428  0.04696536  0.83594536  1
  P  P62  1  0.74226428  0.45303464  0.33594536  1
  P  P63  1  0.25773572  0.95303464  0.16405464  1
  P  P64  1  0.18526513  0.74731686  0.99998105  1
  P  P65  1  0.81473487  0.24731686  0.50001895  1
  P  P66  1  0.81473487  0.25268314  0.00001895  1
  P  P67  1  0.18526513  0.75268314  0.49998105  1
  P  P68  1  0.73197293  0.45079111  0.66327885  1
  P  P69  1  0.26802707  0.95079111  0.83672115  1
  P  P70  1  0.26802707  0.54920889  0.33672115  1
  P  P71  1  0.73197293  0.04920889  0.16327885  1
  P  P72  1  0.99532088  0.49688069  0.79619163  1
  P  P73  1  0.00467912  0.99688069  0.70380837  1
  P  P74  1  0.00467912  0.50311931  0.20380837  1
  P  P75  1  0.99532088  0.00311931  0.29619163  1
  Pr  Pr76  1  0.22422754  0.31194085  0.00070703  1
  Pr  Pr77  1  0.77577246  0.81194085  0.49929297  1
  Pr  Pr78  1  0.77577246  0.68805915  0.99929297  1
  Pr  Pr79  1  0.22422754  0.18805915  0.50070703  1
