# generated using pymatgen
data_NaSrAlF6
_symmetry_space_group_name_H-M   'P 1'
_cell_length_a   5.40400591
_cell_length_b   9.52999115
_cell_length_c   18.61233556
_cell_angle_alpha   90.00000000
_cell_angle_beta   90.00000000
_cell_angle_gamma   90.00000000
_symmetry_Int_Tables_number   1
_chemical_formula_structural   NaSrAlF6
_chemical_formula_sum   'Na8 Sr8 Al8 F48'
_cell_volume   958.53767297
_cell_formula_units_Z   8
loop_
 _symmetry_equiv_pos_site_id
 _symmetry_equiv_pos_as_xyz
  1  'x, y, z'
loop_
 _atom_site_type_symbol
 _atom_site_label
 _atom_site_symmetry_multiplicity
 _atom_site_fract_x
 _atom_site_fract_y
 _atom_site_fract_z
 _atom_site_occupancy
  F  F0  1  0.46788124  0.17416702  0.17918736  1
  F  F1  1  0.53211876  0.67416702  0.82081264  1
  F  F2  1  0.03211876  0.17416702  0.67918736  1
  F  F3  1  0.96788124  0.67416702  0.32081264  1
  F  F4  1  0.55150962  0.46310614  0.07632021  1
  F  F5  1  0.44849038  0.96310614  0.92367979  1
  F  F6  1  0.94849038  0.46310614  0.57632021  1
  F  F7  1  0.05150962  0.96310614  0.42367979  1
  F  F8  1  0.98637562  0.14923944  0.20784572  1
  F  F9  1  0.01362438  0.64923944  0.79215428  1
  F  F10  1  0.51362438  0.14923944  0.70784572  1
  F  F11  1  0.48637562  0.64923944  0.29215428  1
  F  F12  1  0.33094140  0.74930701  0.43318368  1
  F  F13  1  0.66905860  0.24930701  0.56681632  1
  F  F14  1  0.16905860  0.74930701  0.93318368  1
  F  F15  1  0.83094140  0.24930701  0.06681632  1
  F  F16  1  0.31395696  0.10133045  0.30849111  1
  F  F17  1  0.32058227  0.04012231  0.05450956  1
  F  F18  1  0.68604304  0.60133045  0.69150889  1
  F  F19  1  0.81395696  0.60133045  0.19150889  1
  F  F20  1  0.52908490  0.99367348  0.46007770  1
  F  F21  1  0.47091510  0.49367348  0.53992230  1
  F  F22  1  0.97091510  0.99367348  0.96007770  1
  F  F23  1  0.02908490  0.49367348  0.03992230  1
  F  F24  1  0.00178050  0.83949567  0.21117334  1
  F  F25  1  0.99821950  0.33949567  0.78882666  1
  F  F26  1  0.49821950  0.83949567  0.71117334  1
  F  F27  1  0.50178050  0.33949567  0.28882666  1
  F  F28  1  0.19526796  0.39072291  0.18408447  1
  F  F29  1  0.80473204  0.89072291  0.81591553  1
  F  F30  1  0.30473204  0.39072291  0.68408447  1
  F  F31  1  0.69526796  0.89072291  0.31591553  1
  F  F32  1  0.53291591  0.82189488  0.18989334  1
  F  F33  1  0.46708409  0.32189488  0.81010666  1
  F  F34  1  0.96708409  0.82189488  0.68989334  1
  F  F35  1  0.03291591  0.32189488  0.31010666  1
  F  F36  1  0.02934548  0.82249000  0.06084245  1
  F  F37  1  0.97065452  0.32249000  0.93915755  1
  F  F38  1  0.47065452  0.82249000  0.56084245  1
  F  F39  1  0.52934548  0.32249000  0.43915755  1
  F  F40  1  0.99018457  0.29699051  0.46467161  1
  F  F41  1  0.00981543  0.79699051  0.53532839  1
  F  F42  1  0.50981543  0.29699051  0.96467161  1
  F  F43  1  0.49018457  0.79699051  0.03532839  1
  F  F44  1  0.82058227  0.54012231  0.44549044  1
  F  F45  1  0.17941773  0.04012231  0.55450956  1
  F  F46  1  0.67941773  0.54012231  0.94549044  1
  F  F47  1  0.18604304  0.10133045  0.80849111  1
  Na  Na48  1  0.25557090  0.86814895  0.31316052  1
  Na  Na49  1  0.74442910  0.36814895  0.68683948  1
  Na  Na50  1  0.24442910  0.86814895  0.81316052  1
  Na  Na51  1  0.75557090  0.36814895  0.18683948  1
  Na  Na52  1  0.76015754  0.77258393  0.43337284  1
  Na  Na53  1  0.23984246  0.27258393  0.56662716  1
  Na  Na54  1  0.73984246  0.77258393  0.93337284  1
  Na  Na55  1  0.26015754  0.27258393  0.06662716  1
  Al  Al56  1  0.24129021  0.89919527  0.99335138  1
  Al  Al57  1  0.75870979  0.39919527  0.00664862  1
  Al  Al58  1  0.25870979  0.89919527  0.49335138  1
  Al  Al59  1  0.74129021  0.39919527  0.50664862  1
  Al  Al60  1  0.75185551  0.74134818  0.25470250  1
  Al  Al61  1  0.24814449  0.24134818  0.74529750  1
  Al  Al62  1  0.74814449  0.74134818  0.75470250  1
  Al  Al63  1  0.25185551  0.24134818  0.24529750  1
  Sr  Sr64  1  0.24798439  0.63991049  0.13272906  1
  Sr  Sr65  1  0.75201561  0.13991049  0.86727094  1
  Sr  Sr66  1  0.25201561  0.63991049  0.63272906  1
  Sr  Sr67  1  0.74798439  0.13991049  0.36727094  1
  Sr  Sr68  1  0.24875285  0.50247337  0.38371618  1
  Sr  Sr69  1  0.75124715  0.00247337  0.61628382  1
  Sr  Sr70  1  0.25124715  0.50247337  0.88371618  1
  Sr  Sr71  1  0.74875285  0.00247337  0.11628382  1
