# generated using pymatgen
data_Rb9Fe2S7
_symmetry_space_group_name_H-M   'P 1'
_cell_length_a   13.27098677
_cell_length_b   13.27098677
_cell_length_c   13.27098677
_cell_angle_alpha   90.00000000
_cell_angle_beta   90.00000000
_cell_angle_gamma   90.00000000
_symmetry_Int_Tables_number   1
_chemical_formula_structural   Rb9Fe2S7
_chemical_formula_sum   'Rb36 Fe8 S28'
_cell_volume   2337.27411134
_cell_formula_units_Z   4
loop_
 _symmetry_equiv_pos_site_id
 _symmetry_equiv_pos_as_xyz
  1  'x, y, z'
loop_
 _atom_site_type_symbol
 _atom_site_label
 _atom_site_symmetry_multiplicity
 _atom_site_fract_x
 _atom_site_fract_y
 _atom_site_fract_z
 _atom_site_occupancy
  S  S0  1  0.20202033  0.29797967  0.70202033  1
  S  S1  1  0.29797967  0.70202033  0.20202033  1
  S  S2  1  0.70202033  0.20202033  0.29797967  1
  S  S3  1  0.79797967  0.79797967  0.79797967  1
  S  S4  1  0.42145841  0.94796366  0.81324198  1
  S  S5  1  0.92145841  0.55203634  0.18675802  1
  S  S6  1  0.57854159  0.44796366  0.68675802  1
  S  S7  1  0.55203634  0.18675802  0.92145841  1
  S  S8  1  0.68675802  0.57854159  0.44796366  1
  S  S9  1  0.18675802  0.92145841  0.55203634  1
  S  S10  1  0.94796366  0.81324198  0.42145841  1
  S  S11  1  0.81324198  0.42145841  0.94796366  1
  S  S12  1  0.44796366  0.68675802  0.57854159  1
  S  S13  1  0.05203634  0.31324198  0.07854159  1
  S  S14  1  0.31324198  0.07854159  0.05203634  1
  S  S15  1  0.07854159  0.05203634  0.31324198  1
  S  S16  1  0.58877169  0.93701546  0.33693298  1
  S  S17  1  0.08877169  0.56298454  0.66306702  1
  S  S18  1  0.91122831  0.06298454  0.83693298  1
  S  S19  1  0.56298454  0.66306702  0.08877169  1
  S  S20  1  0.16306702  0.41122831  0.43701546  1
  S  S21  1  0.66306702  0.08877169  0.56298454  1
  S  S22  1  0.93701546  0.33693298  0.58877169  1
  S  S23  1  0.33693298  0.58877169  0.93701546  1
  S  S24  1  0.43701546  0.16306702  0.41122831  1
  S  S25  1  0.06298454  0.83693298  0.91122831  1
  S  S26  1  0.83693298  0.91122831  0.06298454  1
  S  S27  1  0.41122831  0.43701546  0.16306702  1
  Fe  Fe28  1  0.09939167  0.40060833  0.59939167  1
  Fe  Fe29  1  0.40060833  0.59939167  0.09939167  1
  Fe  Fe30  1  0.59939167  0.09939167  0.40060833  1
  Fe  Fe31  1  0.90060833  0.90060833  0.90060833  1
  Fe  Fe32  1  0.42757596  0.07242404  0.92757596  1
  Fe  Fe33  1  0.07242404  0.92757596  0.42757596  1
  Fe  Fe34  1  0.92757596  0.42757596  0.07242404  1
  Fe  Fe35  1  0.57242404  0.57242404  0.57242404  1
  Rb  Rb36  1  0.95654958  0.29042401  0.32418380  1
  Rb  Rb37  1  0.55811432  0.44188568  0.94188568  1
  Rb  Rb38  1  0.44188568  0.94188568  0.55811432  1
  Rb  Rb39  1  0.05811432  0.05811432  0.05811432  1
  Rb  Rb40  1  0.76443669  0.73556331  0.26443669  1
  Rb  Rb41  1  0.73556331  0.26443669  0.76443669  1
  Rb  Rb42  1  0.26443669  0.76443669  0.73556331  1
  Rb  Rb43  1  0.23556331  0.23556331  0.23556331  1
  Rb  Rb44  1  0.58609401  0.91390599  0.08609401  1
  Rb  Rb45  1  0.91390599  0.08609401  0.58609401  1
  Rb  Rb46  1  0.08609401  0.58609401  0.91390599  1
  Rb  Rb47  1  0.41390599  0.41390599  0.41390599  1
  Rb  Rb48  1  0.32418380  0.95654958  0.29042401  1
  Rb  Rb49  1  0.82418380  0.54345042  0.70957599  1
  Rb  Rb50  1  0.67581620  0.45654958  0.20957599  1
  Rb  Rb51  1  0.54345042  0.70957599  0.82418380  1
  Rb  Rb52  1  0.20957599  0.67581620  0.45654958  1
  Rb  Rb53  1  0.70957599  0.82418380  0.54345042  1
  Rb  Rb54  1  0.94188568  0.55811432  0.44188568  1
  Rb  Rb55  1  0.29042401  0.32418380  0.95654958  1
  Rb  Rb56  1  0.45654958  0.20957599  0.67581620  1
  Rb  Rb57  1  0.04345042  0.79042401  0.17581620  1
  Rb  Rb58  1  0.79042401  0.17581620  0.04345042  1
  Rb  Rb59  1  0.17581620  0.04345042  0.79042401  1
  Rb  Rb60  1  0.66630346  0.99910239  0.79779979  1
  Rb  Rb61  1  0.16630346  0.50089761  0.20220021  1
  Rb  Rb62  1  0.33369654  0.49910239  0.70220021  1
  Rb  Rb63  1  0.50089761  0.20220021  0.16630346  1
  Rb  Rb64  1  0.70220021  0.33369654  0.49910239  1
  Rb  Rb65  1  0.20220021  0.16630346  0.50089761  1
  Rb  Rb66  1  0.99910239  0.79779979  0.66630346  1
  Rb  Rb67  1  0.79779979  0.66630346  0.99910239  1
  Rb  Rb68  1  0.49910239  0.70220021  0.33369654  1
  Rb  Rb69  1  0.00089761  0.29779979  0.83369654  1
  Rb  Rb70  1  0.29779979  0.83369654  0.00089761  1
  Rb  Rb71  1  0.83369654  0.00089761  0.29779979  1
