# generated using pymatgen
data_NaZnAsO4
_symmetry_space_group_name_H-M   'P 1'
_cell_length_a   8.41876701
_cell_length_b   9.10296939
_cell_length_c   15.97420547
_cell_angle_alpha   90.20761148
_cell_angle_beta   90.00000000
_cell_angle_gamma   90.00000000
_symmetry_Int_Tables_number   1
_chemical_formula_structural   NaZnAsO4
_chemical_formula_sum   'Na12 Zn12 As12 O48'
_cell_volume   1224.18763396
_cell_formula_units_Z   12
loop_
 _symmetry_equiv_pos_site_id
 _symmetry_equiv_pos_as_xyz
  1  'x, y, z'
loop_
 _atom_site_type_symbol
 _atom_site_label
 _atom_site_symmetry_multiplicity
 _atom_site_fract_x
 _atom_site_fract_y
 _atom_site_fract_z
 _atom_site_occupancy
  O  O0  1  0.75747717  0.76873439  0.29657623  1
  O  O1  1  0.25747717  0.73126561  0.20342377  1
  O  O2  1  0.24252283  0.23126561  0.70342377  1
  O  O3  1  0.74252283  0.26873439  0.79657623  1
  O  O4  1  0.75461279  0.07559876  0.29429730  1
  O  O5  1  0.25461279  0.42440124  0.20570270  1
  O  O6  1  0.24538721  0.92440124  0.70570270  1
  O  O7  1  0.74538721  0.57559876  0.79429730  1
  O  O8  1  0.76644930  0.92067778  0.48317715  1
  O  O9  1  0.26644930  0.57932222  0.01682285  1
  O  O10  1  0.23355070  0.07932222  0.51682285  1
  O  O11  1  0.73355070  0.42067778  0.98317715  1
  O  O12  1  0.77488554  0.26587980  0.13301496  1
  O  O13  1  0.27488554  0.23412020  0.36698504  1
  O  O14  1  0.22511446  0.73412020  0.86698504  1
  O  O15  1  0.72511446  0.76587980  0.63301496  1
  O  O16  1  0.44928146  0.97383871  0.39361832  1
  O  O17  1  0.94928146  0.52616129  0.10638168  1
  O  O18  1  0.55071854  0.02616129  0.60638168  1
  O  O19  1  0.05071854  0.47383871  0.89361832  1
  O  O20  1  0.54359709  0.82253401  0.95277940  1
  O  O21  1  0.12828120  0.95574842  0.36111700  1
  O  O22  1  0.87171880  0.04425158  0.63888300  1
  O  O23  1  0.37171880  0.45574842  0.86111700  1
  O  O24  1  0.63367943  0.26705519  0.44999537  1
  O  O25  1  0.13367943  0.23294481  0.05000463  1
  O  O26  1  0.36632057  0.73294481  0.55000463  1
  O  O27  1  0.86632057  0.76705519  0.94999537  1
  O  O28  1  0.27967967  0.08797100  0.18688028  1
  O  O29  1  0.77967967  0.41202900  0.31311972  1
  O  O30  1  0.72032033  0.91202900  0.81311972  1
  O  O31  1  0.22032033  0.58797100  0.68688028  1
  O  O32  1  0.76102831  0.06088025  0.96653005  1
  O  O33  1  0.26102831  0.43911975  0.53346995  1
  O  O34  1  0.23897169  0.93911975  0.03346995  1
  O  O35  1  0.73897169  0.56088025  0.46653005  1
  O  O36  1  0.86109933  0.42298945  0.65208088  1
  O  O37  1  0.36109933  0.07701055  0.84791912  1
  O  O38  1  0.13890067  0.57701055  0.34791912  1
  O  O39  1  0.63890067  0.92298945  0.15208088  1
  O  O40  1  0.54109930  0.42859784  0.68492834  1
  O  O41  1  0.04109930  0.07140216  0.81507166  1
  O  O42  1  0.45890070  0.57140216  0.31507166  1
  O  O43  1  0.95890070  0.92859784  0.18492834  1
  O  O44  1  0.95640291  0.32253401  0.45277940  1
  O  O45  1  0.45640291  0.17746599  0.04722060  1
  O  O46  1  0.04359709  0.67746599  0.54722060  1
  O  O47  1  0.62828120  0.54425158  0.13888300  1
  Na  Na48  1  0.03043076  0.77287913  0.07036905  1
  Na  Na49  1  0.53043076  0.72712087  0.42963095  1
  Na  Na50  1  0.96956924  0.22712087  0.92963095  1
  Na  Na51  1  0.46956924  0.27287913  0.57036905  1
  Na  Na52  1  0.46277259  0.73610949  0.08803794  1
  Na  Na53  1  0.96277259  0.76389051  0.41196206  1
  Na  Na54  1  0.53722741  0.26389051  0.91196206  1
  Na  Na55  1  0.03722741  0.23610949  0.58803794  1
  Na  Na56  1  0.45950285  0.25670880  0.25480355  1
  Na  Na57  1  0.95950285  0.24329120  0.24519645  1
  Na  Na58  1  0.54049715  0.74329120  0.74519645  1
  Na  Na59  1  0.04049715  0.75670880  0.75480355  1
  Zn  Zn60  1  0.66313301  0.06470404  0.40785955  1
  Zn  Zn61  1  0.16313301  0.43529596  0.09214045  1
  Zn  Zn62  1  0.33686699  0.93529596  0.59214045  1
  Zn  Zn63  1  0.83686699  0.56470404  0.90785955  1
  Zn  Zn64  1  0.66686072  0.09676945  0.07930476  1
  Zn  Zn65  1  0.16686072  0.40323055  0.42069524  1
  Zn  Zn66  1  0.33313928  0.90323055  0.92069524  1
  Zn  Zn67  1  0.83313928  0.59676945  0.57930476  1
  Zn  Zn68  1  0.17054193  0.92117217  0.24136098  1
  Zn  Zn69  1  0.67054193  0.57882783  0.25863902  1
  Zn  Zn70  1  0.82945807  0.07882783  0.75863902  1
  Zn  Zn71  1  0.32945807  0.42117217  0.74136098  1
  As  As72  1  0.27065034  0.06113007  0.41087686  1
  As  As73  1  0.77065034  0.43886993  0.08912314  1
  As  As74  1  0.72934966  0.93886993  0.58912314  1
  As  As75  1  0.22934966  0.56113007  0.91087686  1
  As  As76  1  0.72320263  0.89224910  0.92053227  1
  As  As77  1  0.22320263  0.60775090  0.57946773  1
  As  As78  1  0.27679737  0.10775090  0.07946773  1
  As  As79  1  0.77679737  0.39224910  0.42053227  1
  As  As80  1  0.77554002  0.92032730  0.23270506  1
  As  As81  1  0.27554002  0.57967270  0.26729494  1
  As  As82  1  0.22445998  0.07967270  0.76729494  1
  As  As83  1  0.72445998  0.42032730  0.73270506  1
