# generated using pymatgen
data_Nd2Au5F21
_symmetry_space_group_name_H-M   'P 1'
_cell_length_a   8.44915163
_cell_length_b   8.44915163
_cell_length_c   26.36171032
_cell_angle_alpha   90.00000000
_cell_angle_beta   90.00000000
_cell_angle_gamma   90.00000000
_symmetry_Int_Tables_number   1
_chemical_formula_structural   Nd2Au5F21
_chemical_formula_sum   'Nd8 Au20 F84'
_cell_volume   1881.91408031
_cell_formula_units_Z   4
loop_
 _symmetry_equiv_pos_site_id
 _symmetry_equiv_pos_as_xyz
  1  'x, y, z'
loop_
 _atom_site_type_symbol
 _atom_site_label
 _atom_site_symmetry_multiplicity
 _atom_site_fract_x
 _atom_site_fract_y
 _atom_site_fract_z
 _atom_site_occupancy
  F  F0  1  0.59328339  0.78140951  0.80462160  1
  F  F1  1  0.40671661  0.21859049  0.30462160  1
  F  F2  1  0.78140951  0.59328339  0.19537840  1
  F  F3  1  0.28140951  0.90671661  0.55462160  1
  F  F4  1  0.71859049  0.09328339  0.05462160  1
  F  F5  1  0.90671661  0.28140951  0.44537840  1
  F  F6  1  0.09328339  0.71859049  0.94537840  1
  F  F7  1  0.21859049  0.40671661  0.69537840  1
  F  F8  1  0.03993648  0.68680836  0.45595967  1
  F  F9  1  0.96006352  0.31319164  0.95595967  1
  F  F10  1  0.68680836  0.03993648  0.54404033  1
  F  F11  1  0.18680836  0.46006352  0.20595967  1
  F  F12  1  0.81319164  0.53993648  0.70595967  1
  F  F13  1  0.46006352  0.18680836  0.79404033  1
  F  F14  1  0.53993648  0.81319164  0.29404033  1
  F  F15  1  0.31319164  0.96006352  0.04404033  1
  F  F16  1  0.90774903  0.80575782  0.36797963  1
  F  F17  1  0.09225097  0.19424218  0.86797963  1
  F  F18  1  0.80575782  0.90774903  0.63202037  1
  F  F19  1  0.30575782  0.59225097  0.11797963  1
  F  F20  1  0.69424218  0.40774903  0.61797963  1
  F  F21  1  0.59225097  0.30575782  0.88202037  1
  F  F22  1  0.40774903  0.69424218  0.38202037  1
  F  F23  1  0.19424218  0.09225097  0.13202037  1
  F  F24  1  0.93781855  0.29445318  0.75203920  1
  F  F25  1  0.06218145  0.70554682  0.25203920  1
  F  F26  1  0.29445318  0.93781855  0.24796080  1
  F  F27  1  0.20554682  0.43781855  0.00203920  1
  F  F28  1  0.79445318  0.56218145  0.50203920  1
  F  F29  1  0.06746966  0.67731520  0.66486309  1
  F  F30  1  0.93253034  0.32268480  0.16486309  1
  F  F31  1  0.67731520  0.06746966  0.33513691  1
  F  F32  1  0.32268480  0.93253034  0.83513691  1
  F  F33  1  0.82268480  0.56746966  0.91486309  1
  F  F34  1  0.43253034  0.17731520  0.58513691  1
  F  F35  1  0.56746966  0.82268480  0.08513691  1
  F  F36  1  0.91406611  0.30003396  0.33913886  1
  F  F37  1  0.19996604  0.41406611  0.58913886  1
  F  F38  1  0.80003396  0.58593389  0.08913886  1
  F  F39  1  0.41406611  0.19996604  0.41086114  1
  F  F40  1  0.58593389  0.80003396  0.91086114  1
  F  F41  1  0.08593389  0.69996604  0.83913886  1
  F  F42  1  0.30003396  0.91406611  0.66086114  1
  F  F43  1  0.69996604  0.08593389  0.16086114  1
  F  F44  1  0.44927958  0.17467896  0.68961611  1
  F  F45  1  0.32532104  0.94927958  0.93961611  1
  F  F46  1  0.67467896  0.05072042  0.43961611  1
  F  F47  1  0.94927958  0.32532104  0.06038389  1
  F  F48  1  0.05072042  0.67467896  0.56038389  1
  F  F49  1  0.55072042  0.82532104  0.18961611  1
  F  F50  1  0.17467896  0.44927958  0.31038389  1
  F  F51  1  0.82532104  0.55072042  0.81038389  1
  F  F52  1  0.32906073  0.56524267  0.50018925  1
  F  F53  1  0.93475733  0.82906073  0.75018925  1
  F  F54  1  0.06524267  0.17093927  0.25018925  1
  F  F55  1  0.82906073  0.93475733  0.24981075  1
  F  F56  1  0.17093927  0.06524267  0.74981075  1
  F  F57  1  0.67093927  0.43475733  0.00018925  1
  F  F58  1  0.56524267  0.32906073  0.49981075  1
  F  F59  1  0.43475733  0.67093927  0.99981075  1
  F  F60  1  0.91188585  0.28314350  0.55160222  1
  F  F61  1  0.21685650  0.41188585  0.80160222  1
  F  F62  1  0.78314350  0.58811415  0.30160222  1
  F  F63  1  0.41188585  0.21685650  0.19839778  1
  F  F64  1  0.58811415  0.78314350  0.69839778  1
  F  F65  1  0.08811415  0.71685650  0.05160222  1
  F  F66  1  0.28314350  0.91188585  0.44839778  1
  F  F67  1  0.71685650  0.08811415  0.94839778  1
  F  F68  1  0.77845798  0.77845798  0.00000000  1
  F  F69  1  0.72154202  0.27845798  0.25000000  1
  F  F70  1  0.27845798  0.72154202  0.75000000  1
  F  F71  1  0.22154202  0.22154202  0.50000000  1
  F  F72  1  0.52466409  0.36114850  0.10910513  1
  F  F73  1  0.13885150  0.02466409  0.35910513  1
  F  F74  1  0.86114850  0.97533591  0.85910513  1
  F  F75  1  0.02466409  0.13885150  0.64089487  1
  F  F76  1  0.97533591  0.86114850  0.14089487  1
  F  F77  1  0.47533591  0.63885150  0.60910513  1
  F  F78  1  0.36114850  0.52466409  0.89089487  1
  F  F79  1  0.63885150  0.47533591  0.39089487  1
  F  F80  1  0.70554682  0.06218145  0.74796080  1
  F  F81  1  0.43781855  0.20554682  0.99796080  1
  F  F82  1  0.56218145  0.79445318  0.49796080  1
  F  F83  1  0.17731520  0.43253034  0.41486309  1
  Nd  Nd84  1  0.55426266  0.92953470  0.99824495  1
  Nd  Nd85  1  0.44573734  0.07046530  0.49824495  1
  Nd  Nd86  1  0.92953470  0.55426266  0.00175505  1
  Nd  Nd87  1  0.42953470  0.94573734  0.74824495  1
  Nd  Nd88  1  0.57046530  0.05426266  0.24824495  1
  Nd  Nd89  1  0.94573734  0.42953470  0.25175505  1
  Nd  Nd90  1  0.05426266  0.57046530  0.75175505  1
  Nd  Nd91  1  0.07046530  0.44573734  0.50175505  1
  Au  Au92  1  0.40584705  0.35585685  0.84277586  1
  Au  Au93  1  0.59415295  0.64414315  0.34277586  1
  Au  Au94  1  0.35585685  0.40584705  0.15722414  1
  Au  Au95  1  0.85585685  0.09415295  0.59277586  1
  Au  Au96  1  0.14414315  0.90584705  0.09277586  1
  Au  Au97  1  0.09415295  0.85585685  0.40722414  1
  Au  Au98  1  0.90584705  0.14414315  0.90722414  1
  Au  Au99  1  0.64414315  0.59415295  0.65722414  1
  Au  Au100  1  0.20887363  0.82126488  0.88925527  1
  Au  Au101  1  0.79112637  0.17873512  0.38925527  1
  Au  Au102  1  0.82126488  0.20887363  0.11074473  1
  Au  Au103  1  0.32126488  0.29112637  0.63925527  1
  Au  Au104  1  0.67873512  0.70887363  0.13925527  1
  Au  Au105  1  0.29112637  0.32126488  0.36074473  1
  Au  Au106  1  0.70887363  0.67873512  0.86074473  1
  Au  Au107  1  0.17873512  0.79112637  0.61074473  1
  Au  Au108  1  0.56231614  0.56231614  0.50000000  1
  Au  Au109  1  0.93768386  0.06231614  0.75000000  1
  Au  Au110  1  0.06231614  0.93768386  0.25000000  1
  Au  Au111  1  0.43768386  0.43768386  0.00000000  1
