# generated using pymatgen
data_Ho2Fe14B
_symmetry_space_group_name_H-M   'P 1'
_cell_length_a   8.72324785
_cell_length_b   8.72324785
_cell_length_c   11.87205904
_cell_angle_alpha   90.00000000
_cell_angle_beta   90.00000000
_cell_angle_gamma   90.00000000
_symmetry_Int_Tables_number   1
_chemical_formula_structural   Ho2Fe14B
_chemical_formula_sum   'Ho8 Fe56 B4'
_cell_volume   903.40496249
_cell_formula_units_Z   4
loop_
 _symmetry_equiv_pos_site_id
 _symmetry_equiv_pos_as_xyz
  1  'x, y, z'
loop_
 _atom_site_type_symbol
 _atom_site_label
 _atom_site_symmetry_multiplicity
 _atom_site_fract_x
 _atom_site_fract_y
 _atom_site_fract_z
 _atom_site_occupancy
  B  B0  1  0.62476188  0.62476188  0.00000000  1
  B  B1  1  0.87523812  0.12476188  0.50000000  1
  B  B2  1  0.12476188  0.87523812  0.50000000  1
  B  B3  1  0.37523812  0.37523812  0.00000000  1
  Fe  Fe4  1  0.00000000  0.00000000  0.61592426  1
  Fe  Fe5  1  0.50000000  0.50000000  0.11592426  1
  Fe  Fe6  1  0.50000000  0.50000000  0.88407574  1
  Fe  Fe7  1  0.00000000  0.00000000  0.38407574  1
  Fe  Fe8  1  0.59723593  0.59723593  0.69995320  1
  Fe  Fe9  1  0.40276407  0.40276407  0.69995320  1
  Fe  Fe10  1  0.59723593  0.59723593  0.30004680  1
  Fe  Fe11  1  0.09723593  0.90276407  0.19995320  1
  Fe  Fe12  1  0.90276407  0.09723593  0.19995320  1
  Fe  Fe13  1  0.90276407  0.09723593  0.80004680  1
  Fe  Fe14  1  0.09723593  0.90276407  0.80004680  1
  Fe  Fe15  1  0.40276407  0.40276407  0.30004680  1
  Fe  Fe16  1  0.81706978  0.81706978  0.74587250  1
  Fe  Fe17  1  0.18293022  0.18293022  0.74587250  1
  Fe  Fe18  1  0.81706978  0.81706978  0.25412750  1
  Fe  Fe19  1  0.31706978  0.68293022  0.24587250  1
  Fe  Fe20  1  0.68293022  0.31706978  0.24587250  1
  Fe  Fe21  1  0.68293022  0.31706978  0.75412750  1
  Fe  Fe22  1  0.31706978  0.68293022  0.75412750  1
  Fe  Fe23  1  0.18293022  0.18293022  0.25412750  1
  Fe  Fe24  1  0.14132409  0.46291604  0.32549229  1
  Fe  Fe25  1  0.85867591  0.53708396  0.32549229  1
  Fe  Fe26  1  0.46291604  0.14132409  0.67450771  1
  Fe  Fe27  1  0.96291604  0.35867591  0.82549229  1
  Fe  Fe28  1  0.03708396  0.64132409  0.82549229  1
  Fe  Fe29  1  0.35867591  0.96291604  0.17450771  1
  Fe  Fe30  1  0.64132409  0.03708396  0.17450771  1
  Fe  Fe31  1  0.53708396  0.85867591  0.67450771  1
  Fe  Fe32  1  0.85867591  0.53708396  0.67450771  1
  Fe  Fe33  1  0.14132409  0.46291604  0.67450771  1
  Fe  Fe34  1  0.53708396  0.85867591  0.32549229  1
  Fe  Fe35  1  0.03708396  0.64132409  0.17450771  1
  Fe  Fe36  1  0.96291604  0.35867591  0.17450771  1
  Fe  Fe37  1  0.64132409  0.03708396  0.82549229  1
  Fe  Fe38  1  0.35867591  0.96291604  0.82549229  1
  Fe  Fe39  1  0.46291604  0.14132409  0.32549229  1
  Fe  Fe40  1  0.06610843  0.72441901  0.37391832  1
  Fe  Fe41  1  0.93389157  0.27558099  0.37391832  1
  Fe  Fe42  1  0.72441901  0.06610843  0.62608168  1
  Fe  Fe43  1  0.22441901  0.43389157  0.87391832  1
  Fe  Fe44  1  0.77558099  0.56610843  0.87391832  1
  Fe  Fe45  1  0.43389157  0.22441901  0.12608168  1
  Fe  Fe46  1  0.56610843  0.77558099  0.12608168  1
  Fe  Fe47  1  0.27558099  0.93389157  0.62608168  1
  Fe  Fe48  1  0.93389157  0.27558099  0.62608168  1
  Fe  Fe49  1  0.06610843  0.72441901  0.62608168  1
  Fe  Fe50  1  0.27558099  0.93389157  0.37391832  1
  Fe  Fe51  1  0.77558099  0.56610843  0.12608168  1
  Fe  Fe52  1  0.22441901  0.43389157  0.12608168  1
  Fe  Fe53  1  0.56610843  0.77558099  0.87391832  1
  Fe  Fe54  1  0.43389157  0.22441901  0.87391832  1
  Fe  Fe55  1  0.72441901  0.06610843  0.37391832  1
  Fe  Fe56  1  0.50000000  0.00000000  0.00000000  1
  Fe  Fe57  1  0.50000000  0.00000000  0.50000000  1
  Fe  Fe58  1  0.00000000  0.50000000  0.50000000  1
  Fe  Fe59  1  0.00000000  0.50000000  0.00000000  1
  Ho  Ho60  1  0.26691842  0.73308158  0.00000000  1
  Ho  Ho61  1  0.76691842  0.76691842  0.50000000  1
  Ho  Ho62  1  0.23308158  0.23308158  0.50000000  1
  Ho  Ho63  1  0.73308158  0.26691842  0.00000000  1
  Ho  Ho64  1  0.85643295  0.85643295  0.00000000  1
  Ho  Ho65  1  0.64356705  0.35643295  0.50000000  1
  Ho  Ho66  1  0.35643295  0.64356705  0.50000000  1
  Ho  Ho67  1  0.14356705  0.14356705  0.00000000  1
