# generated using pymatgen
data_Rb9Fe2Se7
_symmetry_space_group_name_H-M   'P 1'
_cell_length_a   13.76815798
_cell_length_b   13.76815798
_cell_length_c   13.76815798
_cell_angle_alpha   90.00000000
_cell_angle_beta   90.00000000
_cell_angle_gamma   90.00000000
_symmetry_Int_Tables_number   1
_chemical_formula_structural   Rb9Fe2Se7
_chemical_formula_sum   'Rb36 Fe8 Se28'
_cell_volume   2609.92196090
_cell_formula_units_Z   4
loop_
 _symmetry_equiv_pos_site_id
 _symmetry_equiv_pos_as_xyz
  1  'x, y, z'
loop_
 _atom_site_type_symbol
 _atom_site_label
 _atom_site_symmetry_multiplicity
 _atom_site_fract_x
 _atom_site_fract_y
 _atom_site_fract_z
 _atom_site_occupancy
  Fe  Fe0  1  0.92838966  0.42838966  0.07161034  1
  Fe  Fe1  1  0.07161034  0.92838966  0.42838966  1
  Fe  Fe2  1  0.42838966  0.07161034  0.92838966  1
  Fe  Fe3  1  0.90019911  0.90019911  0.90019911  1
  Fe  Fe4  1  0.59980089  0.09980089  0.40019911  1
  Fe  Fe5  1  0.40019911  0.59980089  0.09980089  1
  Fe  Fe6  1  0.09980089  0.40019911  0.59980089  1
  Fe  Fe7  1  0.57161034  0.57161034  0.57161034  1
  Se  Se8  1  0.41396510  0.43546362  0.16587378  1
  Se  Se9  1  0.18826423  0.92330322  0.55516720  1
  Se  Se10  1  0.94483280  0.81173577  0.42330322  1
  Se  Se11  1  0.81173577  0.42330322  0.94483280  1
  Se  Se12  1  0.44483280  0.68826423  0.57669678  1
  Se  Se13  1  0.05516720  0.31173577  0.07669678  1
  Se  Se14  1  0.31173577  0.07669678  0.05516720  1
  Se  Se15  1  0.07669678  0.05516720  0.31173577  1
  Se  Se16  1  0.58603490  0.93546362  0.33412622  1
  Se  Se17  1  0.55516720  0.18826423  0.92330322  1
  Se  Se18  1  0.68826423  0.57669678  0.44483280  1
  Se  Se19  1  0.56453638  0.66587378  0.08603490  1
  Se  Se20  1  0.16587378  0.41396510  0.43546362  1
  Se  Se21  1  0.66587378  0.08603490  0.56453638  1
  Se  Se22  1  0.93546362  0.33412622  0.58603490  1
  Se  Se23  1  0.33412622  0.58603490  0.93546362  1
  Se  Se24  1  0.43546362  0.16587378  0.41396510  1
  Se  Se25  1  0.06453638  0.83412622  0.91396510  1
  Se  Se26  1  0.83412622  0.91396510  0.06453638  1
  Se  Se27  1  0.91396510  0.06453638  0.83412622  1
  Se  Se28  1  0.57669678  0.44483280  0.68826423  1
  Se  Se29  1  0.92330322  0.55516720  0.18826423  1
  Se  Se30  1  0.42330322  0.94483280  0.81173577  1
  Se  Se31  1  0.79556270  0.79556270  0.79556270  1
  Se  Se32  1  0.70443730  0.20443730  0.29556270  1
  Se  Se33  1  0.29556270  0.70443730  0.20443730  1
  Se  Se34  1  0.20443730  0.29556270  0.70443730  1
  Se  Se35  1  0.08603490  0.56453638  0.66587378  1
  Rb  Rb36  1  0.95672662  0.29297810  0.32153787  1
  Rb  Rb37  1  0.55683877  0.44316123  0.94316123  1
  Rb  Rb38  1  0.44316123  0.94316123  0.55683877  1
  Rb  Rb39  1  0.05683877  0.05683877  0.05683877  1
  Rb  Rb40  1  0.76166771  0.73833229  0.26166771  1
  Rb  Rb41  1  0.73833229  0.26166771  0.76166771  1
  Rb  Rb42  1  0.26166771  0.76166771  0.73833229  1
  Rb  Rb43  1  0.23833229  0.23833229  0.23833229  1
  Rb  Rb44  1  0.58240319  0.91759681  0.08240319  1
  Rb  Rb45  1  0.91759681  0.08240319  0.58240319  1
  Rb  Rb46  1  0.08240319  0.58240319  0.91759681  1
  Rb  Rb47  1  0.41759681  0.41759681  0.41759681  1
  Rb  Rb48  1  0.32153787  0.95672662  0.29297810  1
  Rb  Rb49  1  0.82153787  0.54327338  0.70702190  1
  Rb  Rb50  1  0.67846213  0.45672662  0.20702190  1
  Rb  Rb51  1  0.54327338  0.70702190  0.82153787  1
  Rb  Rb52  1  0.20702190  0.67846213  0.45672662  1
  Rb  Rb53  1  0.70702190  0.82153787  0.54327338  1
  Rb  Rb54  1  0.94316123  0.55683877  0.44316123  1
  Rb  Rb55  1  0.29297810  0.32153787  0.95672662  1
  Rb  Rb56  1  0.45672662  0.20702190  0.67846213  1
  Rb  Rb57  1  0.04327338  0.79297810  0.17846213  1
  Rb  Rb58  1  0.79297810  0.17846213  0.04327338  1
  Rb  Rb59  1  0.17846213  0.04327338  0.79297810  1
  Rb  Rb60  1  0.66801255  0.99911925  0.80051979  1
  Rb  Rb61  1  0.16801255  0.50088075  0.19948021  1
  Rb  Rb62  1  0.33198745  0.49911925  0.69948021  1
  Rb  Rb63  1  0.50088075  0.19948021  0.16801255  1
  Rb  Rb64  1  0.69948021  0.33198745  0.49911925  1
  Rb  Rb65  1  0.19948021  0.16801255  0.50088075  1
  Rb  Rb66  1  0.99911925  0.80051979  0.66801255  1
  Rb  Rb67  1  0.80051979  0.66801255  0.99911925  1
  Rb  Rb68  1  0.49911925  0.69948021  0.33198745  1
  Rb  Rb69  1  0.00088075  0.30051979  0.83198745  1
  Rb  Rb70  1  0.30051979  0.83198745  0.00088075  1
  Rb  Rb71  1  0.83198745  0.00088075  0.30051979  1
