# generated using pymatgen
data_Nd2Si2O7
_symmetry_space_group_name_H-M   'P 1'
_cell_length_a   6.82204430
_cell_length_b   6.82204430
_cell_length_c   24.84842611
_cell_angle_alpha   90.00000000
_cell_angle_beta   90.00000000
_cell_angle_gamma   90.00000000
_symmetry_Int_Tables_number   1
_chemical_formula_structural   Nd2Si2O7
_chemical_formula_sum   'Nd16 Si16 O56'
_cell_volume   1156.45291822
_cell_formula_units_Z   8
loop_
 _symmetry_equiv_pos_site_id
 _symmetry_equiv_pos_as_xyz
  1  'x, y, z'
loop_
 _atom_site_type_symbol
 _atom_site_label
 _atom_site_symmetry_multiplicity
 _atom_site_fract_x
 _atom_site_fract_y
 _atom_site_fract_z
 _atom_site_occupancy
  O  O0  1  0.26678554  0.36430055  0.92453949  1
  O  O1  1  0.63569945  0.26678554  0.17453949  1
  O  O2  1  0.36430055  0.73321446  0.67453949  1
  O  O3  1  0.73321446  0.63569945  0.42453949  1
  O  O4  1  0.49422290  0.05148990  0.98656192  1
  O  O5  1  0.94851010  0.49422290  0.23656192  1
  O  O6  1  0.05148990  0.50577710  0.73656192  1
  O  O7  1  0.50577710  0.94851010  0.48656192  1
  O  O8  1  0.97608672  0.98868403  0.01579088  1
  O  O9  1  0.01131597  0.97608672  0.26579088  1
  O  O10  1  0.98868403  0.02391328  0.76579088  1
  O  O11  1  0.02391328  0.01131597  0.51579088  1
  O  O12  1  0.62292676  0.08146588  0.08191681  1
  O  O13  1  0.91853412  0.62292676  0.33191681  1
  O  O14  1  0.08146588  0.37707324  0.83191681  1
  O  O15  1  0.37707324  0.91853412  0.58191681  1
  O  O16  1  0.22374080  0.88157707  0.09604963  1
  O  O17  1  0.11842293  0.22374080  0.34604963  1
  O  O18  1  0.88157707  0.77625920  0.84604963  1
  O  O19  1  0.77625920  0.11842293  0.59604963  1
  O  O20  1  0.82886707  0.92926615  0.16532147  1
  O  O21  1  0.31531713  0.29832518  0.05789863  1
  O  O22  1  0.07073385  0.82886707  0.41532147  1
  O  O23  1  0.17113293  0.07073385  0.66532147  1
  O  O24  1  0.94663993  0.63964644  0.05864705  1
  O  O25  1  0.36035356  0.94663993  0.30864705  1
  O  O26  1  0.63964644  0.05336007  0.80864705  1
  O  O27  1  0.05336007  0.36035356  0.55864705  1
  O  O28  1  0.26501132  0.04539077  0.86505367  1
  O  O29  1  0.95460923  0.26501132  0.11505367  1
  O  O30  1  0.04539077  0.73498868  0.61505367  1
  O  O31  1  0.73498868  0.95460923  0.36505367  1
  O  O32  1  0.73548716  0.29357953  0.49907401  1
  O  O33  1  0.70642047  0.73548716  0.74907401  1
  O  O34  1  0.29357953  0.26451284  0.24907401  1
  O  O35  1  0.26451284  0.70642047  0.99907401  1
  O  O36  1  0.43462072  0.22601513  0.41345380  1
  O  O37  1  0.77398487  0.43462072  0.66345380  1
  O  O38  1  0.22601513  0.56537928  0.16345380  1
  O  O39  1  0.56537928  0.77398487  0.91345380  1
  O  O40  1  0.45094003  0.33635045  0.60662773  1
  O  O41  1  0.66364955  0.45094003  0.85662773  1
  O  O42  1  0.33635045  0.54905997  0.35662773  1
  O  O43  1  0.54905997  0.66364955  0.10662773  1
  O  O44  1  0.10156344  0.39240961  0.43866036  1
  O  O45  1  0.60759039  0.10156344  0.68866036  1
  O  O46  1  0.39240961  0.89843656  0.18866036  1
  O  O47  1  0.89843656  0.60759039  0.93866036  1
  O  O48  1  0.33428287  0.61365537  0.50951601  1
  O  O49  1  0.38634463  0.33428287  0.75951601  1
  O  O50  1  0.61365537  0.66571713  0.25951601  1
  O  O51  1  0.66571713  0.38634463  0.00951601  1
  O  O52  1  0.68468287  0.70167482  0.55789863  1
  O  O53  1  0.29832518  0.68468287  0.80789863  1
  O  O54  1  0.70167482  0.31531713  0.30789863  1
  O  O55  1  0.92926615  0.17113293  0.91532147  1
  Si  Si56  1  0.51933524  0.21797554  0.03285755  1
  Si  Si57  1  0.78202446  0.51933524  0.28285755  1
  Si  Si58  1  0.21797554  0.48066476  0.78285755  1
  Si  Si59  1  0.48066476  0.78202446  0.53285755  1
  Si  Si60  1  0.10600834  0.81081046  0.03953781  1
  Si  Si61  1  0.18918954  0.10600834  0.28953781  1
  Si  Si62  1  0.81081046  0.89399166  0.78953781  1
  Si  Si63  1  0.89399166  0.18918954  0.53953781  1
  Si  Si64  1  0.76943512  0.12789615  0.13391601  1
  Si  Si65  1  0.87210385  0.76943512  0.38391601  1
  Si  Si66  1  0.12789615  0.23056488  0.88391601  1
  Si  Si67  1  0.23056488  0.87210385  0.63391601  1
  Si  Si68  1  0.35763550  0.74505113  0.13843991  1
  Si  Si69  1  0.25494887  0.35763550  0.38843991  1
  Si  Si70  1  0.74505113  0.64236450  0.88843991  1
  Si  Si71  1  0.64236450  0.25494887  0.63843991  1
  Nd  Nd72  1  0.28045134  0.21227673  0.15162784  1
  Nd  Nd73  1  0.78772327  0.28045134  0.40162784  1
  Nd  Nd74  1  0.21227673  0.71954866  0.90162784  1
  Nd  Nd75  1  0.71954866  0.78772327  0.65162784  1
  Nd  Nd76  1  0.02252245  0.33436183  0.00534669  1
  Nd  Nd77  1  0.66563817  0.02252245  0.25534669  1
  Nd  Nd78  1  0.33436183  0.97747755  0.75534669  1
  Nd  Nd79  1  0.97747755  0.66563817  0.50534669  1
  Nd  Nd80  1  0.84495132  0.58499418  0.15114609  1
  Nd  Nd81  1  0.41500582  0.84495132  0.40114609  1
  Nd  Nd82  1  0.58499418  0.15504868  0.90114609  1
  Nd  Nd83  1  0.15504868  0.41500582  0.65114609  1
  Nd  Nd84  1  0.63517229  0.74530789  0.01390664  1
  Nd  Nd85  1  0.25469211  0.63517229  0.26390664  1
  Nd  Nd86  1  0.74530789  0.36482771  0.76390664  1
  Nd  Nd87  1  0.36482771  0.25469211  0.51390664  1
