# generated using pymatgen
data_K4SnO3
_symmetry_space_group_name_H-M   'P 1'
_cell_length_a   6.58896626
_cell_length_b   11.50697702
_cell_length_c   19.11567413
_cell_angle_alpha   90.00000000
_cell_angle_beta   90.00000000
_cell_angle_gamma   90.00000000
_symmetry_Int_Tables_number   1
_chemical_formula_structural   K4SnO3
_chemical_formula_sum   'K32 Sn8 O24'
_cell_volume   1449.33288995
_cell_formula_units_Z   8
loop_
 _symmetry_equiv_pos_site_id
 _symmetry_equiv_pos_as_xyz
  1  'x, y, z'
loop_
 _atom_site_type_symbol
 _atom_site_label
 _atom_site_symmetry_multiplicity
 _atom_site_fract_x
 _atom_site_fract_y
 _atom_site_fract_z
 _atom_site_occupancy
  O  O0  1  0.95940756  0.09432876  0.34435331  1
  O  O1  1  0.45940756  0.40567124  0.65564669  1
  O  O2  1  0.04059244  0.59432876  0.15564669  1
  O  O3  1  0.54059244  0.90567124  0.84435331  1
  O  O4  1  0.04059244  0.90567124  0.65564669  1
  O  O5  1  0.54059244  0.59432876  0.34435331  1
  O  O6  1  0.95940756  0.40567124  0.84435331  1
  O  O7  1  0.45940756  0.09432876  0.15564669  1
  O  O8  1  0.62426145  0.48173035  0.09931705  1
  O  O9  1  0.12426145  0.01826965  0.90068295  1
  O  O10  1  0.37573855  0.98173035  0.40068295  1
  O  O11  1  0.87573855  0.51826965  0.59931705  1
  O  O12  1  0.37573855  0.51826965  0.90068295  1
  O  O13  1  0.87573855  0.98173035  0.09931705  1
  O  O14  1  0.62426145  0.01826965  0.59931705  1
  O  O15  1  0.12426145  0.48173035  0.40068295  1
  O  O16  1  0.54369614  0.35273842  0.43372280  1
  O  O17  1  0.04369614  0.14726158  0.56627720  1
  O  O18  1  0.45630386  0.85273842  0.06627720  1
  O  O19  1  0.95630386  0.64726158  0.93372280  1
  O  O20  1  0.45630386  0.64726158  0.56627720  1
  O  O21  1  0.95630386  0.85273842  0.43372280  1
  O  O22  1  0.54369614  0.14726158  0.93372280  1
  O  O23  1  0.04369614  0.35273842  0.06627720  1
  K  K24  1  0.87618311  0.32390921  0.34519156  1
  K  K25  1  0.37618311  0.17609079  0.65480844  1
  K  K26  1  0.12381689  0.82390921  0.15480844  1
  K  K27  1  0.62381689  0.67609079  0.84519156  1
  K  K28  1  0.12381689  0.67609079  0.65480844  1
  K  K29  1  0.62381689  0.82390921  0.34519156  1
  K  K30  1  0.87618311  0.17609079  0.84519156  1
  K  K31  1  0.37618311  0.32390921  0.15480844  1
  K  K32  1  0.74461513  0.05474391  0.46420992  1
  K  K33  1  0.24461513  0.44525609  0.53579008  1
  K  K34  1  0.25538487  0.55474391  0.03579008  1
  K  K35  1  0.75538487  0.94525609  0.96420992  1
  K  K36  1  0.25538487  0.94525609  0.53579008  1
  K  K37  1  0.75538487  0.55474391  0.46420992  1
  K  K38  1  0.74461513  0.44525609  0.96420992  1
  K  K39  1  0.24461513  0.05474391  0.03579008  1
  K  K40  1  0.73096254  0.18808312  0.05675913  1
  K  K41  1  0.23096254  0.31191688  0.94324087  1
  K  K42  1  0.26903746  0.68808312  0.44324087  1
  K  K43  1  0.76903746  0.81191688  0.55675913  1
  K  K44  1  0.26903746  0.81191688  0.94324087  1
  K  K45  1  0.76903746  0.68808312  0.05675913  1
  K  K46  1  0.73096254  0.31191688  0.55675913  1
  K  K47  1  0.23096254  0.18808312  0.44324087  1
  K  K48  1  0.54513302  0.11038189  0.29583862  1
  K  K49  1  0.04513302  0.38961811  0.70416138  1
  K  K50  1  0.45486698  0.61038189  0.20416138  1
  K  K51  1  0.95486698  0.88961811  0.79583862  1
  K  K52  1  0.45486698  0.88961811  0.70416138  1
  K  K53  1  0.95486698  0.61038189  0.29583862  1
  K  K54  1  0.54513302  0.38961811  0.79583862  1
  K  K55  1  0.04513302  0.11038189  0.20416138  1
  Sn  Sn56  1  0.89245090  0.43353782  0.14885190  1
  Sn  Sn57  1  0.39245090  0.06646218  0.85114810  1
  Sn  Sn58  1  0.10754910  0.93353782  0.35114810  1
  Sn  Sn59  1  0.60754910  0.56646218  0.64885190  1
  Sn  Sn60  1  0.10754910  0.56646218  0.85114810  1
  Sn  Sn61  1  0.60754910  0.93353782  0.14885190  1
  Sn  Sn62  1  0.89245090  0.06646218  0.64885190  1
  Sn  Sn63  1  0.39245090  0.43353782  0.35114810  1
