# generated using pymatgen
data_K2SiO3
_symmetry_space_group_name_H-M   'P 1'
_cell_length_a   6.33032024
_cell_length_b   13.26891838
_cell_length_c   15.24502302
_cell_angle_alpha   90.00000000
_cell_angle_beta   95.35768494
_cell_angle_gamma   90.00000000
_symmetry_Int_Tables_number   1
_chemical_formula_structural   K2SiO3
_chemical_formula_sum   'K24 Si12 O36'
_cell_volume   1274.93423548
_cell_formula_units_Z   12
loop_
 _symmetry_equiv_pos_site_id
 _symmetry_equiv_pos_as_xyz
  1  'x, y, z'
loop_
 _atom_site_type_symbol
 _atom_site_label
 _atom_site_symmetry_multiplicity
 _atom_site_fract_x
 _atom_site_fract_y
 _atom_site_fract_z
 _atom_site_occupancy
  O  O0  1  0.64235632  0.25819662  0.85332045  1
  O  O1  1  0.85764368  0.75819662  0.64667955  1
  O  O2  1  0.35764368  0.74180338  0.14667955  1
  O  O3  1  0.14235632  0.24180338  0.35332045  1
  O  O4  1  0.97070777  0.24976634  0.59097880  1
  O  O5  1  0.52929223  0.74976634  0.90902120  1
  O  O6  1  0.02929223  0.75023366  0.40902120  1
  O  O7  1  0.47070777  0.25023366  0.09097880  1
  O  O8  1  0.63777294  0.12816918  0.53540981  1
  O  O9  1  0.86222706  0.62816918  0.96459019  1
  O  O10  1  0.36222706  0.87183082  0.46459019  1
  O  O11  1  0.13777294  0.37183082  0.03540981  1
  O  O12  1  0.22810839  0.39769758  0.65132596  1
  O  O13  1  0.27189161  0.89769758  0.84867404  1
  O  O14  1  0.77189161  0.60230242  0.34867404  1
  O  O15  1  0.72810839  0.10230242  0.15132596  1
  O  O16  1  0.89876165  0.34493643  0.74194109  1
  O  O17  1  0.31691792  0.06035959  0.08509472  1
  O  O18  1  0.10123835  0.65506357  0.25805891  1
  O  O19  1  0.39876165  0.15506357  0.24194109  1
  O  O20  1  0.74059905  0.16169516  0.70762600  1
  O  O21  1  0.75940095  0.66169516  0.79237400  1
  O  O22  1  0.25940095  0.83830484  0.29237400  1
  O  O23  1  0.24059905  0.33830484  0.20762600  1
  O  O24  1  0.01102546  0.05218575  0.61749011  1
  O  O25  1  0.48897454  0.55218575  0.88250989  1
  O  O26  1  0.98897454  0.94781425  0.38250989  1
  O  O27  1  0.51102546  0.44781425  0.11749011  1
  O  O28  1  0.04965818  0.18755987  0.84082323  1
  O  O29  1  0.45034182  0.68755987  0.65917677  1
  O  O30  1  0.95034182  0.81244013  0.15917677  1
  O  O31  1  0.54965818  0.31244013  0.34082323  1
  O  O32  1  0.81691792  0.43964041  0.58509472  1
  O  O33  1  0.68308208  0.93964041  0.91490528  1
  O  O34  1  0.18308208  0.56035959  0.41490528  1
  O  O35  1  0.60123835  0.84493643  0.75805891  1
  Si  Si36  1  0.83401488  0.23691710  0.79269520  1
  Si  Si37  1  0.66598512  0.73691710  0.70730480  1
  Si  Si38  1  0.16598512  0.76308290  0.20730480  1
  Si  Si39  1  0.33401488  0.26308290  0.29269520  1
  Si  Si40  1  0.98126245  0.36452093  0.64025614  1
  Si  Si41  1  0.51873755  0.86452093  0.85974386  1
  Si  Si42  1  0.01873755  0.63547907  0.35974386  1
  Si  Si43  1  0.48126245  0.13547907  0.14025614  1
  Si  Si44  1  0.83683235  0.14256461  0.60871583  1
  Si  Si45  1  0.66316765  0.64256461  0.89128417  1
  Si  Si46  1  0.16316765  0.85743539  0.39128417  1
  Si  Si47  1  0.33683235  0.35743539  0.10871583  1
  K  K48  1  0.53965906  0.66584031  0.48764881  1
  K  K49  1  0.08442813  0.59943112  0.58174774  1
  K  K50  1  0.58442813  0.90056888  0.08174774  1
  K  K51  1  0.91557187  0.40056888  0.41825226  1
  K  K52  1  0.46034094  0.33415969  0.51235119  1
  K  K53  1  0.03965906  0.83415969  0.98764881  1
  K  K54  1  0.41557187  0.09943112  0.91825226  1
  K  K55  1  0.96034094  0.16584031  0.01235119  1
  K  K56  1  0.74970420  0.41745055  0.97425629  1
  K  K57  1  0.75029580  0.91745055  0.52574371  1
  K  K58  1  0.25029580  0.58254945  0.02574371  1
  K  K59  1  0.24970420  0.08254945  0.47425629  1
  K  K60  1  0.32487731  0.18280338  0.70240685  1
  K  K61  1  0.17512269  0.68280338  0.79759315  1
  K  K62  1  0.67512269  0.81719662  0.29759315  1
  K  K63  1  0.82487731  0.31719662  0.20240685  1
  K  K64  1  0.57422659  0.48787132  0.71456812  1
  K  K65  1  0.92577341  0.98787132  0.78543188  1
  K  K66  1  0.42577341  0.51212868  0.28543188  1
  K  K67  1  0.07422659  0.01212868  0.21456812  1
  K  K68  1  0.26920587  0.36926951  0.86436824  1
  K  K69  1  0.23079413  0.86926951  0.63563176  1
  K  K70  1  0.73079413  0.63073049  0.13563176  1
  K  K71  1  0.76920587  0.13073049  0.36436824  1
