# generated using pymatgen
data_ErSi3Rh5
_symmetry_space_group_name_H-M   'P 1'
_cell_length_a   15.62460510
_cell_length_b   15.62460510
_cell_length_c   3.87505738
_cell_angle_alpha   90.00000000
_cell_angle_beta   90.00000000
_cell_angle_gamma   120.00000003
_symmetry_Int_Tables_number   1
_chemical_formula_structural   ErSi3Rh5
_chemical_formula_sum   'Er6 Si18 Rh30'
_cell_volume   819.26965403
_cell_formula_units_Z   6
loop_
 _symmetry_equiv_pos_site_id
 _symmetry_equiv_pos_as_xyz
  1  'x, y, z'
loop_
 _atom_site_type_symbol
 _atom_site_label
 _atom_site_symmetry_multiplicity
 _atom_site_fract_x
 _atom_site_fract_y
 _atom_site_fract_z
 _atom_site_occupancy
  Si  Si0  1  0.44195685  0.76066371  0.75000000  1
  Si  Si1  1  0.68129314  0.44195685  0.25000000  1
  Si  Si2  1  0.76066371  0.31870686  0.25000000  1
  Si  Si3  1  0.23933629  0.68129314  0.75000000  1
  Si  Si4  1  0.31870686  0.55804315  0.75000000  1
  Si  Si5  1  0.55804315  0.23933629  0.25000000  1
  Si  Si6  1  0.88089802  0.13133239  0.25000000  1
  Si  Si7  1  0.11910198  0.86866761  0.75000000  1
  Si  Si8  1  0.13133239  0.25043437  0.75000000  1
  Si  Si9  1  0.25043437  0.11910198  0.25000000  1
  Si  Si10  1  0.37055169  0.93854293  0.25000000  1
  Si  Si11  1  0.43200876  0.37055169  0.75000000  1
  Si  Si12  1  0.93854293  0.56799124  0.75000000  1
  Si  Si13  1  0.06145707  0.43200876  0.25000000  1
  Si  Si14  1  0.56799124  0.62944831  0.25000000  1
  Si  Si15  1  0.62944831  0.06145707  0.75000000  1
  Si  Si16  1  0.74956563  0.88089802  0.75000000  1
  Si  Si17  1  0.86866761  0.74956563  0.25000000  1
  Rh  Rh18  1  0.46371016  0.92487997  0.75000000  1
  Rh  Rh19  1  0.15383838  0.41416536  0.75000000  1
  Rh  Rh20  1  0.26032698  0.84616162  0.75000000  1
  Rh  Rh21  1  0.73967302  0.15383838  0.25000000  1
  Rh  Rh22  1  0.84616162  0.58583464  0.25000000  1
  Rh  Rh23  1  0.41416536  0.26032698  0.25000000  1
  Rh  Rh24  1  0.65244791  0.22340814  0.75000000  1
  Rh  Rh25  1  0.42903977  0.65244791  0.25000000  1
  Rh  Rh26  1  0.22340814  0.57096023  0.25000000  1
  Rh  Rh27  1  0.77659186  0.42903977  0.75000000  1
  Rh  Rh28  1  0.57096023  0.34755209  0.75000000  1
  Rh  Rh29  1  0.34755209  0.77659186  0.25000000  1
  Rh  Rh30  1  0.14068667  0.02823177  0.75000000  1
  Rh  Rh31  1  0.11245489  0.14068667  0.25000000  1
  Rh  Rh32  1  0.02823177  0.88754511  0.25000000  1
  Rh  Rh33  1  0.97176823  0.11245489  0.75000000  1
  Rh  Rh34  1  0.88754511  0.85931333  0.75000000  1
  Rh  Rh35  1  0.85931333  0.97176823  0.25000000  1
  Rh  Rh36  1  0.92487997  0.46116981  0.25000000  1
  Rh  Rh37  1  0.07512003  0.53883019  0.75000000  1
  Rh  Rh38  1  0.46116981  0.53628984  0.75000000  1
  Rh  Rh39  1  0.53628984  0.07512003  0.25000000  1
  Rh  Rh40  1  0.72902684  0.77308021  0.25000000  1
  Rh  Rh41  1  0.95594663  0.72902684  0.75000000  1
  Rh  Rh42  1  0.77308021  0.04405337  0.75000000  1
  Rh  Rh43  1  0.22691979  0.95594663  0.25000000  1
  Rh  Rh44  1  0.04405337  0.27097316  0.25000000  1
  Rh  Rh45  1  0.27097316  0.22691979  0.75000000  1
  Rh  Rh46  1  0.58583464  0.73967302  0.75000000  1
  Rh  Rh47  1  0.53883019  0.46371016  0.25000000  1
  Er  Er48  1  0.60571776  0.89993324  0.25000000  1
  Er  Er49  1  0.70578452  0.60571776  0.75000000  1
  Er  Er50  1  0.89993324  0.29421548  0.75000000  1
  Er  Er51  1  0.10006676  0.70578452  0.25000000  1
  Er  Er52  1  0.29421548  0.39428224  0.25000000  1
  Er  Er53  1  0.39428224  0.10006676  0.75000000  1
