# generated using pymatgen
data_Nd3Ga5O12
_symmetry_space_group_name_H-M   'P 1'
_cell_length_a   10.96113676
_cell_length_b   10.96113675
_cell_length_c   10.96113675
_cell_angle_alpha   109.47122063
_cell_angle_beta   109.47122062
_cell_angle_gamma   109.47122065
_symmetry_Int_Tables_number   1
_chemical_formula_structural   Nd3Ga5O12
_chemical_formula_sum   'Nd12 Ga20 O48'
_cell_volume   1013.78275070
_cell_formula_units_Z   4
loop_
 _symmetry_equiv_pos_site_id
 _symmetry_equiv_pos_as_xyz
  1  'x, y, z'
loop_
 _atom_site_type_symbol
 _atom_site_label
 _atom_site_symmetry_multiplicity
 _atom_site_fract_x
 _atom_site_fract_y
 _atom_site_fract_z
 _atom_site_occupancy
  O  O0  1  0.29856438  0.47701637  0.38052255  1
  O  O1  1  0.02298363  0.32154801  0.90350618  1
  O  O2  1  0.11947745  0.59649382  0.91804183  1
  O  O3  1  0.20143562  0.58195817  0.17845199  1
  O  O4  1  0.20143562  0.11947745  0.02298363  1
  O  O5  1  0.58195817  0.17845199  0.20143562  1
  O  O6  1  0.59649382  0.17845199  0.47701637  1
  O  O7  1  0.17845199  0.20143562  0.58195817  1
  O  O8  1  0.90350618  0.38052255  0.58195817  1
  O  O9  1  0.32154801  0.91804183  0.29856438  1
  O  O10  1  0.91804183  0.29856438  0.32154801  1
  O  O11  1  0.02298363  0.20143562  0.11947745  1
  O  O12  1  0.17845199  0.47701637  0.59649382  1
  O  O13  1  0.58195817  0.90350618  0.38052255  1
  O  O14  1  0.11947745  0.02298363  0.20143562  1
  O  O15  1  0.47701637  0.59649382  0.17845199  1
  O  O16  1  0.38052255  0.58195817  0.90350618  1
  O  O17  1  0.90350618  0.02298363  0.32154801  1
  O  O18  1  0.59649382  0.91804183  0.11947745  1
  O  O19  1  0.09649382  0.61947745  0.41804183  1
  O  O20  1  0.91804183  0.11947745  0.59649382  1
  O  O21  1  0.38052255  0.29856438  0.47701637  1
  O  O22  1  0.32154801  0.90350618  0.02298363  1
  O  O23  1  0.29856438  0.32154801  0.91804183  1
  O  O24  1  0.70143562  0.52298363  0.61947745  1
  O  O25  1  0.97701637  0.67845199  0.09649382  1
  O  O26  1  0.88052255  0.40350618  0.08195817  1
  O  O27  1  0.79856438  0.41804183  0.82154801  1
  O  O28  1  0.79856438  0.88052255  0.97701637  1
  O  O29  1  0.41804183  0.82154801  0.79856438  1
  O  O30  1  0.40350618  0.82154801  0.52298363  1
  O  O31  1  0.82154801  0.79856438  0.41804183  1
  O  O32  1  0.70143562  0.67845199  0.08195817  1
  O  O33  1  0.67845199  0.09649382  0.97701637  1
  O  O34  1  0.61947745  0.70143562  0.52298363  1
  O  O35  1  0.52298363  0.61947745  0.70143562  1
  O  O36  1  0.08195817  0.88052255  0.40350618  1
  O  O37  1  0.40350618  0.08195817  0.88052255  1
  O  O38  1  0.09649382  0.97701637  0.67845199  1
  O  O39  1  0.61947745  0.41804183  0.09649382  1
  O  O40  1  0.52298363  0.40350618  0.82154801  1
  O  O41  1  0.88052255  0.97701637  0.79856438  1
  O  O42  1  0.41804183  0.09649382  0.61947745  1
  O  O43  1  0.82154801  0.52298363  0.40350618  1
  O  O44  1  0.97701637  0.79856438  0.88052255  1
  O  O45  1  0.08195817  0.70143562  0.67845199  1
  O  O46  1  0.67845199  0.08195817  0.70143562  1
  O  O47  1  0.47701637  0.38052255  0.29856438  1
  Ga  Ga48  1  0.25000000  0.12500000  0.87500000  1
  Ga  Ga49  1  0.75000000  0.87500000  0.12500000  1
  Ga  Ga50  1  0.37500000  0.25000000  0.62500000  1
  Ga  Ga51  1  0.62500000  0.37500000  0.25000000  1
  Ga  Ga52  1  0.12500000  0.75000000  0.87500000  1
  Ga  Ga53  1  0.87500000  0.12500000  0.75000000  1
  Ga  Ga54  1  0.75000000  0.37500000  0.62500000  1
  Ga  Ga55  1  0.37500000  0.62500000  0.75000000  1
  Ga  Ga56  1  0.12500000  0.87500000  0.25000000  1
  Ga  Ga57  1  0.87500000  0.25000000  0.12500000  1
  Ga  Ga58  1  0.62500000  0.75000000  0.37500000  1
  Ga  Ga59  1  0.25000000  0.62500000  0.37500000  1
  Ga  Ga60  1  0.50000000  0.50000000  0.50000000  1
  Ga  Ga61  1  0.50000000  0.50000000  0.00000000  1
  Ga  Ga62  1  0.50000000  0.00000000  0.50000000  1
  Ga  Ga63  1  0.00000000  0.50000000  0.50000000  1
  Ga  Ga64  1  0.50000000  0.00000000  0.00000000  1
  Ga  Ga65  1  0.00000000  0.00000000  0.50000000  1
  Ga  Ga66  1  0.00000000  0.50000000  0.00000000  1
  Ga  Ga67  1  0.00000000  0.00000000  0.00000000  1
  Nd  Nd68  1  0.25000000  0.87500000  0.62500000  1
  Nd  Nd69  1  0.87500000  0.62500000  0.25000000  1
  Nd  Nd70  1  0.62500000  0.87500000  0.75000000  1
  Nd  Nd71  1  0.87500000  0.75000000  0.62500000  1
  Nd  Nd72  1  0.62500000  0.25000000  0.87500000  1
  Nd  Nd73  1  0.75000000  0.62500000  0.87500000  1
  Nd  Nd74  1  0.75000000  0.12500000  0.37500000  1
  Nd  Nd75  1  0.12500000  0.37500000  0.75000000  1
  Nd  Nd76  1  0.37500000  0.12500000  0.25000000  1
  Nd  Nd77  1  0.12500000  0.25000000  0.37500000  1
  Nd  Nd78  1  0.37500000  0.75000000  0.12500000  1
  Nd  Nd79  1  0.25000000  0.37500000  0.12500000  1
