# generated using pymatgen
data_Al2Pb3F12
_symmetry_space_group_name_H-M   'P 1'
_cell_length_a   9.56430055
_cell_length_b   9.81226977
_cell_length_c   10.40500980
_cell_angle_alpha   90.00000000
_cell_angle_beta   91.00616352
_cell_angle_gamma   90.00000000
_symmetry_Int_Tables_number   1
_chemical_formula_structural   Al2Pb3F12
_chemical_formula_sum   'Al8 Pb12 F48'
_cell_volume   976.33356531
_cell_formula_units_Z   4
loop_
 _symmetry_equiv_pos_site_id
 _symmetry_equiv_pos_as_xyz
  1  'x, y, z'
loop_
 _atom_site_type_symbol
 _atom_site_label
 _atom_site_symmetry_multiplicity
 _atom_site_fract_x
 _atom_site_fract_y
 _atom_site_fract_z
 _atom_site_occupancy
  F  F0  1  0.42806709  0.96037956  0.65565372  1
  F  F1  1  0.07193291  0.46037956  0.84434628  1
  F  F2  1  0.57193291  0.03962044  0.34434628  1
  F  F3  1  0.92806709  0.53962044  0.15565372  1
  F  F4  1  0.50963522  0.37451701  0.06807198  1
  F  F5  1  0.99036478  0.87451701  0.43192802  1
  F  F6  1  0.49036478  0.62548299  0.93192802  1
  F  F7  1  0.00963522  0.12548299  0.56807198  1
  F  F8  1  0.70836229  0.76666831  0.54580940  1
  F  F9  1  0.79163771  0.26666831  0.95419060  1
  F  F10  1  0.29163771  0.23333169  0.45419060  1
  F  F11  1  0.20836229  0.73333169  0.04580940  1
  F  F12  1  0.87384359  0.58582036  0.44282388  1
  F  F13  1  0.62615641  0.08582036  0.05717612  1
  F  F14  1  0.12615641  0.41417964  0.55717612  1
  F  F15  1  0.37384359  0.91417964  0.94282388  1
  F  F16  1  0.66124599  0.50759404  0.30494441  1
  F  F17  1  0.76625509  0.26176301  0.20034339  1
  F  F18  1  0.23374491  0.73823699  0.79965661  1
  F  F19  1  0.26625509  0.23823699  0.70034339  1
  F  F20  1  0.12204246  0.08657086  0.28178245  1
  F  F21  1  0.37795754  0.58657086  0.21821755  1
  F  F22  1  0.87795754  0.91342914  0.71821755  1
  F  F23  1  0.62204246  0.41342914  0.78178245  1
  F  F24  1  0.36011438  0.10250631  0.16843749  1
  F  F25  1  0.13988562  0.60250631  0.33156251  1
  F  F26  1  0.63988562  0.89749369  0.83156251  1
  F  F27  1  0.86011438  0.39749369  0.66843749  1
  F  F28  1  0.27044535  0.71498593  0.52734744  1
  F  F29  1  0.22955465  0.21498593  0.97265256  1
  F  F30  1  0.72955465  0.28501407  0.47265256  1
  F  F31  1  0.77044535  0.78501407  0.02734744  1
  F  F32  1  0.29954498  0.82390230  0.30681614  1
  F  F33  1  0.20045502  0.32390230  0.19318386  1
  F  F34  1  0.70045502  0.17609770  0.69318386  1
  F  F35  1  0.79954498  0.67609770  0.80681614  1
  F  F36  1  0.50465692  0.69392161  0.41060506  1
  F  F37  1  0.99534308  0.19392161  0.08939494  1
  F  F38  1  0.49534308  0.30607839  0.58939494  1
  F  F39  1  0.00465692  0.80607839  0.91060506  1
  F  F40  1  0.64284219  0.51946579  0.55608058  1
  F  F41  1  0.85715781  0.01946579  0.94391942  1
  F  F42  1  0.35715781  0.48053421  0.44391942  1
  F  F43  1  0.14284219  0.98053421  0.05608058  1
  F  F44  1  0.16124599  0.99240596  0.80494441  1
  F  F45  1  0.33875401  0.49240596  0.69505559  1
  F  F46  1  0.83875401  0.00759404  0.19505559  1
  F  F47  1  0.73374491  0.76176301  0.29965661  1
  Al  Al48  1  0.30902940  0.36298688  0.57694026  1
  Al  Al49  1  0.19097060  0.86298688  0.92305974  1
  Al  Al50  1  0.69097060  0.63701312  0.42305974  1
  Al  Al51  1  0.80902940  0.13701312  0.07694026  1
  Al  Al52  1  0.31824668  0.65030308  0.37017219  1
  Al  Al53  1  0.18175332  0.15030308  0.12982781  1
  Al  Al54  1  0.68175332  0.34969692  0.62982781  1
  Al  Al55  1  0.81824668  0.84969692  0.87017219  1
  Pb  Pb56  1  0.79252489  0.00198578  0.51214232  1
  Pb  Pb57  1  0.70747511  0.50198578  0.98785768  1
  Pb  Pb58  1  0.20747511  0.99801422  0.48785768  1
  Pb  Pb59  1  0.29252489  0.49801422  0.01214232  1
  Pb  Pb60  1  0.02901311  0.21359495  0.79117973  1
  Pb  Pb61  1  0.47098689  0.71359495  0.70882027  1
  Pb  Pb62  1  0.97098689  0.78640505  0.20882027  1
  Pb  Pb63  1  0.52901311  0.28640505  0.29117973  1
  Pb  Pb64  1  0.48159358  0.10478008  0.82359024  1
  Pb  Pb65  1  0.01840642  0.60478008  0.67640976  1
  Pb  Pb66  1  0.51840642  0.89521992  0.17640976  1
  Pb  Pb67  1  0.98159358  0.39521992  0.32359024  1
