# generated using pymatgen
data_P3RhO9
_symmetry_space_group_name_H-M   'P 1'
_cell_length_a   9.49826485
_cell_length_b   10.68434246
_cell_length_c   11.73971744
_cell_angle_alpha   113.46439264
_cell_angle_beta   109.91109901
_cell_angle_gamma   98.08175601
_symmetry_Int_Tables_number   1
_chemical_formula_structural   P3RhO9
_chemical_formula_sum   'P18 Rh6 O54'
_cell_volume   973.42143712
_cell_formula_units_Z   6
loop_
 _symmetry_equiv_pos_site_id
 _symmetry_equiv_pos_as_xyz
  1  'x, y, z'
loop_
 _atom_site_type_symbol
 _atom_site_label
 _atom_site_symmetry_multiplicity
 _atom_site_fract_x
 _atom_site_fract_y
 _atom_site_fract_z
 _atom_site_occupancy
  O  O0  1  0.12333720  0.23778491  0.64485510  1
  O  O1  1  0.97848210  0.59292980  0.35514490  1
  O  O2  1  0.74521819  0.45121177  0.41932279  1
  O  O3  1  0.82589540  0.03188898  0.58067721  1
  O  O4  1  0.14275926  0.99884625  0.41503033  1
  O  O5  1  0.22772893  0.58381593  0.58496967  1
  O  O6  1  0.86581707  0.08218279  0.37398542  1
  O  O7  1  0.99183165  0.70819737  0.62601458  1
  O  O8  1  0.67172082  0.28118778  0.73264420  1
  O  O9  1  0.43907662  0.54854358  0.26735580  1
  O  O10  1  0.30909912  0.96008093  0.85535938  1
  O  O11  1  0.95373974  0.10472154  0.14464062  1
  O  O12  1  0.13000602  0.98949180  0.66381392  1
  O  O13  1  0.96619210  0.32567787  0.33618608  1
  O  O14  1  0.31260992  0.84398748  0.62550910  1
  O  O15  1  0.18710081  0.21847837  0.37449090  1
  O  O16  1  0.64476773  0.17943135  0.29281783  1
  O  O17  1  0.85194990  0.88661352  0.70718217  1
  O  O18  1  0.40487378  0.18630058  0.53641608  1
  O  O19  1  0.36845770  0.64988450  0.46358392  1
  O  O20  1  0.62282796  0.98575170  0.66636832  1
  O  O21  1  0.45645963  0.31938337  0.33363168  1
  O  O22  1  0.68520883  0.98316673  0.12390761  1
  O  O23  1  0.06130122  0.85925912  0.87609239  1
  O  O24  1  0.95865927  0.69361341  0.19554081  1
  O  O25  1  0.26311846  0.49807260  0.80445919  1
  O  O26  1  0.20030605  0.34565658  0.99098141  1
  O  O27  1  0.70932464  0.35467517  0.00901859  1
  O  O28  1  0.01748944  0.49116787  0.04349897  1
  O  O29  1  0.47399047  0.44766890  0.95650103  1
  O  O30  1  0.70233800  0.57273503  0.19082389  1
  O  O31  1  0.01151411  0.38191114  0.80917611  1
  O  O32  1  0.90753746  0.21856671  0.89728195  1
  O  O33  1  0.51025551  0.32128476  0.10271805  1
  O  O34  1  0.68358618  0.07057094  0.95893239  1
  O  O35  1  0.22465379  0.11163855  0.04106761  1
  O  O36  1  0.15401951  0.34381454  0.22592580  1
  O  O37  1  0.42809371  0.11788874  0.77407420  1
  O  O38  1  0.62522329  0.77580126  0.47293323  1
  O  O39  1  0.65229006  0.30286803  0.52706677  1
  O  O40  1  0.80399207  0.86508505  0.96418563  1
  O  O41  1  0.33980644  0.90089942  0.03581437  1
  O  O42  1  0.35264709  0.77839613  0.32596488  1
  O  O43  1  0.52668220  0.45243125  0.67403512  1
  O  O44  1  0.53666636  0.67708265  0.93680334  1
  O  O45  1  0.09986302  0.74027930  0.06319666  1
  O  O46  1  0.57936450  0.93118222  0.27889529  1
  O  O47  1  0.80046921  0.65228693  0.72110471  1
  O  O48  1  0.37491570  0.64938982  0.06541671  1
  O  O49  1  0.80949899  0.58397310  0.93458329  1
  O  O50  1  0.51878136  0.74256846  0.72118205  1
  O  O51  1  0.29759932  0.02138641  0.27881795  1
  O  O52  1  0.99048543  0.43026607  0.61995040  1
  O  O53  1  0.87053504  0.81031567  0.38004960  1
  P  P54  1  0.56737238  0.31434873  0.62767323  1
  P  P55  1  0.43969915  0.68667550  0.37232677  1
  P  P56  1  0.59808213  0.41481069  0.06420885  1
  P  P57  1  0.03387328  0.35060184  0.93579115  1
  P  P58  1  0.69548038  0.03899981  0.27489726  1
  P  P59  1  0.92058313  0.76410256  0.72510274  1
  P  P60  1  0.35842034  0.70122469  0.60710167  1
  P  P61  1  0.25131867  0.09412302  0.39289833  1
  P  P62  1  0.06697034  0.25885756  0.27153325  1
  P  P63  1  0.29543709  0.98732431  0.72846675  1
  P  P64  1  0.77557835  0.00453373  0.03692942  1
  P  P65  1  0.23864893  0.96760432  0.96307058  1
  P  P66  1  0.09302262  0.37839842  0.70830271  1
  P  P67  1  0.88471991  0.67009571  0.29169729  1
  P  P68  1  0.73251883  0.92888213  0.60680217  1
  P  P69  1  0.62571667  0.32207996  0.39319783  1
  P  P70  1  0.41774883  0.57991288  0.94829062  1
  P  P71  1  0.96945821  0.63162226  0.05170938  1
  Rh  Rh72  1  0.99518122  0.02453482  0.50994569  1
  Rh  Rh73  1  0.98523553  0.51458913  0.49005431  1
  Rh  Rh74  1  0.66393678  0.66037082  0.82443343  1
  Rh  Rh75  1  0.33950335  0.83593740  0.17556657  1
  Rh  Rh76  1  0.33053086  0.33090559  0.16111620  1
  Rh  Rh77  1  0.66941466  0.16978940  0.83888380  1
