# generated using pymatgen
data_TmSi3Rh5
_symmetry_space_group_name_H-M   'P 1'
_cell_length_a   15.61521273
_cell_length_b   15.61521273
_cell_length_c   3.86985958
_cell_angle_alpha   90.00000000
_cell_angle_beta   90.00000000
_cell_angle_gamma   119.99999998
_symmetry_Int_Tables_number   1
_chemical_formula_structural   TmSi3Rh5
_chemical_formula_sum   'Tm6 Si18 Rh30'
_cell_volume   817.18737561
_cell_formula_units_Z   6
loop_
 _symmetry_equiv_pos_site_id
 _symmetry_equiv_pos_as_xyz
  1  'x, y, z'
loop_
 _atom_site_type_symbol
 _atom_site_label
 _atom_site_symmetry_multiplicity
 _atom_site_fract_x
 _atom_site_fract_y
 _atom_site_fract_z
 _atom_site_occupancy
  Si  Si0  1  0.44206509  0.76077347  0.75000000  1
  Si  Si1  1  0.68129162  0.44206509  0.25000000  1
  Si  Si2  1  0.76077347  0.31870838  0.25000000  1
  Si  Si3  1  0.23922653  0.68129162  0.75000000  1
  Si  Si4  1  0.31870838  0.55793491  0.75000000  1
  Si  Si5  1  0.55793491  0.23922653  0.25000000  1
  Si  Si6  1  0.88095722  0.13148128  0.25000000  1
  Si  Si7  1  0.11904278  0.86851872  0.75000000  1
  Si  Si8  1  0.13148128  0.25052406  0.75000000  1
  Si  Si9  1  0.25052406  0.11904278  0.25000000  1
  Si  Si10  1  0.37060335  0.93868041  0.25000000  1
  Si  Si11  1  0.43192294  0.37060335  0.75000000  1
  Si  Si12  1  0.93868041  0.56807706  0.75000000  1
  Si  Si13  1  0.06131959  0.43192294  0.25000000  1
  Si  Si14  1  0.56807706  0.62939665  0.25000000  1
  Si  Si15  1  0.62939665  0.06131959  0.75000000  1
  Si  Si16  1  0.74947594  0.88095722  0.75000000  1
  Si  Si17  1  0.86851872  0.74947594  0.25000000  1
  Rh  Rh18  1  0.46381741  0.92485818  0.75000000  1
  Rh  Rh19  1  0.15408534  0.41410369  0.75000000  1
  Rh  Rh20  1  0.26001835  0.84591466  0.75000000  1
  Rh  Rh21  1  0.73998165  0.15408534  0.25000000  1
  Rh  Rh22  1  0.84591466  0.58589631  0.25000000  1
  Rh  Rh23  1  0.41410369  0.26001835  0.25000000  1
  Rh  Rh24  1  0.65247283  0.22338786  0.75000000  1
  Rh  Rh25  1  0.42908497  0.65247283  0.25000000  1
  Rh  Rh26  1  0.22338786  0.57091503  0.25000000  1
  Rh  Rh27  1  0.77661214  0.42908497  0.75000000  1
  Rh  Rh28  1  0.57091503  0.34752717  0.75000000  1
  Rh  Rh29  1  0.34752717  0.77661214  0.25000000  1
  Rh  Rh30  1  0.14070994  0.02828914  0.75000000  1
  Rh  Rh31  1  0.11242080  0.14070994  0.25000000  1
  Rh  Rh32  1  0.02828914  0.88757920  0.25000000  1
  Rh  Rh33  1  0.97171086  0.11242080  0.75000000  1
  Rh  Rh34  1  0.88757920  0.85929006  0.75000000  1
  Rh  Rh35  1  0.85929006  0.97171086  0.25000000  1
  Rh  Rh36  1  0.92485818  0.46104077  0.25000000  1
  Rh  Rh37  1  0.07514182  0.53895923  0.75000000  1
  Rh  Rh38  1  0.46104077  0.53618259  0.75000000  1
  Rh  Rh39  1  0.53618259  0.07514182  0.25000000  1
  Rh  Rh40  1  0.72895982  0.77285249  0.25000000  1
  Rh  Rh41  1  0.95610733  0.72895982  0.75000000  1
  Rh  Rh42  1  0.77285249  0.04389267  0.75000000  1
  Rh  Rh43  1  0.22714751  0.95610733  0.25000000  1
  Rh  Rh44  1  0.04389267  0.27104018  0.25000000  1
  Rh  Rh45  1  0.27104018  0.22714751  0.75000000  1
  Rh  Rh46  1  0.58589631  0.73998165  0.75000000  1
  Rh  Rh47  1  0.53895923  0.46381741  0.25000000  1
  Tm  Tm48  1  0.60572291  0.89991193  0.25000000  1
  Tm  Tm49  1  0.70581098  0.60572291  0.75000000  1
  Tm  Tm50  1  0.89991193  0.29418902  0.75000000  1
  Tm  Tm51  1  0.10008807  0.70581098  0.25000000  1
  Tm  Tm52  1  0.29418902  0.39427709  0.25000000  1
  Tm  Tm53  1  0.39427709  0.10008807  0.75000000  1
