# generated using pymatgen
data_Rb2CdSi5O12
_symmetry_space_group_name_H-M   'P 1'
_cell_length_a   13.62208369
_cell_length_b   13.89255924
_cell_length_c   14.12549552
_cell_angle_alpha   90.00000000
_cell_angle_beta   90.00000000
_cell_angle_gamma   90.00000000
_symmetry_Int_Tables_number   1
_chemical_formula_structural   Rb2CdSi5O12
_chemical_formula_sum   'Rb16 Cd8 Si40 O96'
_cell_volume   2673.18794046
_cell_formula_units_Z   8
loop_
 _symmetry_equiv_pos_site_id
 _symmetry_equiv_pos_as_xyz
  1  'x, y, z'
loop_
 _atom_site_type_symbol
 _atom_site_label
 _atom_site_symmetry_multiplicity
 _atom_site_fract_x
 _atom_site_fract_y
 _atom_site_fract_z
 _atom_site_occupancy
  O  O0  1  0.37295522  0.15932693  0.29997098  1
  O  O1  1  0.87295522  0.34067307  0.70002902  1
  O  O2  1  0.62704478  0.65932693  0.20002902  1
  O  O3  1  0.12704478  0.84067307  0.79997098  1
  O  O4  1  0.62704478  0.84067307  0.70002902  1
  O  O5  1  0.12704478  0.65932693  0.29997098  1
  O  O6  1  0.37295522  0.34067307  0.79997098  1
  O  O7  1  0.87295522  0.15932693  0.20002902  1
  O  O8  1  0.62848621  0.18013433  0.55106042  1
  O  O9  1  0.12848621  0.31986567  0.44893958  1
  O  O10  1  0.37151379  0.68013433  0.94893958  1
  O  O11  1  0.87151379  0.81986567  0.05106042  1
  O  O12  1  0.37151379  0.81986567  0.44893958  1
  O  O13  1  0.87151379  0.68013433  0.55106042  1
  O  O14  1  0.62848621  0.31986567  0.05106042  1
  O  O15  1  0.12848621  0.18013433  0.94893958  1
  O  O16  1  0.72663623  0.88548872  0.36175089  1
  O  O17  1  0.22663623  0.61451128  0.63824911  1
  O  O18  1  0.27336377  0.38548872  0.13824911  1
  O  O19  1  0.77336377  0.11451128  0.86175089  1
  O  O20  1  0.27336377  0.11451128  0.63824911  1
  O  O21  1  0.77336377  0.38548872  0.36175089  1
  O  O22  1  0.72663623  0.61451128  0.86175089  1
  O  O23  1  0.22663623  0.88548872  0.13824911  1
  O  O24  1  0.42032153  0.63262067  0.58860709  1
  O  O25  1  0.92032153  0.86737933  0.41139291  1
  O  O26  1  0.57967847  0.13262067  0.91139291  1
  O  O27  1  0.07967847  0.36737933  0.08860709  1
  O  O28  1  0.57967847  0.36737933  0.41139291  1
  O  O29  1  0.07967847  0.13262067  0.58860709  1
  O  O30  1  0.42032153  0.86737933  0.08860709  1
  O  O31  1  0.92032153  0.63262067  0.91139291  1
  O  O32  1  0.16178325  0.96846513  0.66278645  1
  O  O33  1  0.66178325  0.53153487  0.33721355  1
  O  O34  1  0.83821675  0.46846513  0.83721355  1
  O  O35  1  0.33821675  0.03153487  0.16278645  1
  O  O36  1  0.83821675  0.03153487  0.33721355  1
  O  O37  1  0.33821675  0.46846513  0.66278645  1
  O  O38  1  0.16178325  0.53153487  0.16278645  1
  O  O39  1  0.22970714  0.43792096  0.89640844  1
  O  O40  1  0.66178325  0.96846513  0.83721355  1
  O  O41  1  0.98221069  0.61763759  0.17740566  1
  O  O42  1  0.51778931  0.38236241  0.67740566  1
  O  O43  1  0.01778931  0.11763759  0.32259434  1
  O  O44  1  0.51778931  0.11763759  0.17740566  1
  O  O45  1  0.01778931  0.38236241  0.82259434  1
  O  O46  1  0.48221069  0.61763759  0.32259434  1
  O  O47  1  0.98221069  0.88236241  0.67740566  1
  O  O48  1  0.86140651  0.62661049  0.73134261  1
  O  O49  1  0.36140651  0.87338951  0.26865739  1
  O  O50  1  0.13859349  0.12661049  0.76865739  1
  O  O51  1  0.63859349  0.37338951  0.23134261  1
  O  O52  1  0.13859349  0.37338951  0.26865739  1
  O  O53  1  0.63859349  0.12661049  0.73134261  1
  O  O54  1  0.86140651  0.87338951  0.23134261  1
  O  O55  1  0.36140651  0.62661049  0.76865739  1
  O  O56  1  0.14987412  0.70994739  0.12029290  1
  O  O57  1  0.64987412  0.79005261  0.87970710  1
  O  O58  1  0.85012588  0.20994739  0.37970710  1
  O  O59  1  0.35012588  0.29005261  0.62029290  1
  O  O60  1  0.85012588  0.29005261  0.87970710  1
  O  O61  1  0.35012588  0.20994739  0.12029290  1
  O  O62  1  0.14987412  0.79005261  0.62029290  1
  O  O63  1  0.64987412  0.70994739  0.37970710  1
  O  O64  1  0.46235380  0.36512818  0.15107433  1
  O  O65  1  0.96235380  0.13487182  0.84892567  1
  O  O66  1  0.53764620  0.86512818  0.34892567  1
  O  O67  1  0.03764620  0.63487182  0.65107433  1
  O  O68  1  0.53764620  0.63487182  0.84892567  1
  O  O69  1  0.03764620  0.86512818  0.15107433  1
  O  O70  1  0.46235380  0.13487182  0.65107433  1
  O  O71  1  0.96235380  0.36512818  0.34892567  1
  O  O72  1  0.08108405  0.50251327  0.39876607  1
  O  O73  1  0.58108405  0.99748673  0.60123393  1
  O  O74  1  0.91891595  0.00251327  0.10123393  1
  O  O75  1  0.41891595  0.49748673  0.89876607  1
  O  O76  1  0.91891595  0.49748673  0.60123393  1
  O  O77  1  0.41891595  0.00251327  0.39876607  1
  O  O78  1  0.08108405  0.99748673  0.89876607  1
  O  O79  1  0.58108405  0.50251327  0.10123393  1
  O  O80  1  0.37335952  0.16731030  0.48208308  1
  O  O81  1  0.87335952  0.33268970  0.51791692  1
  O  O82  1  0.62664048  0.66731030  0.01791692  1
  O  O83  1  0.12664048  0.83268970  0.98208308  1
  O  O84  1  0.62664048  0.83268970  0.51791692  1
  O  O85  1  0.12664048  0.66731030  0.48208308  1
  O  O86  1  0.37335952  0.33268970  0.98208308  1
  O  O87  1  0.87335952  0.16731030  0.01791692  1
  O  O88  1  0.72970714  0.43792096  0.60359156  1
  O  O89  1  0.22970714  0.06207904  0.39640844  1
  O  O90  1  0.27029286  0.93792096  0.89640844  1
  O  O91  1  0.77029286  0.56207904  0.10359156  1
  O  O92  1  0.27029286  0.56207904  0.39640844  1
  O  O93  1  0.77029286  0.93792096  0.60359156  1
  O  O94  1  0.72970714  0.06207904  0.10359156  1
  O  O95  1  0.48221069  0.88236241  0.82259434  1
  Si  Si96  1  0.34252490  0.91310022  0.16038531  1
  Si  Si97  1  0.84252490  0.58689978  0.83961469  1
  Si  Si98  1  0.65747510  0.41310022  0.33961469  1
  Si  Si99  1  0.15747510  0.08689978  0.66038531  1
  Si  Si100  1  0.65747510  0.08689978  0.83961469  1
  Si  Si101  1  0.15747510  0.41310022  0.16038531  1
  Si  Si102  1  0.34252490  0.58689978  0.66038531  1
  Si  Si103  1  0.84252490  0.91310022  0.33961469  1
  Si  Si104  1  0.40210826  0.37186592  0.68994652  1
  Si  Si105  1  0.90210826  0.12813408  0.31005348  1
  Si  Si106  1  0.59789174  0.87186592  0.81005348  1
  Si  Si107  1  0.09789174  0.62813408  0.18994652  1
  Si  Si108  1  0.59789174  0.62813408  0.31005348  1
  Si  Si109  1  0.09789174  0.87186592  0.68994652  1
  Si  Si110  1  0.40210826  0.12813408  0.18994652  1
  Si  Si111  1  0.90210826  0.37186592  0.81005348  1
  Si  Si112  1  0.15798910  0.59416666  0.39394540  1
  Si  Si113  1  0.65798910  0.90583334  0.60605460  1
  Si  Si114  1  0.84201090  0.09416666  0.10605460  1
  Si  Si115  1  0.34201090  0.40583334  0.89394540  1
  Si  Si116  1  0.84201090  0.40583334  0.60605460  1
  Si  Si117  1  0.34201090  0.09416666  0.39394540  1
  Si  Si118  1  0.15798910  0.90583334  0.89394540  1
  Si  Si119  1  0.65798910  0.59416666  0.10605460  1
  Si  Si120  1  0.08041379  0.11274766  0.86963744  1
  Si  Si121  1  0.58041379  0.38725234  0.13036256  1
  Si  Si122  1  0.91958621  0.61274766  0.63036256  1
  Si  Si123  1  0.41958621  0.88725234  0.36963744  1
  Si  Si124  1  0.91958621  0.88725234  0.13036256  1
  Si  Si125  1  0.41958621  0.61274766  0.86963744  1
  Si  Si126  1  0.08041379  0.38725234  0.36963744  1
  Si  Si127  1  0.58041379  0.11274766  0.63036256  1
  Si  Si128  1  0.63499987  0.67578972  0.90299569  1
  Si  Si129  1  0.13499987  0.82421028  0.09700431  1
  Si  Si130  1  0.36500013  0.17578972  0.59700431  1
  Si  Si131  1  0.86500013  0.32421028  0.40299569  1
  Si  Si132  1  0.36500013  0.32421028  0.09700431  1
  Si  Si133  1  0.86500013  0.17578972  0.90299569  1
  Si  Si134  1  0.63499987  0.82421028  0.40299569  1
  Si  Si135  1  0.13499987  0.67578972  0.59700431  1
  Rb  Rb136  1  0.12494046  0.12787809  0.14519100  1
  Rb  Rb137  1  0.62494046  0.37212191  0.85480900  1
  Rb  Rb138  1  0.87505954  0.62787809  0.35480900  1
  Rb  Rb139  1  0.37505954  0.87212191  0.64519100  1
  Rb  Rb140  1  0.87505954  0.87212191  0.85480900  1
  Rb  Rb141  1  0.37505954  0.62787809  0.14519100  1
  Rb  Rb142  1  0.12494046  0.37212191  0.64519100  1
  Rb  Rb143  1  0.62494046  0.12787809  0.35480900  1
  Rb  Rb144  1  0.86620138  0.37747931  0.12143031  1
  Rb  Rb145  1  0.36620138  0.12252069  0.87856969  1
  Rb  Rb146  1  0.13379862  0.87747931  0.37856969  1
  Rb  Rb147  1  0.63379862  0.62252069  0.62143031  1
  Rb  Rb148  1  0.13379862  0.62252069  0.87856969  1
  Rb  Rb149  1  0.63379862  0.87747931  0.12143031  1
  Rb  Rb150  1  0.86620138  0.12252069  0.62143031  1
  Rb  Rb151  1  0.36620138  0.37747931  0.37856969  1
  Cd  Cd152  1  0.38706667  0.83794756  0.93929682  1
  Cd  Cd153  1  0.88706667  0.66205244  0.06070318  1
  Cd  Cd154  1  0.61293333  0.33794756  0.56070318  1
  Cd  Cd155  1  0.11293333  0.16205244  0.43929682  1
  Cd  Cd156  1  0.61293333  0.16205244  0.06070318  1
  Cd  Cd157  1  0.11293333  0.33794756  0.93929682  1
  Cd  Cd158  1  0.38706667  0.66205244  0.43929682  1
  Cd  Cd159  1  0.88706667  0.83794756  0.56070318  1
