# generated using pymatgen
data_TmP5O14
_symmetry_space_group_name_H-M   'P 1'
_cell_length_a   9.16163169
_cell_length_b   9.16163169
_cell_length_c   12.51415343
_cell_angle_alpha   88.92632689
_cell_angle_beta   88.92632689
_cell_angle_gamma   89.58327144
_symmetry_Int_Tables_number   1
_chemical_formula_structural   TmP5O14
_chemical_formula_sum   'Tm4 P20 O56'
_cell_volume   1049.98768742
_cell_formula_units_Z   4
loop_
 _symmetry_equiv_pos_site_id
 _symmetry_equiv_pos_as_xyz
  1  'x, y, z'
loop_
 _atom_site_type_symbol
 _atom_site_label
 _atom_site_symmetry_multiplicity
 _atom_site_fract_x
 _atom_site_fract_y
 _atom_site_fract_z
 _atom_site_occupancy
  O  O0  1  0.35105639  0.53371466  0.13289681  1
  O  O1  1  0.46628534  0.64894361  0.36710319  1
  O  O2  1  0.64894361  0.46628534  0.86710319  1
  O  O3  1  0.53371466  0.35105639  0.63289681  1
  O  O4  1  0.37235102  0.57719409  0.92616722  1
  O  O5  1  0.42280591  0.62764898  0.57383278  1
  O  O6  1  0.62764898  0.42280591  0.07383278  1
  O  O7  1  0.57719409  0.37235102  0.42616722  1
  O  O8  1  0.01515743  0.14060052  0.41028973  1
  O  O9  1  0.85939948  0.98484257  0.08971027  1
  O  O10  1  0.98484257  0.85939948  0.58971027  1
  O  O11  1  0.14060052  0.01515743  0.91028973  1
  O  O12  1  0.07634850  0.14512211  0.61264900  1
  O  O13  1  0.85487789  0.92365150  0.88735100  1
  O  O14  1  0.92365150  0.85487789  0.38735100  1
  O  O15  1  0.14512211  0.07634850  0.11264900  1
  O  O16  1  0.15335240  0.34864308  0.49220264  1
  O  O17  1  0.65135692  0.84664760  0.00779736  1
  O  O18  1  0.84664760  0.65135692  0.50779736  1
  O  O19  1  0.21179294  0.60192801  0.44374239  1
  O  O20  1  0.34864308  0.15335240  0.99220264  1
  O  O21  1  0.60537619  0.69961412  0.18124395  1
  O  O22  1  0.69961412  0.60537619  0.68124395  1
  O  O23  1  0.39462381  0.30038588  0.81875605  1
  O  O24  1  0.26725060  0.95885610  0.71615863  1
  O  O25  1  0.04114390  0.73274940  0.78384137  1
  O  O26  1  0.73274940  0.04114390  0.28384137  1
  O  O27  1  0.95885610  0.26725060  0.21615863  1
  O  O28  1  0.52571817  0.22153104  0.23091461  1
  O  O29  1  0.77846896  0.47428183  0.26908539  1
  O  O30  1  0.47428183  0.77846896  0.76908539  1
  O  O31  1  0.22153104  0.52571817  0.73091461  1
  O  O32  1  0.47852512  0.03019812  0.83818462  1
  O  O33  1  0.96980188  0.52147488  0.66181538  1
  O  O34  1  0.52147488  0.96980188  0.16181538  1
  O  O35  1  0.03019812  0.47852512  0.33818462  1
  O  O36  1  0.48293759  0.00482967  0.36035092  1
  O  O37  1  0.99517033  0.51706241  0.13964908  1
  O  O38  1  0.51706241  0.99517033  0.63964908  1
  O  O39  1  0.00482967  0.48293759  0.86035092  1
  O  O40  1  0.27859308  0.10635145  0.47188545  1
  O  O41  1  0.89364855  0.72140692  0.02811455  1
  O  O42  1  0.72140692  0.89364855  0.52811455  1
  O  O43  1  0.10635145  0.27859308  0.97188545  1
  O  O44  1  0.21784483  0.96271017  0.30334365  1
  O  O45  1  0.03728983  0.78215517  0.19665635  1
  O  O46  1  0.78215517  0.03728983  0.69665635  1
  O  O47  1  0.96271017  0.21784483  0.80334365  1
  O  O48  1  0.67372850  0.15765050  0.52743370  1
  O  O49  1  0.84234950  0.32627150  0.97256630  1
  O  O50  1  0.32627150  0.84234950  0.47256630  1
  O  O51  1  0.15765050  0.67372850  0.02743370  1
  O  O52  1  0.60192801  0.21179294  0.94374239  1
  O  O53  1  0.78820706  0.39807199  0.55625761  1
  O  O54  1  0.39807199  0.78820706  0.05625761  1
  O  O55  1  0.30038588  0.39462381  0.31875605  1
  P  P56  1  0.11476113  0.17531228  0.49917653  1
  P  P57  1  0.82468772  0.88523887  0.00082347  1
  P  P58  1  0.88523887  0.82468772  0.50082347  1
  P  P59  1  0.17531228  0.11476113  0.99917653  1
  P  P60  1  0.18338461  0.44998776  0.39010266  1
  P  P61  1  0.55001224  0.81661539  0.10989734  1
  P  P62  1  0.81661539  0.55001224  0.60989734  1
  P  P63  1  0.44998776  0.18338461  0.89010266  1
  P  P64  1  0.32859490  0.62525581  0.03446663  1
  P  P65  1  0.37474419  0.67140510  0.46553337  1
  P  P66  1  0.67140510  0.37474419  0.96553337  1
  P  P67  1  0.62525581  0.32859490  0.53446663  1
  P  P68  1  0.97827901  0.31811982  0.89308040  1
  P  P69  1  0.68188018  0.02172099  0.60691960  1
  P  P70  1  0.02172099  0.68188018  0.10691960  1
  P  P71  1  0.31811982  0.97827901  0.39308040  1
  P  P72  1  0.92815600  0.42203824  0.24162897  1
  P  P73  1  0.57796176  0.07184400  0.25837103  1
  P  P74  1  0.07184400  0.57796176  0.75837103  1
  P  P75  1  0.42203824  0.92815600  0.74162897  1
  Tm  Tm76  1  0.98022887  0.01977113  0.25000000  1
  Tm  Tm77  1  0.01977113  0.98022887  0.75000000  1
  Tm  Tm78  1  0.53367362  0.46632638  0.25000000  1
  Tm  Tm79  1  0.46632638  0.53367362  0.75000000  1
