# generated using pymatgen
data_Y(Fe5W)2
_symmetry_space_group_name_H-M   'P 1'
_cell_length_a   4.69046210
_cell_length_b   6.47016376
_cell_length_c   6.47016376
_cell_angle_alpha   97.61044822
_cell_angle_beta   111.25187739
_cell_angle_gamma   68.74812261
_symmetry_Int_Tables_number   1
_chemical_formula_structural   Y(Fe5W)2
_chemical_formula_sum   'Y1 Fe10 W2'
_cell_volume   170.55872765
_cell_formula_units_Z   1
loop_
 _symmetry_equiv_pos_site_id
 _symmetry_equiv_pos_as_xyz
  1  'x, y, z'
loop_
 _atom_site_type_symbol
 _atom_site_label
 _atom_site_symmetry_multiplicity
 _atom_site_fract_x
 _atom_site_fract_y
 _atom_site_fract_z
 _atom_site_occupancy
  Y  Y0  1  -0.00000000  0.00000000  -0.00000000  1
  Fe  Fe1  1  0.72345639  0.77654361  0.22345639  1
  Fe  Fe2  1  0.27654361  0.22345639  0.77654361  1
  Fe  Fe3  1  0.50000000  0.77934299  0.77934299  1
  Fe  Fe4  1  0.50000000  0.22065701  0.22065701  1
  Fe  Fe5  1  0.50000000  0.00000000  0.50000000  1
  Fe  Fe6  1  -0.00000000  0.00000000  0.50000000  1
  Fe  Fe7  1  0.50000000  0.50000000  -0.00000000  1
  Fe  Fe8  1  -0.00000000  0.50000000  -0.00000000  1
  Fe  Fe9  1  0.63089261  0.36910739  0.63089261  1
  Fe  Fe10  1  0.36910739  0.63089261  0.36910739  1
  W  W11  1  -0.00000000  0.35359694  0.35359694  1
  W  W12  1  0.00000000  0.64640306  0.64640306  1
