# generated using pymatgen
data_K2Ga2Sb3
_symmetry_space_group_name_H-M   'P 1'
_cell_length_a   7.34480323
_cell_length_b   15.00686406
_cell_length_c   16.89268971
_cell_angle_alpha   90.51162883
_cell_angle_beta   90.00000000
_cell_angle_gamma   90.00000000
_symmetry_Int_Tables_number   1
_chemical_formula_structural   K2Ga2Sb3
_chemical_formula_sum   'K16 Ga16 Sb24'
_cell_volume   1861.87964423
_cell_formula_units_Z   8
loop_
 _symmetry_equiv_pos_site_id
 _symmetry_equiv_pos_as_xyz
  1  'x, y, z'
loop_
 _atom_site_type_symbol
 _atom_site_label
 _atom_site_symmetry_multiplicity
 _atom_site_fract_x
 _atom_site_fract_y
 _atom_site_fract_z
 _atom_site_occupancy
  K  K0  1  0.97492368  0.14352913  0.99210899  1
  K  K1  1  0.47492368  0.85647087  0.50789101  1
  K  K2  1  0.02507632  0.85647087  0.00789101  1
  K  K3  1  0.52507632  0.14352913  0.49210899  1
  K  K4  1  0.53973016  0.65222008  0.01987698  1
  K  K5  1  0.03973016  0.34777992  0.48012302  1
  K  K6  1  0.46026984  0.34777992  0.98012302  1
  K  K7  1  0.96026984  0.65222008  0.51987698  1
  K  K8  1  0.52502462  0.92509381  0.11278956  1
  K  K9  1  0.02502462  0.07490619  0.38721044  1
  K  K10  1  0.47497538  0.07490619  0.88721044  1
  K  K11  1  0.97497538  0.92509381  0.61278956  1
  K  K12  1  0.95416410  0.44357730  0.89198586  1
  K  K13  1  0.45416410  0.55642270  0.60801414  1
  K  K14  1  0.04583590  0.55642270  0.10801414  1
  K  K15  1  0.54583590  0.44357730  0.39198586  1
  Ga  Ga16  1  0.28410096  0.68560548  0.83018646  1
  Ga  Ga17  1  0.78410096  0.31439452  0.66981354  1
  Ga  Ga18  1  0.71589904  0.31439452  0.16981354  1
  Ga  Ga19  1  0.21589904  0.68560548  0.33018646  1
  Ga  Ga20  1  0.79122433  0.09068481  0.73011156  1
  Ga  Ga21  1  0.29122433  0.90931519  0.76988844  1
  Ga  Ga22  1  0.20877567  0.90931519  0.26988844  1
  Ga  Ga23  1  0.70877567  0.09068481  0.23011156  1
  Ga  Ga24  1  0.76982273  0.81771627  0.82396302  1
  Ga  Ga25  1  0.26982273  0.18228373  0.67603698  1
  Ga  Ga26  1  0.23017727  0.18228373  0.17603698  1
  Ga  Ga27  1  0.73017727  0.81771627  0.32396302  1
  Ga  Ga28  1  0.76547313  0.59197076  0.76005730  1
  Ga  Ga29  1  0.26547313  0.40802924  0.73994270  1
  Ga  Ga30  1  0.23452687  0.40802924  0.23994270  1
  Ga  Ga31  1  0.73452687  0.59197076  0.26005730  1
  Sb  Sb32  1  0.96682036  0.97249624  0.82657290  1
  Sb  Sb33  1  0.46682036  0.02750376  0.67342710  1
  Sb  Sb34  1  0.03317964  0.02750376  0.17342710  1
  Sb  Sb35  1  0.53317964  0.97249624  0.32657290  1
  Sb  Sb36  1  0.45088180  0.83641859  0.90071488  1
  Sb  Sb37  1  0.95088180  0.16358141  0.59928512  1
  Sb  Sb38  1  0.54911820  0.16358141  0.09928512  1
  Sb  Sb39  1  0.04911820  0.83641859  0.40071488  1
  Sb  Sb40  1  0.94254891  0.67064112  0.88624116  1
  Sb  Sb41  1  0.44254891  0.32935888  0.61375884  1
  Sb  Sb42  1  0.05745109  0.32935888  0.11375884  1
  Sb  Sb43  1  0.55745109  0.67064112  0.38624116  1
  Sb  Sb44  1  0.81814447  0.74786651  0.17838046  1
  Sb  Sb45  1  0.31814447  0.25213349  0.32161954  1
  Sb  Sb46  1  0.18185553  0.25213349  0.82161954  1
  Sb  Sb47  1  0.68185553  0.74786651  0.67838046  1
  Sb  Sb48  1  0.46336443  0.52526740  0.83472491  1
  Sb  Sb49  1  0.96336443  0.47473260  0.66527509  1
  Sb  Sb50  1  0.53663557  0.47473260  0.16527509  1
  Sb  Sb51  1  0.03663557  0.52526740  0.33472491  1
  Sb  Sb52  1  0.21191052  0.75413455  0.18205435  1
  Sb  Sb53  1  0.71191052  0.24586545  0.31794565  1
  Sb  Sb54  1  0.78808948  0.24586545  0.81794565  1
  Sb  Sb55  1  0.28808948  0.75413455  0.68205435  1
