# generated using pymatgen
data_Dy3Ga5O12
_symmetry_space_group_name_H-M   'P 1'
_cell_length_a   10.74867278
_cell_length_b   10.74867278
_cell_length_c   10.74867278
_cell_angle_alpha   109.47122066
_cell_angle_beta   109.47122065
_cell_angle_gamma   109.47122062
_symmetry_Int_Tables_number   1
_chemical_formula_structural   Dy3Ga5O12
_chemical_formula_sum   'Dy12 Ga20 O48'
_cell_volume   955.96641464
_cell_formula_units_Z   4
loop_
 _symmetry_equiv_pos_site_id
 _symmetry_equiv_pos_as_xyz
  1  'x, y, z'
loop_
 _atom_site_type_symbol
 _atom_site_label
 _atom_site_symmetry_multiplicity
 _atom_site_fract_x
 _atom_site_fract_y
 _atom_site_fract_z
 _atom_site_occupancy
  O  O0  1  0.79382422  0.41731798  0.82261711  1
  O  O1  1  0.08268202  0.87650625  0.40529913  1
  O  O2  1  0.67738289  0.09470087  0.97120712  1
  O  O3  1  0.70617578  0.52879288  0.62349375  1
  O  O4  1  0.70617578  0.67738289  0.08268202  1
  O  O5  1  0.52879288  0.62349375  0.70617578  1
  O  O6  1  0.09470087  0.62349375  0.41731798  1
  O  O7  1  0.62349375  0.70617578  0.52879288  1
  O  O8  1  0.40529913  0.82261711  0.52879288  1
  O  O9  1  0.87650625  0.97120712  0.79382422  1
  O  O10  1  0.97120712  0.79382422  0.87650625  1
  O  O11  1  0.08268202  0.70617578  0.67738289  1
  O  O12  1  0.62349375  0.41731798  0.09470087  1
  O  O13  1  0.52879288  0.40529913  0.82261711  1
  O  O14  1  0.67738289  0.08268202  0.70617578  1
  O  O15  1  0.41731798  0.09470087  0.62349375  1
  O  O16  1  0.82261711  0.52879288  0.40529913  1
  O  O17  1  0.40529913  0.08268202  0.87650625  1
  O  O18  1  0.09470087  0.97120712  0.67738289  1
  O  O19  1  0.59470087  0.17738289  0.47120712  1
  O  O20  1  0.97120712  0.67738289  0.09470087  1
  O  O21  1  0.82261711  0.79382422  0.41731798  1
  O  O22  1  0.87650625  0.40529913  0.08268202  1
  O  O23  1  0.79382422  0.87650625  0.97120712  1
  O  O24  1  0.20617578  0.58268202  0.17738289  1
  O  O25  1  0.91731798  0.12349375  0.59470087  1
  O  O26  1  0.32261711  0.90529913  0.02879288  1
  O  O27  1  0.29382422  0.47120712  0.37650625  1
  O  O28  1  0.29382422  0.32261711  0.91731798  1
  O  O29  1  0.47120712  0.37650625  0.29382422  1
  O  O30  1  0.90529913  0.37650625  0.58268202  1
  O  O31  1  0.37650625  0.29382422  0.47120712  1
  O  O32  1  0.20617578  0.12349375  0.02879288  1
  O  O33  1  0.12349375  0.59470087  0.91731798  1
  O  O34  1  0.17738289  0.20617578  0.58268202  1
  O  O35  1  0.58268202  0.17738289  0.20617578  1
  O  O36  1  0.02879288  0.32261711  0.90529913  1
  O  O37  1  0.90529913  0.02879288  0.32261711  1
  O  O38  1  0.59470087  0.91731798  0.12349375  1
  O  O39  1  0.17738289  0.47120712  0.59470087  1
  O  O40  1  0.58268202  0.90529913  0.37650625  1
  O  O41  1  0.32261711  0.91731798  0.29382422  1
  O  O42  1  0.47120712  0.59470087  0.17738289  1
  O  O43  1  0.37650625  0.58268202  0.90529913  1
  O  O44  1  0.91731798  0.29382422  0.32261711  1
  O  O45  1  0.02879288  0.20617578  0.12349375  1
  O  O46  1  0.12349375  0.02879288  0.20617578  1
  O  O47  1  0.41731798  0.82261711  0.79382422  1
  Ga  Ga48  1  0.87500000  0.12500000  0.75000000  1
  Ga  Ga49  1  0.12500000  0.87500000  0.25000000  1
  Ga  Ga50  1  0.25000000  0.62500000  0.37500000  1
  Ga  Ga51  1  0.12500000  0.75000000  0.87500000  1
  Ga  Ga52  1  0.75000000  0.87500000  0.12500000  1
  Ga  Ga53  1  0.37500000  0.25000000  0.62500000  1
  Ga  Ga54  1  0.62500000  0.75000000  0.37500000  1
  Ga  Ga55  1  0.87500000  0.25000000  0.12500000  1
  Ga  Ga56  1  0.25000000  0.12500000  0.87500000  1
  Ga  Ga57  1  0.75000000  0.37500000  0.62500000  1
  Ga  Ga58  1  0.37500000  0.62500000  0.75000000  1
  Ga  Ga59  1  0.62500000  0.37500000  0.25000000  1
  Ga  Ga60  1  0.50000000  0.50000000  0.50000000  1
  Ga  Ga61  1  0.50000000  0.50000000  0.00000000  1
  Ga  Ga62  1  0.50000000  0.00000000  0.50000000  1
  Ga  Ga63  1  0.00000000  0.50000000  0.50000000  1
  Ga  Ga64  1  0.50000000  0.00000000  0.00000000  1
  Ga  Ga65  1  0.00000000  0.00000000  0.50000000  1
  Ga  Ga66  1  0.00000000  0.50000000  0.00000000  1
  Ga  Ga67  1  0.00000000  0.00000000  0.00000000  1
  Dy  Dy68  1  0.62500000  0.25000000  0.87500000  1
  Dy  Dy69  1  0.87500000  0.75000000  0.62500000  1
  Dy  Dy70  1  0.75000000  0.62500000  0.87500000  1
  Dy  Dy71  1  0.25000000  0.87500000  0.62500000  1
  Dy  Dy72  1  0.87500000  0.62500000  0.25000000  1
  Dy  Dy73  1  0.62500000  0.87500000  0.75000000  1
  Dy  Dy74  1  0.37500000  0.75000000  0.12500000  1
  Dy  Dy75  1  0.12500000  0.25000000  0.37500000  1
  Dy  Dy76  1  0.25000000  0.37500000  0.12500000  1
  Dy  Dy77  1  0.75000000  0.12500000  0.37500000  1
  Dy  Dy78  1  0.12500000  0.37500000  0.75000000  1
  Dy  Dy79  1  0.37500000  0.12500000  0.25000000  1
