# generated using pymatgen
data_V2FeTe4
_symmetry_space_group_name_H-M   'P 1'
_cell_length_a   3.97941967
_cell_length_b   6.87744089
_cell_length_c   7.00466556
_cell_angle_alpha   118.65277462
_cell_angle_beta   73.49763403
_cell_angle_gamma   90.00000000
_symmetry_Int_Tables_number   1
_chemical_formula_structural   V2FeTe4
_chemical_formula_sum   'V2 Fe1 Te4'
_cell_volume   159.17219139
_cell_formula_units_Z   1
loop_
 _symmetry_equiv_pos_site_id
 _symmetry_equiv_pos_as_xyz
  1  'x, y, z'
loop_
 _atom_site_type_symbol
 _atom_site_label
 _atom_site_symmetry_multiplicity
 _atom_site_fract_x
 _atom_site_fract_y
 _atom_site_fract_z
 _atom_site_occupancy
  V  V0  1  0.00152555  0.00052377  0.99694891  1
  V  V1  1  0.74543732  0.27551206  0.50912537  1
  Fe  Fe2  1  0.25306071  0.72194408  0.49387859  1
  Te  Te3  1  0.11712987  0.54935942  0.76574026  1
  Te  Te4  1  0.88220726  0.46358760  0.23558548  1
  Te  Te5  1  0.36813647  0.96003762  0.26372706  1
  Te  Te6  1  0.63250283  0.02903545  0.73499433  1
