# generated using pymatgen
data_KNa2Si12(BO10)3
_symmetry_space_group_name_H-M   'P 1'
_cell_length_a   10.36794100
_cell_length_b   10.36794100
_cell_length_c   13.67762961
_cell_angle_alpha   90.00000000
_cell_angle_beta   90.00000000
_cell_angle_gamma   120.00000000
_symmetry_Int_Tables_number   1
_chemical_formula_structural   KNa2Si12(BO10)3
_chemical_formula_sum   'K2 Na4 Si24 B6 O60'
_cell_volume   1273.28758559
_cell_formula_units_Z   2
loop_
 _symmetry_equiv_pos_site_id
 _symmetry_equiv_pos_as_xyz
  1  'x, y, z'
loop_
 _atom_site_type_symbol
 _atom_site_label
 _atom_site_symmetry_multiplicity
 _atom_site_fract_x
 _atom_site_fract_y
 _atom_site_fract_z
 _atom_site_occupancy
  B  B0  1  0.00000000  0.50000000  0.25000000  1
  B  B1  1  0.50000000  0.50000000  0.75000000  1
  B  B2  1  0.50000000  0.00000000  0.75000000  1
  B  B3  1  0.00000000  0.50000000  0.75000000  1
  B  B4  1  0.50000000  0.50000000  0.25000000  1
  B  B5  1  0.50000000  0.00000000  0.25000000  1
  O  O6  1  0.18902438  0.28221127  0.13208008  1
  O  O7  1  0.09977069  0.62897299  0.68781907  1
  O  O8  1  0.09977069  0.47079770  0.81218093  1
  O  O9  1  0.52920230  0.90022931  0.68781907  1
  O  O10  1  0.47079770  0.09977069  0.68781907  1
  O  O11  1  0.62897299  0.52920230  0.68781907  1
  O  O12  1  0.37102701  0.47079770  0.68781907  1
  O  O13  1  0.62897299  0.09977069  0.81218093  1
  O  O14  1  0.47079770  0.37102701  0.81218093  1
  O  O15  1  0.52920230  0.62897299  0.81218093  1
  O  O16  1  0.37102701  0.90022931  0.81218093  1
  O  O17  1  0.90022931  0.52920230  0.81218093  1
  O  O18  1  0.09977069  0.62897299  0.31218093  1
  O  O19  1  0.37102701  0.47079770  0.31218093  1
  O  O20  1  0.52920230  0.90022931  0.31218093  1
  O  O21  1  0.47079770  0.09977069  0.31218093  1
  O  O22  1  0.90022931  0.52920230  0.18781907  1
  O  O23  1  0.90022931  0.37102701  0.31218093  1
  O  O24  1  0.62897299  0.52920230  0.31218093  1
  O  O25  1  0.37102701  0.90022931  0.18781907  1
  O  O26  1  0.52920230  0.62897299  0.18781907  1
  O  O27  1  0.47079770  0.37102701  0.18781907  1
  O  O28  1  0.62897299  0.09977069  0.18781907  1
  O  O29  1  0.09318689  0.28221127  0.63208008  1
  O  O30  1  0.81097562  0.09318689  0.63208008  1
  O  O31  1  0.90681311  0.71778873  0.63208008  1
  O  O32  1  0.28221127  0.18902438  0.63208008  1
  O  O33  1  0.71778873  0.81097562  0.63208008  1
  O  O34  1  0.18902438  0.28221127  0.86791992  1
  O  O35  1  0.18902438  0.90681311  0.63208008  1
  O  O36  1  0.08225326  0.39417995  0.00000000  1
  O  O37  1  0.68807331  0.08225326  0.00000000  1
  O  O38  1  0.39417995  0.31192669  0.00000000  1
  O  O39  1  0.60582005  0.68807331  0.00000000  1
  O  O40  1  0.31192669  0.91774674  0.00000000  1
  O  O41  1  0.68807331  0.60582005  0.50000000  1
  O  O42  1  0.91774674  0.31192669  0.50000000  1
  O  O43  1  0.91774674  0.60582005  0.00000000  1
  O  O44  1  0.39417995  0.08225326  0.50000000  1
  O  O45  1  0.60582005  0.91774674  0.50000000  1
  O  O46  1  0.31192669  0.39417995  0.50000000  1
  O  O47  1  0.08225326  0.68807331  0.50000000  1
  O  O48  1  0.90022931  0.37102701  0.68781907  1
  O  O49  1  0.90681311  0.18902438  0.13208008  1
  O  O50  1  0.28221127  0.09318689  0.13208008  1
  O  O51  1  0.71778873  0.90681311  0.13208008  1
  O  O52  1  0.09318689  0.81097562  0.13208008  1
  O  O53  1  0.90681311  0.71778873  0.36791992  1
  O  O54  1  0.81097562  0.09318689  0.36791992  1
  O  O55  1  0.81097562  0.71778873  0.13208008  1
  O  O56  1  0.28221127  0.18902438  0.36791992  1
  O  O57  1  0.71778873  0.81097562  0.36791992  1
  O  O58  1  0.09318689  0.28221127  0.36791992  1
  O  O59  1  0.18902438  0.90681311  0.36791992  1
  O  O60  1  0.81097562  0.71778873  0.86791992  1
  O  O61  1  0.09318689  0.81097562  0.86791992  1
  O  O62  1  0.71778873  0.90681311  0.86791992  1
  O  O63  1  0.28221127  0.09318689  0.86791992  1
  O  O64  1  0.90681311  0.18902438  0.86791992  1
  O  O65  1  0.09977069  0.47079770  0.18781907  1
  Na  Na66  1  0.66666667  0.33333333  0.25000000  1
  Na  Na67  1  0.66666667  0.33333333  0.75000000  1
  Na  Na68  1  0.33333333  0.66666667  0.75000000  1
  Na  Na69  1  0.33333333  0.66666667  0.25000000  1
  Si  Si70  1  0.26922515  0.33782715  0.38704366  1
  Si  Si71  1  0.06860200  0.73077485  0.61295634  1
  Si  Si72  1  0.26922515  0.33782715  0.61295634  1
  Si  Si73  1  0.73077485  0.06860200  0.88704366  1
  Si  Si74  1  0.33782715  0.26922515  0.88704366  1
  Si  Si75  1  0.66217285  0.73077485  0.88704366  1
  Si  Si76  1  0.26922515  0.93139800  0.88704366  1
  Si  Si77  1  0.93139800  0.66217285  0.88704366  1
  Si  Si78  1  0.06860200  0.73077485  0.38704366  1
  Si  Si79  1  0.06860200  0.33782715  0.88704366  1
  Si  Si80  1  0.66217285  0.93139800  0.38704366  1
  Si  Si81  1  0.66217285  0.93139800  0.61295634  1
  Si  Si82  1  0.93139800  0.66217285  0.11295634  1
  Si  Si83  1  0.93139800  0.26922515  0.38704366  1
  Si  Si84  1  0.73077485  0.66217285  0.38704366  1
  Si  Si85  1  0.26922515  0.93139800  0.11295634  1
  Si  Si86  1  0.66217285  0.73077485  0.11295634  1
  Si  Si87  1  0.33782715  0.26922515  0.11295634  1
  Si  Si88  1  0.73077485  0.06860200  0.11295634  1
  Si  Si89  1  0.06860200  0.33782715  0.11295634  1
  Si  Si90  1  0.33782715  0.06860200  0.61295634  1
  Si  Si91  1  0.73077485  0.66217285  0.61295634  1
  Si  Si92  1  0.93139800  0.26922515  0.61295634  1
  Si  Si93  1  0.33782715  0.06860200  0.38704366  1
  K  K94  1  0.00000000  0.00000000  0.75000000  1
  K  K95  1  0.00000000  0.00000000  0.25000000  1
