# generated using pymatgen
data_NaLiZr(Si2O5)3
_symmetry_space_group_name_H-M   'P 1'
_cell_length_a   10.30604355
_cell_length_b   11.40345286
_cell_length_c   11.40345286
_cell_angle_alpha   100.61971353
_cell_angle_beta   90.00000000
_cell_angle_gamma   90.00000000
_symmetry_Int_Tables_number   1
_chemical_formula_structural   NaLiZr(Si2O5)3
_chemical_formula_sum   'Na4 Li4 Zr4 Si24 O60'
_cell_volume   1317.23020132
_cell_formula_units_Z   4
loop_
 _symmetry_equiv_pos_site_id
 _symmetry_equiv_pos_as_xyz
  1  'x, y, z'
loop_
 _atom_site_type_symbol
 _atom_site_label
 _atom_site_symmetry_multiplicity
 _atom_site_fract_x
 _atom_site_fract_y
 _atom_site_fract_z
 _atom_site_occupancy
  Li  Li0  1  0.00000000  0.24678004  0.24678004  1
  Li  Li1  1  0.50000000  0.74678004  0.74678004  1
  Li  Li2  1  0.00000000  0.75321996  0.75321996  1
  Li  Li3  1  0.50000000  0.25321996  0.25321996  1
  O  O4  1  0.92283949  0.24821789  0.40663044  1
  O  O5  1  0.42587179  0.67882632  0.32117368  1
  O  O6  1  0.92587179  0.82117368  0.17882632  1
  O  O7  1  0.57412821  0.32117368  0.67882632  1
  O  O8  1  0.81705875  0.05648644  0.94351356  1
  O  O9  1  0.31705875  0.44351356  0.55648644  1
  O  O10  1  0.18294125  0.94351356  0.05648644  1
  O  O11  1  0.68294125  0.55648644  0.44351356  1
  O  O12  1  0.49842178  0.10710128  0.89289872  1
  O  O13  1  0.99842178  0.39289872  0.60710128  1
  O  O14  1  0.50157822  0.89289872  0.10710128  1
  O  O15  1  0.00157822  0.60710128  0.39289872  1
  O  O16  1  0.83388998  0.65394307  0.00391386  1
  O  O17  1  0.33388998  0.84605693  0.49608614  1
  O  O18  1  0.16611002  0.00391386  0.65394307  1
  O  O19  1  0.66611002  0.49608614  0.84605693  1
  O  O20  1  0.16611002  0.34605693  0.99608614  1
  O  O21  1  0.66611002  0.15394307  0.50391386  1
  O  O22  1  0.83388998  0.99608614  0.34605693  1
  O  O23  1  0.33388998  0.50391386  0.15394307  1
  O  O24  1  0.08493186  0.72101000  0.00259877  1
  O  O25  1  0.58493186  0.77899000  0.49740123  1
  O  O26  1  0.91506814  0.00259877  0.72101000  1
  O  O27  1  0.84002283  0.16863431  0.17146563  1
  O  O28  1  0.91506814  0.27899000  0.99740123  1
  O  O29  1  0.41506814  0.22101000  0.50259877  1
  O  O30  1  0.08493186  0.99740123  0.27899000  1
  O  O31  1  0.58493186  0.50259877  0.22101000  1
  O  O32  1  0.15997717  0.83136569  0.82853437  1
  O  O33  1  0.65997717  0.66863431  0.67146563  1
  O  O34  1  0.84002283  0.82853437  0.83136569  1
  O  O35  1  0.34002283  0.67146563  0.66863431  1
  O  O36  1  0.00670778  0.59423200  0.15556204  1
  O  O37  1  0.50670778  0.90576800  0.34443796  1
  O  O38  1  0.99329222  0.15556204  0.59423200  1
  O  O39  1  0.49329222  0.34443796  0.90576800  1
  O  O40  1  0.99329222  0.40576800  0.84443796  1
  O  O41  1  0.49329222  0.09423200  0.65556204  1
  O  O42  1  0.00670778  0.84443796  0.40576800  1
  O  O43  1  0.50670778  0.65556204  0.09423200  1
  O  O44  1  0.07716051  0.40663044  0.24821789  1
  O  O45  1  0.57716051  0.09336956  0.25178211  1
  O  O46  1  0.07412821  0.17882632  0.82117368  1
  O  O47  1  0.42283949  0.25178211  0.09336956  1
  O  O48  1  0.92283949  0.59336956  0.75178211  1
  O  O49  1  0.42283949  0.90663044  0.74821789  1
  O  O50  1  0.07716051  0.75178211  0.59336956  1
  O  O51  1  0.57716051  0.74821789  0.90663044  1
  O  O52  1  0.82932506  0.47514638  0.25013545  1
  O  O53  1  0.32932506  0.02485362  0.24986455  1
  O  O54  1  0.17067494  0.25013545  0.47514638  1
  O  O55  1  0.67067494  0.24986455  0.02485362  1
  O  O56  1  0.17067494  0.52485362  0.74986455  1
  O  O57  1  0.67067494  0.97514638  0.75013545  1
  O  O58  1  0.82932506  0.74986455  0.52485362  1
  O  O59  1  0.32932506  0.75013545  0.97514638  1
  O  O60  1  0.65997717  0.32853437  0.33136569  1
  O  O61  1  0.15997717  0.17146563  0.16863431  1
  O  O62  1  0.34002283  0.33136569  0.32853437  1
  O  O63  1  0.41506814  0.49740123  0.77899000  1
  Na  Na64  1  0.75000000  0.46562148  0.03437852  1
  Na  Na65  1  0.25000000  0.03437852  0.46562148  1
  Na  Na66  1  0.25000000  0.53437852  0.96562148  1
  Na  Na67  1  0.75000000  0.96562148  0.53437852  1
  Si  Si68  1  0.48182457  0.76382230  0.02037243  1
  Si  Si69  1  0.54100684  0.19934326  0.58459453  1
  Si  Si70  1  0.95899316  0.91540547  0.30065674  1
  Si  Si71  1  0.45899316  0.58459453  0.19934326  1
  Si  Si72  1  0.18901792  0.81682283  0.96382234  1
  Si  Si73  1  0.68901792  0.68317717  0.53617766  1
  Si  Si74  1  0.81098208  0.96382234  0.81682283  1
  Si  Si75  1  0.31098208  0.53617766  0.68317717  1
  Si  Si76  1  0.81098208  0.18317717  0.03617766  1
  Si  Si77  1  0.31098208  0.31682283  0.46382234  1
  Si  Si78  1  0.18901792  0.03617766  0.18317717  1
  Si  Si79  1  0.68901792  0.46382234  0.31682283  1
  Si  Si80  1  0.04100684  0.30065674  0.91540547  1
  Si  Si81  1  0.98182457  0.73617770  0.47962757  1
  Si  Si82  1  0.54100684  0.41540547  0.80065674  1
  Si  Si83  1  0.01817543  0.47962757  0.73617770  1
  Si  Si84  1  0.51817543  0.23617770  0.97962757  1
  Si  Si85  1  0.01817543  0.26382230  0.52037243  1
  Si  Si86  1  0.48182457  0.97962757  0.23617770  1
  Si  Si87  1  0.98182457  0.52037243  0.26382230  1
  Si  Si88  1  0.95899316  0.69934326  0.08459453  1
  Si  Si89  1  0.45899316  0.80065674  0.41540547  1
  Si  Si90  1  0.04100684  0.08459453  0.69934326  1
  Si  Si91  1  0.51817543  0.02037243  0.76382230  1
  Zr  Zr92  1  0.75000000  0.16156478  0.33843522  1
  Zr  Zr93  1  0.25000000  0.33843522  0.16156478  1
  Zr  Zr94  1  0.25000000  0.83843522  0.66156478  1
  Zr  Zr95  1  0.75000000  0.66156478  0.83843522  1
