# generated using pymatgen
data_Ga(PO3)3
_symmetry_space_group_name_H-M   'P 1'
_cell_length_a   9.47358106
_cell_length_b   10.70990924
_cell_length_c   11.66679797
_cell_angle_alpha   113.54368097
_cell_angle_beta   109.79724616
_cell_angle_gamma   98.43313254
_symmetry_Int_Tables_number   1
_chemical_formula_structural   Ga(PO3)3
_chemical_formula_sum   'Ga6 P18 O54'
_cell_volume   964.96555428
_cell_formula_units_Z   6
loop_
 _symmetry_equiv_pos_site_id
 _symmetry_equiv_pos_as_xyz
  1  'x, y, z'
loop_
 _atom_site_type_symbol
 _atom_site_label
 _atom_site_symmetry_multiplicity
 _atom_site_fract_x
 _atom_site_fract_y
 _atom_site_fract_z
 _atom_site_occupancy
  O  O0  1  0.87487327  0.05805016  0.37689320  1
  O  O1  1  0.99798007  0.68115696  0.62310680  1
  O  O2  1  0.71033444  0.06058063  0.96363838  1
  O  O3  1  0.24669606  0.09694225  0.03636162  1
  O  O4  1  0.45011820  0.09308279  0.77982793  1
  O  O5  1  0.17029027  0.31325486  0.22017207  1
  O  O6  1  0.71299284  0.55631077  0.18654460  1
  O  O7  1  0.02644824  0.36976617  0.81345540  1
  O  O8  1  0.89207747  0.79303566  0.38680553  1
  O  O9  1  0.00527194  0.40623014  0.61319447  1
  O  O10  1  0.41300810  0.17143244  0.54430304  1
  O  O11  1  0.36870506  0.62712941  0.45569696  1
  O  O12  1  0.20210500  0.20099241  0.37772300  1
  O  O13  1  0.32438201  0.82326941  0.62227700  1
  O  O14  1  0.98728480  0.31321492  0.33954565  1
  O  O15  1  0.14773915  0.97366927  0.66045435  1
  O  O16  1  0.76352153  0.42673292  0.42532913  1
  O  O17  1  0.83819240  0.00140380  0.57467087  1
  O  O18  1  0.55156772  0.43873572  0.67980353  1
  O  O19  1  0.37176419  0.75893219  0.32019647  1
  O  O20  1  0.69710648  0.96147440  0.12271755  1
  O  O21  1  0.07438893  0.83875685  0.87728245  1
  O  O22  1  0.31221295  0.99731235  0.28791165  1
  O  O23  1  0.52430131  0.70940070  0.71208835  1
  O  O24  1  0.27502227  0.47471638  0.79804940  1
  O  O25  1  0.97697287  0.67666698  0.20195060  1
  O  O26  1  0.02760451  0.47363205  0.04589153  1
  O  O27  1  0.48171298  0.42774052  0.95410847  1
  O  O28  1  0.51878534  0.30942255  0.10547859  1
  O  O29  1  0.91330675  0.20394397  0.89452141  1
  O  O30  1  0.71134083  0.33026937  0.00080803  1
  O  O31  1  0.21053280  0.32946134  0.99919197  1
  O  O32  1  0.12122739  0.21143268  0.64408380  1
  O  O33  1  0.97714359  0.56734888  0.35591620  1
  O  O34  1  0.63387276  0.75294356  0.47669981  1
  O  O35  1  0.65717295  0.27624375  0.52330019  1
  O  O36  1  0.14762979  0.98640419  0.42026801  1
  O  O37  1  0.22736178  0.56613618  0.57973199  1
  O  O38  1  0.38392195  0.63621783  0.05829647  1
  O  O39  1  0.82562548  0.57792136  0.94170353  1
  O  O40  1  0.34887540  0.88847533  0.04602310  1
  O  O41  1  0.80285230  0.84245223  0.95397690  1
  O  O42  1  0.44383387  0.52462820  0.26425282  1
  O  O43  1  0.67958105  0.26037539  0.73574718  1
  O  O44  1  0.81047397  0.63722387  0.72683400  1
  O  O45  1  0.58363997  0.91038987  0.27316600  1
  O  O46  1  0.31983788  0.93134933  0.85128647  1
  O  O47  1  0.96855142  0.08006287  0.14871353  1
  O  O48  1  0.64387626  0.97212931  0.67596259  1
  O  O49  1  0.46791367  0.29616672  0.32403741  1
  O  O50  1  0.55000878  0.64962511  0.92786942  1
  O  O51  1  0.12213936  0.72175569  0.07213058  1
  O  O52  1  0.86580783  0.86636440  0.70879952  1
  O  O53  1  0.65700830  0.15756488  0.29120048  1
  P  P54  1  0.60706506  0.39601390  0.06173109  1
  P  P55  1  0.04533398  0.33428281  0.93826891  1
  P  P56  1  0.98451361  0.61590846  0.05606532  1
  P  P57  1  0.42844830  0.55984315  0.94393468  1
  P  P58  1  0.78886667  0.98497910  0.03663138  1
  P  P59  1  0.25223529  0.94834773  0.96336862  1
  P  P60  1  0.58016411  0.29577097  0.63072970  1
  P  P61  1  0.44943441  0.66504127  0.36927030  1
  P  P62  1  0.93194373  0.74291916  0.72535019  1
  P  P63  1  0.70659355  0.01756898  0.27464981  1
  P  P64  1  0.36450203  0.67815451  0.60229327  1
  P  P65  1  0.26220876  0.07586124  0.39770673  1
  P  P66  1  0.10237209  0.35666807  0.70642279  1
  P  P67  1  0.89594930  0.65024529  0.29357721  1
  P  P68  1  0.08160389  0.23807282  0.27222854  1
  P  P69  1  0.30937535  0.96584428  0.72777146  1
  P  P70  1  0.63558412  0.29873288  0.39080194  1
  P  P71  1  0.74478217  0.90793093  0.60919806  1
  Ga  Ga72  1  0.67536445  0.64067370  0.82341039  1
  Ga  Ga73  1  0.35195405  0.81726331  0.17658961  1
  Ga  Ga74  1  0.34205309  0.31079146  0.15922469  1
  Ga  Ga75  1  0.68282840  0.15156678  0.84077531  1
  Ga  Ga76  1  0.99447777  0.49282786  0.48938851  1
  Ga  Ga77  1  0.00508927  0.00343935  0.51061149  1
