# generated using pymatgen
data_K2Ga2As3
_symmetry_space_group_name_H-M   'P 1'
_cell_length_a   6.86242754
_cell_length_b   14.00713419
_cell_length_c   15.92125664
_cell_angle_alpha   90.27398483
_cell_angle_beta   90.00000000
_cell_angle_gamma   90.00000000
_symmetry_Int_Tables_number   1
_chemical_formula_structural   K2Ga2As3
_chemical_formula_sum   'K16 Ga16 As24'
_cell_volume   1530.38055360
_cell_formula_units_Z   8
loop_
 _symmetry_equiv_pos_site_id
 _symmetry_equiv_pos_as_xyz
  1  'x, y, z'
loop_
 _atom_site_type_symbol
 _atom_site_label
 _atom_site_symmetry_multiplicity
 _atom_site_fract_x
 _atom_site_fract_y
 _atom_site_fract_z
 _atom_site_occupancy
  K  K0  1  0.96812390  0.14447410  0.99570460  1
  K  K1  1  0.46812390  0.85552590  0.50429540  1
  K  K2  1  0.03187610  0.85552590  0.00429540  1
  K  K3  1  0.53187610  0.14447410  0.49570460  1
  K  K4  1  0.55358540  0.65329681  0.01830829  1
  K  K5  1  0.05358540  0.34670319  0.48169171  1
  K  K6  1  0.44641460  0.34670319  0.98169171  1
  K  K7  1  0.94641460  0.65329681  0.51830829  1
  K  K8  1  0.53406487  0.92123055  0.10826916  1
  K  K9  1  0.03406487  0.07876945  0.39173084  1
  K  K10  1  0.46593513  0.07876945  0.89173084  1
  K  K11  1  0.96593513  0.92123055  0.60826916  1
  K  K12  1  0.93231605  0.44247321  0.89825343  1
  K  K13  1  0.43231605  0.55752679  0.60174657  1
  K  K14  1  0.06768395  0.55752679  0.10174657  1
  K  K15  1  0.56768395  0.44247321  0.39825343  1
  Ga  Ga16  1  0.27418995  0.68553218  0.82486574  1
  Ga  Ga17  1  0.77418995  0.31446782  0.67513426  1
  Ga  Ga18  1  0.72581005  0.31446782  0.17513426  1
  Ga  Ga19  1  0.22581005  0.68553218  0.32486574  1
  Ga  Ga20  1  0.78871695  0.09110774  0.73122881  1
  Ga  Ga21  1  0.28871695  0.90889226  0.76877119  1
  Ga  Ga22  1  0.21128305  0.90889226  0.26877119  1
  Ga  Ga23  1  0.71128305  0.09110774  0.23122881  1
  Ga  Ga24  1  0.75960828  0.81630840  0.81877725  1
  Ga  Ga25  1  0.25960828  0.18369160  0.68122275  1
  Ga  Ga26  1  0.24039172  0.18369160  0.18122275  1
  Ga  Ga27  1  0.74039172  0.81630840  0.31877725  1
  Ga  Ga28  1  0.75259124  0.59214111  0.75887994  1
  Ga  Ga29  1  0.25259124  0.40785889  0.74112006  1
  Ga  Ga30  1  0.24740876  0.40785889  0.24112006  1
  Ga  Ga31  1  0.74740876  0.59214111  0.25887994  1
  As  As32  1  0.96017541  0.96789438  0.82155075  1
  As  As33  1  0.46017541  0.03210562  0.67844925  1
  As  As34  1  0.03982459  0.03210562  0.17844925  1
  As  As35  1  0.53982459  0.96789438  0.32155075  1
  As  As36  1  0.44641737  0.83455229  0.89661938  1
  As  As37  1  0.94641737  0.16544771  0.60338062  1
  As  As38  1  0.55358263  0.16544771  0.10338062  1
  As  As39  1  0.05358263  0.83455229  0.39661938  1
  As  As40  1  0.93588656  0.67135885  0.87988406  1
  As  As41  1  0.43588656  0.32864115  0.62011594  1
  As  As42  1  0.06411344  0.32864115  0.12011594  1
  As  As43  1  0.56411344  0.67135885  0.37988406  1
  As  As44  1  0.83748283  0.74600424  0.17669474  1
  As  As45  1  0.33748283  0.25399576  0.32330526  1
  As  As46  1  0.16251717  0.25399576  0.82330526  1
  As  As47  1  0.66251717  0.74600424  0.67669474  1
  As  As48  1  0.45007455  0.52637782  0.83247428  1
  As  As49  1  0.95007455  0.47362218  0.66752572  1
  As  As50  1  0.54992545  0.47362218  0.16752572  1
  As  As51  1  0.04992545  0.52637782  0.33247428  1
  As  As52  1  0.20187617  0.75654581  0.18040766  1
  As  As53  1  0.70187617  0.24345419  0.31959234  1
  As  As54  1  0.79812383  0.24345419  0.81959234  1
  As  As55  1  0.29812383  0.75654581  0.68040766  1
