# generated using pymatgen
data_BaNaAlF6
_symmetry_space_group_name_H-M   'P 1'
_cell_length_a   5.52503716
_cell_length_b   10.03262612
_cell_length_c   18.96049386
_cell_angle_alpha   90.00000000
_cell_angle_beta   90.00000000
_cell_angle_gamma   90.00000000
_symmetry_Int_Tables_number   1
_chemical_formula_structural   BaNaAlF6
_chemical_formula_sum   'Ba8 Na8 Al8 F48'
_cell_volume   1050.99216007
_cell_formula_units_Z   8
loop_
 _symmetry_equiv_pos_site_id
 _symmetry_equiv_pos_as_xyz
  1  'x, y, z'
loop_
 _atom_site_type_symbol
 _atom_site_label
 _atom_site_symmetry_multiplicity
 _atom_site_fract_x
 _atom_site_fract_y
 _atom_site_fract_z
 _atom_site_occupancy
  F  F0  1  0.01125924  0.99875071  0.03007488  1
  F  F1  1  0.98874076  0.49875071  0.96992512  1
  F  F2  1  0.48874076  0.99875071  0.53007488  1
  F  F3  1  0.51125924  0.49875071  0.46992512  1
  F  F4  1  0.45392143  0.67534785  0.03669430  1
  F  F5  1  0.54607857  0.17534785  0.96330570  1
  F  F6  1  0.04607857  0.67534785  0.53669430  1
  F  F7  1  0.95392143  0.17534785  0.46330570  1
  F  F8  1  0.20613779  0.22846937  0.05193288  1
  F  F9  1  0.79386221  0.72846937  0.94806712  1
  F  F10  1  0.29386221  0.22846937  0.55193288  1
  F  F11  1  0.70613779  0.72846937  0.44806712  1
  F  F12  1  0.46087274  0.00779708  0.05927231  1
  F  F13  1  0.53912726  0.50779708  0.94072769  1
  F  F14  1  0.03912726  0.00779708  0.55927231  1
  F  F15  1  0.96087274  0.50779708  0.44072769  1
  F  F16  1  0.92262597  0.65498344  0.07762251  1
  F  F17  1  0.07737403  0.15498344  0.92237749  1
  F  F18  1  0.04727867  0.51881346  0.80778184  1
  F  F19  1  0.42262597  0.15498344  0.42237749  1
  F  F20  1  0.66038201  0.45010604  0.06786227  1
  F  F21  1  0.33961799  0.95010604  0.93213773  1
  F  F22  1  0.83961799  0.45010604  0.56786227  1
  F  F23  1  0.16038201  0.95010604  0.43213773  1
  F  F24  1  0.69617088  0.79864931  0.19619471  1
  F  F25  1  0.30382912  0.29864931  0.80380529  1
  F  F26  1  0.80382912  0.79864931  0.69619471  1
  F  F27  1  0.19617088  0.29864931  0.30380529  1
  F  F28  1  0.95272133  0.01881346  0.19221816  1
  F  F29  1  0.99714798  0.52722796  0.28235704  1
  F  F30  1  0.54727867  0.01881346  0.69221816  1
  F  F31  1  0.45272133  0.51881346  0.30778184  1
  F  F32  1  0.05302705  0.37064386  0.17519400  1
  F  F33  1  0.94697295  0.87064386  0.82480600  1
  F  F34  1  0.44697295  0.37064386  0.67519400  1
  F  F35  1  0.55302705  0.87064386  0.32480600  1
  F  F36  1  0.31472270  0.57613333  0.18211361  1
  F  F37  1  0.68527730  0.07613333  0.81788639  1
  F  F38  1  0.18527730  0.57613333  0.68211361  1
  F  F39  1  0.81472270  0.07613333  0.31788639  1
  F  F40  1  0.52397817  0.35050890  0.21135340  1
  F  F41  1  0.47602183  0.85050890  0.78864660  1
  F  F42  1  0.97602183  0.35050890  0.71135340  1
  F  F43  1  0.02397817  0.85050890  0.28864660  1
  F  F44  1  0.49714798  0.02722796  0.21764296  1
  F  F45  1  0.50285202  0.52722796  0.78235704  1
  F  F46  1  0.00285202  0.02722796  0.71764296  1
  F  F47  1  0.57737403  0.65498344  0.57762251  1
  Na  Na48  1  0.24063650  0.06458138  0.31384403  1
  Na  Na49  1  0.23610724  0.46269197  0.06679446  1
  Na  Na50  1  0.76389276  0.96269197  0.93320554  1
  Na  Na51  1  0.26389276  0.46269197  0.56679446  1
  Na  Na52  1  0.73610724  0.96269197  0.43320554  1
  Na  Na53  1  0.74063650  0.56458138  0.18615597  1
  Na  Na54  1  0.25936350  0.06458138  0.81384403  1
  Na  Na55  1  0.75936350  0.56458138  0.68615597  1
  Al  Al56  1  0.25138594  0.43641483  0.24293817  1
  Al  Al57  1  0.73081072  0.58984910  0.00779391  1
  Al  Al58  1  0.26918928  0.08984910  0.99220609  1
  Al  Al59  1  0.76918928  0.58984910  0.50779391  1
  Al  Al60  1  0.23081072  0.08984910  0.49220609  1
  Al  Al61  1  0.74861406  0.93641483  0.75706183  1
  Al  Al62  1  0.24861406  0.43641483  0.74293817  1
  Al  Al63  1  0.75138594  0.93641483  0.25706183  1
  Ba  Ba64  1  0.73667095  0.32920253  0.36222430  1
  Ba  Ba65  1  0.26332905  0.82920253  0.63777570  1
  Ba  Ba66  1  0.76332905  0.32920253  0.86222430  1
  Ba  Ba67  1  0.23667095  0.82920253  0.13777570  1
  Ba  Ba68  1  0.24180531  0.69837887  0.38878647  1
  Ba  Ba69  1  0.74180531  0.19837887  0.11121353  1
  Ba  Ba70  1  0.25819469  0.69837887  0.88878647  1
  Ba  Ba71  1  0.75819469  0.19837887  0.61121353  1
