# generated using pymatgen
data_Na2ZnGaF7
_symmetry_space_group_name_H-M   'P 1'
_cell_length_a   7.36000677
_cell_length_b   7.36000677
_cell_length_c   24.78614680
_cell_angle_alpha   81.83945279
_cell_angle_beta   81.83945278
_cell_angle_gamma   60.58486318
_symmetry_Int_Tables_number   1
_chemical_formula_structural   Na2ZnGaF7
_chemical_formula_sum   'Na16 Zn8 Ga8 F56'
_cell_volume   1153.65601857
_cell_formula_units_Z   8
loop_
 _symmetry_equiv_pos_site_id
 _symmetry_equiv_pos_as_xyz
  1  'x, y, z'
loop_
 _atom_site_type_symbol
 _atom_site_label
 _atom_site_symmetry_multiplicity
 _atom_site_fract_x
 _atom_site_fract_y
 _atom_site_fract_z
 _atom_site_occupancy
  F  F0  1  0.36488416  0.81293009  0.45313090  1
  F  F1  1  0.18706991  0.63511584  0.04686910  1
  F  F2  1  0.63511584  0.18706991  0.54686910  1
  F  F3  1  0.81293009  0.36488416  0.95313090  1
  F  F4  1  0.35761841  0.97279858  0.29683129  1
  F  F5  1  0.02720142  0.64238159  0.20316871  1
  F  F6  1  0.64238159  0.02720142  0.70316871  1
  F  F7  1  0.97279858  0.35761841  0.79683129  1
  F  F8  1  0.02031091  0.14217435  0.20953675  1
  F  F9  1  0.85782565  0.97968909  0.29046325  1
  F  F10  1  0.97968909  0.85782565  0.79046325  1
  F  F11  1  0.14217435  0.02031091  0.70953675  1
  F  F12  1  0.86934493  0.78970692  0.46830846  1
  F  F13  1  0.21029308  0.13065507  0.03169154  1
  F  F14  1  0.13065507  0.21029308  0.53169154  1
  F  F15  1  0.78970692  0.86934493  0.96830846  1
  F  F16  1  0.64296220  0.30457765  0.40153159  1
  F  F17  1  0.69542235  0.35703780  0.09846841  1
  F  F18  1  0.35703780  0.69542235  0.59846841  1
  F  F19  1  0.30457765  0.64296220  0.90153159  1
  F  F20  1  0.09125308  0.46512443  0.34505292  1
  F  F21  1  0.85865705  0.36380658  0.29348030  1
  F  F22  1  0.53487557  0.90874692  0.15494708  1
  F  F23  1  0.46512443  0.09125308  0.84505292  1
  F  F24  1  0.65686180  0.70139762  0.35936769  1
  F  F25  1  0.29860238  0.34313820  0.14063231  1
  F  F26  1  0.34313820  0.29860238  0.64063231  1
  F  F27  1  0.70139762  0.65686180  0.85936769  1
  F  F28  1  0.06913396  0.07406060  0.39089041  1
  F  F29  1  0.92593940  0.93086604  0.10910959  1
  F  F30  1  0.93086604  0.92593940  0.60910959  1
  F  F31  1  0.07406060  0.06913396  0.89089041  1
  F  F32  1  0.42115150  0.25248980  0.95324232  1
  F  F33  1  0.74751020  0.57884850  0.54675768  1
  F  F34  1  0.57884850  0.74751020  0.04675768  1
  F  F35  1  0.25248980  0.42115150  0.45324232  1
  F  F36  1  0.36274215  0.47716627  0.79035523  1
  F  F37  1  0.52283373  0.63725785  0.70964477  1
  F  F38  1  0.63725785  0.52283373  0.20964477  1
  F  F39  1  0.47716627  0.36274215  0.29035523  1
  F  F40  1  0.70107625  0.27144686  0.85865597  1
  F  F41  1  0.72855314  0.29892375  0.64134403  1
  F  F42  1  0.29892375  0.72855314  0.14134403  1
  F  F43  1  0.27144686  0.70107625  0.35865597  1
  F  F44  1  0.07483142  0.45944955  0.89010785  1
  F  F45  1  0.54055045  0.92516858  0.60989215  1
  F  F46  1  0.92516858  0.54055045  0.10989215  1
  F  F47  1  0.45944955  0.07483142  0.39010785  1
  F  F48  1  0.41852893  0.86576737  0.95492557  1
  F  F49  1  0.13423263  0.58147107  0.54507443  1
  F  F50  1  0.58147107  0.13423263  0.04507443  1
  F  F51  1  0.86576737  0.41852893  0.45492557  1
  F  F52  1  0.36380658  0.85865705  0.79348030  1
  F  F53  1  0.14134295  0.63619342  0.70651970  1
  F  F54  1  0.63619342  0.14134295  0.20651970  1
  F  F55  1  0.90874692  0.53487557  0.65494708  1
  Na  Na56  1  0.00000000  0.00000000  0.00000000  1
  Na  Na57  1  0.00000000  0.00000000  0.50000000  1
  Na  Na58  1  0.50000000  0.50000000  0.00000000  1
  Na  Na59  1  0.50000000  0.50000000  0.50000000  1
  Na  Na60  1  0.50000000  0.00000000  0.50000000  1
  Na  Na61  1  0.00000000  0.50000000  0.00000000  1
  Na  Na62  1  0.78763452  0.21236548  0.75000000  1
  Na  Na63  1  0.21236548  0.78763452  0.25000000  1
  Na  Na64  1  0.30064427  0.20439896  0.74982743  1
  Na  Na65  1  0.79560104  0.69935573  0.75017257  1
  Na  Na66  1  0.69935573  0.79560104  0.25017257  1
  Na  Na67  1  0.20439896  0.30064427  0.24982743  1
  Na  Na68  1  0.88222274  0.86541164  0.87822994  1
  Na  Na69  1  0.13458836  0.11777726  0.62177006  1
  Na  Na70  1  0.11777726  0.13458836  0.12177006  1
  Na  Na71  1  0.86541164  0.88222274  0.37822994  1
  Zn  Zn72  1  0.38629815  0.36912453  0.87215991  1
  Zn  Zn73  1  0.63087547  0.61370185  0.62784009  1
  Zn  Zn74  1  0.61370185  0.63087547  0.12784009  1
  Zn  Zn75  1  0.36912453  0.38629815  0.37215991  1
  Zn  Zn76  1  0.38771774  0.86516499  0.87419570  1
  Zn  Zn77  1  0.13483501  0.61228226  0.62580430  1
  Zn  Zn78  1  0.61228226  0.13483501  0.12580430  1
  Zn  Zn79  1  0.86516499  0.38771774  0.37419570  1
  Ga  Ga80  1  0.50000000  0.00000000  0.00000000  1
  Ga  Ga81  1  0.00000000  0.50000000  0.50000000  1
  Ga  Ga82  1  0.24860816  0.75139184  0.75000000  1
  Ga  Ga83  1  0.75139184  0.24860816  0.25000000  1
  Ga  Ga84  1  0.88955185  0.36305183  0.87476911  1
  Ga  Ga85  1  0.63694817  0.11044815  0.62523089  1
  Ga  Ga86  1  0.11044815  0.63694817  0.12523089  1
  Ga  Ga87  1  0.36305183  0.88955185  0.37476911  1
