# generated using pymatgen
data_Ho3Ga5O12
_symmetry_space_group_name_H-M   'P 1'
_cell_length_a   10.72227629
_cell_length_b   10.72227629
_cell_length_c   10.72227629
_cell_angle_alpha   109.47122066
_cell_angle_beta   109.47122066
_cell_angle_gamma   109.47122059
_symmetry_Int_Tables_number   1
_chemical_formula_structural   Ho3Ga5O12
_chemical_formula_sum   'Ho12 Ga20 O48'
_cell_volume   948.94073676
_cell_formula_units_Z   4
loop_
 _symmetry_equiv_pos_site_id
 _symmetry_equiv_pos_as_xyz
  1  'x, y, z'
loop_
 _atom_site_type_symbol
 _atom_site_label
 _atom_site_symmetry_multiplicity
 _atom_site_fract_x
 _atom_site_fract_y
 _atom_site_fract_z
 _atom_site_occupancy
  O  O0  1  0.79322133  0.41721047  0.82273828  1
  O  O1  1  0.08278953  0.87601086  0.40552781  1
  O  O2  1  0.67726172  0.09447219  0.97048305  1
  O  O3  1  0.70677867  0.52951695  0.62398914  1
  O  O4  1  0.70677867  0.67726172  0.08278953  1
  O  O5  1  0.52951695  0.62398914  0.70677867  1
  O  O6  1  0.09447219  0.62398914  0.41721047  1
  O  O7  1  0.62398914  0.70677867  0.52951695  1
  O  O8  1  0.40552781  0.82273828  0.52951695  1
  O  O9  1  0.87601086  0.97048305  0.79322133  1
  O  O10  1  0.97048305  0.79322133  0.87601086  1
  O  O11  1  0.08278953  0.70677867  0.67726172  1
  O  O12  1  0.62398914  0.41721047  0.09447219  1
  O  O13  1  0.52951695  0.40552781  0.82273828  1
  O  O14  1  0.67726172  0.08278953  0.70677867  1
  O  O15  1  0.41721047  0.09447219  0.62398914  1
  O  O16  1  0.82273828  0.52951695  0.40552781  1
  O  O17  1  0.40552781  0.08278953  0.87601086  1
  O  O18  1  0.09447219  0.97048305  0.67726172  1
  O  O19  1  0.59447219  0.17726172  0.47048305  1
  O  O20  1  0.97048305  0.67726172  0.09447219  1
  O  O21  1  0.82273828  0.79322133  0.41721047  1
  O  O22  1  0.87601086  0.40552781  0.08278953  1
  O  O23  1  0.79322133  0.87601086  0.97048305  1
  O  O24  1  0.20677867  0.58278953  0.17726172  1
  O  O25  1  0.91721047  0.12398914  0.59447219  1
  O  O26  1  0.32273828  0.90552781  0.02951695  1
  O  O27  1  0.29322133  0.47048305  0.37601086  1
  O  O28  1  0.29322133  0.32273828  0.91721047  1
  O  O29  1  0.47048305  0.37601086  0.29322133  1
  O  O30  1  0.90552781  0.37601086  0.58278953  1
  O  O31  1  0.37601086  0.29322133  0.47048305  1
  O  O32  1  0.20677867  0.12398914  0.02951695  1
  O  O33  1  0.12398914  0.59447219  0.91721047  1
  O  O34  1  0.17726172  0.20677867  0.58278953  1
  O  O35  1  0.58278953  0.17726172  0.20677867  1
  O  O36  1  0.02951695  0.32273828  0.90552781  1
  O  O37  1  0.90552781  0.02951695  0.32273828  1
  O  O38  1  0.59447219  0.91721047  0.12398914  1
  O  O39  1  0.17726172  0.47048305  0.59447219  1
  O  O40  1  0.58278953  0.90552781  0.37601086  1
  O  O41  1  0.32273828  0.91721047  0.29322133  1
  O  O42  1  0.47048305  0.59447219  0.17726172  1
  O  O43  1  0.37601086  0.58278953  0.90552781  1
  O  O44  1  0.91721047  0.29322133  0.32273828  1
  O  O45  1  0.02951695  0.20677867  0.12398914  1
  O  O46  1  0.12398914  0.02951695  0.20677867  1
  O  O47  1  0.41721047  0.82273828  0.79322133  1
  Ga  Ga48  1  0.87500000  0.12500000  0.75000000  1
  Ga  Ga49  1  0.12500000  0.87500000  0.25000000  1
  Ga  Ga50  1  0.25000000  0.62500000  0.37500000  1
  Ga  Ga51  1  0.12500000  0.75000000  0.87500000  1
  Ga  Ga52  1  0.75000000  0.87500000  0.12500000  1
  Ga  Ga53  1  0.37500000  0.25000000  0.62500000  1
  Ga  Ga54  1  0.62500000  0.75000000  0.37500000  1
  Ga  Ga55  1  0.87500000  0.25000000  0.12500000  1
  Ga  Ga56  1  0.25000000  0.12500000  0.87500000  1
  Ga  Ga57  1  0.75000000  0.37500000  0.62500000  1
  Ga  Ga58  1  0.37500000  0.62500000  0.75000000  1
  Ga  Ga59  1  0.62500000  0.37500000  0.25000000  1
  Ga  Ga60  1  0.50000000  0.50000000  0.50000000  1
  Ga  Ga61  1  0.50000000  0.50000000  0.00000000  1
  Ga  Ga62  1  0.50000000  0.00000000  0.50000000  1
  Ga  Ga63  1  0.00000000  0.50000000  0.50000000  1
  Ga  Ga64  1  0.50000000  0.00000000  0.00000000  1
  Ga  Ga65  1  0.00000000  0.00000000  0.50000000  1
  Ga  Ga66  1  0.00000000  0.50000000  0.00000000  1
  Ga  Ga67  1  0.00000000  0.00000000  0.00000000  1
  Ho  Ho68  1  0.62500000  0.25000000  0.87500000  1
  Ho  Ho69  1  0.87500000  0.75000000  0.62500000  1
  Ho  Ho70  1  0.75000000  0.62500000  0.87500000  1
  Ho  Ho71  1  0.25000000  0.87500000  0.62500000  1
  Ho  Ho72  1  0.87500000  0.62500000  0.25000000  1
  Ho  Ho73  1  0.62500000  0.87500000  0.75000000  1
  Ho  Ho74  1  0.37500000  0.75000000  0.12500000  1
  Ho  Ho75  1  0.12500000  0.25000000  0.37500000  1
  Ho  Ho76  1  0.25000000  0.37500000  0.12500000  1
  Ho  Ho77  1  0.75000000  0.12500000  0.37500000  1
  Ho  Ho78  1  0.12500000  0.37500000  0.75000000  1
  Ho  Ho79  1  0.37500000  0.12500000  0.25000000  1
