# generated using pymatgen
data_BeAgPO4
_symmetry_space_group_name_H-M   'P 1'
_cell_length_a   7.99686473
_cell_length_b   8.32969936
_cell_length_c   14.61886807
_cell_angle_alpha   90.19726930
_cell_angle_beta   90.00000000
_cell_angle_gamma   90.00000000
_symmetry_Int_Tables_number   1
_chemical_formula_structural   BeAgPO4
_chemical_formula_sum   'Be12 Ag12 P12 O48'
_cell_volume   973.77865231
_cell_formula_units_Z   12
loop_
 _symmetry_equiv_pos_site_id
 _symmetry_equiv_pos_as_xyz
  1  'x, y, z'
loop_
 _atom_site_type_symbol
 _atom_site_label
 _atom_site_symmetry_multiplicity
 _atom_site_fract_x
 _atom_site_fract_y
 _atom_site_fract_z
 _atom_site_occupancy
  Be  Be0  1  0.32694606  0.90370018  0.91860115  1
  Be  Be1  1  0.67090360  0.06638684  0.40884935  1
  Be  Be2  1  0.17090360  0.43361316  0.09115065  1
  Be  Be3  1  0.32909640  0.93361316  0.59115065  1
  Be  Be4  1  0.82909640  0.56638684  0.90884935  1
  Be  Be5  1  0.67305394  0.09629982  0.08139885  1
  Be  Be6  1  0.17305394  0.40370018  0.41860115  1
  Be  Be7  1  0.82694606  0.59629982  0.58139885  1
  Be  Be8  1  0.67426325  0.57838099  0.25803412  1
  Be  Be9  1  0.17426325  0.92161901  0.24196588  1
  Be  Be10  1  0.32573675  0.42161901  0.74196588  1
  Be  Be11  1  0.82573675  0.07838099  0.75803412  1
  O  O12  1  0.97579500  0.48850422  0.10641349  1
  O  O13  1  0.17509474  0.96624846  0.35078553  1
  O  O14  1  0.32490526  0.46624846  0.85078553  1
  O  O15  1  0.82490526  0.03375154  0.64921447  1
  O  O16  1  0.67847244  0.25418660  0.44281204  1
  O  O17  1  0.17847244  0.24581340  0.05718796  1
  O  O18  1  0.32152756  0.74581340  0.55718796  1
  O  O19  1  0.82152756  0.75418660  0.94281204  1
  O  O20  1  0.75410657  0.94881015  0.48712051  1
  O  O21  1  0.17840340  0.55136834  0.34589333  1
  O  O22  1  0.32159660  0.05136834  0.84589333  1
  O  O23  1  0.82159660  0.44863166  0.65410667  1
  O  O24  1  0.52211942  0.42570826  0.70542762  1
  O  O25  1  0.02211942  0.07429174  0.79457238  1
  O  O26  1  0.47788058  0.57429174  0.29457238  1
  O  O27  1  0.97788058  0.92570826  0.20542762  1
  O  O28  1  0.52037739  0.84107422  0.93319468  1
  O  O29  1  0.67509474  0.53375154  0.14921447  1
  O  O30  1  0.02037739  0.65892578  0.56680532  1
  O  O31  1  0.47962261  0.15892578  0.06680532  1
  O  O32  1  0.97962261  0.34107422  0.43319468  1
  O  O33  1  0.52420500  0.98850422  0.60641349  1
  O  O34  1  0.02420500  0.51149578  0.89358651  1
  O  O35  1  0.47579500  0.01149578  0.39358651  1
  O  O36  1  0.73198801  0.55172162  0.81124891  1
  O  O37  1  0.23198801  0.94827838  0.68875109  1
  O  O38  1  0.26801199  0.44827838  0.18875109  1
  O  O39  1  0.76801199  0.05172162  0.31124891  1
  O  O40  1  0.72663828  0.93931431  0.81559595  1
  O  O41  1  0.22663828  0.56068569  0.68440405  1
  O  O42  1  0.27336172  0.06068569  0.18440405  1
  O  O43  1  0.77336172  0.43931431  0.31559595  1
  O  O44  1  0.71935684  0.75087654  0.61787031  1
  O  O45  1  0.21935684  0.74912346  0.88212969  1
  O  O46  1  0.28064316  0.24912346  0.38212969  1
  O  O47  1  0.78064316  0.25087654  0.11787031  1
  O  O48  1  0.74536894  0.25296849  0.78100379  1
  O  O49  1  0.24536894  0.24703151  0.71899621  1
  O  O50  1  0.25463106  0.74703151  0.21899621  1
  O  O51  1  0.75463106  0.75296849  0.28100379  1
  O  O52  1  0.74638472  0.04149670  0.97992828  1
  O  O53  1  0.24638472  0.45850330  0.52007172  1
  O  O54  1  0.25361528  0.95850330  0.02007172  1
  O  O55  1  0.75361528  0.54149670  0.47992828  1
  O  O56  1  0.74589343  0.44881015  0.98712051  1
  O  O57  1  0.24589343  0.05118985  0.51287949  1
  O  O58  1  0.25410657  0.55118985  0.01287949  1
  O  O59  1  0.67840340  0.94863166  0.15410667  1
  P  P60  1  0.79464625  0.43007574  0.08953837  1
  P  P61  1  0.29464625  0.06992426  0.41046163  1
  P  P62  1  0.20535375  0.56992426  0.91046163  1
  P  P63  1  0.70535375  0.93007574  0.58953837  1
  P  P64  1  0.79645092  0.39549292  0.41764499  1
  P  P65  1  0.29645092  0.10450708  0.08235501  1
  P  P66  1  0.20354908  0.60450708  0.58235501  1
  P  P67  1  0.70354908  0.89549292  0.91764499  1
  P  P68  1  0.79220475  0.91784065  0.23805757  1
  P  P69  1  0.29220475  0.58215935  0.26194243  1
  P  P70  1  0.20779525  0.08215935  0.76194243  1
  P  P71  1  0.70779525  0.41784065  0.73805757  1
  Ag  Ag72  1  0.51428946  0.71272030  0.43545395  1
  Ag  Ag73  1  0.01428946  0.78727970  0.06454605  1
  Ag  Ag74  1  0.48571054  0.28727970  0.56454605  1
  Ag  Ag75  1  0.98571054  0.21272030  0.93545395  1
  Ag  Ag76  1  0.98045079  0.77869166  0.41436688  1
  Ag  Ag77  1  0.48045079  0.72130834  0.08563312  1
  Ag  Ag78  1  0.01954921  0.22130834  0.58563312  1
  Ag  Ag79  1  0.51954921  0.27869166  0.91436688  1
  Ag  Ag80  1  0.50686227  0.25027659  0.25212400  1
  Ag  Ag81  1  0.00686227  0.24972341  0.24787600  1
  Ag  Ag82  1  0.49313773  0.74972341  0.74787600  1
  Ag  Ag83  1  0.99313773  0.75027659  0.75212400  1
