# generated using pymatgen
data_Ag8SnS6
_symmetry_space_group_name_H-M   'P 1'
_cell_length_a   7.70814562
_cell_length_b   10.88417661
_cell_length_c   15.48728736
_cell_angle_alpha   90.00000000
_cell_angle_beta   90.00000000
_cell_angle_gamma   90.00000000
_symmetry_Int_Tables_number   1
_chemical_formula_structural   Ag8SnS6
_chemical_formula_sum   'Ag32 Sn4 S24'
_cell_volume   1299.33413304
_cell_formula_units_Z   4
loop_
 _symmetry_equiv_pos_site_id
 _symmetry_equiv_pos_as_xyz
  1  'x, y, z'
loop_
 _atom_site_type_symbol
 _atom_site_label
 _atom_site_symmetry_multiplicity
 _atom_site_fract_x
 _atom_site_fract_y
 _atom_site_fract_z
 _atom_site_occupancy
  S  S0  1  0.76838941  0.10561250  0.37512355  1
  S  S1  1  0.23161059  0.60561250  0.62487645  1
  S  S2  1  0.73161059  0.10561250  0.87512355  1
  S  S3  1  0.26838941  0.60561250  0.12487645  1
  S  S4  1  0.80914308  0.36477980  0.11173230  1
  S  S5  1  0.19085692  0.86477980  0.88826770  1
  S  S6  1  0.69085692  0.36477980  0.61173230  1
  S  S7  1  0.30914308  0.86477980  0.38826770  1
  S  S8  1  0.72452720  0.71927819  0.25097724  1
  S  S9  1  0.27547280  0.21927819  0.74902276  1
  S  S10  1  0.77547280  0.71927819  0.75097724  1
  S  S11  1  0.22452720  0.21927819  0.24902276  1
  S  S12  1  0.98980754  0.97946201  0.12675312  1
  S  S13  1  0.01019246  0.47946201  0.87324688  1
  S  S14  1  0.51019246  0.97946201  0.62675312  1
  S  S15  1  0.48980754  0.47946201  0.37324688  1
  S  S16  1  0.76821832  0.71784903  0.49901571  1
  S  S17  1  0.23178168  0.21784903  0.50098429  1
  S  S18  1  0.73178168  0.71784903  0.99901571  1
  S  S19  1  0.26821832  0.21784903  0.00098429  1
  S  S20  1  0.98372416  0.48207988  0.37930505  1
  S  S21  1  0.01627584  0.98207988  0.62069495  1
  S  S22  1  0.51627584  0.48207988  0.87930505  1
  S  S23  1  0.48372416  0.98207988  0.12069495  1
  Ag  Ag24  1  0.51986122  0.11254178  0.47951251  1
  Ag  Ag25  1  0.98013878  0.11254178  0.97951251  1
  Ag  Ag26  1  0.48013878  0.61254178  0.52048749  1
  Ag  Ag27  1  0.36194621  0.91389792  0.76033834  1
  Ag  Ag28  1  0.13805379  0.91389792  0.26033834  1
  Ag  Ag29  1  0.86194621  0.41389792  0.73966166  1
  Ag  Ag30  1  0.01986122  0.61254178  0.02048749  1
  Ag  Ag31  1  0.63805379  0.41389792  0.23966166  1
  Ag  Ag32  1  0.27155823  0.37318389  0.12885580  1
  Ag  Ag33  1  0.72844177  0.87318389  0.87114420  1
  Ag  Ag34  1  0.22844177  0.37318389  0.62885580  1
  Ag  Ag35  1  0.77155823  0.87318389  0.37114420  1
  Ag  Ag36  1  0.87653104  0.19000170  0.22663600  1
  Ag  Ag37  1  0.12346896  0.69000170  0.77336400  1
  Ag  Ag38  1  0.62346896  0.19000170  0.72663600  1
  Ag  Ag39  1  0.37653104  0.69000170  0.27336400  1
  Ag  Ag40  1  0.60378656  0.19345477  0.09041023  1
  Ag  Ag41  1  0.39621344  0.69345477  0.90958977  1
  Ag  Ag42  1  0.23488220  0.83248906  0.06083176  1
  Ag  Ag43  1  0.10378656  0.69345477  0.40958977  1
  Ag  Ag44  1  0.00963643  0.59861234  0.22745166  1
  Ag  Ag45  1  0.89621344  0.19345477  0.59041023  1
  Ag  Ag46  1  0.49036357  0.59861234  0.72745166  1
  Ag  Ag47  1  0.50963643  0.09861234  0.27254834  1
  Ag  Ag48  1  0.56635331  0.51800010  0.06488006  1
  Ag  Ag49  1  0.43364669  0.01800010  0.93511994  1
  Ag  Ag50  1  0.93364669  0.51800010  0.56488006  1
  Ag  Ag51  1  0.06635331  0.01800010  0.43511994  1
  Ag  Ag52  1  0.73488220  0.33248906  0.43916824  1
  Ag  Ag53  1  0.26511780  0.83248906  0.56083176  1
  Ag  Ag54  1  0.76511780  0.33248906  0.93916824  1
  Ag  Ag55  1  0.99036357  0.09861234  0.77254834  1
  Sn  Sn56  1  0.73460974  0.84865704  0.12496615  1
  Sn  Sn57  1  0.26539026  0.34865704  0.87503385  1
  Sn  Sn58  1  0.76539026  0.84865704  0.62496615  1
  Sn  Sn59  1  0.23460974  0.34865704  0.37503385  1
