# generated using pymatgen
data_Cs5Ti6AgSe27
_symmetry_space_group_name_H-M   'P 1'
_cell_length_a   14.11708448
_cell_length_b   14.11708448
_cell_length_c   14.08958026
_cell_angle_alpha   90.00000000
_cell_angle_beta   90.00000000
_cell_angle_gamma   119.99999999
_symmetry_Int_Tables_number   1
_chemical_formula_structural   Cs5Ti6AgSe27
_chemical_formula_sum   'Cs10 Ti12 Ag2 Se54'
_cell_volume   2431.74882334
_cell_formula_units_Z   2
loop_
 _symmetry_equiv_pos_site_id
 _symmetry_equiv_pos_as_xyz
  1  'x, y, z'
loop_
 _atom_site_type_symbol
 _atom_site_label
 _atom_site_symmetry_multiplicity
 _atom_site_fract_x
 _atom_site_fract_y
 _atom_site_fract_z
 _atom_site_occupancy
  Ti  Ti0  1  0.01605022  0.33759624  0.39302733  1
  Ti  Ti1  1  0.98566810  0.31154158  0.63375078  1
  Ti  Ti2  1  0.68845842  0.67412652  0.63375078  1
  Ti  Ti3  1  0.32587348  0.01433190  0.63375078  1
  Ti  Ti4  1  0.31154158  0.98566810  0.13375078  1
  Ti  Ti5  1  0.67412652  0.68845842  0.13375078  1
  Ti  Ti6  1  0.01433190  0.32587348  0.13375078  1
  Ti  Ti7  1  0.98394978  0.32154602  0.89302733  1
  Ti  Ti8  1  0.67845398  0.66240376  0.89302733  1
  Ti  Ti9  1  0.33759624  0.01605022  0.89302733  1
  Ti  Ti10  1  0.32154602  0.98394978  0.39302733  1
  Ti  Ti11  1  0.66240376  0.67845398  0.39302733  1
  Se  Se12  1  0.15500509  0.35068024  0.00927040  1
  Se  Se13  1  0.47815829  0.17863060  0.17585112  1
  Se  Se14  1  0.82136940  0.29952769  0.17585112  1
  Se  Se15  1  0.70047231  0.52184171  0.17585112  1
  Se  Se16  1  0.17863060  0.47815829  0.67585112  1
  Se  Se17  1  0.29952769  0.82136940  0.67585112  1
  Se  Se18  1  0.52184171  0.70047231  0.67585112  1
  Se  Se19  1  0.52540965  0.12504877  0.39850275  1
  Se  Se20  1  0.87495123  0.40036088  0.39850275  1
  Se  Se21  1  0.59963912  0.47459035  0.39850275  1
  Se  Se22  1  0.12504877  0.52540965  0.89850275  1
  Se  Se23  1  0.40036088  0.87495123  0.89850275  1
  Se  Se24  1  0.98728623  0.46131921  0.01994086  1
  Se  Se25  1  0.53868079  0.52596702  0.01994086  1
  Se  Se26  1  0.47403298  0.01271377  0.01994086  1
  Se  Se27  1  0.46131921  0.98728623  0.51994086  1
  Se  Se28  1  0.52596702  0.53868079  0.51994086  1
  Se  Se29  1  0.01271377  0.47403298  0.51994086  1
  Se  Se30  1  0.09511090  0.20166321  0.11770517  1
  Se  Se31  1  0.79833679  0.89344770  0.11770517  1
  Se  Se32  1  0.10655230  0.90488910  0.11770517  1
  Se  Se33  1  0.20166321  0.09511090  0.61770517  1
  Se  Se34  1  0.89344770  0.79833679  0.61770517  1
  Se  Se35  1  0.90488910  0.10655230  0.61770517  1
  Se  Se36  1  0.07474957  0.19071453  0.38808323  1
  Se  Se37  1  0.80928547  0.88403503  0.38808323  1
  Se  Se38  1  0.11596497  0.92525043  0.38808323  1
  Se  Se39  1  0.19071453  0.07474957  0.88808323  1
  Se  Se40  1  0.88403503  0.80928547  0.88808323  1
  Se  Se41  1  0.92525043  0.11596497  0.88808323  1
  Se  Se42  1  0.13433905  0.46199243  0.26032599  1
  Se  Se43  1  0.53800757  0.67234662  0.26032599  1
  Se  Se44  1  0.32765338  0.86566095  0.26032599  1
  Se  Se45  1  0.46199243  0.13433905  0.76032599  1
  Se  Se46  1  0.67234662  0.53800757  0.76032599  1
  Se  Se47  1  0.86566095  0.32765338  0.76032599  1
  Se  Se48  1  0.47459035  0.59963912  0.89850275  1
  Se  Se49  1  0.64931976  0.80432485  0.00927040  1
  Se  Se50  1  0.19567515  0.84499491  0.00927040  1
  Se  Se51  1  0.35068024  0.15500509  0.50927040  1
  Se  Se52  1  0.80432485  0.64931976  0.50927040  1
  Se  Se53  1  0.84499491  0.19567515  0.50927040  1
  Se  Se54  1  0.30956938  0.10913027  0.26465134  1
  Se  Se55  1  0.89086973  0.20043911  0.26465134  1
  Se  Se56  1  0.79956089  0.69043062  0.26465134  1
  Se  Se57  1  0.10913027  0.30956938  0.76465134  1
  Se  Se58  1  0.66967226  0.81854926  0.50908026  1
  Se  Se59  1  0.69043062  0.79956089  0.76465134  1
  Se  Se60  1  0.33032774  0.14887700  0.00908026  1
  Se  Se61  1  0.85112300  0.18145074  0.00908026  1
  Se  Se62  1  0.81854926  0.66967226  0.00908026  1
  Se  Se63  1  0.14887700  0.33032774  0.50908026  1
  Se  Se64  1  0.18145074  0.85112300  0.50908026  1
  Se  Se65  1  0.20043911  0.89086973  0.76465134  1
  Ag  Ag66  1  0.00000000  0.00000000  0.50660636  1
  Ag  Ag67  1  0.00000000  0.00000000  0.00660636  1
  Cs  Cs68  1  0.65370677  0.03116468  0.75285518  1
  Cs  Cs69  1  0.33333333  0.66666667  0.44969501  1
  Cs  Cs70  1  0.66666667  0.33333333  0.58343542  1
  Cs  Cs71  1  0.33333333  0.66666667  0.08343542  1
  Cs  Cs72  1  0.66666667  0.33333333  0.94969501  1
  Cs  Cs73  1  0.96883532  0.62254209  0.75285518  1
  Cs  Cs74  1  0.37745791  0.34629323  0.75285518  1
  Cs  Cs75  1  0.03116468  0.65370677  0.25285518  1
  Cs  Cs76  1  0.62254209  0.96883532  0.25285518  1
  Cs  Cs77  1  0.34629323  0.37745791  0.25285518  1
