# generated using pymatgen
data_Sc15C19
_symmetry_space_group_name_H-M   'P 1'
_cell_length_a   7.54016977
_cell_length_b   7.54016977
_cell_length_c   14.66641715
_cell_angle_alpha   90.00000000
_cell_angle_beta   90.00000000
_cell_angle_gamma   90.00000000
_symmetry_Int_Tables_number   1
_chemical_formula_structural   Sc15C19
_chemical_formula_sum   'Sc30 C38'
_cell_volume   833.84682963
_cell_formula_units_Z   2
loop_
 _symmetry_equiv_pos_site_id
 _symmetry_equiv_pos_as_xyz
  1  'x, y, z'
loop_
 _atom_site_type_symbol
 _atom_site_label
 _atom_site_symmetry_multiplicity
 _atom_site_fract_x
 _atom_site_fract_y
 _atom_site_fract_z
 _atom_site_occupancy
  C  C0  1  0.50000000  0.50000000  0.00000000  1
  C  C1  1  0.00000000  0.00000000  0.50000000  1
  C  C2  1  0.50000000  0.50000000  0.66096507  1
  C  C3  1  0.50000000  0.50000000  0.33903493  1
  C  C4  1  0.00000000  0.00000000  0.83903493  1
  C  C5  1  0.00000000  0.00000000  0.16096507  1
  C  C6  1  0.90515188  0.30340348  0.66662592  1
  C  C7  1  0.09484812  0.69659652  0.66662592  1
  C  C8  1  0.19659652  0.59484812  0.16662592  1
  C  C9  1  0.69659652  0.90515188  0.33337408  1
  C  C10  1  0.30340348  0.09484812  0.33337408  1
  C  C11  1  0.59484812  0.80340348  0.83337408  1
  C  C12  1  0.40515188  0.19659652  0.83337408  1
  C  C13  1  0.80340348  0.40515188  0.16662592  1
  C  C14  1  0.65121407  0.84886430  0.74993508  1
  C  C15  1  0.34878593  0.15113570  0.74993508  1
  C  C16  1  0.60364666  0.19795570  0.49997498  1
  C  C17  1  0.65113570  0.84878593  0.24993508  1
  C  C18  1  0.84886430  0.34878593  0.25006492  1
  C  C19  1  0.84878593  0.34886430  0.75006492  1
  C  C20  1  0.15121407  0.65113570  0.75006492  1
  C  C21  1  0.34886430  0.15121407  0.24993508  1
  C  C22  1  0.69656852  0.90514133  0.66646623  1
  C  C23  1  0.30343148  0.09485867  0.66646623  1
  C  C24  1  0.59485867  0.80343148  0.16646623  1
  C  C25  1  0.09485867  0.69656852  0.33353377  1
  C  C26  1  0.90514133  0.30343148  0.33353377  1
  C  C27  1  0.80343148  0.40514133  0.83353377  1
  C  C28  1  0.19656852  0.59485867  0.83353377  1
  C  C29  1  0.40514133  0.19656852  0.16646623  1
  C  C30  1  0.69795570  0.10364666  0.99997498  1
  C  C31  1  0.10364666  0.30204430  0.00002502  1
  C  C32  1  0.89635334  0.69795570  0.00002502  1
  C  C33  1  0.19795570  0.39635334  0.50002502  1
  C  C34  1  0.80204430  0.60364666  0.50002502  1
  C  C35  1  0.30204430  0.89635334  0.99997498  1
  C  C36  1  0.39635334  0.80204430  0.49997498  1
  C  C37  1  0.15113570  0.65121407  0.25006492  1
  Sc  Sc38  1  0.50000000  0.50000000  0.50000000  1
  Sc  Sc39  1  0.00000000  0.00000000  0.00000000  1
  Sc  Sc40  1  0.00000000  0.00000000  0.33323246  1
  Sc  Sc41  1  0.00000000  0.00000000  0.66676754  1
  Sc  Sc42  1  0.50000000  0.50000000  0.16676754  1
  Sc  Sc43  1  0.50000000  0.50000000  0.83323246  1
  Sc  Sc44  1  0.59864119  0.21594853  0.64657123  1
  Sc  Sc45  1  0.40135881  0.78405147  0.64657123  1
  Sc  Sc46  1  0.28405147  0.90135881  0.14657123  1
  Sc  Sc47  1  0.78405147  0.59864119  0.35342877  1
  Sc  Sc48  1  0.21594853  0.40135881  0.35342877  1
  Sc  Sc49  1  0.90135881  0.71594853  0.85342877  1
  Sc  Sc50  1  0.09864119  0.28405147  0.85342877  1
  Sc  Sc51  1  0.71594853  0.09864119  0.14657123  1
  Sc  Sc52  1  0.78402848  0.59865903  0.64660985  1
  Sc  Sc53  1  0.21597152  0.40134097  0.64660985  1
  Sc  Sc54  1  0.90134097  0.71597152  0.14660985  1
  Sc  Sc55  1  0.40134097  0.78402848  0.35339015  1
  Sc  Sc56  1  0.59865903  0.21597152  0.35339015  1
  Sc  Sc57  1  0.71597152  0.09865903  0.85339015  1
  Sc  Sc58  1  0.28402848  0.90134097  0.85339015  1
  Sc  Sc59  1  0.09865903  0.28402848  0.14660985  1
  Sc  Sc60  1  0.70363242  0.90651919  0.49997987  1
  Sc  Sc61  1  0.29636758  0.09348081  0.49997987  1
  Sc  Sc62  1  0.59348081  0.79636758  0.99997987  1
  Sc  Sc63  1  0.09348081  0.70363242  0.50002013  1
  Sc  Sc64  1  0.90651919  0.29636758  0.50002013  1
  Sc  Sc65  1  0.79636758  0.40651919  0.00002013  1
  Sc  Sc66  1  0.20363242  0.59348081  0.00002013  1
  Sc  Sc67  1  0.40651919  0.20363242  0.99997987  1
