# generated using pymatgen
data_K2Ca2(SO4)3
_symmetry_space_group_name_H-M   'P 1'
_cell_length_a   10.42719984
_cell_length_b   10.56521740
_cell_length_c   10.63988546
_cell_angle_alpha   90.00000000
_cell_angle_beta   90.00000000
_cell_angle_gamma   90.00000000
_symmetry_Int_Tables_number   1
_chemical_formula_structural   K2Ca2(SO4)3
_chemical_formula_sum   'K8 Ca8 S12 O48'
_cell_volume   1172.14971869
_cell_formula_units_Z   4
loop_
 _symmetry_equiv_pos_site_id
 _symmetry_equiv_pos_as_xyz
  1  'x, y, z'
loop_
 _atom_site_type_symbol
 _atom_site_label
 _atom_site_symmetry_multiplicity
 _atom_site_fract_x
 _atom_site_fract_y
 _atom_site_fract_z
 _atom_site_occupancy
  O  O0  1  0.08135360  0.89941563  0.80193853  1
  O  O1  1  0.58135360  0.60058437  0.19806147  1
  O  O2  1  0.91864640  0.39941563  0.69806147  1
  O  O3  1  0.41864640  0.10058437  0.30193853  1
  O  O4  1  0.24109089  0.06771480  0.78058616  1
  O  O5  1  0.74109089  0.43228520  0.21941384  1
  O  O6  1  0.75890911  0.56771480  0.71941384  1
  O  O7  1  0.25890911  0.93228520  0.28058616  1
  O  O8  1  0.02970579  0.09499134  0.69175712  1
  O  O9  1  0.52970579  0.40500866  0.30824288  1
  O  O10  1  0.97029421  0.59499134  0.80824288  1
  O  O11  1  0.47029421  0.90500866  0.19175712  1
  O  O12  1  0.17916771  0.94347517  0.59863877  1
  O  O13  1  0.67916771  0.55652483  0.40136123  1
  O  O14  1  0.82083229  0.44347517  0.90136123  1
  O  O15  1  0.32083229  0.05652483  0.09863877  1
  O  O16  1  0.38342703  0.66173182  0.49097201  1
  O  O17  1  0.88342703  0.83826818  0.50902799  1
  O  O18  1  0.15945313  0.69073394  0.43570825  1
  O  O19  1  0.61657297  0.16173182  0.00902799  1
  O  O20  1  0.24317769  0.47928701  0.45685149  1
  O  O21  1  0.74317769  0.02071299  0.54314851  1
  O  O22  1  0.75682231  0.97928701  0.04314851  1
  O  O23  1  0.25682231  0.52071299  0.95685149  1
  O  O24  1  0.21410609  0.60716276  0.64275825  1
  O  O25  1  0.71410609  0.89283724  0.35724175  1
  O  O26  1  0.78589391  0.10716276  0.85724175  1
  O  O27  1  0.28589391  0.39283724  0.14275825  1
  O  O28  1  0.02477663  0.30395222  0.26612097  1
  O  O29  1  0.52477663  0.19604778  0.73387903  1
  O  O30  1  0.97522337  0.80395222  0.23387903  1
  O  O31  1  0.47522337  0.69604778  0.76612097  1
  O  O32  1  0.98956998  0.08305863  0.32450317  1
  O  O33  1  0.48956998  0.41694137  0.67549683  1
  O  O34  1  0.01043002  0.58305863  0.17549683  1
  O  O35  1  0.51043002  0.91694137  0.82450317  1
  O  O36  1  0.92255890  0.25401812  0.46346845  1
  O  O37  1  0.42255890  0.24598188  0.53653155  1
  O  O38  1  0.07744110  0.75401812  0.03653155  1
  O  O39  1  0.57744110  0.74598188  0.96346845  1
  O  O40  1  0.15086541  0.20926875  0.43270808  1
  O  O41  1  0.65086541  0.29073125  0.56729192  1
  O  O42  1  0.84913459  0.70926875  0.06729192  1
  O  O43  1  0.34913459  0.79073125  0.93270808  1
  O  O44  1  0.34054687  0.30926606  0.93570825  1
  O  O45  1  0.84054687  0.19073394  0.06429175  1
  O  O46  1  0.65945313  0.80926606  0.56429175  1
  O  O47  1  0.11657297  0.33826818  0.99097201  1
  S  S48  1  0.13219091  0.00128109  0.71812364  1
  S  S49  1  0.63219091  0.49871891  0.28187636  1
  S  S50  1  0.86780909  0.50128109  0.78187636  1
  S  S51  1  0.36780909  0.99871891  0.21812364  1
  S  S52  1  0.25152271  0.61074610  0.50801917  1
  S  S53  1  0.75152271  0.88925390  0.49198083  1
  S  S54  1  0.74847729  0.11074610  0.99198083  1
  S  S55  1  0.24847729  0.38925390  0.00801917  1
  S  S56  1  0.47780382  0.78787569  0.87193593  1
  S  S57  1  0.02219618  0.21212431  0.37193593  1
  S  S58  1  0.52219618  0.28787569  0.62806407  1
  S  S59  1  0.97780382  0.71212431  0.12806407  1
  K  K60  1  0.30923108  0.67139862  0.18457858  1
  K  K61  1  0.19076892  0.32860138  0.68457858  1
  K  K62  1  0.44020082  0.97228684  0.56438706  1
  K  K63  1  0.69076892  0.17139862  0.31542142  1
  K  K64  1  0.05979918  0.02771316  0.06438706  1
  K  K65  1  0.55979918  0.47228684  0.93561294  1
  K  K66  1  0.94020082  0.52771316  0.43561294  1
  K  K67  1  0.80923108  0.82860138  0.81542142  1
  Ca  Ca68  1  0.33139175  0.30914584  0.34232475  1
  Ca  Ca69  1  0.83139175  0.19085416  0.65767525  1
  Ca  Ca70  1  0.66860825  0.80914584  0.15767525  1
  Ca  Ca71  1  0.16860825  0.69085416  0.84232475  1
  Ca  Ca72  1  0.57705841  0.60579341  0.59215333  1
  Ca  Ca73  1  0.42294159  0.10579341  0.90784667  1
  Ca  Ca74  1  0.92294159  0.39420659  0.09215333  1
  Ca  Ca75  1  0.07705841  0.89420659  0.40784667  1
