# generated using pymatgen
data_TaAgP4O13
_symmetry_space_group_name_H-M   'P 1'
_cell_length_a   7.20819699
_cell_length_b   8.41290510
_cell_length_c   18.05070935
_cell_angle_alpha   90.00000000
_cell_angle_beta   90.00000000
_cell_angle_gamma   90.00000000
_symmetry_Int_Tables_number   1
_chemical_formula_structural   TaAgP4O13
_chemical_formula_sum   'Ta4 Ag4 P16 O52'
_cell_volume   1094.62890012
_cell_formula_units_Z   4
loop_
 _symmetry_equiv_pos_site_id
 _symmetry_equiv_pos_as_xyz
  1  'x, y, z'
loop_
 _atom_site_type_symbol
 _atom_site_label
 _atom_site_symmetry_multiplicity
 _atom_site_fract_x
 _atom_site_fract_y
 _atom_site_fract_z
 _atom_site_occupancy
  O  O0  1  0.43333295  0.65552633  0.59037688  1
  O  O1  1  0.93333295  0.84447367  0.40962312  1
  O  O2  1  0.56666705  0.15552633  0.90962312  1
  O  O3  1  0.06666705  0.34447367  0.09037688  1
  O  O4  1  0.33606458  0.49273218  0.70458510  1
  O  O5  1  0.83606458  0.00726782  0.29541490  1
  O  O6  1  0.66393542  0.99273218  0.79541490  1
  O  O7  1  0.16393542  0.50726782  0.20458510  1
  O  O8  1  0.57455553  0.70294217  0.71890120  1
  O  O9  1  0.07455553  0.79705783  0.28109880  1
  O  O10  1  0.42544447  0.20294217  0.78109880  1
  O  O11  1  0.92544447  0.29705783  0.21890120  1
  O  O12  1  0.09273896  0.89980478  0.58482481  1
  O  O13  1  0.59273896  0.60019522  0.41517519  1
  O  O14  1  0.90726104  0.39980478  0.91517519  1
  O  O15  1  0.40726104  0.10019522  0.08482481  1
  O  O16  1  0.91939504  0.83230714  0.70610282  1
  O  O17  1  0.41939504  0.66769286  0.29389718  1
  O  O18  1  0.25220965  0.77837333  0.70117947  1
  O  O19  1  0.08060496  0.33230714  0.79389718  1
  O  O20  1  0.14210392  0.05567419  0.70560333  1
  O  O21  1  0.64210392  0.44432581  0.29439667  1
  O  O22  1  0.85789608  0.55567419  0.79439667  1
  O  O23  1  0.35789608  0.94432581  0.20560333  1
  O  O24  1  0.46509372  0.66775754  0.14002761  1
  O  O25  1  0.96509372  0.83224246  0.85997239  1
  O  O26  1  0.53490628  0.16775754  0.35997239  1
  O  O27  1  0.03490628  0.33224246  0.64002761  1
  O  O28  1  0.78725361  0.67125388  0.08712358  1
  O  O29  1  0.28725361  0.82874612  0.91287642  1
  O  O30  1  0.21274639  0.17125388  0.41287642  1
  O  O31  1  0.71274639  0.32874612  0.58712358  1
  O  O32  1  0.50598224  0.72178835  0.00644824  1
  O  O33  1  0.00598224  0.77821165  0.99355176  1
  O  O34  1  0.49401776  0.22178835  0.49355176  1
  O  O35  1  0.99401776  0.27821165  0.50644824  1
  O  O36  1  0.57778767  0.43888587  0.05768636  1
  O  O37  1  0.07778767  0.06111413  0.94231364  1
  O  O38  1  0.42221233  0.93888587  0.44231364  1
  O  O39  1  0.92221233  0.56111413  0.55768636  1
  O  O40  1  0.58996222  0.72241798  0.87348374  1
  O  O41  1  0.08996222  0.77758202  0.12651626  1
  O  O42  1  0.41003778  0.22241798  0.62651626  1
  O  O43  1  0.91003778  0.27758202  0.37348374  1
  O  O44  1  0.33891569  0.52485851  0.91717978  1
  O  O45  1  0.83891569  0.97514149  0.08282022  1
  O  O46  1  0.66108431  0.02485851  0.58282022  1
  O  O47  1  0.16108431  0.47514149  0.41717978  1
  O  O48  1  0.24779035  0.22162667  0.20117947  1
  O  O49  1  0.74779035  0.27837333  0.79882053  1
  O  O50  1  0.75220965  0.72162667  0.29882053  1
  O  O51  1  0.58060496  0.16769286  0.20610282  1
  P  P52  1  0.40341120  0.65380585  0.67161188  1
  P  P53  1  0.90341120  0.84619415  0.32838812  1
  P  P54  1  0.59658880  0.15380585  0.82838812  1
  P  P55  1  0.09658880  0.34619415  0.17161188  1
  P  P56  1  0.09722639  0.89497084  0.66646638  1
  P  P57  1  0.59722639  0.60502916  0.33353362  1
  P  P58  1  0.90277361  0.39497084  0.83353362  1
  P  P59  1  0.40277361  0.10502916  0.16646638  1
  P  P60  1  0.07308699  0.31799387  0.42476643  1
  P  P61  1  0.57308699  0.18200613  0.57523357  1
  P  P62  1  0.92691301  0.81799387  0.07523357  1
  P  P63  1  0.42691301  0.68200613  0.92476643  1
  P  P64  1  0.92095847  0.38888008  0.57313003  1
  P  P65  1  0.42095847  0.11111992  0.42686997  1
  P  P66  1  0.07904153  0.88888008  0.92686997  1
  P  P67  1  0.57904153  0.61111992  0.07313003  1
  Ag  Ag68  1  0.20571607  0.72280705  0.48490322  1
  Ag  Ag69  1  0.70571607  0.77719295  0.51509678  1
  Ag  Ag70  1  0.79428393  0.22280705  0.01509678  1
  Ag  Ag71  1  0.29428393  0.27719295  0.98490322  1
  Ta  Ta72  1  0.23852419  0.27383477  0.71090960  1
  Ta  Ta73  1  0.73852419  0.22616523  0.28909040  1
  Ta  Ta74  1  0.76147581  0.77383477  0.78909040  1
  Ta  Ta75  1  0.26147581  0.72616523  0.21090960  1
