# generated using pymatgen
data_U3Al3CoRu2
_symmetry_space_group_name_H-M   'P 1'
_cell_length_a   4.06085894
_cell_length_b   6.75876523
_cell_length_c   6.75876572
_cell_angle_alpha   60.02463260
_cell_angle_beta   90.00000000
_cell_angle_gamma   90.00000000
_symmetry_Int_Tables_number   1
_chemical_formula_structural   U3Al3CoRu2
_chemical_formula_sum   'U3 Al3 Co1 Ru2'
_cell_volume   160.69080775
_cell_formula_units_Z   1
loop_
 _symmetry_equiv_pos_site_id
 _symmetry_equiv_pos_as_xyz
  1  'x, y, z'
loop_
 _atom_site_type_symbol
 _atom_site_label
 _atom_site_symmetry_multiplicity
 _atom_site_fract_x
 _atom_site_fract_y
 _atom_site_fract_z
 _atom_site_occupancy
  U  U0  1  0.50000000  0.58411253  0.41588747  1
  U  U1  1  0.50000000  0.41579822  0.99990646  1
  U  U2  1  0.50000000  0.00009354  0.58420178  1
  Al  Al3  1  -0.00000000  0.23124161  0.76875839  1
  Al  Al4  1  -0.00000000  0.76875950  0.00013643  1
  Al  Al5  1  -0.00000000  0.99986357  0.23124050  1
  Co  Co6  1  0.50000000  0.99985222  0.00014778  1
  Ru  Ru7  1  0.00000000  0.33340503  0.33322624  1
  Ru  Ru8  1  0.00000000  0.66677376  0.66659497  1
