# generated using pymatgen
data_Pr4Ga2O9
_symmetry_space_group_name_H-M   'P 1'
_cell_length_a   7.90760808
_cell_length_b   11.16422992
_cell_length_c   11.69701872
_cell_angle_alpha   90.00000000
_cell_angle_beta   109.15524283
_cell_angle_gamma   90.00000000
_symmetry_Int_Tables_number   1
_chemical_formula_structural   Pr4Ga2O9
_chemical_formula_sum   'Pr16 Ga8 O36'
_cell_volume   975.46613614
_cell_formula_units_Z   4
loop_
 _symmetry_equiv_pos_site_id
 _symmetry_equiv_pos_as_xyz
  1  'x, y, z'
loop_
 _atom_site_type_symbol
 _atom_site_label
 _atom_site_symmetry_multiplicity
 _atom_site_fract_x
 _atom_site_fract_y
 _atom_site_fract_z
 _atom_site_occupancy
  O  O0  1  0.56921285  0.48924020  0.89848840  1
  O  O1  1  0.43078715  0.98924020  0.60151160  1
  O  O2  1  0.43078715  0.51075980  0.10151160  1
  O  O3  1  0.56921285  0.01075980  0.39848840  1
  O  O4  1  0.07655562  0.50440360  0.89541566  1
  O  O5  1  0.92344438  0.00440360  0.60458434  1
  O  O6  1  0.92344438  0.49559640  0.10458434  1
  O  O7  1  0.07655562  0.99559640  0.39541566  1
  O  O8  1  0.70393511  0.46867191  0.67846696  1
  O  O9  1  0.29606489  0.96867191  0.82153304  1
  O  O10  1  0.29606489  0.53132809  0.32153304  1
  O  O11  1  0.70393511  0.03132809  0.17846696  1
  O  O12  1  0.63987391  0.27357931  0.46043780  1
  O  O13  1  0.36012609  0.77357931  0.03956220  1
  O  O14  1  0.22142847  0.47028531  0.67240567  1
  O  O15  1  0.36012609  0.72642069  0.53956220  1
  O  O16  1  0.43183171  0.25026703  0.61239104  1
  O  O17  1  0.56816829  0.75026703  0.88760896  1
  O  O18  1  0.56816829  0.74973297  0.38760896  1
  O  O19  1  0.43183171  0.24973297  0.11239104  1
  O  O20  1  0.07249108  0.26830064  0.47581599  1
  O  O21  1  0.92750892  0.76830064  0.02418401  1
  O  O22  1  0.92750892  0.73169936  0.52418401  1
  O  O23  1  0.07249108  0.23169936  0.97581599  1
  O  O24  1  0.78437910  0.22358576  0.74809898  1
  O  O25  1  0.21562090  0.72358576  0.75190102  1
  O  O26  1  0.21562090  0.77641424  0.25190102  1
  O  O27  1  0.78437910  0.27641424  0.24809898  1
  O  O28  1  0.23396769  0.22488754  0.76728379  1
  O  O29  1  0.76603231  0.72488754  0.73271621  1
  O  O30  1  0.76603231  0.77511246  0.23271621  1
  O  O31  1  0.23396769  0.27511246  0.26728379  1
  O  O32  1  0.22142847  0.02971469  0.17240567  1
  O  O33  1  0.77857153  0.52971469  0.32759433  1
  O  O34  1  0.77857153  0.97028531  0.82759433  1
  O  O35  1  0.63987391  0.22642069  0.96043780  1
  Ga  Ga36  1  0.65449933  0.31520962  0.61509148  1
  Ga  Ga37  1  0.34550067  0.81520962  0.88490852  1
  Ga  Ga38  1  0.34550067  0.68479038  0.38490852  1
  Ga  Ga39  1  0.65449933  0.18479038  0.11509148  1
  Ga  Ga40  1  0.21769733  0.31221773  0.62719871  1
  Ga  Ga41  1  0.78230267  0.81221773  0.87280129  1
  Ga  Ga42  1  0.78230267  0.68778227  0.37280129  1
  Ga  Ga43  1  0.21769733  0.18778227  0.12719871  1
  Pr  Pr44  1  0.83472986  0.37784039  0.91181136  1
  Pr  Pr45  1  0.16527014  0.87784039  0.58818864  1
  Pr  Pr46  1  0.16527014  0.62215961  0.08818864  1
  Pr  Pr47  1  0.83472986  0.12215961  0.41181136  1
  Pr  Pr48  1  0.33374866  0.37806732  0.92826190  1
  Pr  Pr49  1  0.66625134  0.87806732  0.57173810  1
  Pr  Pr50  1  0.66625134  0.62193268  0.07173810  1
  Pr  Pr51  1  0.33374866  0.12193268  0.42826190  1
  Pr  Pr52  1  0.02356871  0.41135911  0.30576904  1
  Pr  Pr53  1  0.97643129  0.91135911  0.19423096  1
  Pr  Pr54  1  0.97643129  0.58864089  0.69423096  1
  Pr  Pr55  1  0.02356871  0.08864089  0.80576904  1
  Pr  Pr56  1  0.52087178  0.39630458  0.28241500  1
  Pr  Pr57  1  0.47912822  0.89630458  0.21758500  1
  Pr  Pr58  1  0.47912822  0.60369542  0.71758500  1
  Pr  Pr59  1  0.52087178  0.10369542  0.78241500  1
