# generated using pymatgen
data_KLi3Zr2(Si2O5)6
_symmetry_space_group_name_H-M   'P 1'
_cell_length_a   10.25257293
_cell_length_b   10.25257293
_cell_length_c   14.56667501
_cell_angle_alpha   90.00000000
_cell_angle_beta   90.00000000
_cell_angle_gamma   119.99999998
_symmetry_Int_Tables_number   1
_chemical_formula_structural   KLi3Zr2(Si2O5)6
_chemical_formula_sum   'K2 Li6 Zr4 Si24 O60'
_cell_volume   1326.04052629
_cell_formula_units_Z   2
loop_
 _symmetry_equiv_pos_site_id
 _symmetry_equiv_pos_as_xyz
  1  'x, y, z'
loop_
 _atom_site_type_symbol
 _atom_site_label
 _atom_site_symmetry_multiplicity
 _atom_site_fract_x
 _atom_site_fract_y
 _atom_site_fract_z
 _atom_site_occupancy
  Li  Li0  1  0.00000000  0.50000000  0.25000000  1
  Li  Li1  1  0.50000000  0.50000000  0.75000000  1
  Li  Li2  1  0.50000000  0.00000000  0.75000000  1
  Li  Li3  1  0.00000000  0.50000000  0.75000000  1
  Li  Li4  1  0.50000000  0.50000000  0.25000000  1
  Li  Li5  1  0.50000000  0.00000000  0.25000000  1
  O  O6  1  0.21759350  0.27691296  0.13235288  1
  O  O7  1  0.65970320  0.15646283  0.82794071  1
  O  O8  1  0.49675963  0.34029680  0.82794071  1
  O  O9  1  0.50324037  0.65970320  0.82794071  1
  O  O10  1  0.34029680  0.84353717  0.82794071  1
  O  O11  1  0.84353717  0.50324037  0.82794071  1
  O  O12  1  0.15646283  0.65970320  0.32794071  1
  O  O13  1  0.34029680  0.49675963  0.32794071  1
  O  O14  1  0.50324037  0.84353717  0.32794071  1
  O  O15  1  0.49675963  0.15646283  0.32794071  1
  O  O16  1  0.84353717  0.50324037  0.17205929  1
  O  O17  1  0.84353717  0.34029680  0.32794071  1
  O  O18  1  0.65970320  0.50324037  0.32794071  1
  O  O19  1  0.34029680  0.84353717  0.17205929  1
  O  O20  1  0.50324037  0.65970320  0.17205929  1
  O  O21  1  0.49675963  0.34029680  0.17205929  1
  O  O22  1  0.65970320  0.15646283  0.17205929  1
  O  O23  1  0.05931946  0.27691296  0.63235288  1
  O  O24  1  0.78240650  0.05931946  0.63235288  1
  O  O25  1  0.94068054  0.72308704  0.63235288  1
  O  O26  1  0.27691296  0.21759350  0.63235288  1
  O  O27  1  0.72308704  0.78240650  0.63235288  1
  O  O28  1  0.21759350  0.27691296  0.86764712  1
  O  O29  1  0.21759350  0.94068054  0.63235288  1
  O  O30  1  0.84353717  0.34029680  0.67205929  1
  O  O31  1  0.15646283  0.65970320  0.67205929  1
  O  O32  1  0.15646283  0.49675963  0.82794071  1
  O  O33  1  0.50324037  0.84353717  0.67205929  1
  O  O34  1  0.49675963  0.15646283  0.67205929  1
  O  O35  1  0.65970320  0.50324037  0.67205929  1
  O  O36  1  0.12681573  0.39564078  0.00000000  1
  O  O37  1  0.73117495  0.12681573  0.00000000  1
  O  O38  1  0.39564078  0.26882505  0.00000000  1
  O  O39  1  0.60435922  0.73117495  0.00000000  1
  O  O40  1  0.26882505  0.87318427  0.00000000  1
  O  O41  1  0.73117495  0.60435922  0.50000000  1
  O  O42  1  0.87318427  0.26882505  0.50000000  1
  O  O43  1  0.87318427  0.60435922  0.00000000  1
  O  O44  1  0.39564078  0.12681573  0.50000000  1
  O  O45  1  0.60435922  0.87318427  0.50000000  1
  O  O46  1  0.26882505  0.39564078  0.50000000  1
  O  O47  1  0.12681573  0.73117495  0.50000000  1
  O  O48  1  0.34029680  0.49675963  0.67205929  1
  O  O49  1  0.94068054  0.21759350  0.13235288  1
  O  O50  1  0.27691296  0.05931946  0.13235288  1
  O  O51  1  0.72308704  0.94068054  0.13235288  1
  O  O52  1  0.05931946  0.78240650  0.13235288  1
  O  O53  1  0.94068054  0.72308704  0.36764712  1
  O  O54  1  0.78240650  0.05931946  0.36764712  1
  O  O55  1  0.78240650  0.72308704  0.13235288  1
  O  O56  1  0.27691296  0.21759350  0.36764712  1
  O  O57  1  0.72308704  0.78240650  0.36764712  1
  O  O58  1  0.05931946  0.27691296  0.36764712  1
  O  O59  1  0.21759350  0.94068054  0.36764712  1
  O  O60  1  0.78240650  0.72308704  0.86764712  1
  O  O61  1  0.05931946  0.78240650  0.86764712  1
  O  O62  1  0.72308704  0.94068054  0.86764712  1
  O  O63  1  0.27691296  0.05931946  0.86764712  1
  O  O64  1  0.94068054  0.21759350  0.86764712  1
  O  O65  1  0.15646283  0.49675963  0.17205929  1
  Si  Si66  1  0.88737761  0.23906855  0.60834758  1
  Si  Si67  1  0.76093145  0.64830906  0.60834758  1
  Si  Si68  1  0.35169094  0.11262239  0.60834758  1
  Si  Si69  1  0.64830906  0.88737761  0.60834758  1
  Si  Si70  1  0.11262239  0.35169094  0.89165242  1
  Si  Si71  1  0.11262239  0.76093145  0.60834758  1
  Si  Si72  1  0.23906855  0.35169094  0.60834758  1
  Si  Si73  1  0.76093145  0.11262239  0.89165242  1
  Si  Si74  1  0.35169094  0.23906855  0.89165242  1
  Si  Si75  1  0.64830906  0.76093145  0.89165242  1
  Si  Si76  1  0.23906855  0.88737761  0.89165242  1
  Si  Si77  1  0.88737761  0.64830906  0.89165242  1
  Si  Si78  1  0.11262239  0.76093145  0.39165242  1
  Si  Si79  1  0.23906855  0.35169094  0.39165242  1
  Si  Si80  1  0.64830906  0.88737761  0.39165242  1
  Si  Si81  1  0.11262239  0.35169094  0.10834758  1
  Si  Si82  1  0.88737761  0.64830906  0.10834758  1
  Si  Si83  1  0.88737761  0.23906855  0.39165242  1
  Si  Si84  1  0.76093145  0.64830906  0.39165242  1
  Si  Si85  1  0.23906855  0.88737761  0.10834758  1
  Si  Si86  1  0.64830906  0.76093145  0.10834758  1
  Si  Si87  1  0.35169094  0.23906855  0.10834758  1
  Si  Si88  1  0.76093145  0.11262239  0.10834758  1
  Si  Si89  1  0.35169094  0.11262239  0.39165242  1
  K  K90  1  0.00000000  0.00000000  0.75000000  1
  K  K91  1  0.00000000  0.00000000  0.25000000  1
  Zr  Zr92  1  0.66666667  0.33333333  0.75000000  1
  Zr  Zr93  1  0.33333333  0.66666667  0.75000000  1
  Zr  Zr94  1  0.66666667  0.33333333  0.25000000  1
  Zr  Zr95  1  0.33333333  0.66666667  0.25000000  1
