# generated using pymatgen
data_Ce3Co29(Si2B5)2
_symmetry_space_group_name_H-M   'P 1'
_cell_length_a   7.81557308
_cell_length_b   11.15203646
_cell_length_c   11.15203646
_cell_angle_alpha   90.00000000
_cell_angle_beta   90.00000000
_cell_angle_gamma   90.00000000
_symmetry_Int_Tables_number   1
_chemical_formula_structural   Ce3Co29(Si2B5)2
_chemical_formula_sum   'Ce6 Co58 Si8 B20'
_cell_volume   972.00654572
_cell_formula_units_Z   2
loop_
 _symmetry_equiv_pos_site_id
 _symmetry_equiv_pos_as_xyz
  1  'x, y, z'
loop_
 _atom_site_type_symbol
 _atom_site_label
 _atom_site_symmetry_multiplicity
 _atom_site_fract_x
 _atom_site_fract_y
 _atom_site_fract_z
 _atom_site_occupancy
  Ce  Ce0  1  0.50000000  0.25000000  0.75000000  1
  Ce  Ce1  1  0.50000000  0.75000000  0.25000000  1
  Ce  Ce2  1  -0.00000000  0.50000000  0.50000000  1
  Ce  Ce3  1  -0.00000000  0.00000000  0.50000000  1
  Ce  Ce4  1  -0.00000000  0.50000000  -0.00000000  1
  Ce  Ce5  1  -0.00000000  -0.00000000  -0.00000000  1
  Co  Co6  1  0.53014597  0.75000000  0.75000000  1
  Co  Co7  1  0.46985403  0.25000000  0.25000000  1
  Co  Co8  1  0.11050853  0.14073692  0.75000000  1
  Co  Co9  1  0.11050853  0.35926308  0.75000000  1
  Co  Co10  1  0.11050853  0.75000000  0.14073692  1
  Co  Co11  1  0.11050853  0.75000000  0.35926308  1
  Co  Co12  1  0.88949147  0.85926308  0.25000000  1
  Co  Co13  1  0.88949147  0.64073692  0.25000000  1
  Co  Co14  1  0.88949147  0.25000000  0.85926308  1
  Co  Co15  1  0.88949147  0.25000000  0.64073692  1
  Co  Co16  1  0.52403182  0.52281625  0.75000000  1
  Co  Co17  1  0.52403182  0.97718375  0.75000000  1
  Co  Co18  1  0.52403182  0.75000000  0.52281625  1
  Co  Co19  1  0.52403182  0.75000000  0.97718375  1
  Co  Co20  1  0.47596818  0.47718375  0.25000000  1
  Co  Co21  1  0.47596818  0.02281625  0.25000000  1
  Co  Co22  1  0.47596818  0.25000000  0.47718375  1
  Co  Co23  1  0.47596818  0.25000000  0.02281625  1
  Co  Co24  1  0.02571976  0.58546334  0.75000000  1
  Co  Co25  1  0.02571976  0.91453666  0.75000000  1
  Co  Co26  1  0.02571976  0.75000000  0.58546334  1
  Co  Co27  1  0.02571976  0.75000000  0.91453666  1
  Co  Co28  1  0.97428024  0.41453666  0.25000000  1
  Co  Co29  1  0.97428024  0.08546334  0.25000000  1
  Co  Co30  1  0.97428024  0.25000000  0.41453666  1
  Co  Co31  1  0.97428024  0.25000000  0.08546334  1
  Co  Co32  1  0.74812414  0.63396615  0.63396615  1
  Co  Co33  1  0.74812414  0.86603385  0.63396615  1
  Co  Co34  1  0.74812414  0.63396615  0.86603385  1
  Co  Co35  1  0.74812414  0.86603385  0.86603385  1
  Co  Co36  1  0.25187586  0.36603385  0.36603385  1
  Co  Co37  1  0.25187586  0.13396615  0.36603385  1
  Co  Co38  1  0.25187586  0.36603385  0.13396615  1
  Co  Co39  1  0.25187586  0.13396615  0.13396615  1
  Co  Co40  1  0.29989458  0.64025520  0.64025520  1
  Co  Co41  1  0.29989458  0.85974480  0.64025520  1
  Co  Co42  1  0.29989458  0.64025520  0.85974480  1
  Co  Co43  1  0.29989458  0.85974480  0.85974480  1
  Co  Co44  1  0.70010542  0.35974480  0.35974480  1
  Co  Co45  1  0.70010542  0.14025520  0.35974480  1
  Co  Co46  1  0.70010542  0.35974480  0.14025520  1
  Co  Co47  1  0.70010542  0.14025520  0.14025520  1
  Co  Co48  1  0.66398323  0.08884509  0.57640941  1
  Co  Co49  1  0.66398323  0.41115491  0.57640941  1
  Co  Co50  1  0.66398323  0.08884509  0.92359059  1
  Co  Co51  1  0.66398323  0.41115491  0.92359059  1
  Co  Co52  1  0.66398323  0.57640941  0.08884509  1
  Co  Co53  1  0.66398323  0.92359059  0.08884509  1
  Co  Co54  1  0.66398323  0.57640941  0.41115491  1
  Co  Co55  1  0.66398323  0.92359059  0.41115491  1
  Co  Co56  1  0.33601677  0.91115491  0.42359059  1
  Co  Co57  1  0.33601677  0.58884509  0.42359059  1
  Co  Co58  1  0.33601677  0.91115491  0.07640941  1
  Co  Co59  1  0.33601677  0.58884509  0.07640941  1
  Co  Co60  1  0.33601677  0.42359059  0.91115491  1
  Co  Co61  1  0.33601677  0.07640941  0.91115491  1
  Co  Co62  1  0.33601677  0.42359059  0.58884509  1
  Co  Co63  1  0.33601677  0.07640941  0.58884509  1
  Si  Si64  1  0.82429385  0.06961483  0.75000000  1
  Si  Si65  1  0.82429385  0.43038517  0.75000000  1
  Si  Si66  1  0.82429385  0.75000000  0.06961483  1
  Si  Si67  1  0.82429385  0.75000000  0.43038517  1
  Si  Si68  1  0.17570615  0.93038517  0.25000000  1
  Si  Si69  1  0.17570615  0.56961483  0.25000000  1
  Si  Si70  1  0.17570615  0.25000000  0.93038517  1
  Si  Si71  1  0.17570615  0.25000000  0.56961483  1
  B  B72  1  0.88551941  0.75000000  0.75000000  1
  B  B73  1  0.11448059  0.25000000  0.25000000  1
  B  B74  1  0.14665002  0.75000000  0.75000000  1
  B  B75  1  0.85334998  0.25000000  0.25000000  1
  B  B76  1  0.26012184  0.49345169  0.75000000  1
  B  B77  1  0.26012184  0.00654831  0.75000000  1
  B  B78  1  0.26012184  0.75000000  0.49345169  1
  B  B79  1  0.26012184  0.75000000  0.00654831  1
  B  B80  1  0.73987816  0.50654831  0.25000000  1
  B  B81  1  0.73987816  0.99345169  0.25000000  1
  B  B82  1  0.73987816  0.25000000  0.50654831  1
  B  B83  1  0.73987816  0.25000000  0.99345169  1
  B  B84  1  0.51608384  0.56281918  0.56281918  1
  B  B85  1  0.51608384  0.93718082  0.56281918  1
  B  B86  1  0.51608384  0.56281918  0.93718082  1
  B  B87  1  0.51608384  0.93718082  0.93718082  1
  B  B88  1  0.48391616  0.43718082  0.43718082  1
  B  B89  1  0.48391616  0.06281918  0.43718082  1
  B  B90  1  0.48391616  0.43718082  0.06281918  1
  B  B91  1  0.48391616  0.06281918  0.06281918  1
