# generated using pymatgen
data_Sr6Sb6S17
_symmetry_space_group_name_H-M   'P 1'
_cell_length_a   8.38687035
_cell_length_b   15.73143073
_cell_length_c   23.17871874
_cell_angle_alpha   90.00000000
_cell_angle_beta   90.00000000
_cell_angle_gamma   90.00000000
_symmetry_Int_Tables_number   1
_chemical_formula_structural   Sr6Sb6S17
_chemical_formula_sum   'Sr24 Sb24 S68'
_cell_volume   3058.14150730
_cell_formula_units_Z   4
loop_
 _symmetry_equiv_pos_site_id
 _symmetry_equiv_pos_as_xyz
  1  'x, y, z'
loop_
 _atom_site_type_symbol
 _atom_site_label
 _atom_site_symmetry_multiplicity
 _atom_site_fract_x
 _atom_site_fract_y
 _atom_site_fract_z
 _atom_site_occupancy
  S  S0  1  0.49254773  0.70865466  0.92997105  1
  S  S1  1  0.99254773  0.79134534  0.07002895  1
  S  S2  1  0.50745227  0.20865466  0.57002895  1
  S  S3  1  0.00745227  0.29134534  0.42997105  1
  S  S4  1  0.35985394  0.75071396  0.00109677  1
  S  S5  1  0.85985394  0.74928604  0.99890323  1
  S  S6  1  0.64014606  0.25071396  0.49890323  1
  S  S7  1  0.14014606  0.24928604  0.50109677  1
  S  S8  1  0.99567855  0.70720094  0.92876657  1
  S  S9  1  0.49567855  0.79279906  0.07123343  1
  S  S10  1  0.00432145  0.20720094  0.57123343  1
  S  S11  1  0.50432145  0.29279906  0.42876657  1
  S  S12  1  0.26236312  0.52582130  0.66539617  1
  S  S13  1  0.76236312  0.97417870  0.33460383  1
  S  S14  1  0.73763688  0.02582130  0.83460383  1
  S  S15  1  0.23763688  0.47417870  0.16539617  1
  S  S16  1  0.49477558  0.43496723  0.54964491  1
  S  S17  1  0.99477558  0.06503277  0.45035509  1
  S  S18  1  0.50522442  0.93496723  0.95035509  1
  S  S19  1  0.00522442  0.56503277  0.04964491  1
  S  S20  1  0.23697250  0.97092966  0.33899135  1
  S  S21  1  0.73697250  0.52907034  0.66100865  1
  S  S22  1  0.76302750  0.47092966  0.16100865  1
  S  S23  1  0.26302750  0.02907034  0.83899135  1
  S  S24  1  0.00506700  0.92901177  0.94775473  1
  S  S25  1  0.50506700  0.57098823  0.05224527  1
  S  S26  1  0.99493300  0.42901177  0.55224527  1
  S  S27  1  0.49493300  0.07098823  0.44775473  1
  S  S28  1  0.21009161  0.77851015  0.65696641  1
  S  S29  1  0.78298957  0.61885176  0.50563355  1
  S  S30  1  0.21701043  0.11885176  0.99436645  1
  S  S31  1  0.71701043  0.38114824  0.00563355  1
  S  S32  1  0.49769616  0.97255831  0.61976605  1
  S  S33  1  0.99769616  0.52744169  0.38023395  1
  S  S34  1  0.50230384  0.47255831  0.88023395  1
  S  S35  1  0.00230384  0.02744169  0.11976605  1
  S  S36  1  0.21790280  0.62010133  0.50357337  1
  S  S37  1  0.71790280  0.87989867  0.49642663  1
  S  S38  1  0.78209720  0.12010133  0.99642663  1
  S  S39  1  0.28209720  0.37989867  0.00357337  1
  S  S40  1  0.77483984  0.78113125  0.65197914  1
  S  S41  1  0.27483984  0.71886875  0.34802086  1
  S  S42  1  0.22516016  0.28113125  0.84802086  1
  S  S43  1  0.72516016  0.21886875  0.15197914  1
  S  S44  1  0.99798046  0.98016052  0.62217017  1
  S  S45  1  0.49798046  0.51983948  0.37782983  1
  S  S46  1  0.00201954  0.48016052  0.87782983  1
  S  S47  1  0.50201954  0.01983948  0.12217017  1
  S  S48  1  0.29209326  0.15488095  0.68726801  1
  S  S49  1  0.79209326  0.34511905  0.31273199  1
  S  S50  1  0.70790674  0.65488095  0.81273199  1
  S  S51  1  0.20790674  0.84511905  0.18726801  1
  S  S52  1  0.25356155  0.33722936  0.30325021  1
  S  S53  1  0.75356155  0.16277064  0.69674979  1
  S  S54  1  0.74643845  0.83722936  0.19674979  1
  S  S55  1  0.24643845  0.66277064  0.80325021  1
  S  S56  1  0.00338308  0.14752910  0.27961522  1
  S  S57  1  0.50338308  0.35247090  0.72038478  1
  S  S58  1  0.99661692  0.64752910  0.22038478  1
  S  S59  1  0.49661692  0.85247090  0.77961522  1
  S  S60  1  0.50164622  0.14200397  0.28245745  1
  S  S61  1  0.00164622  0.35799603  0.71754255  1
  S  S62  1  0.49835378  0.64200397  0.21754255  1
  S  S63  1  0.99835378  0.85799603  0.78245745  1
  S  S64  1  0.28990839  0.22148985  0.15696641  1
  S  S65  1  0.78990839  0.27851015  0.84303359  1
  S  S66  1  0.71009161  0.72148985  0.34303359  1
  S  S67  1  0.28298957  0.88114824  0.49436645  1
  Sr  Sr68  1  0.25533274  0.56183238  0.95632145  1
  Sr  Sr69  1  0.75533274  0.93816762  0.04367855  1
  Sr  Sr70  1  0.74466726  0.06183238  0.54367855  1
  Sr  Sr71  1  0.24466726  0.43816762  0.45632145  1
  Sr  Sr72  1  0.24897862  0.93604234  0.04534455  1
  Sr  Sr73  1  0.74897862  0.56395766  0.95465545  1
  Sr  Sr74  1  0.75102138  0.43604234  0.45465545  1
  Sr  Sr75  1  0.25102138  0.06395766  0.54534455  1
  Sr  Sr76  1  0.25351294  0.45319834  0.78624758  1
  Sr  Sr77  1  0.75351294  0.04680166  0.21375242  1
  Sr  Sr78  1  0.74648706  0.95319834  0.71375242  1
  Sr  Sr79  1  0.24648706  0.54680166  0.28624758  1
  Sr  Sr80  1  0.24978625  0.95767241  0.71479993  1
  Sr  Sr81  1  0.74978625  0.54232759  0.28520007  1
  Sr  Sr82  1  0.75021375  0.45767241  0.78520007  1
  Sr  Sr83  1  0.25021375  0.04232759  0.21479993  1
  Sr  Sr84  1  0.25403340  0.33625506  0.62449517  1
  Sr  Sr85  1  0.75403340  0.16374494  0.37550483  1
  Sr  Sr86  1  0.74596660  0.83625506  0.87550483  1
  Sr  Sr87  1  0.24596660  0.66374494  0.12449517  1
  Sr  Sr88  1  0.25397227  0.83733599  0.87618880  1
  Sr  Sr89  1  0.75397227  0.66266401  0.12381120  1
  Sr  Sr90  1  0.74602773  0.33733599  0.62381120  1
  Sr  Sr91  1  0.24602773  0.16266401  0.37618880  1
  Sb  Sb92  1  0.48978310  0.56919261  0.60472399  1
  Sb  Sb93  1  0.98978310  0.93080739  0.39527601  1
  Sb  Sb94  1  0.51021690  0.06919261  0.89527601  1
  Sb  Sb95  1  0.01021690  0.43080739  0.10472399  1
  Sb  Sb96  1  0.98101588  0.57514068  0.58698419  1
  Sb  Sb97  1  0.48101588  0.92485932  0.41301581  1
  Sb  Sb98  1  0.01898412  0.07514068  0.91301581  1
  Sb  Sb99  1  0.51898412  0.42485932  0.08698419  1
  Sb  Sb100  1  0.49486618  0.33661862  0.93607885  1
  Sb  Sb101  1  0.99486618  0.16338138  0.06392115  1
  Sb  Sb102  1  0.50513382  0.83661862  0.56392115  1
  Sb  Sb103  1  0.00513382  0.66338138  0.43607885  1
  Sb  Sb104  1  0.99029214  0.82943712  0.58800542  1
  Sb  Sb105  1  0.49029214  0.67056288  0.41199458  1
  Sb  Sb106  1  0.00970786  0.32943712  0.91199458  1
  Sb  Sb107  1  0.50970786  0.17056288  0.08800542  1
  Sb  Sb108  1  0.01247386  0.72043796  0.73124767  1
  Sb  Sb109  1  0.51247386  0.77956204  0.26875233  1
  Sb  Sb110  1  0.98752614  0.22043796  0.76875233  1
  Sb  Sb111  1  0.48752614  0.27956204  0.23124767  1
  Sb  Sb112  1  0.49507874  0.70212251  0.74710987  1
  Sb  Sb113  1  0.99507874  0.79787749  0.25289013  1
  Sb  Sb114  1  0.50492126  0.20212251  0.75289013  1
  Sb  Sb115  1  0.00492126  0.29787749  0.24710987  1
