# generated using pymatgen
data_Sm4Au2O9
_symmetry_space_group_name_H-M   'P 1'
_cell_length_a   6.10067948
_cell_length_b   11.95746856
_cell_length_c   11.94805464
_cell_angle_alpha   90.00000000
_cell_angle_beta   90.00000000
_cell_angle_gamma   90.00000000
_symmetry_Int_Tables_number   1
_chemical_formula_structural   Sm4Au2O9
_chemical_formula_sum   'Sm16 Au8 O36'
_cell_volume   871.59485132
_cell_formula_units_Z   4
loop_
 _symmetry_equiv_pos_site_id
 _symmetry_equiv_pos_as_xyz
  1  'x, y, z'
loop_
 _atom_site_type_symbol
 _atom_site_label
 _atom_site_symmetry_multiplicity
 _atom_site_fract_x
 _atom_site_fract_y
 _atom_site_fract_z
 _atom_site_occupancy
  O  O0  1  0.93671823  0.44549853  0.38636391  1
  O  O1  1  0.93671823  0.05450147  0.61363609  1
  O  O2  1  0.56328177  0.94549853  0.11363609  1
  O  O3  1  0.56328177  0.55450147  0.88636391  1
  O  O4  1  0.06328177  0.55450147  0.61363609  1
  O  O5  1  0.06328177  0.94549853  0.38636391  1
  O  O6  1  0.43671823  0.05450147  0.88636391  1
  O  O7  1  0.43671823  0.44549853  0.11363609  1
  O  O8  1  0.93956524  0.35054886  0.16322624  1
  O  O9  1  0.93956524  0.14945114  0.83677376  1
  O  O10  1  0.56043476  0.85054886  0.33677376  1
  O  O11  1  0.56043476  0.64945114  0.66322624  1
  O  O12  1  0.06043476  0.64945114  0.83677376  1
  O  O13  1  0.06043476  0.85054886  0.16322624  1
  O  O14  1  0.62726287  0.15941668  0.19652575  1
  O  O15  1  0.43956524  0.14945114  0.66322624  1
  O  O16  1  0.61157088  0.08879718  0.42392166  1
  O  O17  1  0.61157088  0.41120282  0.57607834  1
  O  O18  1  0.88842912  0.58879718  0.07607834  1
  O  O19  1  0.88842912  0.91120282  0.92392166  1
  O  O20  1  0.38842912  0.91120282  0.57607834  1
  O  O21  1  0.38842912  0.58879718  0.42392166  1
  O  O22  1  0.11157088  0.41120282  0.92392166  1
  O  O23  1  0.11157088  0.08879718  0.07607834  1
  O  O24  1  0.02343189  0.25000000  0.50000000  1
  O  O25  1  0.47656811  0.75000000  0.00000000  1
  O  O26  1  0.97656811  0.75000000  0.50000000  1
  O  O27  1  0.52343189  0.25000000  0.00000000  1
  O  O28  1  0.12726287  0.15941668  0.30347425  1
  O  O29  1  0.12726287  0.34058332  0.69652575  1
  O  O30  1  0.37273713  0.65941668  0.19652575  1
  O  O31  1  0.37273713  0.84058332  0.80347425  1
  O  O32  1  0.87273713  0.84058332  0.69652575  1
  O  O33  1  0.87273713  0.65941668  0.30347425  1
  O  O34  1  0.62726287  0.34058332  0.80347425  1
  O  O35  1  0.43956524  0.35054886  0.33677376  1
  Sm  Sm36  1  0.74130529  0.08989004  0.01128631  1
  Sm  Sm37  1  0.74130529  0.41010996  0.98871369  1
  Sm  Sm38  1  0.75869471  0.58989004  0.48871369  1
  Sm  Sm39  1  0.75869471  0.91010996  0.51128631  1
  Sm  Sm40  1  0.25869471  0.91010996  0.98871369  1
  Sm  Sm41  1  0.25869471  0.58989004  0.01128631  1
  Sm  Sm42  1  0.24130529  0.41010996  0.51128631  1
  Sm  Sm43  1  0.24130529  0.08989004  0.48871369  1
  Sm  Sm44  1  0.80383316  0.26400180  0.34056956  1
  Sm  Sm45  1  0.80383316  0.23599820  0.65943044  1
  Sm  Sm46  1  0.69616684  0.76400180  0.15943044  1
  Sm  Sm47  1  0.69616684  0.73599820  0.84056956  1
  Sm  Sm48  1  0.19616684  0.73599820  0.65943044  1
  Sm  Sm49  1  0.19616684  0.76400180  0.34056956  1
  Sm  Sm50  1  0.30383316  0.23599820  0.84056956  1
  Sm  Sm51  1  0.30383316  0.26400180  0.15943044  1
  Au  Au52  1  0.58027171  0.01069018  0.27131190  1
  Au  Au53  1  0.58027171  0.48930982  0.72868810  1
  Au  Au54  1  0.91972829  0.51069018  0.22868810  1
  Au  Au55  1  0.91972829  0.98930982  0.77131190  1
  Au  Au56  1  0.41972829  0.98930982  0.72868810  1
  Au  Au57  1  0.41972829  0.51069018  0.27131190  1
  Au  Au58  1  0.08027171  0.48930982  0.77131190  1
  Au  Au59  1  0.08027171  0.01069018  0.22868810  1
