# generated using pymatgen
data_Tb4(SiS4)3
_symmetry_space_group_name_H-M   'P 1'
_cell_length_a   9.97020724
_cell_length_b   11.13564778
_cell_length_c   16.60161146
_cell_angle_alpha   90.00000000
_cell_angle_beta   103.60816937
_cell_angle_gamma   90.00000000
_symmetry_Int_Tables_number   1
_chemical_formula_structural   Tb4(SiS4)3
_chemical_formula_sum   'Tb16 Si12 S48'
_cell_volume   1791.44620410
_cell_formula_units_Z   4
loop_
 _symmetry_equiv_pos_site_id
 _symmetry_equiv_pos_as_xyz
  1  'x, y, z'
loop_
 _atom_site_type_symbol
 _atom_site_label
 _atom_site_symmetry_multiplicity
 _atom_site_fract_x
 _atom_site_fract_y
 _atom_site_fract_z
 _atom_site_occupancy
  Si  Si0  1  0.20788963  0.78635835  0.73323547  1
  Si  Si1  1  0.29211037  0.28635835  0.76676453  1
  Si  Si2  1  0.79211037  0.21364165  0.26676453  1
  Si  Si3  1  0.70788963  0.71364165  0.23323547  1
  Si  Si4  1  0.19673496  0.61971031  0.44082556  1
  Si  Si5  1  0.30326504  0.11971031  0.05917444  1
  Si  Si6  1  0.80326504  0.38028969  0.55917444  1
  Si  Si7  1  0.69673496  0.88028969  0.94082556  1
  Si  Si8  1  0.71884288  0.95166856  0.61907681  1
  Si  Si9  1  0.78115712  0.45166856  0.88092319  1
  Si  Si10  1  0.28115712  0.04833144  0.38092319  1
  Si  Si11  1  0.21884288  0.54833144  0.11907681  1
  S  S12  1  0.25116640  0.95840174  0.68661723  1
  S  S13  1  0.24883360  0.45840174  0.81338277  1
  S  S14  1  0.74883360  0.04159826  0.31338277  1
  S  S15  1  0.75116640  0.54159826  0.18661723  1
  S  S16  1  0.15701012  0.44494168  0.47395065  1
  S  S17  1  0.34298988  0.94494168  0.02604935  1
  S  S18  1  0.84298988  0.55505832  0.52604935  1
  S  S19  1  0.65701012  0.05505832  0.97395065  1
  S  S20  1  0.65013065  0.77508702  0.62899341  1
  S  S21  1  0.84986935  0.27508702  0.87100659  1
  S  S22  1  0.34986935  0.22491298  0.37100659  1
  S  S23  1  0.15013065  0.72491298  0.12899341  1
  S  S24  1  0.16813066  0.02080878  0.47336110  1
  S  S25  1  0.33186934  0.52080878  0.02663890  1
  S  S26  1  0.83186934  0.97919122  0.52663890  1
  S  S27  1  0.66813066  0.47919122  0.97336110  1
  S  S28  1  0.84678579  0.02768237  0.72988855  1
  S  S29  1  0.65321421  0.52768237  0.77011145  1
  S  S30  1  0.15321421  0.97231763  0.27011145  1
  S  S31  1  0.34678579  0.47231763  0.22988855  1
  S  S32  1  0.53880117  0.06520509  0.59288657  1
  S  S33  1  0.96119883  0.56520509  0.90711343  1
  S  S34  1  0.46119883  0.93479491  0.40711343  1
  S  S35  1  0.03880117  0.43479491  0.09288657  1
  S  S36  1  0.40489104  0.65867671  0.44875661  1
  S  S37  1  0.09510896  0.15867671  0.05124339  1
  S  S38  1  0.59510896  0.34132329  0.55124339  1
  S  S39  1  0.90489104  0.84132329  0.94875661  1
  S  S40  1  0.10937381  0.74111543  0.51389296  1
  S  S41  1  0.39062619  0.24111543  0.98610704  1
  S  S42  1  0.89062619  0.25888457  0.48610704  1
  S  S43  1  0.60937381  0.75888457  0.01389296  1
  S  S44  1  0.34342923  0.66692302  0.68694569  1
  S  S45  1  0.15657077  0.16692302  0.81305431  1
  S  S46  1  0.65657077  0.33307698  0.31305431  1
  S  S47  1  0.84342923  0.83307698  0.18694569  1
  S  S48  1  0.23987694  0.28989434  0.63593198  1
  S  S49  1  0.26012306  0.78989434  0.86406802  1
  S  S50  1  0.76012306  0.71010566  0.36406802  1
  S  S51  1  0.73987694  0.21010566  0.13593198  1
  S  S52  1  0.91833400  0.34806141  0.68370961  1
  S  S53  1  0.58166600  0.84806141  0.81629039  1
  S  S54  1  0.08166600  0.65193859  0.31629039  1
  S  S55  1  0.41833400  0.15193859  0.18370961  1
  S  S56  1  0.00327097  0.72215859  0.69166407  1
  S  S57  1  0.49672903  0.22215859  0.80833593  1
  S  S58  1  0.99672903  0.27784141  0.30833593  1
  S  S59  1  0.50327097  0.77784141  0.19166407  1
  Tb  Tb60  1  0.82109866  0.73810189  0.79079239  1
  Tb  Tb61  1  0.67890134  0.23810189  0.70920761  1
  Tb  Tb62  1  0.17890134  0.26189811  0.20920761  1
  Tb  Tb63  1  0.32109866  0.76189811  0.29079239  1
  Tb  Tb64  1  0.02724009  0.12769024  0.63461477  1
  Tb  Tb65  1  0.47275991  0.62769024  0.86538523  1
  Tb  Tb66  1  0.97275991  0.87230976  0.36538523  1
  Tb  Tb67  1  0.52724009  0.37230976  0.13461477  1
  Tb  Tb68  1  0.37371672  0.85028557  0.55940091  1
  Tb  Tb69  1  0.12628328  0.35028557  0.94059909  1
  Tb  Tb70  1  0.62628328  0.14971443  0.44059909  1
  Tb  Tb71  1  0.87371672  0.64971443  0.05940091  1
  Tb  Tb72  1  0.10857602  0.51886172  0.62559185  1
  Tb  Tb73  1  0.39142398  0.01886172  0.87440815  1
  Tb  Tb74  1  0.89142398  0.48113828  0.37440815  1
  Tb  Tb75  1  0.60857602  0.98113828  0.12559185  1
