# generated using pymatgen
data_Rb2SiO3
_symmetry_space_group_name_H-M   'P 1'
_cell_length_a   6.59955425
_cell_length_b   13.72753598
_cell_length_c   15.83844968
_cell_angle_alpha   90.00000000
_cell_angle_beta   95.38079985
_cell_angle_gamma   90.00000000
_symmetry_Int_Tables_number   1
_chemical_formula_structural   Rb2SiO3
_chemical_formula_sum   'Rb24 Si12 O36'
_cell_volume   1428.57120326
_cell_formula_units_Z   12
loop_
 _symmetry_equiv_pos_site_id
 _symmetry_equiv_pos_as_xyz
  1  'x, y, z'
loop_
 _atom_site_type_symbol
 _atom_site_label
 _atom_site_symmetry_multiplicity
 _atom_site_fract_x
 _atom_site_fract_y
 _atom_site_fract_z
 _atom_site_occupancy
  O  O0  1  0.49251325  0.94205443  0.38529618  1
  O  O1  1  0.00748675  0.44205443  0.11470382  1
  O  O2  1  0.50748675  0.05794557  0.61470382  1
  O  O3  1  0.99251325  0.55794557  0.88529618  1
  O  O4  1  0.85582293  0.86988632  0.45994921  1
  O  O5  1  0.64417707  0.36988632  0.04005079  1
  O  O6  1  0.14417707  0.13011368  0.54005079  1
  O  O7  1  0.35582293  0.63011368  0.95994921  1
  O  O8  1  0.21658195  0.10675909  0.14713916  1
  O  O9  1  0.28341805  0.60675909  0.35286084  1
  O  O10  1  0.78341805  0.89324091  0.85286084  1
  O  O11  1  0.71658195  0.39324091  0.64713916  1
  O  O12  1  0.67887093  0.56557241  0.41319158  1
  O  O13  1  0.82112907  0.06557241  0.08680842  1
  O  O14  1  0.32112907  0.43442759  0.58680842  1
  O  O15  1  0.17887093  0.93442759  0.91319158  1
  O  O16  1  0.45988167  0.80969618  0.16231788  1
  O  O17  1  0.09382474  0.84026139  0.76320785  1
  O  O18  1  0.54011833  0.19030382  0.83768212  1
  O  O19  1  0.95988167  0.69030382  0.66231788  1
  O  O20  1  0.85173292  0.73896562  0.15830714  1
  O  O21  1  0.64826708  0.23896562  0.34169286  1
  O  O22  1  0.14826708  0.26103438  0.84169286  1
  O  O23  1  0.35173292  0.76103438  0.65830714  1
  O  O24  1  0.74565725  0.83683407  0.29487881  1
  O  O25  1  0.75434275  0.33683407  0.20512119  1
  O  O26  1  0.25434275  0.16316593  0.70512119  1
  O  O27  1  0.24565725  0.66316593  0.79487881  1
  O  O28  1  0.53634607  0.75002398  0.41047009  1
  O  O29  1  0.96365393  0.25002398  0.08952991  1
  O  O30  1  0.46365393  0.24997602  0.58952991  1
  O  O31  1  0.03634607  0.74997602  0.91047009  1
  O  O32  1  0.59382474  0.65973861  0.26320785  1
  O  O33  1  0.90617526  0.15973861  0.23679215  1
  O  O34  1  0.40617526  0.34026139  0.73679215  1
  O  O35  1  0.04011833  0.30969618  0.33768212  1
  Si  Si36  1  0.66008982  0.85483303  0.39143150  1
  Si  Si37  1  0.83991018  0.35483303  0.10856850  1
  Si  Si38  1  0.33991018  0.14516697  0.60856850  1
  Si  Si39  1  0.16008982  0.64516697  0.89143150  1
  Si  Si40  1  0.52032200  0.63948536  0.36183173  1
  Si  Si41  1  0.97967800  0.13948536  0.13816827  1
  Si  Si42  1  0.47967800  0.36051464  0.63816827  1
  Si  Si43  1  0.02032200  0.86051464  0.86183173  1
  Si  Si44  1  0.66221513  0.76256942  0.21319702  1
  Si  Si45  1  0.83778487  0.26256942  0.28680298  1
  Si  Si46  1  0.33778487  0.23743058  0.78680298  1
  Si  Si47  1  0.16221513  0.73743058  0.71319702  1
  Rb  Rb48  1  0.76514233  0.37020416  0.86382977  1
  Rb  Rb49  1  0.46582238  0.16745830  0.01160578  1
  Rb  Rb50  1  0.96582238  0.33254170  0.51160578  1
  Rb  Rb51  1  0.53417762  0.83254170  0.98839422  1
  Rb  Rb52  1  0.23485767  0.62979584  0.13617023  1
  Rb  Rb53  1  0.26514233  0.12979584  0.36382977  1
  Rb  Rb54  1  0.03417762  0.66745830  0.48839422  1
  Rb  Rb55  1  0.73485767  0.87020416  0.63617023  1
  Rb  Rb56  1  0.33126757  0.31624477  0.19895694  1
  Rb  Rb57  1  0.16873243  0.81624477  0.30104306  1
  Rb  Rb58  1  0.66873243  0.68375523  0.80104306  1
  Rb  Rb59  1  0.83126757  0.18375523  0.69895694  1
  Rb  Rb60  1  0.57308069  0.01584015  0.21577541  1
  Rb  Rb61  1  0.92691931  0.51584015  0.28422459  1
  Rb  Rb62  1  0.42691931  0.98415985  0.78422459  1
  Rb  Rb63  1  0.07308069  0.48415985  0.71577541  1
  Rb  Rb64  1  0.75197792  0.08359005  0.47164229  1
  Rb  Rb65  1  0.74802208  0.58359005  0.02835771  1
  Rb  Rb66  1  0.24802208  0.91640995  0.52835771  1
  Rb  Rb67  1  0.25197792  0.41640995  0.97164229  1
  Rb  Rb68  1  0.92347042  0.09954225  0.91629962  1
  Rb  Rb69  1  0.57652958  0.59954225  0.58370038  1
  Rb  Rb70  1  0.07652958  0.90045775  0.08370038  1
  Rb  Rb71  1  0.42347042  0.40045775  0.41629962  1
