# generated using pymatgen
data_Tl2B4O7
_symmetry_space_group_name_H-M   'P 1'
_cell_length_a   6.85497962
_cell_length_b   13.61006647
_cell_length_c   13.60919798
_cell_angle_alpha   119.28223145
_cell_angle_beta   91.70175297
_cell_angle_gamma   91.65792300
_symmetry_Int_Tables_number   1
_chemical_formula_structural   Tl2B4O7
_chemical_formula_sum   'Tl12 B24 O42'
_cell_volume   1105.58898699
_cell_formula_units_Z   6
loop_
 _symmetry_equiv_pos_site_id
 _symmetry_equiv_pos_as_xyz
  1  'x, y, z'
loop_
 _atom_site_type_symbol
 _atom_site_label
 _atom_site_symmetry_multiplicity
 _atom_site_fract_x
 _atom_site_fract_y
 _atom_site_fract_z
 _atom_site_occupancy
  B  B0  1  0.04355736  0.21422049  0.28351123  1
  B  B1  1  0.95644264  0.78577951  0.71648877  1
  B  B2  1  0.16903700  0.20614573  0.45954032  1
  B  B3  1  0.83096300  0.79385427  0.54045968  1
  B  B4  1  0.24785931  0.29837577  0.18710462  1
  B  B5  1  0.75214069  0.70162423  0.81289538  1
  B  B6  1  0.26258177  0.02003968  0.30821252  1
  B  B7  1  0.73741823  0.97996032  0.69178748  1
  B  B8  1  0.59299995  0.50843113  0.77822544  1
  B  B9  1  0.40700005  0.49156887  0.22177456  1
  B  B10  1  0.35392493  0.36338747  0.62543015  1
  B  B11  1  0.64607507  0.63661253  0.37456985  1
  B  B12  1  0.90778875  0.16984568  0.76353193  1
  B  B13  1  0.09221125  0.83015432  0.23646807  1
  B  B14  1  0.83399331  0.08950921  0.88990026  1
  B  B15  1  0.16600669  0.91049079  0.11009974  1
  B  B16  1  0.08958750  0.25679547  0.66128020  1
  B  B17  1  0.91041250  0.74320453  0.33871980  1
  B  B18  1  0.78400341  0.34120945  0.76457547  1
  B  B19  1  0.21599659  0.65879055  0.23542453  1
  B  B20  1  0.91327952  0.19546569  0.10239624  1
  B  B21  1  0.08672048  0.80453431  0.89760376  1
  B  B22  1  0.59732794  0.32329785  0.14393263  1
  B  B23  1  0.40267206  0.67670215  0.85606737  1
  O  O24  1  0.94681017  0.16000121  0.86689186  1
  O  O25  1  0.05318983  0.83999879  0.13310814  1
  O  O26  1  0.27546846  0.32827782  0.69579379  1
  O  O27  1  0.72453154  0.67172218  0.30420621  1
  O  O28  1  0.82272880  0.05895730  0.67015199  1
  O  O29  1  0.17727120  0.94104270  0.32984801  1
  O  O30  1  0.50922702  0.44135294  0.65857328  1
  O  O31  1  0.49077298  0.55864706  0.34142672  1
  O  O32  1  0.19810520  0.28326256  0.28503356  1
  O  O33  1  0.80189480  0.71673744  0.71496644  1
  O  O34  1  0.83726009  0.09558264  0.99382968  1
  O  O35  1  0.16273991  0.90441736  0.00617032  1
  O  O36  1  0.07901003  0.17781557  0.53912281  1
  O  O37  1  0.92098997  0.82218443  0.46087719  1
  O  O38  1  0.08649292  0.19895292  0.72774030  1
  O  O39  1  0.91350708  0.80104708  0.27225970  1
  O  O40  1  0.75978488  0.58092213  0.78072534  1
  O  O41  1  0.24021512  0.41907787  0.21927466  1
  O  O42  1  0.11282840  0.22861951  0.09006708  1
  O  O43  1  0.88717160  0.77138049  0.90993292  1
  O  O44  1  0.27334416  0.31881340  0.51661122  1
  O  O45  1  0.72665584  0.68118660  0.48338878  1
  O  O46  1  0.45201060  0.25902546  0.15765599  1
  O  O47  1  0.54798940  0.74097454  0.84234401  1
  O  O48  1  0.92383046  0.33801353  0.69290071  1
  O  O49  1  0.07616954  0.66198647  0.30709929  1
  O  O50  1  0.76130846  0.25718114  0.79261945  1
  O  O51  1  0.23869154  0.74281886  0.20738055  1
  O  O52  1  0.66009518  0.42906532  0.81588637  1
  O  O53  1  0.33990482  0.57093468  0.18411363  1
  O  O54  1  0.90604740  0.16634292  0.19346686  1
  O  O55  1  0.09395260  0.83365708  0.80653314  1
  O  O56  1  0.78724336  0.29177701  0.12607183  1
  O  O57  1  0.21275664  0.70822299  0.87392817  1
  O  O58  1  0.28532013  0.99691403  0.19675046  1
  O  O59  1  0.71467987  0.00308597  0.80324954  1
  O  O60  1  0.55943297  0.42431347  0.14830701  1
  O  O61  1  0.44056703  0.57568653  0.85169299  1
  O  O62  1  0.32678260  0.12390294  0.39526110  1
  O  O63  1  0.67321740  0.87609706  0.60473890  1
  O  O64  1  0.01861987  0.19516402  0.37306248  1
  O  O65  1  0.98138013  0.80483598  0.62693752  1
  Tl  Tl66  1  0.87537388  0.45413083  0.58373973  1
  Tl  Tl67  1  0.12462612  0.54586917  0.41626027  1
  Tl  Tl68  1  0.78035816  0.01978547  0.44216957  1
  Tl  Tl69  1  0.21964184  0.98021453  0.55783043  1
  Tl  Tl70  1  0.39537502  0.32930096  0.87976887  1
  Tl  Tl71  1  0.60462498  0.67069904  0.12023113  1
  Tl  Tl72  1  0.29720039  0.05712606  0.94222240  1
  Tl  Tl73  1  0.70279961  0.94287394  0.05777760  1
  Tl  Tl74  1  0.55084889  0.26375299  0.36060432  1
  Tl  Tl75  1  0.44915111  0.73624701  0.63939568  1
  Tl  Tl76  1  0.98246483  0.39930987  0.05357285  1
  Tl  Tl77  1  0.01753517  0.60069013  0.94642715  1
