# generated using pymatgen
data_Nd3Co29(Si2B5)2
_symmetry_space_group_name_H-M   'P 1'
_cell_length_a   7.85426705
_cell_length_b   11.18206117
_cell_length_c   11.18206117
_cell_angle_alpha   90.00000000
_cell_angle_beta   90.00000000
_cell_angle_gamma   90.00000000
_symmetry_Int_Tables_number   1
_chemical_formula_structural   Nd3Co29(Si2B5)2
_chemical_formula_sum   'Nd6 Co58 Si8 B20'
_cell_volume   982.08570777
_cell_formula_units_Z   2
loop_
 _symmetry_equiv_pos_site_id
 _symmetry_equiv_pos_as_xyz
  1  'x, y, z'
loop_
 _atom_site_type_symbol
 _atom_site_label
 _atom_site_symmetry_multiplicity
 _atom_site_fract_x
 _atom_site_fract_y
 _atom_site_fract_z
 _atom_site_occupancy
  B  B0  1  0.51757096  0.93609400  0.93609400  1
  B  B1  1  0.51757096  0.56390600  0.56390600  1
  B  B2  1  0.51757096  0.93609400  0.56390600  1
  B  B3  1  0.51757096  0.56390600  0.93609400  1
  B  B4  1  0.48242904  0.43609400  0.43609400  1
  B  B5  1  0.48242904  0.06390600  0.43609400  1
  B  B6  1  0.26191048  0.00593876  0.75000000  1
  B  B7  1  0.26191048  0.49406124  0.75000000  1
  B  B8  1  0.26191048  0.75000000  0.49406124  1
  B  B9  1  0.26191048  0.75000000  0.00593876  1
  B  B10  1  0.73808952  0.25000000  0.50593876  1
  B  B11  1  0.73808952  0.99406124  0.25000000  1
  B  B12  1  0.73808952  0.50593876  0.25000000  1
  B  B13  1  0.73808952  0.25000000  0.99406124  1
  B  B14  1  0.14784173  0.75000000  0.75000000  1
  B  B15  1  0.85215827  0.25000000  0.25000000  1
  B  B16  1  0.89320521  0.75000000  0.75000000  1
  B  B17  1  0.10679479  0.25000000  0.25000000  1
  B  B18  1  0.48242904  0.43609400  0.06390600  1
  B  B19  1  0.48242904  0.06390600  0.06390600  1
  Si  Si20  1  0.82440293  0.43143870  0.75000000  1
  Si  Si21  1  0.17559707  0.25000000  0.56856130  1
  Si  Si22  1  0.17559707  0.93143870  0.25000000  1
  Si  Si23  1  0.17559707  0.56856130  0.25000000  1
  Si  Si24  1  0.17559707  0.25000000  0.93143870  1
  Si  Si25  1  0.82440293  0.75000000  0.43143870  1
  Si  Si26  1  0.82440293  0.75000000  0.06856130  1
  Si  Si27  1  0.82440293  0.06856130  0.75000000  1
  Co  Co28  1  0.33726677  0.42483740  0.58820885  1
  Co  Co29  1  0.52533843  0.75000000  0.52426310  1
  Co  Co30  1  0.52533843  0.52426310  0.75000000  1
  Co  Co31  1  0.52533843  0.97573690  0.75000000  1
  Co  Co32  1  0.97140093  0.25000000  0.08599778  1
  Co  Co33  1  0.97140093  0.41400222  0.25000000  1
  Co  Co34  1  0.97140093  0.08599778  0.25000000  1
  Co  Co35  1  0.97140093  0.25000000  0.41400222  1
  Co  Co36  1  0.02859907  0.75000000  0.91400222  1
  Co  Co37  1  0.02859907  0.75000000  0.58599778  1
  Co  Co38  1  0.02859907  0.58599778  0.75000000  1
  Co  Co39  1  0.02859907  0.91400222  0.75000000  1
  Co  Co40  1  0.25252171  0.13608287  0.13608287  1
  Co  Co41  1  0.25252171  0.36391713  0.13608287  1
  Co  Co42  1  0.25252171  0.13608287  0.36391713  1
  Co  Co43  1  0.25252171  0.36391713  0.36391713  1
  Co  Co44  1  0.74747829  0.63608287  0.86391713  1
  Co  Co45  1  0.74747829  0.86391713  0.63608287  1
  Co  Co46  1  0.74747829  0.63608287  0.63608287  1
  Co  Co47  1  0.74747829  0.86391713  0.86391713  1
  Co  Co48  1  0.69808621  0.14053585  0.14053585  1
  Co  Co49  1  0.69808621  0.35946415  0.14053585  1
  Co  Co50  1  0.69808621  0.14053585  0.35946415  1
  Co  Co51  1  0.69808621  0.35946415  0.35946415  1
  Co  Co52  1  0.30191379  0.64053585  0.85946415  1
  Co  Co53  1  0.30191379  0.85946415  0.64053585  1
  Co  Co54  1  0.30191379  0.64053585  0.64053585  1
  Co  Co55  1  0.30191379  0.85946415  0.85946415  1
  Co  Co56  1  0.33726677  0.07516260  0.58820885  1
  Co  Co57  1  0.33726677  0.91179115  0.07516260  1
  Co  Co58  1  0.33726677  0.58820885  0.42483740  1
  Co  Co59  1  0.33726677  0.42483740  0.91179115  1
  Co  Co60  1  0.66273323  0.57516260  0.41179115  1
  Co  Co61  1  0.66273323  0.92483740  0.08820885  1
  Co  Co62  1  0.66273323  0.08820885  0.57516260  1
  Co  Co63  1  0.88877042  0.25000000  0.86010097  1
  Co  Co64  1  0.66273323  0.92483740  0.41179115  1
  Co  Co65  1  0.66273323  0.08820885  0.92483740  1
  Co  Co66  1  0.66273323  0.41179115  0.57516260  1
  Co  Co67  1  0.66273323  0.57516260  0.08820885  1
  Co  Co68  1  0.52533843  0.75000000  0.97573690  1
  Co  Co69  1  0.88877042  0.63989903  0.25000000  1
  Co  Co70  1  0.33726677  0.91179115  0.42483740  1
  Co  Co71  1  0.33726677  0.58820885  0.07516260  1
  Co  Co72  1  0.88877042  0.86010097  0.25000000  1
  Co  Co73  1  0.88877042  0.25000000  0.63989903  1
  Co  Co74  1  0.53135038  0.75000000  0.75000000  1
  Co  Co75  1  0.46864962  0.25000000  0.25000000  1
  Co  Co76  1  0.11122958  0.75000000  0.36010097  1
  Co  Co77  1  0.47466157  0.25000000  0.47573690  1
  Co  Co78  1  0.47466157  0.02426310  0.25000000  1
  Co  Co79  1  0.47466157  0.47573690  0.25000000  1
  Co  Co80  1  0.47466157  0.25000000  0.02426310  1
  Co  Co81  1  0.11122958  0.36010097  0.75000000  1
  Co  Co82  1  0.11122958  0.13989903  0.75000000  1
  Co  Co83  1  0.11122958  0.75000000  0.13989903  1
  Co  Co84  1  0.66273323  0.41179115  0.92483740  1
  Co  Co85  1  0.33726677  0.07516260  0.91179115  1
  Nd  Nd86  1  0.00000000  0.50000000  0.50000000  1
  Nd  Nd87  1  0.00000000  0.00000000  0.50000000  1
  Nd  Nd88  1  0.00000000  0.50000000  0.00000000  1
  Nd  Nd89  1  0.00000000  0.00000000  0.00000000  1
  Nd  Nd90  1  0.50000000  0.75000000  0.25000000  1
  Nd  Nd91  1  0.50000000  0.25000000  0.75000000  1
