# generated using pymatgen
data_KCd6P7O24
_symmetry_space_group_name_H-M   'P 1'
_cell_length_a   5.59139680
_cell_length_b   6.88437689
_cell_length_c   27.64271484
_cell_angle_alpha   90.00000000
_cell_angle_beta   90.00000000
_cell_angle_gamma   107.16405376
_symmetry_Int_Tables_number   1
_chemical_formula_structural   KCd6P7O24
_chemical_formula_sum   'K2 Cd12 P14 O48'
_cell_volume   1016.66959397
_cell_formula_units_Z   2
loop_
 _symmetry_equiv_pos_site_id
 _symmetry_equiv_pos_as_xyz
  1  'x, y, z'
loop_
 _atom_site_type_symbol
 _atom_site_label
 _atom_site_symmetry_multiplicity
 _atom_site_fract_x
 _atom_site_fract_y
 _atom_site_fract_z
 _atom_site_occupancy
  O  O0  1  0.86128892  0.63804231  0.02092181  1
  O  O1  1  0.13871108  0.36195769  0.52092181  1
  O  O2  1  0.13871108  0.36195769  0.97907819  1
  O  O3  1  0.86128892  0.63804231  0.47907819  1
  O  O4  1  0.58998129  0.82430887  0.97673264  1
  O  O5  1  0.41001871  0.17569113  0.47673264  1
  O  O6  1  0.41001871  0.17569113  0.02326736  1
  O  O7  1  0.58998129  0.82430887  0.52326736  1
  O  O8  1  0.86268380  0.98937445  0.04864550  1
  O  O9  1  0.13731620  0.01062555  0.54864550  1
  O  O10  1  0.13731620  0.01062555  0.95135450  1
  O  O11  1  0.86268380  0.98937445  0.45135450  1
  O  O12  1  0.46479728  0.69308019  0.05789342  1
  O  O13  1  0.53520272  0.30691981  0.55789342  1
  O  O14  1  0.15159854  0.39662441  0.09541944  1
  O  O15  1  0.46479728  0.69308019  0.44210658  1
  O  O16  1  0.80215177  0.22089257  0.75000000  1
  O  O17  1  0.19784823  0.77910743  0.25000000  1
  O  O18  1  0.34438454  0.23086823  0.75000000  1
  O  O19  1  0.53520272  0.30691981  0.94210658  1
  O  O20  1  0.48109804  0.95555595  0.70433529  1
  O  O21  1  0.51890196  0.04444405  0.20433529  1
  O  O22  1  0.51890196  0.04444405  0.29566471  1
  O  O23  1  0.48109804  0.95555595  0.79566471  1
  O  O24  1  0.51401089  0.59785570  0.14710201  1
  O  O25  1  0.48598911  0.40214430  0.64710201  1
  O  O26  1  0.48598911  0.40214430  0.85289799  1
  O  O27  1  0.51401089  0.59785570  0.35289799  1
  O  O28  1  0.05710449  0.94972048  0.66740798  1
  O  O29  1  0.94289551  0.05027952  0.16740798  1
  O  O30  1  0.94289551  0.05027952  0.33259202  1
  O  O31  1  0.05710449  0.94972048  0.83259202  1
  O  O32  1  0.37678613  0.81004546  0.62211788  1
  O  O33  1  0.62321387  0.18995454  0.12211788  1
  O  O34  1  0.62321387  0.18995454  0.37788212  1
  O  O35  1  0.37678613  0.81004546  0.87788212  1
  O  O36  1  0.13288582  0.62334569  0.69610322  1
  O  O37  1  0.86711418  0.37665431  0.19610322  1
  O  O38  1  0.86711418  0.37665431  0.30389678  1
  O  O39  1  0.13288582  0.62334569  0.80389678  1
  O  O40  1  0.17368933  0.75481405  0.12068396  1
  O  O41  1  0.82631067  0.24518595  0.62068396  1
  O  O42  1  0.82631067  0.24518595  0.87931604  1
  O  O43  1  0.17368933  0.75481405  0.37931604  1
  O  O44  1  0.15159854  0.39662441  0.40458056  1
  O  O45  1  0.84840146  0.60337559  0.90458056  1
  O  O46  1  0.84840146  0.60337559  0.59541944  1
  O  O47  1  0.65561546  0.76913177  0.25000000  1
  P  P48  1  0.32797324  0.60780533  0.10846167  1
  P  P49  1  0.67202676  0.39219467  0.60846167  1
  P  P50  1  0.67202676  0.39219467  0.89153833  1
  P  P51  1  0.32797324  0.60780533  0.39153833  1
  P  P52  1  0.24326738  0.82327296  0.83034382  1
  P  P53  1  0.75673262  0.17672704  0.33034382  1
  P  P54  1  0.75673262  0.17672704  0.16965618  1
  P  P55  1  0.24326738  0.82327296  0.66965618  1
  P  P56  1  0.47470035  0.89683293  0.25000000  1
  P  P57  1  0.52529965  0.10316707  0.75000000  1
  P  P58  1  0.70892160  0.79025205  0.02510368  1
  P  P59  1  0.29107840  0.20974795  0.97489632  1
  P  P60  1  0.70892160  0.79025205  0.47489632  1
  P  P61  1  0.29107840  0.20974795  0.52510368  1
  K  K62  1  0.71853284  0.63325353  0.75000000  1
  K  K63  1  0.28146716  0.36674647  0.25000000  1
  Cd  Cd64  1  0.89097567  0.70577728  0.31755084  1
  Cd  Cd65  1  0.81885221  0.31229254  0.45679056  1
  Cd  Cd66  1  0.81885221  0.31229254  0.04320944  1
  Cd  Cd67  1  0.18114779  0.68770746  0.54320944  1
  Cd  Cd68  1  0.10902433  0.29422272  0.81755084  1
  Cd  Cd69  1  0.18114779  0.68770746  0.95679056  1
  Cd  Cd70  1  0.89097567  0.70577728  0.18244916  1
  Cd  Cd71  1  0.10902433  0.29422272  0.68244916  1
  Cd  Cd72  1  0.78426124  0.91969236  0.90147497  1
  Cd  Cd73  1  0.21573876  0.08030764  0.40147497  1
  Cd  Cd74  1  0.21573876  0.08030764  0.09852503  1
  Cd  Cd75  1  0.78426124  0.91969236  0.59852503  1
