# generated using pymatgen
data_Rb5Ti6AgSe27
_symmetry_space_group_name_H-M   'P 1'
_cell_length_a   13.74126061
_cell_length_b   13.74126060
_cell_length_c   14.06205813
_cell_angle_alpha   90.00000000
_cell_angle_beta   90.00000000
_cell_angle_gamma   120.00000000
_symmetry_Int_Tables_number   1
_chemical_formula_structural   Rb5Ti6AgSe27
_chemical_formula_sum   'Rb10 Ti12 Ag2 Se54'
_cell_volume   2299.49607655
_cell_formula_units_Z   2
loop_
 _symmetry_equiv_pos_site_id
 _symmetry_equiv_pos_as_xyz
  1  'x, y, z'
loop_
 _atom_site_type_symbol
 _atom_site_label
 _atom_site_symmetry_multiplicity
 _atom_site_fract_x
 _atom_site_fract_y
 _atom_site_fract_z
 _atom_site_occupancy
  Ti  Ti0  1  0.98657717  0.66666841  0.61519649  1
  Ti  Ti1  1  0.01621753  0.67074785  0.37436482  1
  Ti  Ti2  1  0.32925215  0.34546969  0.37436482  1
  Ti  Ti3  1  0.65453031  0.98378247  0.37436482  1
  Ti  Ti4  1  0.67074785  0.01621753  0.87436482  1
  Ti  Ti5  1  0.34546969  0.32925215  0.87436482  1
  Ti  Ti6  1  0.98378247  0.65453031  0.87436482  1
  Ti  Ti7  1  0.01342283  0.68009123  0.11519649  1
  Ti  Ti8  1  0.31990877  0.33333159  0.11519649  1
  Ti  Ti9  1  0.66666841  0.98657717  0.11519649  1
  Ti  Ti10  1  0.68009123  0.01342283  0.61519649  1
  Ti  Ti11  1  0.33333159  0.31990877  0.61519649  1
  Se  Se12  1  0.84623047  0.66082638  0.99027022  1
  Se  Se13  1  0.50834229  0.81616403  0.65737482  1
  Se  Se14  1  0.18383597  0.69217825  0.65737482  1
  Se  Se15  1  0.30782175  0.49165771  0.65737482  1
  Se  Se16  1  0.81616403  0.50834229  0.15737482  1
  Se  Se17  1  0.69217825  0.18383597  0.15737482  1
  Se  Se18  1  0.49165771  0.30782175  0.15737482  1
  Se  Se19  1  0.46069023  0.87238702  0.88044570  1
  Se  Se20  1  0.12761298  0.58830320  0.88044570  1
  Se  Se21  1  0.41169680  0.53930977  0.88044570  1
  Se  Se22  1  0.87238702  0.46069023  0.38044570  1
  Se  Se23  1  0.58830320  0.12761298  0.38044570  1
  Se  Se24  1  0.98501193  0.51319393  0.00112423  1
  Se  Se25  1  0.48680607  0.47181801  0.00112423  1
  Se  Se26  1  0.52818199  0.01498807  0.00112423  1
  Se  Se27  1  0.51319393  0.98501193  0.50112423  1
  Se  Se28  1  0.47181801  0.48680607  0.50112423  1
  Se  Se29  1  0.01498807  0.52818199  0.50112423  1
  Se  Se30  1  0.92279401  0.80463794  0.86937949  1
  Se  Se31  1  0.19536206  0.11815608  0.86937949  1
  Se  Se32  1  0.88184392  0.07720599  0.86937949  1
  Se  Se33  1  0.80463794  0.92279401  0.36937949  1
  Se  Se34  1  0.11815608  0.19536206  0.36937949  1
  Se  Se35  1  0.07720599  0.88184392  0.36937949  1
  Se  Se36  1  0.90276331  0.79389087  0.59935733  1
  Se  Se37  1  0.20610913  0.10887244  0.59935733  1
  Se  Se38  1  0.89112756  0.09723669  0.59935733  1
  Se  Se39  1  0.79389087  0.90276331  0.09935733  1
  Se  Se40  1  0.10887244  0.20610913  0.09935733  1
  Se  Se41  1  0.09723669  0.89112756  0.09935733  1
  Se  Se42  1  0.86183091  0.52657660  0.74101653  1
  Se  Se43  1  0.47342340  0.33525431  0.74101653  1
  Se  Se44  1  0.66474569  0.13816909  0.74101653  1
  Se  Se45  1  0.52657660  0.86183091  0.24101653  1
  Se  Se46  1  0.33525431  0.47342340  0.24101653  1
  Se  Se47  1  0.13816909  0.66474569  0.24101653  1
  Se  Se48  1  0.53930977  0.41169680  0.38044570  1
  Se  Se49  1  0.33917362  0.18540409  0.99027022  1
  Se  Se50  1  0.81459591  0.15376953  0.99027022  1
  Se  Se51  1  0.66082638  0.84623047  0.49027022  1
  Se  Se52  1  0.18540409  0.33917362  0.49027022  1
  Se  Se53  1  0.15376953  0.81459591  0.49027022  1
  Se  Se54  1  0.68132001  0.88534667  0.74569954  1
  Se  Se55  1  0.11465333  0.79597334  0.74569954  1
  Se  Se56  1  0.20402666  0.31867999  0.74569954  1
  Se  Se57  1  0.88534667  0.68132001  0.24569954  1
  Se  Se58  1  0.35896562  0.20078396  0.49057793  1
  Se  Se59  1  0.31867999  0.20402666  0.24569954  1
  Se  Se60  1  0.64103438  0.84181834  0.99057793  1
  Se  Se61  1  0.15818166  0.79921604  0.99057793  1
  Se  Se62  1  0.20078396  0.35896562  0.99057793  1
  Se  Se63  1  0.84181834  0.64103438  0.49057793  1
  Se  Se64  1  0.79921604  0.15818166  0.49057793  1
  Se  Se65  1  0.79597334  0.11465333  0.24569954  1
  Rb  Rb66  1  0.66138413  0.62492105  0.73844945  1
  Rb  Rb67  1  0.37507895  0.03646308  0.73844945  1
  Rb  Rb68  1  0.33333333  0.66666667  0.06369998  1
  Rb  Rb69  1  0.66666667  0.33333333  0.56369998  1
  Rb  Rb70  1  0.33333333  0.66666667  0.42511604  1
  Rb  Rb71  1  0.66666667  0.33333333  0.92511604  1
  Rb  Rb72  1  0.96353692  0.33861587  0.73844945  1
  Rb  Rb73  1  0.03646308  0.37507895  0.23844945  1
  Rb  Rb74  1  0.62492105  0.66138413  0.23844945  1
  Rb  Rb75  1  0.33861587  0.96353692  0.23844945  1
  Ag  Ag76  1  0.00000000  0.00000000  0.98819430  1
  Ag  Ag77  1  0.00000000  0.00000000  0.48819430  1
