# generated using pymatgen
data_K3TbSi2O7
_symmetry_space_group_name_H-M   'P 1'
_cell_length_a   9.98658275
_cell_length_b   9.98658275
_cell_length_c   14.53028102
_cell_angle_alpha   90.00000000
_cell_angle_beta   90.00000000
_cell_angle_gamma   119.99999997
_symmetry_Int_Tables_number   1
_chemical_formula_structural   K3TbSi2O7
_chemical_formula_sum   'K18 Tb6 Si12 O42'
_cell_volume   1254.98477017
_cell_formula_units_Z   6
loop_
 _symmetry_equiv_pos_site_id
 _symmetry_equiv_pos_as_xyz
  1  'x, y, z'
loop_
 _atom_site_type_symbol
 _atom_site_label
 _atom_site_symmetry_multiplicity
 _atom_site_fract_x
 _atom_site_fract_y
 _atom_site_fract_z
 _atom_site_occupancy
  O  O0  1  0.40700455  0.00000000  0.75000000  1
  O  O1  1  0.40700455  0.40700455  0.25000000  1
  O  O2  1  0.00000000  0.59299545  0.25000000  1
  O  O3  1  0.00000000  0.40700455  0.75000000  1
  O  O4  1  0.59299545  0.59299545  0.75000000  1
  O  O5  1  0.59299545  0.00000000  0.25000000  1
  O  O6  1  0.82256958  0.82256958  0.85243228  1
  O  O7  1  0.17743042  0.00000000  0.85243228  1
  O  O8  1  0.00000000  0.17743042  0.85243228  1
  O  O9  1  0.00000000  0.82256958  0.35243228  1
  O  O10  1  0.17743042  0.00000000  0.64756772  1
  O  O11  1  0.17743042  0.17743042  0.35243228  1
  O  O12  1  0.82256958  0.00000000  0.35243228  1
  O  O13  1  0.17743042  0.17743042  0.14756772  1
  O  O14  1  0.00000000  0.82256958  0.14756772  1
  O  O15  1  0.00000000  0.17743042  0.64756772  1
  O  O16  1  0.82256958  0.82256958  0.64756772  1
  O  O17  1  0.82256958  0.00000000  0.14756772  1
  O  O18  1  0.32185218  0.84493831  0.90795483  1
  O  O19  1  0.15506169  0.47691388  0.90795483  1
  O  O20  1  0.52308612  0.67814782  0.90795483  1
  O  O21  1  0.47691388  0.32185218  0.40795483  1
  O  O22  1  0.67814782  0.52308612  0.59204517  1
  O  O23  1  0.67814782  0.15506169  0.40795483  1
  O  O24  1  0.84493831  0.52308612  0.40795483  1
  O  O25  1  0.15506169  0.67814782  0.09204517  1
  O  O26  1  0.52308612  0.84493831  0.09204517  1
  O  O27  1  0.47691388  0.15506169  0.59204517  1
  O  O28  1  0.84493831  0.32185218  0.59204517  1
  O  O29  1  0.32185218  0.47691388  0.09204517  1
  O  O30  1  0.67814782  0.15506169  0.09204517  1
  O  O31  1  0.84493831  0.52308612  0.09204517  1
  O  O32  1  0.47691388  0.32185218  0.09204517  1
  O  O33  1  0.52308612  0.67814782  0.59204517  1
  O  O34  1  0.32185218  0.47691388  0.40795483  1
  O  O35  1  0.32185218  0.84493831  0.59204517  1
  O  O36  1  0.67814782  0.52308612  0.90795483  1
  O  O37  1  0.15506169  0.67814782  0.40795483  1
  O  O38  1  0.52308612  0.84493831  0.40795483  1
  O  O39  1  0.47691388  0.15506169  0.90795483  1
  O  O40  1  0.84493831  0.32185218  0.90795483  1
  O  O41  1  0.15506169  0.47691388  0.59204517  1
  Si  Si42  1  0.65865481  0.65865481  0.85704770  1
  Si  Si43  1  0.34134519  0.00000000  0.85704770  1
  Si  Si44  1  0.00000000  0.34134519  0.85704770  1
  Si  Si45  1  0.00000000  0.65865481  0.35704770  1
  Si  Si46  1  0.34134519  0.00000000  0.64295230  1
  Si  Si47  1  0.34134519  0.34134519  0.35704770  1
  Si  Si48  1  0.65865481  0.00000000  0.35704770  1
  Si  Si49  1  0.34134519  0.34134519  0.14295230  1
  Si  Si50  1  0.00000000  0.65865481  0.14295230  1
  Si  Si51  1  0.00000000  0.34134519  0.64295230  1
  Si  Si52  1  0.65865481  0.65865481  0.64295230  1
  Si  Si53  1  0.65865481  0.00000000  0.14295230  1
  K  K54  1  0.00000000  0.00000000  0.50000000  1
  K  K55  1  0.33184476  0.00000000  0.09121230  1
  K  K56  1  0.33184476  0.33184476  0.59121230  1
  K  K57  1  0.00000000  0.66815524  0.59121230  1
  K  K58  1  0.00000000  0.33184476  0.09121230  1
  K  K59  1  0.66815524  0.66815524  0.09121230  1
  K  K60  1  0.33184476  0.00000000  0.40878770  1
  K  K61  1  0.00000000  0.00000000  0.00000000  1
  K  K62  1  0.33333333  0.66666667  0.75000000  1
  K  K63  1  0.66666667  0.33333333  0.25000000  1
  K  K64  1  0.66666667  0.33333333  0.75000000  1
  K  K65  1  0.33333333  0.66666667  0.25000000  1
  K  K66  1  0.66815524  0.66815524  0.40878770  1
  K  K67  1  0.66815524  0.00000000  0.90878770  1
  K  K68  1  0.00000000  0.66815524  0.90878770  1
  K  K69  1  0.00000000  0.33184476  0.40878770  1
  K  K70  1  0.66815524  0.00000000  0.59121230  1
  K  K71  1  0.33184476  0.33184476  0.90878770  1
  Tb  Tb72  1  0.00000000  0.00000000  0.75000000  1
  Tb  Tb73  1  0.33333333  0.66666667  0.00000000  1
  Tb  Tb74  1  0.66666667  0.33333333  0.50000000  1
  Tb  Tb75  1  0.66666667  0.33333333  0.00000000  1
  Tb  Tb76  1  0.33333333  0.66666667  0.50000000  1
  Tb  Tb77  1  0.00000000  0.00000000  0.25000000  1
