# generated using pymatgen
data_K3TmSi2O7
_symmetry_space_group_name_H-M   'P 1'
_cell_length_a   9.87924990
_cell_length_b   9.87924990
_cell_length_c   14.39991695
_cell_angle_alpha   90.00000000
_cell_angle_beta   90.00000000
_cell_angle_gamma   120.00000001
_symmetry_Int_Tables_number   1
_chemical_formula_structural   K3TmSi2O7
_chemical_formula_sum   'K18 Tm6 Si12 O42'
_cell_volume   1217.13446792
_cell_formula_units_Z   6
loop_
 _symmetry_equiv_pos_site_id
 _symmetry_equiv_pos_as_xyz
  1  'x, y, z'
loop_
 _atom_site_type_symbol
 _atom_site_label
 _atom_site_symmetry_multiplicity
 _atom_site_fract_x
 _atom_site_fract_y
 _atom_site_fract_z
 _atom_site_occupancy
  O  O0  1  0.41030875  0.00000000  0.75000000  1
  O  O1  1  0.41030875  0.41030875  0.25000000  1
  O  O2  1  0.00000000  0.58969125  0.25000000  1
  O  O3  1  0.00000000  0.41030875  0.75000000  1
  O  O4  1  0.58969125  0.58969125  0.75000000  1
  O  O5  1  0.58969125  0.00000000  0.25000000  1
  O  O6  1  0.82347947  0.82347947  0.85100530  1
  O  O7  1  0.17652053  0.00000000  0.85100530  1
  O  O8  1  0.00000000  0.17652053  0.85100530  1
  O  O9  1  0.00000000  0.82347947  0.35100530  1
  O  O10  1  0.17652053  0.00000000  0.64899470  1
  O  O11  1  0.17652053  0.17652053  0.35100530  1
  O  O12  1  0.82347947  0.00000000  0.35100530  1
  O  O13  1  0.17652053  0.17652053  0.14899470  1
  O  O14  1  0.00000000  0.82347947  0.14899470  1
  O  O15  1  0.00000000  0.17652053  0.64899470  1
  O  O16  1  0.82347947  0.82347947  0.64899470  1
  O  O17  1  0.82347947  0.00000000  0.14899470  1
  O  O18  1  0.32204597  0.84346691  0.90936022  1
  O  O19  1  0.15653309  0.47857907  0.90936022  1
  O  O20  1  0.52142093  0.67795403  0.90936022  1
  O  O21  1  0.47857907  0.32204597  0.40936022  1
  O  O22  1  0.67795403  0.52142093  0.59063978  1
  O  O23  1  0.67795403  0.15653309  0.40936022  1
  O  O24  1  0.84346691  0.52142093  0.40936022  1
  O  O25  1  0.15653309  0.67795403  0.09063978  1
  O  O26  1  0.52142093  0.84346691  0.09063978  1
  O  O27  1  0.47857907  0.15653309  0.59063978  1
  O  O28  1  0.84346691  0.32204597  0.59063978  1
  O  O29  1  0.32204597  0.47857907  0.09063978  1
  O  O30  1  0.67795403  0.15653309  0.09063978  1
  O  O31  1  0.84346691  0.52142093  0.09063978  1
  O  O32  1  0.47857907  0.32204597  0.09063978  1
  O  O33  1  0.52142093  0.67795403  0.59063978  1
  O  O34  1  0.32204597  0.47857907  0.40936022  1
  O  O35  1  0.32204597  0.84346691  0.59063978  1
  O  O36  1  0.67795403  0.52142093  0.90936022  1
  O  O37  1  0.15653309  0.67795403  0.40936022  1
  O  O38  1  0.52142093  0.84346691  0.40936022  1
  O  O39  1  0.47857907  0.15653309  0.90936022  1
  O  O40  1  0.84346691  0.32204597  0.90936022  1
  O  O41  1  0.15653309  0.47857907  0.59063978  1
  Si  Si42  1  0.65788339  0.65788339  0.85760912  1
  Si  Si43  1  0.34211661  0.00000000  0.85760912  1
  Si  Si44  1  0.00000000  0.34211661  0.85760912  1
  Si  Si45  1  0.00000000  0.65788339  0.35760912  1
  Si  Si46  1  0.34211661  0.00000000  0.64239088  1
  Si  Si47  1  0.34211661  0.34211661  0.35760912  1
  Si  Si48  1  0.65788339  0.00000000  0.35760912  1
  Si  Si49  1  0.34211661  0.34211661  0.14239088  1
  Si  Si50  1  0.00000000  0.65788339  0.14239088  1
  Si  Si51  1  0.00000000  0.34211661  0.64239088  1
  Si  Si52  1  0.65788339  0.65788339  0.64239088  1
  Si  Si53  1  0.65788339  0.00000000  0.14239088  1
  K  K54  1  0.00000000  0.00000000  0.50000000  1
  K  K55  1  0.33229985  0.00000000  0.09219122  1
  K  K56  1  0.33229985  0.33229985  0.59219122  1
  K  K57  1  0.00000000  0.66770015  0.59219122  1
  K  K58  1  0.00000000  0.33229985  0.09219122  1
  K  K59  1  0.66770015  0.66770015  0.09219122  1
  K  K60  1  0.33229985  0.00000000  0.40780878  1
  K  K61  1  0.00000000  0.00000000  0.00000000  1
  K  K62  1  0.33333333  0.66666667  0.75000000  1
  K  K63  1  0.66666667  0.33333333  0.25000000  1
  K  K64  1  0.66666667  0.33333333  0.75000000  1
  K  K65  1  0.33333333  0.66666667  0.25000000  1
  K  K66  1  0.66770015  0.66770015  0.40780878  1
  K  K67  1  0.66770015  0.00000000  0.90780878  1
  K  K68  1  0.00000000  0.66770015  0.90780878  1
  K  K69  1  0.00000000  0.33229985  0.40780878  1
  K  K70  1  0.66770015  0.00000000  0.59219122  1
  K  K71  1  0.33229985  0.33229985  0.90780878  1
  Tm  Tm72  1  0.00000000  0.00000000  0.75000000  1
  Tm  Tm73  1  0.33333333  0.66666667  0.00000000  1
  Tm  Tm74  1  0.66666667  0.33333333  0.50000000  1
  Tm  Tm75  1  0.66666667  0.33333333  0.00000000  1
  Tm  Tm76  1  0.33333333  0.66666667  0.50000000  1
  Tm  Tm77  1  0.00000000  0.00000000  0.25000000  1
