# generated using pymatgen
data_HgB4O7
_symmetry_space_group_name_H-M   'P 1'
_cell_length_a   8.55795731
_cell_length_b   8.96606192
_cell_length_c   14.38455401
_cell_angle_alpha   90.00000000
_cell_angle_beta   90.00000000
_cell_angle_gamma   90.00000000
_symmetry_Int_Tables_number   1
_chemical_formula_structural   HgB4O7
_chemical_formula_sum   'Hg8 B32 O56'
_cell_volume   1103.74373320
_cell_formula_units_Z   8
loop_
 _symmetry_equiv_pos_site_id
 _symmetry_equiv_pos_as_xyz
  1  'x, y, z'
loop_
 _atom_site_type_symbol
 _atom_site_label
 _atom_site_symmetry_multiplicity
 _atom_site_fract_x
 _atom_site_fract_y
 _atom_site_fract_z
 _atom_site_occupancy
  B  B0  1  0.45130492  0.28188703  0.06241955  1
  B  B1  1  0.21521770  0.15605732  0.45096827  1
  B  B2  1  0.71521770  0.34394268  0.54903173  1
  B  B3  1  0.78478230  0.65605732  0.04903173  1
  B  B4  1  0.28478230  0.84394268  0.95096827  1
  B  B5  1  0.78478230  0.84394268  0.54903173  1
  B  B6  1  0.28478230  0.65605732  0.45096827  1
  B  B7  1  0.21521770  0.34394268  0.95096827  1
  B  B8  1  0.71521770  0.15605732  0.04903173  1
  B  B9  1  0.95130492  0.21811297  0.93758045  1
  B  B10  1  0.54869508  0.78188703  0.43758045  1
  B  B11  1  0.04869508  0.71811297  0.56241955  1
  B  B12  1  0.54869508  0.71811297  0.93758045  1
  B  B13  1  0.04869508  0.78188703  0.06241955  1
  B  B14  1  0.45130492  0.21811297  0.56241955  1
  B  B15  1  0.95130492  0.28188703  0.43758045  1
  B  B16  1  0.50722654  0.33406855  0.23367323  1
  B  B17  1  0.00722654  0.16593145  0.76632677  1
  B  B18  1  0.49277346  0.83406855  0.26632677  1
  B  B19  1  0.99277346  0.66593145  0.73367323  1
  B  B20  1  0.49277346  0.66593145  0.76632677  1
  B  B21  1  0.99277346  0.83406855  0.23367323  1
  B  B22  1  0.50722654  0.16593145  0.73367323  1
  B  B23  1  0.00722654  0.33406855  0.26632677  1
  B  B24  1  0.51919073  0.06988133  0.16186550  1
  B  B25  1  0.01919073  0.43011867  0.83813450  1
  B  B26  1  0.48080927  0.56988133  0.33813450  1
  B  B27  1  0.98080927  0.93011867  0.66186550  1
  B  B28  1  0.48080927  0.93011867  0.83813450  1
  B  B29  1  0.98080927  0.56988133  0.16186550  1
  B  B30  1  0.51919073  0.43011867  0.66186550  1
  B  B31  1  0.01919073  0.06988133  0.33813450  1
  O  O32  1  0.46076626  0.38395693  0.14675861  1
  O  O33  1  0.67347110  0.06212293  0.11883245  1
  O  O34  1  0.17347110  0.43787707  0.88116755  1
  O  O35  1  0.32652890  0.56212293  0.38116755  1
  O  O36  1  0.82652890  0.93787707  0.61883245  1
  O  O37  1  0.32652890  0.93787707  0.88116755  1
  O  O38  1  0.82652890  0.56212293  0.11883245  1
  O  O39  1  0.67347110  0.43787707  0.61883245  1
  O  O40  1  0.03275213  0.42450392  0.19249432  1
  O  O41  1  0.53275213  0.07549608  0.80750568  1
  O  O42  1  0.96724787  0.92450392  0.30750568  1
  O  O43  1  0.46724787  0.57549608  0.69249432  1
  O  O44  1  0.96724787  0.57549608  0.80750568  1
  O  O45  1  0.46724787  0.92450392  0.19249432  1
  O  O46  1  0.03275213  0.07549608  0.69249432  1
  O  O47  1  0.53275213  0.42450392  0.30750568  1
  O  O48  1  0.40319769  0.13430005  0.09532488  1
  O  O49  1  0.90319769  0.36569995  0.90467512  1
  O  O50  1  0.59680231  0.63430005  0.40467512  1
  O  O51  1  0.09680231  0.86569995  0.59532488  1
  O  O52  1  0.59680231  0.86569995  0.90467512  1
  O  O53  1  0.09680231  0.63430005  0.09532488  1
  O  O54  1  0.40319769  0.36569995  0.59532488  1
  O  O55  1  0.90319769  0.13430005  0.40467512  1
  O  O56  1  0.35723903  0.35782079  0.99424511  1
  O  O57  1  0.85723903  0.14217921  0.00575489  1
  O  O58  1  0.64276097  0.85782079  0.50575489  1
  O  O59  1  0.14276097  0.64217921  0.49424511  1
  O  O60  1  0.64276097  0.64217921  0.00575489  1
  O  O61  1  0.14276097  0.85782079  0.99424511  1
  O  O62  1  0.35723903  0.14217921  0.49424511  1
  O  O63  1  0.85723903  0.35782079  0.50575489  1
  O  O64  1  0.17347110  0.06212293  0.38116755  1
  O  O65  1  0.96076626  0.11604307  0.85324139  1
  O  O66  1  0.53923374  0.88395693  0.35324139  1
  O  O67  1  0.03923374  0.61604307  0.64675861  1
  O  O68  1  0.53923374  0.61604307  0.85324139  1
  O  O69  1  0.03923374  0.88395693  0.14675861  1
  O  O70  1  0.46076626  0.11604307  0.64675861  1
  O  O71  1  0.96076626  0.38395693  0.35324139  1
  O  O72  1  0.11172905  0.26787549  0.47891462  1
  O  O73  1  0.03030882  0.31903195  0.75589063  1
  O  O74  1  0.46969118  0.68096805  0.25589063  1
  O  O75  1  0.96969118  0.81903195  0.74410937  1
  O  O76  1  0.46969118  0.81903195  0.75589063  1
  O  O77  1  0.96969118  0.68096805  0.24410937  1
  O  O78  1  0.53030882  0.31903195  0.74410937  1
  O  O79  1  0.03030882  0.18096805  0.25589063  1
  O  O80  1  0.61172905  0.26787549  0.02108538  1
  O  O81  1  0.11172905  0.23212451  0.97891462  1
  O  O82  1  0.38827095  0.76787549  0.47891462  1
  O  O83  1  0.88827095  0.73212451  0.52108538  1
  O  O84  1  0.38827095  0.73212451  0.97891462  1
  O  O85  1  0.88827095  0.76787549  0.02108538  1
  O  O86  1  0.61172905  0.23212451  0.52108538  1
  O  O87  1  0.53030882  0.18096805  0.24410937  1
  Hg  Hg88  1  0.63887319  0.11503907  0.38281077  1
  Hg  Hg89  1  0.13887319  0.38496093  0.61718923  1
  Hg  Hg90  1  0.36112681  0.61503907  0.11718923  1
  Hg  Hg91  1  0.86112681  0.88496093  0.88281077  1
  Hg  Hg92  1  0.36112681  0.88496093  0.61718923  1
  Hg  Hg93  1  0.86112681  0.61503907  0.38281077  1
  Hg  Hg94  1  0.63887319  0.38496093  0.88281077  1
  Hg  Hg95  1  0.13887319  0.11503907  0.11718923  1
