# generated using pymatgen
data_SrLi2Ti6O14
_symmetry_space_group_name_H-M   'P 1'
_cell_length_a   10.09266633
_cell_length_b   10.09266633
_cell_length_c   11.56144208
_cell_angle_alpha   90.00000000
_cell_angle_beta   90.00000000
_cell_angle_gamma   112.01225146
_symmetry_Int_Tables_number   1
_chemical_formula_structural   SrLi2Ti6O14
_chemical_formula_sum   'Sr4 Li8 Ti24 O56'
_cell_volume   1091.82282159
_cell_formula_units_Z   4
loop_
 _symmetry_equiv_pos_site_id
 _symmetry_equiv_pos_as_xyz
  1  'x, y, z'
loop_
 _atom_site_type_symbol
 _atom_site_label
 _atom_site_symmetry_multiplicity
 _atom_site_fract_x
 _atom_site_fract_y
 _atom_site_fract_z
 _atom_site_occupancy
  Li  Li0  1  0.43098862  0.05855721  0.12167096  1
  Li  Li1  1  0.06901138  0.44144279  0.62167096  1
  Li  Li2  1  0.55855721  0.93098862  0.37832904  1
  Li  Li3  1  0.94144279  0.56901138  0.87832904  1
  Li  Li4  1  0.56901138  0.94144279  0.87832904  1
  Li  Li5  1  0.93098862  0.55855721  0.37832904  1
  Li  Li6  1  0.44144279  0.06901138  0.62167096  1
  Li  Li7  1  0.05855721  0.43098862  0.12167096  1
  O  O8  1  0.13939465  0.35496138  0.75892288  1
  O  O9  1  0.59011212  0.59011212  0.63377536  1
  O  O10  1  0.90988788  0.90988788  0.13377536  1
  O  O11  1  0.09011212  0.09011212  0.86622464  1
  O  O12  1  0.40988788  0.40988788  0.36622464  1
  O  O13  1  0.13987132  0.35540748  0.48284300  1
  O  O14  1  0.36012868  0.14459252  0.98284300  1
  O  O15  1  0.85540748  0.63987132  0.01715700  1
  O  O16  1  0.64459252  0.86012868  0.51715700  1
  O  O17  1  0.86012868  0.64459252  0.51715700  1
  O  O18  1  0.63987132  0.85540748  0.01715700  1
  O  O19  1  0.14459252  0.36012868  0.98284300  1
  O  O20  1  0.35540748  0.13987132  0.48284300  1
  O  O21  1  0.91638988  0.91638988  0.62286546  1
  O  O22  1  0.58361012  0.58361012  0.12286546  1
  O  O23  1  0.41638988  0.41638988  0.87713454  1
  O  O24  1  0.08361012  0.08361012  0.37713454  1
  O  O25  1  0.14503862  0.36060535  0.25892288  1
  O  O26  1  0.35496138  0.13939465  0.75892288  1
  O  O27  1  0.86060535  0.64503862  0.24107712  1
  O  O28  1  0.63939465  0.85496138  0.74107712  1
  O  O29  1  0.85496138  0.63939465  0.74107712  1
  O  O30  1  0.62883627  0.37116373  0.00000000  1
  O  O31  1  0.36060535  0.14503862  0.25892288  1
  O  O32  1  0.63263249  0.36736751  0.50000000  1
  O  O33  1  0.86736751  0.13263249  0.00000000  1
  O  O34  1  0.36736751  0.63263249  0.50000000  1
  O  O35  1  0.13263249  0.86736751  0.00000000  1
  O  O36  1  0.62072154  0.14606487  0.37823202  1
  O  O37  1  0.87927846  0.35393513  0.87823202  1
  O  O38  1  0.64606487  0.12072154  0.12176798  1
  O  O39  1  0.85393513  0.37927846  0.62176798  1
  O  O40  1  0.37927846  0.85393513  0.62176798  1
  O  O41  1  0.12072154  0.64606487  0.12176798  1
  O  O42  1  0.35393513  0.87927846  0.87823202  1
  O  O43  1  0.14606487  0.62072154  0.37823202  1
  O  O44  1  0.62786764  0.36337767  0.24999960  1
  O  O45  1  0.87213236  0.13662233  0.74999960  1
  O  O46  1  0.86337767  0.12786764  0.25000040  1
  O  O47  1  0.63662233  0.37213236  0.75000040  1
  O  O48  1  0.37213236  0.63662233  0.75000040  1
  O  O49  1  0.12786764  0.86337767  0.25000040  1
  O  O50  1  0.13662233  0.87213236  0.74999960  1
  O  O51  1  0.36337767  0.62786764  0.24999960  1
  O  O52  1  0.34810724  0.88046335  0.37186136  1
  O  O53  1  0.15189276  0.61953665  0.87186136  1
  O  O54  1  0.38046335  0.84810724  0.12813864  1
  O  O55  1  0.11953665  0.65189276  0.62813864  1
  O  O56  1  0.65189276  0.11953665  0.62813864  1
  O  O57  1  0.84810724  0.38046335  0.12813864  1
  O  O58  1  0.61953665  0.15189276  0.87186136  1
  O  O59  1  0.88046335  0.34810724  0.37186136  1
  O  O60  1  0.12883627  0.87116373  0.50000000  1
  O  O61  1  0.37116373  0.62883627  0.00000000  1
  O  O62  1  0.87116373  0.12883627  0.50000000  1
  O  O63  1  0.64503862  0.86060535  0.24107712  1
  Ti  Ti64  1  0.27587733  0.49100508  0.38505185  1
  Ti  Ti65  1  0.22412267  0.00899492  0.88505185  1
  Ti  Ti66  1  0.99100508  0.77587733  0.11494815  1
  Ti  Ti67  1  0.50899492  0.72412267  0.61494815  1
  Ti  Ti68  1  0.72412267  0.50899492  0.61494815  1
  Ti  Ti69  1  0.74303150  0.24303150  0.25000000  1
  Ti  Ti70  1  0.77587733  0.99100508  0.11494815  1
  Ti  Ti71  1  0.00899492  0.22412267  0.88505185  1
  Ti  Ti72  1  0.49100508  0.27587733  0.38505185  1
  Ti  Ti73  1  0.01763378  0.23499133  0.35955895  1
  Ti  Ti74  1  0.48236622  0.26500867  0.85955895  1
  Ti  Ti75  1  0.73499133  0.51763378  0.14044105  1
  Ti  Ti76  1  0.76500867  0.98236622  0.64044105  1
  Ti  Ti77  1  0.98236622  0.76500867  0.64044105  1
  Ti  Ti78  1  0.75696850  0.25696850  0.75000000  1
  Ti  Ti79  1  0.26500867  0.48236622  0.85955895  1
  Ti  Ti80  1  0.23499133  0.01763378  0.35955895  1
  Ti  Ti81  1  0.23940673  0.76059327  0.50000000  1
  Ti  Ti82  1  0.26059327  0.73940673  0.00000000  1
  Ti  Ti83  1  0.76059327  0.23940673  0.50000000  1
  Ti  Ti84  1  0.73940673  0.26059327  0.00000000  1
  Ti  Ti85  1  0.24303150  0.74303150  0.25000000  1
  Ti  Ti86  1  0.25696850  0.75696850  0.75000000  1
  Ti  Ti87  1  0.51763378  0.73499133  0.14044105  1
  Sr  Sr88  1  0.35336023  0.35336023  0.12105918  1
  Sr  Sr89  1  0.64663977  0.64663977  0.87894082  1
  Sr  Sr90  1  0.85336023  0.85336023  0.37894082  1
  Sr  Sr91  1  0.14663977  0.14663977  0.62105918  1
