# generated using pymatgen
data_K3HoSi2O7
_symmetry_space_group_name_H-M   'P 1'
_cell_length_a   9.93255437
_cell_length_b   9.93255437
_cell_length_c   14.46513185
_cell_angle_alpha   90.00000000
_cell_angle_beta   90.00000000
_cell_angle_gamma   119.99999997
_symmetry_Int_Tables_number   1
_chemical_formula_structural   K3HoSi2O7
_chemical_formula_sum   'K18 Ho6 Si12 O42'
_cell_volume   1235.87609061
_cell_formula_units_Z   6
loop_
 _symmetry_equiv_pos_site_id
 _symmetry_equiv_pos_as_xyz
  1  'x, y, z'
loop_
 _atom_site_type_symbol
 _atom_site_label
 _atom_site_symmetry_multiplicity
 _atom_site_fract_x
 _atom_site_fract_y
 _atom_site_fract_z
 _atom_site_occupancy
  O  O0  1  0.40863855  0.00000000  0.75000000  1
  O  O1  1  0.40863855  0.40863855  0.25000000  1
  O  O2  1  0.00000000  0.59136145  0.25000000  1
  O  O3  1  0.00000000  0.40863855  0.75000000  1
  O  O4  1  0.59136145  0.59136145  0.75000000  1
  O  O5  1  0.59136145  0.00000000  0.25000000  1
  O  O6  1  0.82302566  0.82302566  0.85172042  1
  O  O7  1  0.17697434  0.00000000  0.85172042  1
  O  O8  1  0.00000000  0.17697434  0.85172042  1
  O  O9  1  0.00000000  0.82302566  0.35172042  1
  O  O10  1  0.17697434  0.00000000  0.64827958  1
  O  O11  1  0.17697434  0.17697434  0.35172042  1
  O  O12  1  0.82302566  0.00000000  0.35172042  1
  O  O13  1  0.17697434  0.17697434  0.14827958  1
  O  O14  1  0.00000000  0.82302566  0.14827958  1
  O  O15  1  0.00000000  0.17697434  0.64827958  1
  O  O16  1  0.82302566  0.82302566  0.64827958  1
  O  O17  1  0.82302566  0.00000000  0.14827958  1
  O  O18  1  0.32193945  0.84419310  0.90863888  1
  O  O19  1  0.15580690  0.47774635  0.90863888  1
  O  O20  1  0.52225365  0.67806055  0.90863888  1
  O  O21  1  0.47774635  0.32193945  0.40863888  1
  O  O22  1  0.67806055  0.52225365  0.59136112  1
  O  O23  1  0.67806055  0.15580690  0.40863888  1
  O  O24  1  0.84419310  0.52225365  0.40863888  1
  O  O25  1  0.15580690  0.67806055  0.09136112  1
  O  O26  1  0.52225365  0.84419310  0.09136112  1
  O  O27  1  0.47774635  0.15580690  0.59136112  1
  O  O28  1  0.84419310  0.32193945  0.59136112  1
  O  O29  1  0.32193945  0.47774635  0.09136112  1
  O  O30  1  0.67806055  0.15580690  0.09136112  1
  O  O31  1  0.84419310  0.52225365  0.09136112  1
  O  O32  1  0.47774635  0.32193945  0.09136112  1
  O  O33  1  0.52225365  0.67806055  0.59136112  1
  O  O34  1  0.32193945  0.47774635  0.40863888  1
  O  O35  1  0.32193945  0.84419310  0.59136112  1
  O  O36  1  0.67806055  0.52225365  0.90863888  1
  O  O37  1  0.15580690  0.67806055  0.40863888  1
  O  O38  1  0.52225365  0.84419310  0.40863888  1
  O  O39  1  0.47774635  0.15580690  0.90863888  1
  O  O40  1  0.84419310  0.32193945  0.90863888  1
  O  O41  1  0.15580690  0.47774635  0.59136112  1
  Si  Si42  1  0.65824806  0.65824806  0.85733409  1
  Si  Si43  1  0.34175194  0.00000000  0.85733409  1
  Si  Si44  1  0.00000000  0.34175194  0.85733409  1
  Si  Si45  1  0.00000000  0.65824806  0.35733409  1
  Si  Si46  1  0.34175194  0.00000000  0.64266591  1
  Si  Si47  1  0.34175194  0.34175194  0.35733409  1
  Si  Si48  1  0.65824806  0.00000000  0.35733409  1
  Si  Si49  1  0.34175194  0.34175194  0.14266591  1
  Si  Si50  1  0.00000000  0.65824806  0.14266591  1
  Si  Si51  1  0.00000000  0.34175194  0.64266591  1
  Si  Si52  1  0.65824806  0.65824806  0.64266591  1
  Si  Si53  1  0.65824806  0.00000000  0.14266591  1
  K  K54  1  0.00000000  0.00000000  0.50000000  1
  K  K55  1  0.33187774  0.00000000  0.09183362  1
  K  K56  1  0.33187774  0.33187774  0.59183362  1
  K  K57  1  0.00000000  0.66812226  0.59183362  1
  K  K58  1  0.00000000  0.33187774  0.09183362  1
  K  K59  1  0.66812226  0.66812226  0.09183362  1
  K  K60  1  0.33187774  0.00000000  0.40816638  1
  K  K61  1  0.00000000  0.00000000  0.00000000  1
  K  K62  1  0.33333333  0.66666667  0.75000000  1
  K  K63  1  0.66666667  0.33333333  0.25000000  1
  K  K64  1  0.66666667  0.33333333  0.75000000  1
  K  K65  1  0.33333333  0.66666667  0.25000000  1
  K  K66  1  0.66812226  0.66812226  0.40816638  1
  K  K67  1  0.66812226  0.00000000  0.90816638  1
  K  K68  1  0.00000000  0.66812226  0.90816638  1
  K  K69  1  0.00000000  0.33187774  0.40816638  1
  K  K70  1  0.66812226  0.00000000  0.59183362  1
  K  K71  1  0.33187774  0.33187774  0.90816638  1
  Ho  Ho72  1  0.00000000  0.00000000  0.75000000  1
  Ho  Ho73  1  0.33333333  0.66666667  0.00000000  1
  Ho  Ho74  1  0.66666667  0.33333333  0.50000000  1
  Ho  Ho75  1  0.66666667  0.33333333  0.00000000  1
  Ho  Ho76  1  0.33333333  0.66666667  0.50000000  1
  Ho  Ho77  1  0.00000000  0.00000000  0.25000000  1
