# generated using pymatgen
data_Cs3Cu5O4
_symmetry_space_group_name_H-M   'P 1'
_cell_length_a   7.65222219
_cell_length_b   10.43187585
_cell_length_c   14.90737928
_cell_angle_alpha   106.23952633
_cell_angle_beta   90.00000000
_cell_angle_gamma   90.00000000
_symmetry_Int_Tables_number   1
_chemical_formula_structural   Cs3Cu5O4
_chemical_formula_sum   'Cs12 Cu20 O16'
_cell_volume   1142.53154811
_cell_formula_units_Z   4
loop_
 _symmetry_equiv_pos_site_id
 _symmetry_equiv_pos_as_xyz
  1  'x, y, z'
loop_
 _atom_site_type_symbol
 _atom_site_label
 _atom_site_symmetry_multiplicity
 _atom_site_fract_x
 _atom_site_fract_y
 _atom_site_fract_z
 _atom_site_occupancy
  O  O0  1  0.42582833  0.60165357  0.39412085  1
  O  O1  1  0.92582833  0.39834643  0.10587915  1
  O  O2  1  0.57417167  0.39834643  0.60587915  1
  O  O3  1  0.07417167  0.60165357  0.89412085  1
  O  O4  1  0.29747064  0.99582849  0.61407372  1
  O  O5  1  0.79747064  0.00417151  0.88592628  1
  O  O6  1  0.70252936  0.00417151  0.38592628  1
  O  O7  1  0.20252936  0.99582849  0.11407372  1
  O  O8  1  0.85371777  0.86708485  0.63135193  1
  O  O9  1  0.35371777  0.13291515  0.86864807  1
  O  O10  1  0.14628223  0.13291515  0.36864807  1
  O  O11  1  0.64628223  0.86708485  0.13135193  1
  O  O12  1  0.52001330  0.46150475  0.85972498  1
  O  O13  1  0.02001330  0.53849525  0.64027502  1
  O  O14  1  0.47998670  0.53849525  0.14027502  1
  O  O15  1  0.97998670  0.46150475  0.35972498  1
  Cu  Cu16  1  0.07930614  0.93379982  0.62852232  1
  Cu  Cu17  1  0.04346648  0.57067307  0.76793108  1
  Cu  Cu18  1  0.95653352  0.42932693  0.23206892  1
  Cu  Cu19  1  0.45653352  0.57067307  0.26793108  1
  Cu  Cu20  1  0.67452445  0.93621916  0.25997236  1
  Cu  Cu21  1  0.17452445  0.06378084  0.24002764  1
  Cu  Cu22  1  0.32547555  0.06378084  0.74002764  1
  Cu  Cu23  1  0.82547555  0.93621916  0.75997236  1
  Cu  Cu24  1  0.79354495  0.47062996  0.62733856  1
  Cu  Cu25  1  0.29354495  0.52937004  0.87266144  1
  Cu  Cu26  1  0.20645505  0.52937004  0.37266144  1
  Cu  Cu27  1  0.70645505  0.47062996  0.12733856  1
  Cu  Cu28  1  0.93599791  0.70565251  0.64361144  1
  Cu  Cu29  1  0.43599791  0.29434749  0.85638856  1
  Cu  Cu30  1  0.06400209  0.29434749  0.35638856  1
  Cu  Cu31  1  0.56400209  0.70565251  0.14361144  1
  Cu  Cu32  1  0.92069386  0.06620018  0.37147768  1
  Cu  Cu33  1  0.42069386  0.93379982  0.12852232  1
  Cu  Cu34  1  0.54346648  0.42932693  0.73206892  1
  Cu  Cu35  1  0.57930614  0.06620018  0.87147768  1
  Cs  Cs36  1  0.09099062  0.67786855  0.10845495  1
  Cs  Cs37  1  0.59099062  0.32213145  0.39154505  1
  Cs  Cs38  1  0.90900938  0.32213145  0.89154505  1
  Cs  Cs39  1  0.40900938  0.67786855  0.60845495  1
  Cs  Cs40  1  0.70103611  0.72311110  0.91724446  1
  Cs  Cs41  1  0.20103611  0.27688890  0.58275554  1
  Cs  Cs42  1  0.29896389  0.27688890  0.08275554  1
  Cs  Cs43  1  0.79896389  0.72311110  0.41724446  1
  Cs  Cs44  1  0.17238479  0.89683808  0.90591734  1
  Cs  Cs45  1  0.67238479  0.10316192  0.59408266  1
  Cs  Cs46  1  0.82761521  0.10316192  0.09408266  1
  Cs  Cs47  1  0.32761521  0.89683808  0.40591734  1
