# generated using pymatgen
data_K3ErSi2O7
_symmetry_space_group_name_H-M   'P 1'
_cell_length_a   9.90896639
_cell_length_b   9.90896639
_cell_length_c   14.43615267
_cell_angle_alpha   90.00000000
_cell_angle_beta   90.00000000
_cell_angle_gamma   119.99999997
_symmetry_Int_Tables_number   1
_chemical_formula_structural   K3ErSi2O7
_chemical_formula_sum   'K18 Er6 Si12 O42'
_cell_volume   1227.54892054
_cell_formula_units_Z   6
loop_
 _symmetry_equiv_pos_site_id
 _symmetry_equiv_pos_as_xyz
  1  'x, y, z'
loop_
 _atom_site_type_symbol
 _atom_site_label
 _atom_site_symmetry_multiplicity
 _atom_site_fract_x
 _atom_site_fract_y
 _atom_site_fract_z
 _atom_site_occupancy
  O  O0  1  0.40939369  0.00000000  0.75000000  1
  O  O1  1  0.40939369  0.40939369  0.25000000  1
  O  O2  1  0.00000000  0.59060631  0.25000000  1
  O  O3  1  0.00000000  0.40939369  0.75000000  1
  O  O4  1  0.59060631  0.59060631  0.75000000  1
  O  O5  1  0.59060631  0.00000000  0.25000000  1
  O  O6  1  0.82320391  0.82320391  0.85141036  1
  O  O7  1  0.17679609  0.00000000  0.85141036  1
  O  O8  1  0.00000000  0.17679609  0.85141036  1
  O  O9  1  0.00000000  0.82320391  0.35141036  1
  O  O10  1  0.17679609  0.00000000  0.64858964  1
  O  O11  1  0.17679609  0.17679609  0.35141036  1
  O  O12  1  0.82320391  0.00000000  0.35141036  1
  O  O13  1  0.17679609  0.17679609  0.14858964  1
  O  O14  1  0.00000000  0.82320391  0.14858964  1
  O  O15  1  0.00000000  0.17679609  0.64858964  1
  O  O16  1  0.82320391  0.82320391  0.64858964  1
  O  O17  1  0.82320391  0.00000000  0.14858964  1
  O  O18  1  0.32200166  0.84387572  0.90895773  1
  O  O19  1  0.15612428  0.47812593  0.90895773  1
  O  O20  1  0.52187407  0.67799834  0.90895773  1
  O  O21  1  0.47812593  0.32200166  0.40895773  1
  O  O22  1  0.67799834  0.52187407  0.59104227  1
  O  O23  1  0.67799834  0.15612428  0.40895773  1
  O  O24  1  0.84387572  0.52187407  0.40895773  1
  O  O25  1  0.15612428  0.67799834  0.09104227  1
  O  O26  1  0.52187407  0.84387572  0.09104227  1
  O  O27  1  0.47812593  0.15612428  0.59104227  1
  O  O28  1  0.84387572  0.32200166  0.59104227  1
  O  O29  1  0.32200166  0.47812593  0.09104227  1
  O  O30  1  0.67799834  0.15612428  0.09104227  1
  O  O31  1  0.84387572  0.52187407  0.09104227  1
  O  O32  1  0.47812593  0.32200166  0.09104227  1
  O  O33  1  0.52187407  0.67799834  0.59104227  1
  O  O34  1  0.32200166  0.47812593  0.40895773  1
  O  O35  1  0.32200166  0.84387572  0.59104227  1
  O  O36  1  0.67799834  0.52187407  0.90895773  1
  O  O37  1  0.15612428  0.67799834  0.40895773  1
  O  O38  1  0.52187407  0.84387572  0.40895773  1
  O  O39  1  0.47812593  0.15612428  0.90895773  1
  O  O40  1  0.84387572  0.32200166  0.90895773  1
  O  O41  1  0.15612428  0.47812593  0.59104227  1
  Si  Si42  1  0.65807456  0.65807456  0.85745208  1
  Si  Si43  1  0.34192544  0.00000000  0.85745208  1
  Si  Si44  1  0.00000000  0.34192544  0.85745208  1
  Si  Si45  1  0.00000000  0.65807456  0.35745208  1
  Si  Si46  1  0.34192544  0.00000000  0.64254792  1
  Si  Si47  1  0.34192544  0.34192544  0.35745208  1
  Si  Si48  1  0.65807456  0.00000000  0.35745208  1
  Si  Si49  1  0.34192544  0.34192544  0.14254792  1
  Si  Si50  1  0.00000000  0.65807456  0.14254792  1
  Si  Si51  1  0.00000000  0.34192544  0.64254792  1
  Si  Si52  1  0.65807456  0.65807456  0.64254792  1
  Si  Si53  1  0.65807456  0.00000000  0.14254792  1
  K  K54  1  0.00000000  0.00000000  0.50000000  1
  K  K55  1  0.33210159  0.00000000  0.09198411  1
  K  K56  1  0.33210159  0.33210159  0.59198411  1
  K  K57  1  0.00000000  0.66789841  0.59198411  1
  K  K58  1  0.00000000  0.33210159  0.09198411  1
  K  K59  1  0.66789841  0.66789841  0.09198411  1
  K  K60  1  0.33210159  0.00000000  0.40801589  1
  K  K61  1  0.00000000  0.00000000  0.00000000  1
  K  K62  1  0.33333333  0.66666667  0.75000000  1
  K  K63  1  0.66666667  0.33333333  0.25000000  1
  K  K64  1  0.66666667  0.33333333  0.75000000  1
  K  K65  1  0.33333333  0.66666667  0.25000000  1
  K  K66  1  0.66789841  0.66789841  0.40801589  1
  K  K67  1  0.66789841  0.00000000  0.90801589  1
  K  K68  1  0.00000000  0.66789841  0.90801589  1
  K  K69  1  0.00000000  0.33210159  0.40801589  1
  K  K70  1  0.66789841  0.00000000  0.59198411  1
  K  K71  1  0.33210159  0.33210159  0.90801589  1
  Er  Er72  1  0.00000000  0.00000000  0.75000000  1
  Er  Er73  1  0.33333333  0.66666667  0.00000000  1
  Er  Er74  1  0.66666667  0.33333333  0.50000000  1
  Er  Er75  1  0.66666667  0.33333333  0.00000000  1
  Er  Er76  1  0.33333333  0.66666667  0.50000000  1
  Er  Er77  1  0.00000000  0.00000000  0.25000000  1
