# generated using pymatgen
data_K3YbSi2O7
_symmetry_space_group_name_H-M   'P 1'
_cell_length_a   10.05545791
_cell_length_b   10.05545791
_cell_length_c   14.59742389
_cell_angle_alpha   90.00000000
_cell_angle_beta   90.00000000
_cell_angle_gamma   119.99999997
_symmetry_Int_Tables_number   1
_chemical_formula_structural   K3YbSi2O7
_chemical_formula_sum   'K18 Yb6 Si12 O42'
_cell_volume   1278.23456251
_cell_formula_units_Z   6
loop_
 _symmetry_equiv_pos_site_id
 _symmetry_equiv_pos_as_xyz
  1  'x, y, z'
loop_
 _atom_site_type_symbol
 _atom_site_label
 _atom_site_symmetry_multiplicity
 _atom_site_fract_x
 _atom_site_fract_y
 _atom_site_fract_z
 _atom_site_occupancy
  O  O0  1  0.40378701  0.00000000  0.75000000  1
  O  O1  1  0.40378701  0.40378701  0.25000000  1
  O  O2  1  0.00000000  0.59621299  0.25000000  1
  O  O3  1  0.00000000  0.40378701  0.75000000  1
  O  O4  1  0.59621299  0.59621299  0.75000000  1
  O  O5  1  0.59621299  0.00000000  0.25000000  1
  O  O6  1  0.82169805  0.82169805  0.85599312  1
  O  O7  1  0.17830195  0.00000000  0.85599312  1
  O  O8  1  0.00000000  0.17830195  0.85599312  1
  O  O9  1  0.00000000  0.82169805  0.35599312  1
  O  O10  1  0.17830195  0.00000000  0.64400688  1
  O  O11  1  0.17830195  0.17830195  0.35599312  1
  O  O12  1  0.82169805  0.00000000  0.35599312  1
  O  O13  1  0.17830195  0.17830195  0.14400688  1
  O  O14  1  0.00000000  0.82169805  0.14400688  1
  O  O15  1  0.00000000  0.17830195  0.64400688  1
  O  O16  1  0.82169805  0.82169805  0.64400688  1
  O  O17  1  0.82169805  0.00000000  0.14400688  1
  O  O18  1  0.32348174  0.84718664  0.90738197  1
  O  O19  1  0.15281336  0.47629510  0.90738197  1
  O  O20  1  0.52370490  0.67651826  0.90738197  1
  O  O21  1  0.47629510  0.32348174  0.40738197  1
  O  O22  1  0.67651826  0.52370490  0.59261803  1
  O  O23  1  0.67651826  0.15281336  0.40738197  1
  O  O24  1  0.84718664  0.52370490  0.40738197  1
  O  O25  1  0.15281336  0.67651826  0.09261803  1
  O  O26  1  0.52370490  0.84718664  0.09261803  1
  O  O27  1  0.47629510  0.15281336  0.59261803  1
  O  O28  1  0.84718664  0.32348174  0.59261803  1
  O  O29  1  0.32348174  0.47629510  0.09261803  1
  O  O30  1  0.67651826  0.15281336  0.09261803  1
  O  O31  1  0.84718664  0.52370490  0.09261803  1
  O  O32  1  0.47629510  0.32348174  0.09261803  1
  O  O33  1  0.52370490  0.67651826  0.59261803  1
  O  O34  1  0.32348174  0.47629510  0.40738197  1
  O  O35  1  0.32348174  0.84718664  0.59261803  1
  O  O36  1  0.67651826  0.52370490  0.90738197  1
  O  O37  1  0.15281336  0.67651826  0.40738197  1
  O  O38  1  0.52370490  0.84718664  0.40738197  1
  O  O39  1  0.47629510  0.15281336  0.90738197  1
  O  O40  1  0.84718664  0.32348174  0.90738197  1
  O  O41  1  0.15281336  0.47629510  0.59261803  1
  Si  Si42  1  0.65969289  0.65969289  0.85677166  1
  Si  Si43  1  0.34030711  0.00000000  0.85677166  1
  Si  Si44  1  0.00000000  0.34030711  0.85677166  1
  Si  Si45  1  0.00000000  0.65969289  0.35677166  1
  Si  Si46  1  0.34030711  0.00000000  0.64322834  1
  Si  Si47  1  0.34030711  0.34030711  0.35677166  1
  Si  Si48  1  0.65969289  0.00000000  0.35677166  1
  Si  Si49  1  0.34030711  0.34030711  0.14322834  1
  Si  Si50  1  0.00000000  0.65969289  0.14322834  1
  Si  Si51  1  0.00000000  0.34030711  0.64322834  1
  Si  Si52  1  0.65969289  0.65969289  0.64322834  1
  Si  Si53  1  0.65969289  0.00000000  0.14322834  1
  K  K54  1  0.00000000  0.00000000  0.50000000  1
  K  K55  1  0.33494888  0.00000000  0.08575500  1
  K  K56  1  0.33494888  0.33494888  0.58575500  1
  K  K57  1  0.00000000  0.66505112  0.58575500  1
  K  K58  1  0.00000000  0.33494888  0.08575500  1
  K  K59  1  0.66505112  0.66505112  0.08575500  1
  K  K60  1  0.33494888  0.00000000  0.41424500  1
  K  K61  1  0.00000000  0.00000000  0.00000000  1
  K  K62  1  0.33333333  0.66666667  0.75000000  1
  K  K63  1  0.66666667  0.33333333  0.25000000  1
  K  K64  1  0.66666667  0.33333333  0.75000000  1
  K  K65  1  0.33333333  0.66666667  0.25000000  1
  K  K66  1  0.66505112  0.66505112  0.41424500  1
  K  K67  1  0.66505112  0.00000000  0.91424500  1
  K  K68  1  0.00000000  0.66505112  0.91424500  1
  K  K69  1  0.00000000  0.33494888  0.41424500  1
  K  K70  1  0.66505112  0.00000000  0.58575500  1
  K  K71  1  0.33494888  0.33494888  0.91424500  1
  Yb  Yb72  1  0.00000000  0.00000000  0.75000000  1
  Yb  Yb73  1  0.33333333  0.66666667  0.00000000  1
  Yb  Yb74  1  0.66666667  0.33333333  0.50000000  1
  Yb  Yb75  1  0.66666667  0.33333333  0.00000000  1
  Yb  Yb76  1  0.33333333  0.66666667  0.50000000  1
  Yb  Yb77  1  0.00000000  0.00000000  0.25000000  1
