# generated using pymatgen
data_MgSe2O5
_symmetry_space_group_name_H-M   'P 1'
_cell_length_a   6.15247196
_cell_length_b   6.93791824
_cell_length_c   10.54198062
_cell_angle_alpha   90.00000000
_cell_angle_beta   90.00000000
_cell_angle_gamma   90.00000000
_symmetry_Int_Tables_number   1
_chemical_formula_structural   MgSe2O5
_chemical_formula_sum   'Mg4 Se8 O20'
_cell_volume   449.98810539
_cell_formula_units_Z   4
loop_
 _symmetry_equiv_pos_site_id
 _symmetry_equiv_pos_as_xyz
  1  'x, y, z'
loop_
 _atom_site_type_symbol
 _atom_site_label
 _atom_site_symmetry_multiplicity
 _atom_site_fract_x
 _atom_site_fract_y
 _atom_site_fract_z
 _atom_site_occupancy
  O  O0  1  0.25000000  0.50000000  0.56667228  1
  O  O1  1  0.75000000  0.00000000  0.93332772  1
  O  O2  1  0.75000000  0.50000000  0.43332772  1
  O  O3  1  0.25000000  0.00000000  0.06667228  1
  O  O4  1  0.66371889  0.19409331  0.70885804  1
  O  O5  1  0.16371889  0.30590669  0.79114196  1
  O  O6  1  0.33628111  0.69409331  0.79114196  1
  O  O7  1  0.83628111  0.80590669  0.70885804  1
  O  O8  1  0.33628111  0.80590669  0.29114196  1
  O  O9  1  0.83628111  0.69409331  0.20885804  1
  O  O10  1  0.66371889  0.30590669  0.20885804  1
  O  O11  1  0.16371889  0.19409331  0.29114196  1
  O  O12  1  0.04949515  0.34559648  0.06740561  1
  O  O13  1  0.54949515  0.15440352  0.43259439  1
  O  O14  1  0.95050485  0.84559648  0.43259439  1
  O  O15  1  0.45050485  0.65440352  0.06740561  1
  O  O16  1  0.95050485  0.65440352  0.93259439  1
  O  O17  1  0.45050485  0.84559648  0.56740561  1
  O  O18  1  0.04949515  0.15440352  0.56740561  1
  O  O19  1  0.54949515  0.34559648  0.93259439  1
  Mg  Mg20  1  0.75000000  0.00000000  0.56127336  1
  Mg  Mg21  1  0.25000000  0.50000000  0.93872664  1
  Mg  Mg22  1  0.25000000  0.00000000  0.43872664  1
  Mg  Mg23  1  0.75000000  0.50000000  0.06127336  1
  Se  Se24  1  0.53417809  0.13642520  0.84557929  1
  Se  Se25  1  0.03417809  0.36357480  0.65442071  1
  Se  Se26  1  0.46582191  0.63642520  0.65442071  1
  Se  Se27  1  0.96582191  0.86357480  0.84557929  1
  Se  Se28  1  0.46582191  0.86357480  0.15442071  1
  Se  Se29  1  0.96582191  0.63642520  0.34557929  1
  Se  Se30  1  0.53417809  0.36357480  0.34557929  1
  Se  Se31  1  0.03417809  0.13642520  0.15442071  1
