# generated using pymatgen
data_GdSO4F
_symmetry_space_group_name_H-M   'P 1'
_cell_length_a   6.50372145
_cell_length_b   7.09072307
_cell_length_c   8.52957633
_cell_angle_alpha   90.00000000
_cell_angle_beta   90.00000000
_cell_angle_gamma   90.00000000
_symmetry_Int_Tables_number   1
_chemical_formula_structural   GdSO4F
_chemical_formula_sum   'Gd4 S4 O16 F4'
_cell_volume   393.35069030
_cell_formula_units_Z   4
loop_
 _symmetry_equiv_pos_site_id
 _symmetry_equiv_pos_as_xyz
  1  'x, y, z'
loop_
 _atom_site_type_symbol
 _atom_site_label
 _atom_site_symmetry_multiplicity
 _atom_site_fract_x
 _atom_site_fract_y
 _atom_site_fract_z
 _atom_site_occupancy
  O  O0  1  0.01317741  0.75000000  0.98161980  1
  O  O1  1  0.51317741  0.25000000  0.51838020  1
  O  O2  1  0.98682259  0.25000000  0.01838020  1
  O  O3  1  0.48682259  0.75000000  0.48161980  1
  O  O4  1  0.67483410  0.08362103  0.94018137  1
  O  O5  1  0.17483410  0.91637897  0.55981863  1
  O  O6  1  0.32516590  0.58362103  0.05981863  1
  O  O7  1  0.82516590  0.41637897  0.44018137  1
  O  O8  1  0.12042430  0.75000000  0.25552670  1
  O  O9  1  0.17483410  0.58362103  0.55981863  1
  O  O10  1  0.87957570  0.25000000  0.74447330  1
  O  O11  1  0.37957570  0.75000000  0.75552670  1
  O  O12  1  0.82516590  0.08362103  0.44018137  1
  O  O13  1  0.67483410  0.41637897  0.94018137  1
  O  O14  1  0.62042430  0.25000000  0.24447330  1
  O  O15  1  0.32516590  0.91637897  0.05981863  1
  F  F16  1  0.70131897  0.75000000  0.20588540  1
  F  F17  1  0.29868103  0.25000000  0.79411460  1
  F  F18  1  0.79868103  0.75000000  0.70588540  1
  F  F19  1  0.20131897  0.25000000  0.29411460  1
  S  S20  1  0.18639142  0.75000000  0.09166168  1
  S  S21  1  0.68639142  0.25000000  0.40833832  1
  S  S22  1  0.31360858  0.75000000  0.59166168  1
  S  S23  1  0.81360858  0.25000000  0.90833832  1
  Gd  Gd24  1  0.65092274  0.75000000  0.94525595  1
  Gd  Gd25  1  0.15092274  0.25000000  0.55474405  1
  Gd  Gd26  1  0.34907726  0.25000000  0.05474405  1
  Gd  Gd27  1  0.84907726  0.75000000  0.44525595  1
