# generated using pymatgen
data_Sc2(SO4)3
_symmetry_space_group_name_H-M   'P 1'
_cell_length_a   9.17373075
_cell_length_b   9.17373074
_cell_length_c   9.17373074
_cell_angle_alpha   57.69112097
_cell_angle_beta   57.69112104
_cell_angle_gamma   57.69112104
_symmetry_Int_Tables_number   1
_chemical_formula_structural   Sc2(SO4)3
_chemical_formula_sum   'Sc4 S6 O24'
_cell_volume   516.95167916
_cell_formula_units_Z   2
loop_
 _symmetry_equiv_pos_site_id
 _symmetry_equiv_pos_as_xyz
  1  'x, y, z'
loop_
 _atom_site_type_symbol
 _atom_site_label
 _atom_site_symmetry_multiplicity
 _atom_site_fract_x
 _atom_site_fract_y
 _atom_site_fract_z
 _atom_site_occupancy
  O  O0  1  0.99138820  0.22757036  0.37407451  1
  O  O1  1  0.22757036  0.37407451  0.99138820  1
  O  O2  1  0.37407451  0.99138820  0.22757036  1
  O  O3  1  0.00861180  0.77242964  0.62592549  1
  O  O4  1  0.77242964  0.62592549  0.00861180  1
  O  O5  1  0.62592549  0.00861180  0.77242964  1
  O  O6  1  0.12599493  0.27227657  0.50861259  1
  O  O7  1  0.27227657  0.50861259  0.12599493  1
  O  O8  1  0.50861259  0.12599493  0.27227657  1
  O  O9  1  0.87400507  0.72772343  0.49138741  1
  O  O10  1  0.29803223  0.06386819  0.91404190  1
  O  O11  1  0.91404190  0.29803223  0.06386819  1
  O  O12  1  0.06386819  0.91404190  0.29803223  1
  O  O13  1  0.70196777  0.93613181  0.08595810  1
  O  O14  1  0.08595810  0.70196777  0.93613181  1
  O  O15  1  0.93613181  0.08595810  0.70196777  1
  O  O16  1  0.43636935  0.20186291  0.58579836  1
  O  O17  1  0.58579836  0.43636935  0.20186291  1
  O  O18  1  0.20186291  0.58579836  0.43636935  1
  O  O19  1  0.56363065  0.79813709  0.41420164  1
  O  O20  1  0.41420164  0.56363065  0.79813709  1
  O  O21  1  0.79813709  0.41420164  0.56363065  1
  O  O22  1  0.49138741  0.87400507  0.72772343  1
  O  O23  1  0.72772343  0.49138741  0.87400507  1
  S  S24  1  0.46355434  0.03646295  0.74999528  1
  S  S25  1  0.74999528  0.46355434  0.03646295  1
  S  S26  1  0.03646295  0.74999528  0.46355434  1
  S  S27  1  0.53644566  0.96353705  0.25000472  1
  S  S28  1  0.96353705  0.25000472  0.53644566  1
  S  S29  1  0.25000472  0.53644566  0.96353705  1
  Sc  Sc30  1  0.14414285  0.14414285  0.14414285  1
  Sc  Sc31  1  0.85585715  0.85585715  0.85585715  1
  Sc  Sc32  1  0.35583848  0.35583848  0.35583848  1
  Sc  Sc33  1  0.64416152  0.64416152  0.64416152  1
