# generated using pymatgen
data_TeI4
_symmetry_space_group_name_H-M   'P 1'
_cell_length_a   4.36927416
_cell_length_b   8.52747871
_cell_length_c   7.37261558
_cell_angle_alpha   62.05728146
_cell_angle_beta   89.98363508
_cell_angle_gamma   75.15659776
_symmetry_Int_Tables_number   1
_chemical_formula_structural   TeI4
_chemical_formula_sum   'Te1 I4'
_cell_volume   232.25434913
_cell_formula_units_Z   1
loop_
 _symmetry_equiv_pos_site_id
 _symmetry_equiv_pos_as_xyz
  1  'x, y, z'
loop_
 _atom_site_type_symbol
 _atom_site_label
 _atom_site_symmetry_multiplicity
 _atom_site_fract_x
 _atom_site_fract_y
 _atom_site_fract_z
 _atom_site_occupancy
  Te  Te0  1  0.00000000  0.00000000  -0.00000000  1
  I  I1  1  0.87636445  0.24709947  0.55862183  1
  I  I2  1  0.38121380  0.23645994  0.05187484  1
  I  I3  1  0.12363555  0.75290053  0.44137817  1
  I  I4  1  0.61878620  0.76354006  0.94812516  1
