# generated using pymatgen
data_La2Ni7
_symmetry_space_group_name_H-M   'P 1'
_cell_length_a   5.02430670
_cell_length_b   5.02430670
_cell_length_c   24.59026144
_cell_angle_alpha   90.00000000
_cell_angle_beta   90.00000000
_cell_angle_gamma   119.99999999
_symmetry_Int_Tables_number   1
_chemical_formula_structural   La2Ni7
_chemical_formula_sum   'La8 Ni28'
_cell_volume   537.58366343
_cell_formula_units_Z   4
loop_
 _symmetry_equiv_pos_site_id
 _symmetry_equiv_pos_as_xyz
  1  'x, y, z'
loop_
 _atom_site_type_symbol
 _atom_site_label
 _atom_site_symmetry_multiplicity
 _atom_site_fract_x
 _atom_site_fract_y
 _atom_site_fract_z
 _atom_site_occupancy
  Ni  Ni0  1  0.83373978  0.16626022  0.41259860  1
  Ni  Ni1  1  0.83373978  0.66747957  0.41259860  1
  Ni  Ni2  1  0.33252043  0.16626022  0.41259860  1
  Ni  Ni3  1  0.66747957  0.83373978  0.91259860  1
  Ni  Ni4  1  0.16626022  0.33252043  0.58740140  1
  Ni  Ni5  1  0.16626022  0.83373978  0.91259860  1
  Ni  Ni6  1  0.16626022  0.33252043  0.91259860  1
  Ni  Ni7  1  0.83373978  0.16626022  0.08740140  1
  Ni  Ni8  1  0.00000000  0.00000000  0.00000000  1
  Ni  Ni9  1  0.00000000  0.00000000  0.50000000  1
  Ni  Ni10  1  0.00000000  0.00000000  0.16887652  1
  Ni  Ni11  1  0.00000000  0.00000000  0.66887652  1
  Ni  Ni12  1  0.00000000  0.00000000  0.83112348  1
  Ni  Ni13  1  0.00000000  0.00000000  0.33112348  1
  Ni  Ni14  1  0.33333333  0.66666667  0.83194998  1
  Ni  Ni15  1  0.66666667  0.33333333  0.33194998  1
  Ni  Ni16  1  0.66666667  0.33333333  0.16805002  1
  Ni  Ni17  1  0.33333333  0.66666667  0.66805002  1
  Ni  Ni18  1  0.83291440  0.66582880  0.25000000  1
  Ni  Ni19  1  0.16708560  0.83291440  0.75000000  1
  Ni  Ni20  1  0.66582880  0.83291440  0.75000000  1
  Ni  Ni21  1  0.33417120  0.16708560  0.25000000  1
  Ni  Ni22  1  0.83291440  0.16708560  0.25000000  1
  Ni  Ni23  1  0.16708560  0.33417120  0.75000000  1
  Ni  Ni24  1  0.83373978  0.66747957  0.08740140  1
  Ni  Ni25  1  0.16626022  0.83373978  0.58740140  1
  Ni  Ni26  1  0.66747957  0.83373978  0.58740140  1
  Ni  Ni27  1  0.33252043  0.16626022  0.08740140  1
  La  La28  1  0.33333333  0.66666667  0.32584893  1
  La  La29  1  0.66666667  0.33333333  0.82584893  1
  La  La30  1  0.66666667  0.33333333  0.67415107  1
  La  La31  1  0.33333333  0.66666667  0.17415107  1
  La  La32  1  0.33333333  0.66666667  0.46947811  1
  La  La33  1  0.66666667  0.33333333  0.96947811  1
  La  La34  1  0.66666667  0.33333333  0.53052189  1
  La  La35  1  0.33333333  0.66666667  0.03052189  1
