# generated using pymatgen
data_Sr2GdRuO6
_symmetry_space_group_name_H-M   'P 1'
_cell_length_a   5.83740127
_cell_length_b   5.91895177
_cell_length_c   8.28860261
_cell_angle_alpha   90.00000000
_cell_angle_beta   90.46488462
_cell_angle_gamma   90.00000000
_symmetry_Int_Tables_number   1
_chemical_formula_structural   Sr2GdRuO6
_chemical_formula_sum   'Sr4 Gd2 Ru2 O12'
_cell_volume   286.37254061
_cell_formula_units_Z   2
loop_
 _symmetry_equiv_pos_site_id
 _symmetry_equiv_pos_as_xyz
  1  'x, y, z'
loop_
 _atom_site_type_symbol
 _atom_site_label
 _atom_site_symmetry_multiplicity
 _atom_site_fract_x
 _atom_site_fract_y
 _atom_site_fract_z
 _atom_site_occupancy
  O  O0  1  0.92018690  0.52266000  0.73218167  1
  O  O1  1  0.57981310  0.02266000  0.76781833  1
  O  O2  1  0.07981310  0.47734000  0.26781833  1
  O  O3  1  0.42018690  0.97734000  0.23218167  1
  O  O4  1  0.80710973  0.77176500  0.45597036  1
  O  O5  1  0.69289027  0.27176500  0.04402964  1
  O  O6  1  0.19289027  0.22823500  0.54402964  1
  O  O7  1  0.30710973  0.72823500  0.95597036  1
  O  O8  1  0.22956545  0.19638382  0.95891849  1
  O  O9  1  0.27043455  0.69638382  0.54108151  1
  O  O10  1  0.77043455  0.80361618  0.04108151  1
  O  O11  1  0.72956545  0.30361618  0.45891849  1
  Sr  Sr12  1  0.50984267  0.53968603  0.24936131  1
  Sr  Sr13  1  0.99015733  0.03968603  0.25063869  1
  Sr  Sr14  1  0.00984267  0.96031397  0.74936131  1
  Sr  Sr15  1  0.49015733  0.46031397  0.75063869  1
  Ru  Ru16  1  0.50000000  0.00000000  0.00000000  1
  Ru  Ru17  1  0.00000000  0.50000000  0.50000000  1
  Gd  Gd18  1  0.50000000  0.00000000  0.50000000  1
  Gd  Gd19  1  0.00000000  0.50000000  0.00000000  1
