# generated using pymatgen
data_Sc2Re3Si4
_symmetry_space_group_name_H-M   'P 1'
_cell_length_a   6.63107201
_cell_length_b   6.63107201
_cell_length_c   12.47381534
_cell_angle_alpha   90.00000000
_cell_angle_beta   90.00000000
_cell_angle_gamma   90.00000000
_symmetry_Int_Tables_number   1
_chemical_formula_structural   Sc2Re3Si4
_chemical_formula_sum   'Sc8 Si16 Re12'
_cell_volume   548.48758130
_cell_formula_units_Z   4
loop_
 _symmetry_equiv_pos_site_id
 _symmetry_equiv_pos_as_xyz
  1  'x, y, z'
loop_
 _atom_site_type_symbol
 _atom_site_label
 _atom_site_symmetry_multiplicity
 _atom_site_fract_x
 _atom_site_fract_y
 _atom_site_fract_z
 _atom_site_occupancy
  Si  Si0  1  0.02624724  0.72142238  0.43769426  1
  Si  Si1  1  0.62075283  0.30454576  0.43039451  1
  Si  Si2  1  0.37924717  0.69545424  0.93039451  1
  Si  Si3  1  0.19545424  0.12075283  0.68039451  1
  Si  Si4  1  0.30454576  0.62075283  0.56960549  1
  Si  Si5  1  0.69545424  0.37924717  0.06960549  1
  Si  Si6  1  0.80454576  0.87924717  0.18039451  1
  Si  Si7  1  0.12075283  0.19545424  0.31960549  1
  Si  Si8  1  0.97375276  0.27857762  0.93769426  1
  Si  Si9  1  0.72142238  0.02624724  0.56230574  1
  Si  Si10  1  0.22142238  0.47375276  0.18769426  1
  Si  Si11  1  0.77857762  0.52624724  0.68769426  1
  Si  Si12  1  0.47375276  0.22142238  0.81230574  1
  Si  Si13  1  0.52624724  0.77857762  0.31230574  1
  Si  Si14  1  0.27857762  0.97375276  0.06230574  1
  Si  Si15  1  0.87924717  0.80454576  0.81960549  1
  Sc  Sc16  1  0.00751251  0.65868573  0.03095020  1
  Sc  Sc17  1  0.99248749  0.34131427  0.53095020  1
  Sc  Sc18  1  0.34131427  0.99248749  0.46904980  1
  Sc  Sc19  1  0.15868573  0.49248749  0.78095020  1
  Sc  Sc20  1  0.84131427  0.50751251  0.28095020  1
  Sc  Sc21  1  0.49248749  0.15868573  0.21904980  1
  Sc  Sc22  1  0.50751251  0.84131427  0.71904980  1
  Sc  Sc23  1  0.65868573  0.00751251  0.96904980  1
  Re  Re24  1  0.66796432  0.66796432  0.50000000  1
  Re  Re25  1  0.16796432  0.83203568  0.25000000  1
  Re  Re26  1  0.33203568  0.33203568  0.00000000  1
  Re  Re27  1  0.01767678  0.81453375  0.63262819  1
  Re  Re28  1  0.98232322  0.18546625  0.13262819  1
  Re  Re29  1  0.81453375  0.01767678  0.36737181  1
  Re  Re30  1  0.31453375  0.48232322  0.38262819  1
  Re  Re31  1  0.68546625  0.51767678  0.88262819  1
  Re  Re32  1  0.48232322  0.31453375  0.61737181  1
  Re  Re33  1  0.51767678  0.68546625  0.11737181  1
  Re  Re34  1  0.18546625  0.98232322  0.86737181  1
  Re  Re35  1  0.83203568  0.16796432  0.75000000  1
