# generated using pymatgen
data_KBaNbS4
_symmetry_space_group_name_H-M   'P 1'
_cell_length_a   7.07453829
_cell_length_b   9.33424155
_cell_length_c   12.76918864
_cell_angle_alpha   90.00000000
_cell_angle_beta   90.00000000
_cell_angle_gamma   90.00000000
_symmetry_Int_Tables_number   1
_chemical_formula_structural   KBaNbS4
_chemical_formula_sum   'K4 Ba4 Nb4 S16'
_cell_volume   843.21910845
_cell_formula_units_Z   4
loop_
 _symmetry_equiv_pos_site_id
 _symmetry_equiv_pos_as_xyz
  1  'x, y, z'
loop_
 _atom_site_type_symbol
 _atom_site_label
 _atom_site_symmetry_multiplicity
 _atom_site_fract_x
 _atom_site_fract_y
 _atom_site_fract_z
 _atom_site_occupancy
  S  S0  1  0.25000000  0.48418182  0.08267927  1
  S  S1  1  0.75000000  0.51581818  0.91732073  1
  S  S2  1  0.25000000  0.98418182  0.41732073  1
  S  S3  1  0.75000000  0.01581818  0.58267927  1
  S  S4  1  0.00980812  0.18104720  0.84135716  1
  S  S5  1  0.50980812  0.81895280  0.15864284  1
  S  S6  1  0.49019188  0.68104720  0.65864284  1
  S  S7  1  0.99019188  0.31895280  0.34135716  1
  S  S8  1  0.99019188  0.81895280  0.15864284  1
  S  S9  1  0.49019188  0.18104720  0.84135716  1
  S  S10  1  0.50980812  0.31895280  0.34135716  1
  S  S11  1  0.00980812  0.68104720  0.65864284  1
  S  S12  1  0.75000000  0.69416716  0.40576465  1
  S  S13  1  0.25000000  0.30583284  0.59423535  1
  S  S14  1  0.75000000  0.19416716  0.09423535  1
  S  S15  1  0.25000000  0.80583284  0.90576465  1
  K  K16  1  0.25000000  0.13558254  0.07469595  1
  K  K17  1  0.75000000  0.86441746  0.92530405  1
  K  K18  1  0.25000000  0.63558254  0.42530405  1
  K  K19  1  0.75000000  0.36441746  0.57469595  1
  Nb  Nb20  1  0.25000000  0.22925209  0.42349268  1
  Nb  Nb21  1  0.75000000  0.27074791  0.92349268  1
  Nb  Nb22  1  0.75000000  0.77074791  0.57650732  1
  Nb  Nb23  1  0.25000000  0.72925209  0.07650732  1
  Ba  Ba24  1  0.75000000  0.52051276  0.17603463  1
  Ba  Ba25  1  0.75000000  0.02051276  0.32396537  1
  Ba  Ba26  1  0.25000000  0.97948724  0.67603463  1
  Ba  Ba27  1  0.25000000  0.47948724  0.82396537  1
