# generated using pymatgen
data_Cs2Ti(GeO3)3
_symmetry_space_group_name_H-M   'P 1'
_cell_length_a   7.31773846
_cell_length_b   7.31773846
_cell_length_c   10.54541665
_cell_angle_alpha   90.00000000
_cell_angle_beta   90.00000000
_cell_angle_gamma   120.00000001
_symmetry_Int_Tables_number   1
_chemical_formula_structural   Cs2Ti(GeO3)3
_chemical_formula_sum   'Cs4 Ti2 Ge6 O18'
_cell_volume   489.04423289
_cell_formula_units_Z   2
loop_
 _symmetry_equiv_pos_site_id
 _symmetry_equiv_pos_as_xyz
  1  'x, y, z'
loop_
 _atom_site_type_symbol
 _atom_site_label
 _atom_site_symmetry_multiplicity
 _atom_site_fract_x
 _atom_site_fract_y
 _atom_site_fract_z
 _atom_site_occupancy
  O  O0  1  0.23878723  0.20076176  0.39264966  1
  O  O1  1  0.03802547  0.23878723  0.89264966  1
  O  O2  1  0.20076176  0.96197453  0.89264966  1
  O  O3  1  0.79923824  0.03802547  0.39264966  1
  O  O4  1  0.96197453  0.76121277  0.39264966  1
  O  O5  1  0.76121277  0.79923824  0.89264966  1
  O  O6  1  0.76121277  0.79923824  0.60735034  1
  O  O7  1  0.96197453  0.76121277  0.10735034  1
  O  O8  1  0.79923824  0.03802547  0.10735034  1
  O  O9  1  0.20076176  0.96197453  0.60735034  1
  O  O10  1  0.03802547  0.23878723  0.60735034  1
  O  O11  1  0.23878723  0.20076176  0.10735034  1
  O  O12  1  0.49589255  0.07064328  0.25000000  1
  O  O13  1  0.42524927  0.49589255  0.75000000  1
  O  O14  1  0.07064328  0.57475073  0.75000000  1
  O  O15  1  0.92935672  0.42524927  0.25000000  1
  O  O16  1  0.57475073  0.50410745  0.25000000  1
  O  O17  1  0.50410745  0.92935672  0.75000000  1
  Ti  Ti18  1  0.00000000  0.00000000  0.50000000  1
  Ti  Ti19  1  0.00000000  0.00000000  0.00000000  1
  Ge  Ge20  1  0.22720087  0.85760445  0.75000000  1
  Ge  Ge21  1  0.63040358  0.77279913  0.75000000  1
  Ge  Ge22  1  0.14239555  0.36959642  0.75000000  1
  Ge  Ge23  1  0.36959642  0.22720087  0.25000000  1
  Ge  Ge24  1  0.85760445  0.63040358  0.25000000  1
  Ge  Ge25  1  0.77279913  0.14239555  0.25000000  1
  Cs  Cs26  1  0.33333333  0.66666667  0.44129542  1
  Cs  Cs27  1  0.66666667  0.33333333  0.94129542  1
  Cs  Cs28  1  0.66666667  0.33333333  0.55870458  1
  Cs  Cs29  1  0.33333333  0.66666667  0.05870458  1
