# generated using pymatgen
data_Ca2Ag7
_symmetry_space_group_name_H-M   'P 1'
_cell_length_a   5.56795965
_cell_length_b   5.56795966
_cell_length_c   14.26040209
_cell_angle_alpha   90.00000000
_cell_angle_beta   90.00000000
_cell_angle_gamma   119.89118788
_symmetry_Int_Tables_number   1
_chemical_formula_structural   Ca2Ag7
_chemical_formula_sum   'Ca4 Ag14'
_cell_volume   383.29195773
_cell_formula_units_Z   2
loop_
 _symmetry_equiv_pos_site_id
 _symmetry_equiv_pos_as_xyz
  1  'x, y, z'
loop_
 _atom_site_type_symbol
 _atom_site_label
 _atom_site_symmetry_multiplicity
 _atom_site_fract_x
 _atom_site_fract_y
 _atom_site_fract_z
 _atom_site_occupancy
  Ca  Ca0  1  0.32108726  0.32108726  0.11480465  1
  Ca  Ca1  1  0.67891274  0.67891274  0.61480465  1
  Ca  Ca2  1  0.32108726  0.32108726  0.38519535  1
  Ca  Ca3  1  0.67891274  0.67891274  0.88519535  1
  Ag  Ag4  1  0.82864428  0.82864428  0.25000000  1
  Ag  Ag5  1  0.17135572  0.17135572  0.75000000  1
  Ag  Ag6  1  0.32930356  0.82717707  0.25000000  1
  Ag  Ag7  1  0.67069644  0.17282293  0.75000000  1
  Ag  Ag8  1  0.82717707  0.32930356  0.25000000  1
  Ag  Ag9  1  0.17282293  0.67069644  0.75000000  1
  Ag  Ag10  1  0.66358124  0.99367191  0.07645787  1
  Ag  Ag11  1  0.33641876  0.00632809  0.57645787  1
  Ag  Ag12  1  0.99367191  0.66358124  0.42354213  1
  Ag  Ag13  1  0.00632809  0.33641876  0.92354213  1
  Ag  Ag14  1  0.33641876  0.00632809  0.92354213  1
  Ag  Ag15  1  0.66358124  0.99367191  0.42354213  1
  Ag  Ag16  1  0.00632809  0.33641876  0.57645787  1
  Ag  Ag17  1  0.99367191  0.66358124  0.07645787  1
