# generated using pymatgen
data_Ga7Ni3
_symmetry_space_group_name_H-M   'P 1'
_cell_length_a   7.33061099
_cell_length_b   7.33061099
_cell_length_c   7.33061099
_cell_angle_alpha   109.47122066
_cell_angle_beta   109.47122066
_cell_angle_gamma   109.47122060
_symmetry_Int_Tables_number   1
_chemical_formula_structural   Ga7Ni3
_chemical_formula_sum   'Ga14 Ni6'
_cell_volume   303.24847815
_cell_formula_units_Z   2
loop_
 _symmetry_equiv_pos_site_id
 _symmetry_equiv_pos_as_xyz
  1  'x, y, z'
loop_
 _atom_site_type_symbol
 _atom_site_label
 _atom_site_symmetry_multiplicity
 _atom_site_fract_x
 _atom_site_fract_y
 _atom_site_fract_z
 _atom_site_occupancy
  Ni  Ni0  1  0.00000000  0.34984902  0.34984902  1
  Ni  Ni1  1  0.34984902  0.00000000  0.34984902  1
  Ni  Ni2  1  0.65015098  0.00000000  0.65015098  1
  Ni  Ni3  1  0.65015098  0.65015098  0.00000000  1
  Ni  Ni4  1  0.34984902  0.34984902  0.00000000  1
  Ni  Ni5  1  0.00000000  0.65015098  0.65015098  1
  Ga  Ga6  1  0.50000000  0.75000000  0.25000000  1
  Ga  Ga7  1  0.75000000  0.50000000  0.25000000  1
  Ga  Ga8  1  0.25000000  0.50000000  0.75000000  1
  Ga  Ga9  1  0.75000000  0.25000000  0.50000000  1
  Ga  Ga10  1  0.25000000  0.75000000  0.50000000  1
  Ga  Ga11  1  0.50000000  0.25000000  0.75000000  1
  Ga  Ga12  1  0.32319356  0.32319356  0.32319356  1
  Ga  Ga13  1  0.32319356  0.00000000  0.00000000  1
  Ga  Ga14  1  0.00000000  0.32319356  0.00000000  1
  Ga  Ga15  1  0.00000000  0.00000000  0.32319356  1
  Ga  Ga16  1  0.00000000  0.67680644  0.00000000  1
  Ga  Ga17  1  0.00000000  0.00000000  0.67680644  1
  Ga  Ga18  1  0.67680644  0.00000000  0.00000000  1
  Ga  Ga19  1  0.67680644  0.67680644  0.67680644  1
