# generated using pymatgen
data_Sr(Ni2B)6
_symmetry_space_group_name_H-M   'P 1'
_cell_length_a   6.05447861
_cell_length_b   6.05447861
_cell_length_c   6.05447861
_cell_angle_alpha   104.35870379
_cell_angle_beta   104.35870382
_cell_angle_gamma   104.35870378
_symmetry_Int_Tables_number   1
_chemical_formula_structural   Sr(Ni2B)6
_chemical_formula_sum   'Sr1 Ni12 B6'
_cell_volume   196.63660071
_cell_formula_units_Z   1
loop_
 _symmetry_equiv_pos_site_id
 _symmetry_equiv_pos_as_xyz
  1  'x, y, z'
loop_
 _atom_site_type_symbol
 _atom_site_label
 _atom_site_symmetry_multiplicity
 _atom_site_fract_x
 _atom_site_fract_y
 _atom_site_fract_z
 _atom_site_occupancy
  B  B0  1  0.76638735  0.76638735  0.34087115  1
  B  B1  1  0.65912885  0.23361265  0.23361265  1
  B  B2  1  0.23361265  0.23361265  0.65912885  1
  B  B3  1  0.23361265  0.65912885  0.23361265  1
  B  B4  1  0.76638735  0.34087115  0.76638735  1
  B  B5  1  0.34087115  0.76638735  0.76638735  1
  Ni  Ni6  1  0.50000000  0.13137546  0.86862454  1
  Ni  Ni7  1  0.46031456  0.18773314  0.46031456  1
  Ni  Ni8  1  0.86862454  0.50000000  0.13137546  1
  Ni  Ni9  1  0.18773314  0.46031456  0.46031456  1
  Ni  Ni10  1  0.81226686  0.53968544  0.53968544  1
  Ni  Ni11  1  0.53968544  0.81226686  0.53968544  1
  Ni  Ni12  1  0.53968544  0.53968544  0.81226686  1
  Ni  Ni13  1  0.13137546  0.50000000  0.86862454  1
  Ni  Ni14  1  0.50000000  0.86862454  0.13137546  1
  Ni  Ni15  1  0.86862454  0.13137546  0.50000000  1
  Ni  Ni16  1  0.46031456  0.46031456  0.18773314  1
  Ni  Ni17  1  0.13137546  0.86862454  0.50000000  1
  Sr  Sr18  1  0.00000000  0.00000000  0.00000000  1
