# generated using pymatgen
data_Nb5Ge3
_symmetry_space_group_name_H-M   'P 1'
_cell_length_a   5.18560006
_cell_length_b   7.68999616
_cell_length_c   7.68999615
_cell_angle_alpha   83.47247844
_cell_angle_beta   70.29573604
_cell_angle_gamma   70.29573601
_symmetry_Int_Tables_number   1
_chemical_formula_structural   Nb5Ge3
_chemical_formula_sum   'Nb10 Ge6'
_cell_volume   271.79508009
_cell_formula_units_Z   2
loop_
 _symmetry_equiv_pos_site_id
 _symmetry_equiv_pos_as_xyz
  1  'x, y, z'
loop_
 _atom_site_type_symbol
 _atom_site_label
 _atom_site_symmetry_multiplicity
 _atom_site_fract_x
 _atom_site_fract_y
 _atom_site_fract_z
 _atom_site_occupancy
  Ge  Ge0  1  0.83433412  0.50000000  0.83133176  1
  Ge  Ge1  1  0.66566588  0.16866824  0.50000000  1
  Ge  Ge2  1  0.33433412  0.83133176  0.50000000  1
  Ge  Ge3  1  0.16566588  0.50000000  0.16866824  1
  Ge  Ge4  1  0.75000000  0.00000000  0.00000000  1
  Ge  Ge5  1  0.25000000  0.00000000  0.00000000  1
  Nb  Nb6  1  0.27731348  0.14721160  0.29816145  1
  Nb  Nb7  1  0.72268652  0.85278840  0.70183855  1
  Nb  Nb8  1  0.42452507  0.29816145  0.85278840  1
  Nb  Nb9  1  0.57547493  0.70183855  0.14721160  1
  Nb  Nb10  1  0.92452507  0.85278840  0.29816145  1
  Nb  Nb11  1  0.22268652  0.70183855  0.85278840  1
  Nb  Nb12  1  0.77731348  0.29816145  0.14721160  1
  Nb  Nb13  1  0.07547493  0.14721160  0.70183855  1
  Nb  Nb14  1  0.75000000  0.50000000  0.50000000  1
  Nb  Nb15  1  0.25000000  0.50000000  0.50000000  1
