# generated using pymatgen
data_Zn3(AsO4)2
_symmetry_space_group_name_H-M   'P 1'
_cell_length_a   5.33991208
_cell_length_b   7.94616956
_cell_length_c   8.66666112
_cell_angle_alpha   90.00000000
_cell_angle_beta   90.00000000
_cell_angle_gamma   96.76286606
_symmetry_Int_Tables_number   1
_chemical_formula_structural   Zn3(AsO4)2
_chemical_formula_sum   'Zn6 As4 O16'
_cell_volume   365.18369944
_cell_formula_units_Z   2
loop_
 _symmetry_equiv_pos_site_id
 _symmetry_equiv_pos_as_xyz
  1  'x, y, z'
loop_
 _atom_site_type_symbol
 _atom_site_label
 _atom_site_symmetry_multiplicity
 _atom_site_fract_x
 _atom_site_fract_y
 _atom_site_fract_z
 _atom_site_occupancy
  O  O0  1  0.42958050  0.13555234  0.93373682  1
  O  O1  1  0.07041950  0.36444766  0.43373682  1
  O  O2  1  0.57041950  0.86444766  0.06626318  1
  O  O3  1  0.92958050  0.63555234  0.56626318  1
  O  O4  1  0.16926316  0.38154479  0.80432197  1
  O  O5  1  0.33073684  0.11845521  0.30432197  1
  O  O6  1  0.83073684  0.61845521  0.19567803  1
  O  O7  1  0.66926316  0.88154479  0.69567803  1
  O  O8  1  0.68826938  0.46453480  0.86330745  1
  O  O9  1  0.81173062  0.03546520  0.36330745  1
  O  O10  1  0.07397744  0.74655827  0.86821335  1
  O  O11  1  0.42602256  0.75344173  0.36821335  1
  O  O12  1  0.92602256  0.25344173  0.13178665  1
  O  O13  1  0.57397744  0.24655827  0.63178665  1
  O  O14  1  0.18826938  0.96453480  0.63669255  1
  O  O15  1  0.31173062  0.53546520  0.13669255  1
  Zn  Zn16  1  0.41142078  0.89049418  0.85954956  1
  Zn  Zn17  1  0.08857922  0.60950582  0.35954956  1
  Zn  Zn18  1  0.58857922  0.10950582  0.14045044  1
  Zn  Zn19  1  0.91142078  0.39049418  0.64045044  1
  Zn  Zn20  1  0.00000000  0.50000000  0.00000000  1
  Zn  Zn21  1  0.50000000  0.00000000  0.50000000  1
  As  As22  1  0.95832826  0.80610276  0.69111017  1
  As  As23  1  0.54167174  0.69389724  0.19111017  1
  As  As24  1  0.04167174  0.19389724  0.30888983  1
  As  As25  1  0.45832826  0.30610276  0.80888983  1
