# generated using pymatgen
data_Rb2Cd3Se4
_symmetry_space_group_name_H-M   'P 1'
_cell_length_a   6.96074147
_cell_length_b   11.24334241
_cell_length_c   14.95715017
_cell_angle_alpha   90.00000000
_cell_angle_beta   90.00000000
_cell_angle_gamma   90.00000000
_symmetry_Int_Tables_number   1
_chemical_formula_structural   Rb2Cd3Se4
_chemical_formula_sum   'Rb8 Cd12 Se16'
_cell_volume   1170.57648323
_cell_formula_units_Z   4
loop_
 _symmetry_equiv_pos_site_id
 _symmetry_equiv_pos_as_xyz
  1  'x, y, z'
loop_
 _atom_site_type_symbol
 _atom_site_label
 _atom_site_symmetry_multiplicity
 _atom_site_fract_x
 _atom_site_fract_y
 _atom_site_fract_z
 _atom_site_occupancy
  Se  Se0  1  0.09738932  0.53841970  0.36089709  1
  Se  Se1  1  0.59738932  0.46158030  0.13910291  1
  Se  Se2  1  0.90261068  0.03841970  0.63910291  1
  Se  Se3  1  0.40261068  0.96158030  0.86089709  1
  Se  Se4  1  0.90261068  0.46158030  0.63910291  1
  Se  Se5  1  0.40261068  0.53841970  0.86089709  1
  Se  Se6  1  0.09738932  0.96158030  0.36089709  1
  Se  Se7  1  0.59738932  0.03841970  0.13910291  1
  Se  Se8  1  0.96210810  0.25000000  0.86007468  1
  Se  Se9  1  0.46210810  0.75000000  0.63992532  1
  Se  Se10  1  0.03789190  0.75000000  0.13992532  1
  Se  Se11  1  0.53789190  0.25000000  0.36007468  1
  Se  Se12  1  0.89134959  0.75000000  0.84671448  1
  Se  Se13  1  0.60865041  0.75000000  0.34671448  1
  Se  Se14  1  0.10865041  0.25000000  0.15328552  1
  Se  Se15  1  0.39134959  0.25000000  0.65328552  1
  Rb  Rb16  1  0.01994371  0.25000000  0.46223248  1
  Rb  Rb17  1  0.51994371  0.75000000  0.03776752  1
  Rb  Rb18  1  0.98005629  0.75000000  0.53776752  1
  Rb  Rb19  1  0.48005629  0.25000000  0.96223248  1
  Rb  Rb20  1  0.50000000  0.50000000  0.50000000  1
  Rb  Rb21  1  0.00000000  0.00000000  0.00000000  1
  Rb  Rb22  1  0.50000000  0.00000000  0.50000000  1
  Rb  Rb23  1  0.00000000  0.50000000  0.00000000  1
  Cd  Cd24  1  0.81484095  0.59536825  0.24500200  1
  Cd  Cd25  1  0.31484095  0.40463175  0.25499800  1
  Cd  Cd26  1  0.18515905  0.09536825  0.75499800  1
  Cd  Cd27  1  0.68515905  0.90463175  0.74500200  1
  Cd  Cd28  1  0.18515905  0.40463175  0.75499800  1
  Cd  Cd29  1  0.68515905  0.59536825  0.74500200  1
  Cd  Cd30  1  0.81484095  0.90463175  0.24500200  1
  Cd  Cd31  1  0.31484095  0.09536825  0.25499800  1
  Cd  Cd32  1  0.75327589  0.25000000  0.70684379  1
  Cd  Cd33  1  0.25327589  0.75000000  0.79315621  1
  Cd  Cd34  1  0.24672411  0.75000000  0.29315621  1
  Cd  Cd35  1  0.74672411  0.25000000  0.20684379  1
