# generated using pymatgen
data_Ba3PrRu2O9
_symmetry_space_group_name_H-M   'P 1'
_cell_length_a   6.01601392
_cell_length_b   6.01601392
_cell_length_c   15.02181368
_cell_angle_alpha   90.00000000
_cell_angle_beta   90.00000000
_cell_angle_gamma   119.99999997
_symmetry_Int_Tables_number   1
_chemical_formula_structural   Ba3PrRu2O9
_chemical_formula_sum   'Ba6 Pr2 Ru4 O18'
_cell_volume   470.83709131
_cell_formula_units_Z   2
loop_
 _symmetry_equiv_pos_site_id
 _symmetry_equiv_pos_as_xyz
  1  'x, y, z'
loop_
 _atom_site_type_symbol
 _atom_site_label
 _atom_site_symmetry_multiplicity
 _atom_site_fract_x
 _atom_site_fract_y
 _atom_site_fract_z
 _atom_site_occupancy
  O  O0  1  0.17830275  0.82169725  0.09396772  1
  O  O1  1  0.17830275  0.35660550  0.09396772  1
  O  O2  1  0.64339450  0.82169725  0.09396772  1
  O  O3  1  0.35660550  0.17830275  0.59396772  1
  O  O4  1  0.82169725  0.64339450  0.90603228  1
  O  O5  1  0.82169725  0.17830275  0.59396772  1
  O  O6  1  0.82169725  0.64339450  0.59396772  1
  O  O7  1  0.17830275  0.82169725  0.40603228  1
  O  O8  1  0.64339450  0.82169725  0.40603228  1
  O  O9  1  0.35660550  0.17830275  0.90603228  1
  O  O10  1  0.82169725  0.17830275  0.90603228  1
  O  O11  1  0.17830275  0.35660550  0.40603228  1
  O  O12  1  0.49122522  0.98245044  0.25000000  1
  O  O13  1  0.50877478  0.49122522  0.75000000  1
  O  O14  1  0.98245044  0.49122522  0.75000000  1
  O  O15  1  0.01754956  0.50877478  0.25000000  1
  O  O16  1  0.49122522  0.50877478  0.25000000  1
  O  O17  1  0.50877478  0.01754956  0.75000000  1
  Ru  Ru18  1  0.33333333  0.66666667  0.33309255  1
  Ru  Ru19  1  0.66666667  0.33333333  0.83309255  1
  Ru  Ru20  1  0.66666667  0.33333333  0.66690745  1
  Ru  Ru21  1  0.33333333  0.66666667  0.16690745  1
  Ba  Ba22  1  0.33333333  0.66666667  0.60553160  1
  Ba  Ba23  1  0.00000000  0.00000000  0.25000000  1
  Ba  Ba24  1  0.66666667  0.33333333  0.39446840  1
  Ba  Ba25  1  0.66666667  0.33333333  0.10553160  1
  Ba  Ba26  1  0.33333333  0.66666667  0.89446840  1
  Ba  Ba27  1  0.00000000  0.00000000  0.75000000  1
  Pr  Pr28  1  0.00000000  0.00000000  0.50000000  1
  Pr  Pr29  1  0.00000000  0.00000000  0.00000000  1
