# generated using pymatgen
data_EuNi5As3
_symmetry_space_group_name_H-M   'P 1'
_cell_length_a   3.73865084
_cell_length_b   6.38025639
_cell_length_c   11.85014143
_cell_angle_alpha   90.00000000
_cell_angle_beta   90.00000000
_cell_angle_gamma   107.03680478
_symmetry_Int_Tables_number   1
_chemical_formula_structural   EuNi5As3
_chemical_formula_sum   'Eu2 Ni10 As6'
_cell_volume   270.26356335
_cell_formula_units_Z   2
loop_
 _symmetry_equiv_pos_site_id
 _symmetry_equiv_pos_as_xyz
  1  'x, y, z'
loop_
 _atom_site_type_symbol
 _atom_site_label
 _atom_site_symmetry_multiplicity
 _atom_site_fract_x
 _atom_site_fract_y
 _atom_site_fract_z
 _atom_site_occupancy
  Ni  Ni0  1  0.80617044  0.61234087  0.93347537  1
  Ni  Ni1  1  0.19382956  0.38765913  0.43347537  1
  Ni  Ni2  1  0.00000000  0.00000000  0.00000000  1
  Ni  Ni3  1  0.00000000  0.00000000  0.50000000  1
  Ni  Ni4  1  0.45028384  0.90056769  0.64456760  1
  Ni  Ni5  1  0.54971616  0.09943231  0.35543240  1
  Ni  Ni6  1  0.54971616  0.09943231  0.14456760  1
  Ni  Ni7  1  0.80617044  0.61234087  0.56652463  1
  Ni  Ni8  1  0.19382956  0.38765913  0.06652463  1
  Ni  Ni9  1  0.45028384  0.90056769  0.85543240  1
  As  As10  1  0.37948295  0.75896589  0.45608329  1
  As  As11  1  0.88420236  0.76840472  0.75000000  1
  As  As12  1  0.37948295  0.75896589  0.04391671  1
  As  As13  1  0.62051705  0.24103411  0.95608329  1
  As  As14  1  0.11579764  0.23159528  0.25000000  1
  As  As15  1  0.62051705  0.24103411  0.54391671  1
  Eu  Eu16  1  0.83705859  0.67411718  0.25000000  1
  Eu  Eu17  1  0.16294141  0.32588282  0.75000000  1
