# generated using pymatgen
data_K3Na2SnP3
_symmetry_space_group_name_H-M   'P 1'
_cell_length_a   6.71315418
_cell_length_b   10.60505979
_cell_length_c   15.15119137
_cell_angle_alpha   90.00000000
_cell_angle_beta   90.00000000
_cell_angle_gamma   108.45182215
_symmetry_Int_Tables_number   1
_chemical_formula_structural   K3Na2SnP3
_chemical_formula_sum   'K12 Na8 Sn4 P12'
_cell_volume   1023.21082958
_cell_formula_units_Z   4
loop_
 _symmetry_equiv_pos_site_id
 _symmetry_equiv_pos_as_xyz
  1  'x, y, z'
loop_
 _atom_site_type_symbol
 _atom_site_label
 _atom_site_symmetry_multiplicity
 _atom_site_fract_x
 _atom_site_fract_y
 _atom_site_fract_z
 _atom_site_occupancy
  Na  Na0  1  0.08082461  0.16164922  0.00000000  1
  Na  Na1  1  0.41917539  0.83835078  0.50000000  1
  Na  Na2  1  0.91917539  0.83835078  0.00000000  1
  Na  Na3  1  0.58082461  0.16164922  0.50000000  1
  Na  Na4  1  0.24480736  0.48961472  0.00000000  1
  Na  Na5  1  0.25519264  0.51038528  0.50000000  1
  Na  Na6  1  0.75519264  0.51038528  0.00000000  1
  Na  Na7  1  0.74480736  0.48961472  0.50000000  1
  P  P8  1  0.56148807  0.68452212  0.89642449  1
  P  P9  1  0.12303405  0.68452212  0.10357551  1
  P  P10  1  0.93851193  0.31547788  0.39642449  1
  P  P11  1  0.62303405  0.68452212  0.39642449  1
  P  P12  1  0.43851193  0.31547788  0.10357551  1
  P  P13  1  0.87696595  0.31547788  0.89642449  1
  P  P14  1  0.06148807  0.68452212  0.60357551  1
  P  P15  1  0.20337551  0.00000000  0.40756099  1
  P  P16  1  0.70337551  0.00000000  0.09243901  1
  P  P17  1  0.29662449  0.00000000  0.90756099  1
  P  P18  1  0.37696595  0.31547788  0.60357551  1
  P  P19  1  0.79662449  0.00000000  0.59243901  1
  K  K20  1  0.43670650  0.33395847  0.32319135  1
  K  K21  1  0.74086559  0.00000000  0.31996803  1
  K  K22  1  0.24086559  0.00000000  0.18003197  1
  K  K23  1  0.75913441  0.00000000  0.81996803  1
  K  K24  1  0.60274804  0.66604153  0.17680865  1
  K  K25  1  0.89725196  0.33395847  0.67680865  1
  K  K26  1  0.06329350  0.66604153  0.82319135  1
  K  K27  1  0.39725196  0.33395847  0.82319135  1
  K  K28  1  0.56329350  0.66604153  0.67680865  1
  K  K29  1  0.10274804  0.66604153  0.32319135  1
  K  K30  1  0.93670650  0.33395847  0.17680865  1
  K  K31  1  0.25913441  0.00000000  0.68003197  1
  Sn  Sn32  1  0.91184953  0.82369906  0.50000000  1
  Sn  Sn33  1  0.58815047  0.17630094  0.00000000  1
  Sn  Sn34  1  0.08815047  0.17630094  0.50000000  1
  Sn  Sn35  1  0.41184953  0.82369906  0.00000000  1
