# generated using pymatgen
data_Na5GeAs3
_symmetry_space_group_name_H-M   'P 1'
_cell_length_a   7.62077642
_cell_length_b   8.40329800
_cell_length_c   13.56794226
_cell_angle_alpha   90.02374228
_cell_angle_beta   90.00000000
_cell_angle_gamma   90.00000000
_symmetry_Int_Tables_number   1
_chemical_formula_structural   Na5GeAs3
_chemical_formula_sum   'Na20 Ge4 As12'
_cell_volume   868.88626973
_cell_formula_units_Z   4
loop_
 _symmetry_equiv_pos_site_id
 _symmetry_equiv_pos_as_xyz
  1  'x, y, z'
loop_
 _atom_site_type_symbol
 _atom_site_label
 _atom_site_symmetry_multiplicity
 _atom_site_fract_x
 _atom_site_fract_y
 _atom_site_fract_z
 _atom_site_occupancy
  Na  Na0  1  0.50576699  0.67526558  0.75736886  1
  Na  Na1  1  0.00576699  0.82473442  0.74263114  1
  Na  Na2  1  0.49423301  0.32473442  0.24263114  1
  Na  Na3  1  0.99423301  0.17526558  0.25736886  1
  Na  Na4  1  0.96310813  0.17036930  0.58588920  1
  Na  Na5  1  0.46310813  0.32963070  0.91411080  1
  Na  Na6  1  0.03689187  0.82963070  0.41411080  1
  Na  Na7  1  0.53689187  0.67036930  0.08588920  1
  Na  Na8  1  0.48005090  0.32675725  0.58610320  1
  Na  Na9  1  0.98005090  0.17324275  0.91389680  1
  Na  Na10  1  0.51994910  0.67324275  0.41389680  1
  Na  Na11  1  0.01994910  0.82675725  0.08610320  1
  Na  Na12  1  0.33756107  0.92343582  0.91873970  1
  Na  Na13  1  0.83756107  0.57656418  0.58126030  1
  Na  Na14  1  0.66243893  0.07656418  0.08126030  1
  Na  Na15  1  0.16243893  0.42343582  0.41873970  1
  Na  Na16  1  0.14563572  0.42764457  0.74242445  1
  Na  Na17  1  0.64563572  0.07235543  0.75757555  1
  Na  Na18  1  0.85436428  0.57235543  0.25757555  1
  Na  Na19  1  0.35436428  0.92764457  0.24242445  1
  Ge  Ge20  1  0.14321990  0.43019967  0.08777032  1
  Ge  Ge21  1  0.64321990  0.06980033  0.41222968  1
  Ge  Ge22  1  0.85678010  0.56980033  0.91222968  1
  Ge  Ge23  1  0.35678010  0.93019967  0.58777032  1
  As  As24  1  0.23477246  0.65489931  0.58229488  1
  As  As25  1  0.73477246  0.84510069  0.91770512  1
  As  As26  1  0.76522754  0.34510069  0.41770512  1
  As  As27  1  0.26522754  0.15489931  0.08229488  1
  As  As28  1  0.25974241  0.09137636  0.73036903  1
  As  As29  1  0.75974241  0.40862364  0.76963097  1
  As  As30  1  0.74025759  0.90862364  0.26963097  1
  As  As31  1  0.24025759  0.59137636  0.23036903  1
  As  As32  1  0.19065835  0.59219290  0.93303940  1
  As  As33  1  0.69065835  0.90780710  0.56696060  1
  As  As34  1  0.80934165  0.40780710  0.06696060  1
  As  As35  1  0.30934165  0.09219290  0.43303940  1
