# generated using pymatgen
data_CaTi4(PO4)6
_symmetry_space_group_name_H-M   'P 1'
_cell_length_a   8.87169715
_cell_length_b   8.87169714
_cell_length_c   8.87169714
_cell_angle_alpha   57.70203526
_cell_angle_beta   57.70203529
_cell_angle_gamma   57.70203526
_symmetry_Int_Tables_number   1
_chemical_formula_structural   CaTi4(PO4)6
_chemical_formula_sum   'Ca1 Ti4 P6 O24'
_cell_volume   467.67966760
_cell_formula_units_Z   1
loop_
 _symmetry_equiv_pos_site_id
 _symmetry_equiv_pos_as_xyz
  1  'x, y, z'
loop_
 _atom_site_type_symbol
 _atom_site_label
 _atom_site_symmetry_multiplicity
 _atom_site_fract_x
 _atom_site_fract_y
 _atom_site_fract_z
 _atom_site_occupancy
  O  O0  1  0.56321829  0.46143632  0.19731795  1
  O  O1  1  0.46143632  0.19731795  0.56321829  1
  O  O2  1  0.19731795  0.56321829  0.46143632  1
  O  O3  1  0.43678171  0.53856368  0.80268205  1
  O  O4  1  0.53856368  0.80268205  0.43678171  1
  O  O5  1  0.80268205  0.43678171  0.53856368  1
  O  O6  1  0.91750795  0.08945820  0.73480888  1
  O  O7  1  0.08945820  0.73480888  0.91750795  1
  O  O8  1  0.73480888  0.91750795  0.08945820  1
  O  O9  1  0.08249205  0.91054180  0.26519112  1
  O  O10  1  0.91054180  0.26519112  0.08249205  1
  O  O11  1  0.37866541  0.00463597  0.19659518  1
  O  O12  1  0.19659518  0.37866541  0.00463597  1
  O  O13  1  0.00463597  0.19659518  0.37866541  1
  O  O14  1  0.62133459  0.99536403  0.80340482  1
  O  O15  1  0.80340482  0.62133459  0.99536403  1
  O  O16  1  0.99536403  0.80340482  0.62133459  1
  O  O17  1  0.74578060  0.48504310  0.84877279  1
  O  O18  1  0.84877279  0.74578060  0.48504310  1
  O  O19  1  0.48504310  0.84877279  0.74578060  1
  O  O20  1  0.25421940  0.51495690  0.15122721  1
  O  O21  1  0.15122721  0.25421940  0.51495690  1
  O  O22  1  0.51495690  0.15122721  0.25421940  1
  O  O23  1  0.26519112  0.08249205  0.91054180  1
  P  P24  1  0.02994273  0.75305413  0.46000368  1
  P  P25  1  0.75305413  0.46000368  0.02994273  1
  P  P26  1  0.46000368  0.02994273  0.75305413  1
  P  P27  1  0.97005727  0.24694587  0.53999632  1
  P  P28  1  0.24694587  0.53999632  0.97005727  1
  P  P29  1  0.53999632  0.97005727  0.24694587  1
  Ca  Ca30  1  0.00000000  0.00000000  0.00000000  1
  Ti  Ti31  1  0.63999083  0.63999083  0.63999083  1
  Ti  Ti32  1  0.85157019  0.85157019  0.85157019  1
  Ti  Ti33  1  0.14842981  0.14842981  0.14842981  1
  Ti  Ti34  1  0.36000917  0.36000917  0.36000917  1
