# generated using pymatgen
data_TbAlNi
_symmetry_space_group_name_H-M   'P 1'
_cell_length_a   5.32333156
_cell_length_b   5.37616359
_cell_length_c   8.45595185
_cell_angle_alpha   90.00000000
_cell_angle_beta   90.00000000
_cell_angle_gamma   120.32658281
_symmetry_Int_Tables_number   1
_chemical_formula_structural   TbAlNi
_chemical_formula_sum   'Tb4 Al4 Ni4'
_cell_volume   208.88655792
_cell_formula_units_Z   4
loop_
 _symmetry_equiv_pos_site_id
 _symmetry_equiv_pos_as_xyz
  1  'x, y, z'
loop_
 _atom_site_type_symbol
 _atom_site_label
 _atom_site_symmetry_multiplicity
 _atom_site_fract_x
 _atom_site_fract_y
 _atom_site_fract_z
 _atom_site_occupancy
  Tb  Tb0  1  0.66548909  0.33273092  0.54440219  1
  Tb  Tb1  1  0.33999121  0.66998252  0.42526214  1
  Tb  Tb2  1  0.33999121  0.66998252  0.07473786  1
  Tb  Tb3  1  0.66548909  0.33273092  0.95559781  1
  Al  Al4  1  0.99216547  0.99606125  0.48902647  1
  Al  Al5  1  0.99216547  0.99606125  0.01097353  1
  Al  Al6  1  0.17273751  0.34021499  0.75000000  1
  Al  Al7  1  0.17272341  0.83250438  0.75000000  1
  Ni  Ni8  1  0.66302428  0.83150946  0.75000000  1
  Ni  Ni9  1  0.83234534  0.66486355  0.25000000  1
  Ni  Ni10  1  0.83227996  0.16754336  0.25000000  1
  Ni  Ni11  1  0.33159796  0.16581488  0.25000000  1
