# generated using pymatgen
data_BaTiOF4
_symmetry_space_group_name_H-M   'P 1'
_cell_length_a   5.30855979
_cell_length_b   5.60555008
_cell_length_c   13.91016489
_cell_angle_alpha   90.00000000
_cell_angle_beta   90.00000000
_cell_angle_gamma   90.00000000
_symmetry_Int_Tables_number   1
_chemical_formula_structural   BaTiOF4
_chemical_formula_sum   'Ba4 Ti4 O4 F16'
_cell_volume   413.93030948
_cell_formula_units_Z   4
loop_
 _symmetry_equiv_pos_site_id
 _symmetry_equiv_pos_as_xyz
  1  'x, y, z'
loop_
 _atom_site_type_symbol
 _atom_site_label
 _atom_site_symmetry_multiplicity
 _atom_site_fract_x
 _atom_site_fract_y
 _atom_site_fract_z
 _atom_site_occupancy
  O  O0  1  0.05290557  0.50000000  0.75000000  1
  O  O1  1  0.94709443  0.00000000  0.25000000  1
  O  O2  1  0.94709443  0.50000000  0.25000000  1
  O  O3  1  0.05290557  0.00000000  0.75000000  1
  F  F4  1  0.09725246  0.75000000  0.08794887  1
  F  F5  1  0.09725246  0.25000000  0.41205113  1
  F  F6  1  0.90274754  0.25000000  0.91205113  1
  F  F7  1  0.90274754  0.75000000  0.58794887  1
  F  F8  1  0.32040869  0.51495052  0.58126708  1
  F  F9  1  0.32040869  0.48504948  0.91873292  1
  F  F10  1  0.67959131  0.01495052  0.41873292  1
  F  F11  1  0.67959131  0.98504948  0.08126708  1
  F  F12  1  0.67959131  0.48504948  0.41873292  1
  F  F13  1  0.67959131  0.51495052  0.08126708  1
  F  F14  1  0.32040869  0.98504948  0.58126708  1
  F  F15  1  0.32040869  0.01495052  0.91873292  1
  F  F16  1  0.50539926  0.75000000  0.73538882  1
  F  F17  1  0.50539926  0.25000000  0.76461118  1
  F  F18  1  0.49460074  0.25000000  0.26461118  1
  F  F19  1  0.49460074  0.75000000  0.23538882  1
  Ti  Ti20  1  0.18683637  0.75000000  0.67699556  1
  Ti  Ti21  1  0.18683637  0.25000000  0.82300444  1
  Ti  Ti22  1  0.81316363  0.25000000  0.32300444  1
  Ti  Ti23  1  0.81316363  0.75000000  0.17699556  1
  Ba  Ba24  1  0.25148278  0.75000000  0.40631730  1
  Ba  Ba25  1  0.25148278  0.25000000  0.09368270  1
  Ba  Ba26  1  0.74851722  0.25000000  0.59368270  1
  Ba  Ba27  1  0.74851722  0.75000000  0.90631730  1
