# generated using pymatgen
data_Rb3PS4
_symmetry_space_group_name_H-M   'P 1'
_cell_length_a   9.52946526
_cell_length_b   9.44845874
_cell_length_c   11.16653785
_cell_angle_alpha   90.00000000
_cell_angle_beta   90.00000000
_cell_angle_gamma   90.00000000
_symmetry_Int_Tables_number   1
_chemical_formula_structural   Rb3PS4
_chemical_formula_sum   'Rb12 P4 S16'
_cell_volume   1005.42121395
_cell_formula_units_Z   4
loop_
 _symmetry_equiv_pos_site_id
 _symmetry_equiv_pos_as_xyz
  1  'x, y, z'
loop_
 _atom_site_type_symbol
 _atom_site_label
 _atom_site_symmetry_multiplicity
 _atom_site_fract_x
 _atom_site_fract_y
 _atom_site_fract_z
 _atom_site_occupancy
  P  P0  1  0.48198340  0.77579099  0.75000000  1
  P  P1  1  0.98198340  0.72420901  0.25000000  1
  P  P2  1  0.01801660  0.27579099  0.75000000  1
  P  P3  1  0.51801660  0.22420901  0.25000000  1
  S  S4  1  0.26617146  0.79526717  0.75000000  1
  S  S5  1  0.76617146  0.70473283  0.25000000  1
  S  S6  1  0.23382854  0.29526717  0.75000000  1
  S  S7  1  0.73382854  0.20473283  0.25000000  1
  S  S8  1  0.45781841  0.33066906  0.40264675  1
  S  S9  1  0.95781841  0.16933094  0.59735325  1
  S  S10  1  0.04218159  0.83066906  0.09735325  1
  S  S11  1  0.54218159  0.66933094  0.90264675  1
  S  S12  1  0.42666961  0.02527355  0.25000000  1
  S  S13  1  0.92666961  0.47472645  0.75000000  1
  S  S14  1  0.07333039  0.52527355  0.25000000  1
  S  S15  1  0.57333039  0.97472645  0.75000000  1
  S  S16  1  0.45781841  0.33066906  0.09735325  1
  S  S17  1  0.95781841  0.16933094  0.90264675  1
  S  S18  1  0.04218159  0.83066906  0.40264675  1
  S  S19  1  0.54218159  0.66933094  0.59735325  1
  Rb  Rb20  1  0.91724393  0.85225112  0.75000000  1
  Rb  Rb21  1  0.41724393  0.64774888  0.25000000  1
  Rb  Rb22  1  0.58275607  0.35225112  0.75000000  1
  Rb  Rb23  1  0.08275607  0.14774888  0.25000000  1
  Rb  Rb24  1  0.29520613  0.04623194  0.95672418  1
  Rb  Rb25  1  0.79520613  0.45376806  0.04327582  1
  Rb  Rb26  1  0.20479387  0.54623194  0.54327582  1
  Rb  Rb27  1  0.70479387  0.95376806  0.45672418  1
  Rb  Rb28  1  0.70479387  0.95376806  0.04327582  1
  Rb  Rb29  1  0.20479387  0.54623194  0.95672418  1
  Rb  Rb30  1  0.79520613  0.45376806  0.45672418  1
  Rb  Rb31  1  0.29520613  0.04623194  0.54327582  1
