# generated using pymatgen
data_Sr2Sb3
_symmetry_space_group_name_H-M   'P 1'
_cell_length_a   6.73909312
_cell_length_b   13.11468907
_cell_length_c   15.34786901
_cell_angle_alpha   90.00000000
_cell_angle_beta   90.03977307
_cell_angle_gamma   90.00000000
_symmetry_Int_Tables_number   1
_chemical_formula_structural   Sr2Sb3
_chemical_formula_sum   'Sr16 Sb24'
_cell_volume   1356.46138506
_cell_formula_units_Z   8
loop_
 _symmetry_equiv_pos_site_id
 _symmetry_equiv_pos_as_xyz
  1  'x, y, z'
loop_
 _atom_site_type_symbol
 _atom_site_label
 _atom_site_symmetry_multiplicity
 _atom_site_fract_x
 _atom_site_fract_y
 _atom_site_fract_z
 _atom_site_occupancy
  Sr  Sr0  1  0.74624597  0.12390145  0.99644592  1
  Sr  Sr1  1  0.25375403  0.62390145  0.50355408  1
  Sr  Sr2  1  0.25375403  0.87609855  0.00355408  1
  Sr  Sr3  1  0.74624597  0.37609855  0.49644592  1
  Sr  Sr4  1  0.24691166  0.12698383  0.49595890  1
  Sr  Sr5  1  0.75308834  0.62698383  0.00404110  1
  Sr  Sr6  1  0.75308834  0.87301617  0.50404110  1
  Sr  Sr7  1  0.24691166  0.37301617  0.99595890  1
  Sr  Sr8  1  0.00584926  0.27860298  0.24431604  1
  Sr  Sr9  1  0.99415074  0.77860298  0.25568396  1
  Sr  Sr10  1  0.99415074  0.72139702  0.75568396  1
  Sr  Sr11  1  0.00584926  0.22139702  0.74431604  1
  Sr  Sr12  1  0.50739142  0.47142771  0.25248383  1
  Sr  Sr13  1  0.49260858  0.97142771  0.24751617  1
  Sr  Sr14  1  0.49260858  0.52857229  0.74751617  1
  Sr  Sr15  1  0.50739142  0.02857229  0.75248383  1
  Sb  Sb16  1  0.73719788  0.36851270  0.07169742  1
  Sb  Sb17  1  0.26280212  0.86851270  0.42830258  1
  Sb  Sb18  1  0.26280212  0.63148730  0.92830258  1
  Sb  Sb19  1  0.73719788  0.13148730  0.57169742  1
  Sb  Sb20  1  0.46461626  0.22145417  0.15930529  1
  Sb  Sb21  1  0.53538374  0.72145417  0.34069471  1
  Sb  Sb22  1  0.53538374  0.77854583  0.84069471  1
  Sb  Sb23  1  0.46461626  0.27854583  0.65930529  1
  Sb  Sb24  1  0.58039528  0.20461226  0.34317062  1
  Sb  Sb25  1  0.41960472  0.70461226  0.15682938  1
  Sb  Sb26  1  0.41960472  0.79538774  0.65682938  1
  Sb  Sb27  1  0.58039528  0.29538774  0.84317062  1
  Sb  Sb28  1  0.91520757  0.04527731  0.34588409  1
  Sb  Sb29  1  0.08479243  0.54527731  0.15411591  1
  Sb  Sb30  1  0.08479243  0.95472269  0.65411591  1
  Sb  Sb31  1  0.91520757  0.45472269  0.84588409  1
  Sb  Sb32  1  0.03403723  0.03122940  0.16200909  1
  Sb  Sb33  1  0.96596277  0.53122940  0.33799091  1
  Sb  Sb34  1  0.96596277  0.96877060  0.83799091  1
  Sb  Sb35  1  0.03403723  0.46877060  0.66200909  1
  Sb  Sb36  1  0.23565214  0.38333547  0.42344198  1
  Sb  Sb37  1  0.76434786  0.88333547  0.07655802  1
  Sb  Sb38  1  0.76434786  0.61666453  0.57655802  1
  Sb  Sb39  1  0.23565214  0.11666453  0.92344198  1
