# generated using pymatgen
data_Rb2S5
_symmetry_space_group_name_H-M   'P 1'
_cell_length_a   6.79182086
_cell_length_b   6.85280614
_cell_length_c   19.31843307
_cell_angle_alpha   90.00000000
_cell_angle_beta   90.00000000
_cell_angle_gamma   90.00000000
_symmetry_Int_Tables_number   1
_chemical_formula_structural   Rb2S5
_chemical_formula_sum   'Rb8 S20'
_cell_volume   899.13844260
_cell_formula_units_Z   4
loop_
 _symmetry_equiv_pos_site_id
 _symmetry_equiv_pos_as_xyz
  1  'x, y, z'
loop_
 _atom_site_type_symbol
 _atom_site_label
 _atom_site_symmetry_multiplicity
 _atom_site_fract_x
 _atom_site_fract_y
 _atom_site_fract_z
 _atom_site_occupancy
  S  S0  1  0.53386606  0.70172642  0.14826478  1
  S  S1  1  0.03386606  0.79827358  0.85173522  1
  S  S2  1  0.46613394  0.20172642  0.35173522  1
  S  S3  1  0.96613394  0.29827358  0.64826478  1
  S  S4  1  0.24323678  0.62331124  0.13599836  1
  S  S5  1  0.74323678  0.87668876  0.86400164  1
  S  S6  1  0.75676322  0.12331124  0.36400164  1
  S  S7  1  0.25676322  0.37668876  0.63599836  1
  S  S8  1  0.59038090  0.91737188  0.54467568  1
  S  S9  1  0.09038090  0.58262812  0.45532432  1
  S  S10  1  0.40961910  0.41737188  0.95532432  1
  S  S11  1  0.90961910  0.08262812  0.04467568  1
  S  S12  1  0.43150660  0.90975727  0.63513324  1
  S  S13  1  0.93150660  0.59024273  0.36486676  1
  S  S14  1  0.56849340  0.40975727  0.86486676  1
  S  S15  1  0.06849340  0.09024273  0.13513324  1
  S  S16  1  0.44080597  0.17774941  0.68652768  1
  S  S17  1  0.94080597  0.32225059  0.31347232  1
  S  S18  1  0.55919403  0.67774941  0.81347232  1
  S  S19  1  0.05919403  0.82225059  0.18652768  1
  Rb  Rb20  1  0.41153688  0.70475357  0.32135875  1
  Rb  Rb21  1  0.91153688  0.79524643  0.67864125  1
  Rb  Rb22  1  0.58846312  0.20475357  0.17864125  1
  Rb  Rb23  1  0.08846312  0.29524643  0.82135875  1
  Rb  Rb24  1  0.86361116  0.57442096  0.00859940  1
  Rb  Rb25  1  0.36361116  0.92557904  0.99140060  1
  Rb  Rb26  1  0.13638884  0.07442096  0.49140060  1
  Rb  Rb27  1  0.63638884  0.42557904  0.50859940  1
