# generated using pymatgen
data_SrSbF5
_symmetry_space_group_name_H-M   'P 1'
_cell_length_a   4.47101656
_cell_length_b   8.98069263
_cell_length_c   11.40553868
_cell_angle_alpha   90.00000000
_cell_angle_beta   90.00000000
_cell_angle_gamma   90.00000000
_symmetry_Int_Tables_number   1
_chemical_formula_structural   SrSbF5
_chemical_formula_sum   'Sr4 Sb4 F20'
_cell_volume   457.96460400
_cell_formula_units_Z   4
loop_
 _symmetry_equiv_pos_site_id
 _symmetry_equiv_pos_as_xyz
  1  'x, y, z'
loop_
 _atom_site_type_symbol
 _atom_site_label
 _atom_site_symmetry_multiplicity
 _atom_site_fract_x
 _atom_site_fract_y
 _atom_site_fract_z
 _atom_site_occupancy
  F  F0  1  0.08391596  0.98676146  0.38645963  1
  F  F1  1  0.08391596  0.51323854  0.61354037  1
  F  F2  1  0.91608404  0.48676146  0.11354037  1
  F  F3  1  0.91608404  0.01323854  0.88645963  1
  F  F4  1  0.91608404  0.01323854  0.61354037  1
  F  F5  1  0.91608404  0.48676146  0.38645963  1
  F  F6  1  0.08391596  0.51323854  0.88645963  1
  F  F7  1  0.08391596  0.98676146  0.11354037  1
  F  F8  1  0.06431186  0.21426888  0.25000000  1
  F  F9  1  0.06431186  0.28573112  0.75000000  1
  F  F10  1  0.93568814  0.71426888  0.25000000  1
  F  F11  1  0.93568814  0.78573112  0.75000000  1
  F  F12  1  0.48564734  0.70285421  0.11126105  1
  F  F13  1  0.48564734  0.79714579  0.88873895  1
  F  F14  1  0.51435266  0.20285421  0.38873895  1
  F  F15  1  0.51435266  0.29714579  0.61126105  1
  F  F16  1  0.51435266  0.29714579  0.88873895  1
  F  F17  1  0.51435266  0.20285421  0.11126105  1
  F  F18  1  0.48564734  0.79714579  0.61126105  1
  F  F19  1  0.48564734  0.70285421  0.38873895  1
  Sr  Sr20  1  -0.00003793  0.25000000  0.00000000  1
  Sr  Sr21  1  1.00003793  0.75000000  0.50000000  1
  Sr  Sr22  1  1.00003793  0.75000000  0.00000000  1
  Sr  Sr23  1  -0.00003793  0.25000000  0.50000000  1
  Sb  Sb24  1  0.38015069  0.05695661  0.25000000  1
  Sb  Sb25  1  0.38015069  0.44304339  0.75000000  1
  Sb  Sb26  1  0.61984931  0.55695661  0.25000000  1
  Sb  Sb27  1  0.61984931  0.94304339  0.75000000  1
