# generated using pymatgen
data_RbEr2Cu3Se5
_symmetry_space_group_name_H-M   'P 1'
_cell_length_a   4.10842806
_cell_length_b   7.55391085
_cell_length_c   17.05048086
_cell_angle_alpha   90.00000000
_cell_angle_beta   90.00000000
_cell_angle_gamma   105.77976852
_symmetry_Int_Tables_number   1
_chemical_formula_structural   RbEr2Cu3Se5
_chemical_formula_sum   'Rb2 Er4 Cu6 Se10'
_cell_volume   509.21479371
_cell_formula_units_Z   2
loop_
 _symmetry_equiv_pos_site_id
 _symmetry_equiv_pos_as_xyz
  1  'x, y, z'
loop_
 _atom_site_type_symbol
 _atom_site_label
 _atom_site_symmetry_multiplicity
 _atom_site_fract_x
 _atom_site_fract_y
 _atom_site_fract_z
 _atom_site_occupancy
  Cu  Cu0  1  0.08437926  0.16875852  0.02984785  1
  Cu  Cu1  1  0.91562074  0.83124148  0.97015215  1
  Cu  Cu2  1  0.91562074  0.83124148  0.52984785  1
  Cu  Cu3  1  0.08437926  0.16875852  0.47015215  1
  Cu  Cu4  1  0.84148015  0.68296030  0.25000000  1
  Cu  Cu5  1  0.15851985  0.31703970  0.75000000  1
  Se  Se6  1  0.06045994  0.12091988  0.88378584  1
  Se  Se7  1  0.93954006  0.87908012  0.11621416  1
  Se  Se8  1  0.93954006  0.87908012  0.38378584  1
  Se  Se9  1  0.06045994  0.12091988  0.61621416  1
  Se  Se10  1  0.74510603  0.49021205  0.75000000  1
  Se  Se11  1  0.25489397  0.50978795  0.25000000  1
  Se  Se12  1  0.33286354  0.66572708  0.92857137  1
  Se  Se13  1  0.66713646  0.33427292  0.07142863  1
  Se  Se14  1  0.66713646  0.33427292  0.42857137  1
  Se  Se15  1  0.33286354  0.66572708  0.57142863  1
  Rb  Rb16  1  0.56090702  0.12181405  0.25000000  1
  Rb  Rb17  1  0.43909298  0.87818595  0.75000000  1
  Er  Er18  1  0.30799037  0.61598074  0.09220689  1
  Er  Er19  1  0.69200963  0.38401926  0.90779311  1
  Er  Er20  1  0.69200963  0.38401926  0.59220689  1
  Er  Er21  1  0.30799037  0.61598074  0.40779311  1
