# generated using pymatgen
data_K2ZrGe2O7
_symmetry_space_group_name_H-M   'P 1'
_cell_length_a   5.64719731
_cell_length_b   5.79360091
_cell_length_c   13.18199912
_cell_angle_alpha   77.47667662
_cell_angle_beta   77.63133843
_cell_angle_gamma   60.83245878
_symmetry_Int_Tables_number   1
_chemical_formula_structural   K2ZrGe2O7
_chemical_formula_sum   'K4 Zr2 Ge4 O14'
_cell_volume   364.64448151
_cell_formula_units_Z   2
loop_
 _symmetry_equiv_pos_site_id
 _symmetry_equiv_pos_as_xyz
  1  'x, y, z'
loop_
 _atom_site_type_symbol
 _atom_site_label
 _atom_site_symmetry_multiplicity
 _atom_site_fract_x
 _atom_site_fract_y
 _atom_site_fract_z
 _atom_site_occupancy
  O  O0  1  0.81210209  0.30801282  0.95578915  1
  O  O1  1  0.32805424  0.37595762  0.87285585  1
  O  O2  1  0.42313228  0.87595762  0.37285585  1
  O  O3  1  0.67194576  0.62404238  0.12714415  1
  O  O4  1  0.86040263  0.25000000  0.75000000  1
  O  O5  1  0.13959737  0.75000000  0.25000000  1
  O  O6  1  0.21328259  0.14888369  0.10101526  1
  O  O7  1  0.46318154  0.35111631  0.39898474  1
  O  O8  1  0.07590406  0.19198718  0.54421085  1
  O  O9  1  0.53681846  0.64888369  0.60101526  1
  O  O10  1  0.18789791  0.69198718  0.04421085  1
  O  O11  1  0.92409594  0.80801282  0.45578915  1
  O  O12  1  0.78671741  0.85111631  0.89898474  1
  O  O13  1  0.57686772  0.12404238  0.62714415  1
  K  K14  1  0.64062611  0.11648237  0.17775869  1
  K  K15  1  0.93486716  0.38351763  0.32224131  1
  K  K16  1  0.35937389  0.88351763  0.82224131  1
  K  K17  1  0.06513284  0.61648237  0.67775869  1
  Ge  Ge18  1  0.75796885  0.30328577  0.62215315  1
  Ge  Ge19  1  0.31659224  0.80328577  0.12215315  1
  Ge  Ge20  1  0.24203115  0.69671423  0.37784685  1
  Ge  Ge21  1  0.68340776  0.19671423  0.87784685  1
  Zr  Zr22  1  0.50000000  0.00000000  0.50000000  1
  Zr  Zr23  1  0.00000000  0.50000000  0.00000000  1
