# generated using pymatgen
data_LaNi5P3
_symmetry_space_group_name_H-M   'P 1'
_cell_length_a   3.63261777
_cell_length_b   6.12340750
_cell_length_c   11.50333530
_cell_angle_alpha   90.00000000
_cell_angle_beta   90.00000000
_cell_angle_gamma   107.25454588
_symmetry_Int_Tables_number   1
_chemical_formula_structural   LaNi5P3
_chemical_formula_sum   'La2 Ni10 P6'
_cell_volume   244.36465198
_cell_formula_units_Z   2
loop_
 _symmetry_equiv_pos_site_id
 _symmetry_equiv_pos_as_xyz
  1  'x, y, z'
loop_
 _atom_site_type_symbol
 _atom_site_label
 _atom_site_symmetry_multiplicity
 _atom_site_fract_x
 _atom_site_fract_y
 _atom_site_fract_z
 _atom_site_occupancy
  P  P0  1  0.38322536  0.76645073  0.25000000  1
  P  P1  1  0.61677464  0.23354927  0.75000000  1
  P  P2  1  0.88217269  0.76434537  0.53890024  1
  P  P3  1  0.11782731  0.23565463  0.46109976  1
  P  P4  1  0.11782731  0.23565463  0.03890024  1
  P  P5  1  0.88217269  0.76434537  0.96109976  1
  Ni  Ni6  1  0.94870763  0.89741526  0.14538946  1
  Ni  Ni7  1  0.94870763  0.89741526  0.35461054  1
  Ni  Ni8  1  0.30121916  0.60243832  0.43146978  1
  Ni  Ni9  1  0.69878084  0.39756168  0.56853022  1
  Ni  Ni10  1  0.69878084  0.39756168  0.93146978  1
  Ni  Ni11  1  0.30121916  0.60243832  0.06853022  1
  Ni  Ni12  1  0.50000000  0.00000000  0.50000000  1
  Ni  Ni13  1  0.50000000  0.00000000  0.00000000  1
  Ni  Ni14  1  0.05129237  0.10258474  0.64538946  1
  Ni  Ni15  1  0.05129237  0.10258474  0.85461054  1
  La  La16  1  0.66188747  0.32377493  0.25000000  1
  La  La17  1  0.33811253  0.67622507  0.75000000  1
