# generated using pymatgen
data_NaTbGeO4
_symmetry_space_group_name_H-M   'P 1'
_cell_length_a   5.34247451
_cell_length_b   6.54042545
_cell_length_c   11.56776589
_cell_angle_alpha   90.00000000
_cell_angle_beta   90.00000000
_cell_angle_gamma   90.00000000
_symmetry_Int_Tables_number   1
_chemical_formula_structural   NaTbGeO4
_chemical_formula_sum   'Na4 Tb4 Ge4 O16'
_cell_volume   404.20152643
_cell_formula_units_Z   4
loop_
 _symmetry_equiv_pos_site_id
 _symmetry_equiv_pos_as_xyz
  1  'x, y, z'
loop_
 _atom_site_type_symbol
 _atom_site_label
 _atom_site_symmetry_multiplicity
 _atom_site_fract_x
 _atom_site_fract_y
 _atom_site_fract_z
 _atom_site_occupancy
  O  O0  1  0.82518779  0.75000000  0.04489374  1
  O  O1  1  0.32518779  0.25000000  0.45510626  1
  O  O2  1  0.17481221  0.25000000  0.95510626  1
  O  O3  1  0.67481221  0.75000000  0.54489374  1
  O  O4  1  0.20783658  0.04307643  0.17369898  1
  O  O5  1  0.70783658  0.95692357  0.32630102  1
  O  O6  1  0.79216342  0.54307643  0.82630102  1
  O  O7  1  0.29216342  0.45692357  0.67369898  1
  O  O8  1  0.79216342  0.95692357  0.82630102  1
  O  O9  1  0.29216342  0.04307643  0.67369898  1
  O  O10  1  0.20783658  0.45692357  0.17369898  1
  O  O11  1  0.70783658  0.54307643  0.32630102  1
  O  O12  1  0.22937668  0.75000000  0.38927226  1
  O  O13  1  0.72937668  0.25000000  0.11072774  1
  O  O14  1  0.77062332  0.25000000  0.61072774  1
  O  O15  1  0.27062332  0.75000000  0.88927226  1
  Na  Na16  1  0.50000000  0.00000000  0.00000000  1
  Na  Na17  1  0.00000000  0.00000000  0.50000000  1
  Na  Na18  1  0.50000000  0.50000000  0.00000000  1
  Na  Na19  1  0.00000000  0.50000000  0.50000000  1
  Ge  Ge20  1  0.94486532  0.75000000  0.90278421  1
  Ge  Ge21  1  0.44486532  0.25000000  0.59721579  1
  Ge  Ge22  1  0.05513468  0.25000000  0.09721579  1
  Ge  Ge23  1  0.55513468  0.75000000  0.40278421  1
  Tb  Tb24  1  0.99590881  0.75000000  0.22216200  1
  Tb  Tb25  1  0.49590881  0.25000000  0.27783800  1
  Tb  Tb26  1  0.00409119  0.25000000  0.77783800  1
  Tb  Tb27  1  0.50409119  0.75000000  0.72216200  1
