# generated using pymatgen
data_Th2Co17
_symmetry_space_group_name_H-M   'P 1'
_cell_length_a   6.31493169
_cell_length_b   6.31252870
_cell_length_c   6.31252870
_cell_angle_alpha   83.17107095
_cell_angle_beta   83.13251122
_cell_angle_gamma   83.13251122
_symmetry_Int_Tables_number   1
_chemical_formula_structural   Th2Co17
_chemical_formula_sum   'Th2 Co17'
_cell_volume   246.63892039
_cell_formula_units_Z   1
loop_
 _symmetry_equiv_pos_site_id
 _symmetry_equiv_pos_as_xyz
  1  'x, y, z'
loop_
 _atom_site_type_symbol
 _atom_site_label
 _atom_site_symmetry_multiplicity
 _atom_site_fract_x
 _atom_site_fract_y
 _atom_site_fract_z
 _atom_site_occupancy
  Th  Th0  1  0.65718935  0.15640633  0.15640633  1
  Th  Th1  1  0.34281065  0.84359367  0.84359367  1
  Co  Co2  1  0.50000000  0.50000000  0.50000000  1
  Co  Co3  1  0.00000000  0.50000000  0.00000000  1
  Co  Co4  1  0.00000000  0.00000000  0.50000000  1
  Co  Co5  1  0.00000000  0.21654158  0.78345842  1
  Co  Co6  1  0.00000000  0.78345842  0.21654158  1
  Co  Co7  1  0.14799542  0.15552095  0.15552095  1
  Co  Co8  1  0.85200458  0.84447905  0.84447905  1
  Co  Co9  1  0.90415549  0.40536448  0.40536448  1
  Co  Co10  1  0.09584451  0.59463552  0.59463552  1
  Co  Co11  1  0.71444261  0.50073441  0.78550855  1
  Co  Co12  1  0.71444261  0.78550855  0.50073441  1
  Co  Co13  1  0.28555739  0.49926559  0.21449145  1
  Co  Co14  1  0.28555739  0.21449145  0.49926559  1
  Co  Co15  1  0.65596568  0.64911152  0.15603608  1
  Co  Co16  1  0.65596568  0.15603608  0.64911152  1
  Co  Co17  1  0.34403432  0.35088848  0.84396392  1
  Co  Co18  1  0.34403432  0.84396392  0.35088848  1
