# generated using pymatgen
data_Na3Sc2(PO4)3
_symmetry_space_group_name_H-M   'P 1'
_cell_length_a   8.99237146
_cell_length_b   8.99237146
_cell_length_c   9.22010245
_cell_angle_alpha   61.55081358
_cell_angle_beta   61.55081360
_cell_angle_gamma   60.21585467
_symmetry_Int_Tables_number   1
_chemical_formula_structural   Na3Sc2(PO4)3
_chemical_formula_sum   'Na6 Sc4 P6 O24'
_cell_volume   540.12715651
_cell_formula_units_Z   2
loop_
 _symmetry_equiv_pos_site_id
 _symmetry_equiv_pos_as_xyz
  1  'x, y, z'
loop_
 _atom_site_type_symbol
 _atom_site_label
 _atom_site_symmetry_multiplicity
 _atom_site_fract_x
 _atom_site_fract_y
 _atom_site_fract_z
 _atom_site_occupancy
  O  O0  1  0.78016803  0.05764318  0.73528763  1
  O  O1  1  0.05764318  0.78016803  0.23528763  1
  O  O2  1  0.22448987  0.92279686  0.25781540  1
  O  O3  1  0.92279686  0.22448987  0.75781540  1
  O  O4  1  0.37518801  0.74066864  0.93413051  1
  O  O5  1  0.74066864  0.37518801  0.43413051  1
  O  O6  1  0.62770076  0.26095605  0.06487632  1
  O  O7  1  0.26095605  0.62770076  0.56487632  1
  O  O8  1  0.48500156  0.75186454  0.61853316  1
  O  O9  1  0.75186454  0.48500156  0.11853316  1
  O  O10  1  0.51309528  0.25744271  0.37676119  1
  O  O11  1  0.25744271  0.51309528  0.87676119  1
  O  O12  1  0.56885058  0.92531984  0.70600683  1
  O  O13  1  0.92531984  0.56885058  0.20600683  1
  O  O14  1  0.44176310  0.07120813  0.29538634  1
  O  O15  1  0.07120813  0.44176310  0.79538634  1
  O  O16  1  0.70660647  0.58608708  0.78196608  1
  O  O17  1  0.58608708  0.70660647  0.28196608  1
  O  O18  1  0.29301622  0.41350491  0.21677949  1
  O  O19  1  0.41350491  0.29301622  0.71677949  1
  O  O20  1  0.98963830  0.88349446  0.91328535  1
  O  O21  1  0.88349446  0.98963830  0.41328535  1
  O  O22  1  0.01131471  0.11366120  0.08348209  1
  O  O23  1  0.11366120  0.01131471  0.58348209  1
  Na  Na24  1  0.04061207  0.33730675  0.44004937  1
  Na  Na25  1  0.33730675  0.04061207  0.94004937  1
  Na  Na26  1  0.60395634  0.38256958  0.76447960  1
  Na  Na27  1  0.38256958  0.60395634  0.26447960  1
  Na  Na28  1  0.90298841  0.75393009  0.67874759  1
  Na  Na29  1  0.75393009  0.90298841  0.17874759  1
  P  P30  1  0.53238309  0.75208010  0.75858923  1
  P  P31  1  0.75208010  0.53238309  0.25858923  1
  P  P32  1  0.46905298  0.25006845  0.23779156  1
  P  P33  1  0.25006845  0.46905298  0.73779156  1
  P  P34  1  0.95320364  0.04222873  0.74935364  1
  P  P35  1  0.04222873  0.95320364  0.24935364  1
  Sc  Sc36  1  0.85451019  0.34845280  0.94452542  1
  Sc  Sc37  1  0.34845280  0.85451019  0.44452542  1
  Sc  Sc38  1  0.15498400  0.64939229  0.04735321  1
  Sc  Sc39  1  0.64939229  0.15498400  0.54735321  1
