# generated using pymatgen
data_Na6Si2Se7
_symmetry_space_group_name_H-M   'P 1'
_cell_length_a   7.24008704
_cell_length_b   7.24008703
_cell_length_c   15.98160255
_cell_angle_alpha   99.56159347
_cell_angle_beta   99.56159345
_cell_angle_gamma   98.14542612
_symmetry_Int_Tables_number   1
_chemical_formula_structural   Na6Si2Se7
_chemical_formula_sum   'Na12 Si4 Se14'
_cell_volume   802.18449793
_cell_formula_units_Z   2
loop_
 _symmetry_equiv_pos_site_id
 _symmetry_equiv_pos_as_xyz
  1  'x, y, z'
loop_
 _atom_site_type_symbol
 _atom_site_label
 _atom_site_symmetry_multiplicity
 _atom_site_fract_x
 _atom_site_fract_y
 _atom_site_fract_z
 _atom_site_occupancy
  Na  Na0  1  0.58154646  0.41845354  0.25000000  1
  Na  Na1  1  0.41845354  0.58154646  0.75000000  1
  Na  Na2  1  0.50000000  0.50000000  0.50000000  1
  Na  Na3  1  0.50000000  0.50000000  0.00000000  1
  Na  Na4  1  0.02853319  0.73284208  0.42858576  1
  Na  Na5  1  0.26715792  0.97146681  0.07141424  1
  Na  Na6  1  0.97146681  0.26715792  0.57141424  1
  Na  Na7  1  0.73284208  0.02853319  0.92858576  1
  Na  Na8  1  0.04490821  0.48868776  0.14211011  1
  Na  Na9  1  0.51131224  0.95509179  0.35788989  1
  Na  Na10  1  0.95509179  0.51131224  0.85788989  1
  Na  Na11  1  0.48868776  0.04490821  0.64211011  1
  Si  Si12  1  0.07686257  0.23615743  0.35922230  1
  Si  Si13  1  0.76384257  0.92313743  0.14077770  1
  Si  Si14  1  0.23615743  0.07686257  0.85922230  1
  Si  Si15  1  0.92313743  0.76384257  0.64077770  1
  Se  Se16  1  0.03603193  0.96396807  0.25000000  1
  Se  Se17  1  0.96396807  0.03603193  0.75000000  1
  Se  Se18  1  0.79991577  0.30872484  0.39376460  1
  Se  Se19  1  0.69127516  0.20008423  0.10623540  1
  Se  Se20  1  0.20008423  0.69127516  0.60623540  1
  Se  Se21  1  0.30872484  0.79991577  0.89376460  1
  Se  Se22  1  0.25924074  0.12981080  0.46715194  1
  Se  Se23  1  0.87018920  0.74075926  0.03284806  1
  Se  Se24  1  0.74075926  0.87018920  0.53284806  1
  Se  Se25  1  0.12981080  0.25924074  0.96715194  1
  Se  Se26  1  0.24409484  0.49147931  0.32109626  1
  Se  Se27  1  0.50852069  0.75590516  0.17890374  1
  Se  Se28  1  0.75590516  0.50852069  0.67890374  1
  Se  Se29  1  0.49147931  0.24409484  0.82109626  1
