# generated using pymatgen
data_Ba2Sb3
_symmetry_space_group_name_H-M   'P 1'
_cell_length_a   7.03669922
_cell_length_b   13.69382774
_cell_length_c   16.02292127
_cell_angle_alpha   90.00000000
_cell_angle_beta   90.15136782
_cell_angle_gamma   90.00000000
_symmetry_Int_Tables_number   1
_chemical_formula_structural   Ba2Sb3
_chemical_formula_sum   'Ba16 Sb24'
_cell_volume   1543.95284219
_cell_formula_units_Z   8
loop_
 _symmetry_equiv_pos_site_id
 _symmetry_equiv_pos_as_xyz
  1  'x, y, z'
loop_
 _atom_site_type_symbol
 _atom_site_label
 _atom_site_symmetry_multiplicity
 _atom_site_fract_x
 _atom_site_fract_y
 _atom_site_fract_z
 _atom_site_occupancy
  Sb  Sb0  1  0.24400319  0.38319833  0.41908508  1
  Sb  Sb1  1  0.75599681  0.88319833  0.08091492  1
  Sb  Sb2  1  0.75599681  0.61680167  0.58091492  1
  Sb  Sb3  1  0.24400319  0.11680167  0.91908508  1
  Sb  Sb4  1  0.00149657  0.01959097  0.16935021  1
  Sb  Sb5  1  0.99850343  0.51959097  0.33064979  1
  Sb  Sb6  1  0.99850343  0.98040903  0.83064979  1
  Sb  Sb7  1  0.00149657  0.48040903  0.66935021  1
  Sb  Sb8  1  0.89928803  0.45132135  0.84420377  1
  Sb  Sb9  1  0.10071197  0.95132135  0.65579623  1
  Sb  Sb10  1  0.10071197  0.54867865  0.15579623  1
  Sb  Sb11  1  0.89928803  0.04867865  0.34420377  1
  Sb  Sb12  1  0.58905577  0.20678925  0.33742001  1
  Sb  Sb13  1  0.41094423  0.70678925  0.16257999  1
  Sb  Sb14  1  0.41094423  0.79321075  0.66257999  1
  Sb  Sb15  1  0.58905577  0.29321075  0.83742001  1
  Sb  Sb16  1  0.74283349  0.36717694  0.07032116  1
  Sb  Sb17  1  0.25716651  0.86717694  0.42967884  1
  Sb  Sb18  1  0.25716651  0.63282306  0.92967884  1
  Sb  Sb19  1  0.74283349  0.13282306  0.57032116  1
  Sb  Sb20  1  0.49447315  0.23077469  0.16056968  1
  Sb  Sb21  1  0.50552685  0.73077469  0.33943032  1
  Sb  Sb22  1  0.50552685  0.76922531  0.83943032  1
  Sb  Sb23  1  0.49447315  0.26922531  0.66056968  1
  Ba  Ba24  1  0.52447572  0.47681136  0.25387507  1
  Ba  Ba25  1  0.47552428  0.97681136  0.24612493  1
  Ba  Ba26  1  0.47552428  0.52318864  0.74612493  1
  Ba  Ba27  1  0.52447572  0.02318864  0.75387507  1
  Ba  Ba28  1  0.02164311  0.22777689  0.73952818  1
  Ba  Ba29  1  0.97835689  0.72777689  0.76047182  1
  Ba  Ba30  1  0.97835689  0.77222311  0.26047182  1
  Ba  Ba31  1  0.02164311  0.27222311  0.23952818  1
  Ba  Ba32  1  0.25299880  0.12611771  0.49292307  1
  Ba  Ba33  1  0.74700120  0.62611771  0.00707693  1
  Ba  Ba34  1  0.74700120  0.87388229  0.50707693  1
  Ba  Ba35  1  0.25299880  0.37388229  0.99292307  1
  Ba  Ba36  1  0.75400555  0.37723650  0.49408808  1
  Ba  Ba37  1  0.24599445  0.87723650  0.00591192  1
  Ba  Ba38  1  0.24599445  0.62276350  0.50591192  1
  Ba  Ba39  1  0.75400555  0.12276350  0.99408808  1
