# generated using pymatgen
data_LaTm(Ge2Ir)2
_symmetry_space_group_name_H-M   'P 1'
_cell_length_a   4.35952630
_cell_length_b   8.93143576
_cell_length_c   9.53911635
_cell_angle_alpha   117.91417561
_cell_angle_beta   103.20923959
_cell_angle_gamma   90.00000000
_symmetry_Int_Tables_number   1
_chemical_formula_structural   LaTm(Ge2Ir)2
_chemical_formula_sum   'La2 Tm2 Ge8 Ir4'
_cell_volume   317.04406128
_cell_formula_units_Z   2
loop_
 _symmetry_equiv_pos_site_id
 _symmetry_equiv_pos_as_xyz
  1  'x, y, z'
loop_
 _atom_site_type_symbol
 _atom_site_label
 _atom_site_symmetry_multiplicity
 _atom_site_fract_x
 _atom_site_fract_y
 _atom_site_fract_z
 _atom_site_occupancy
  Ge  Ge0  1  0.20131582  0.04995180  0.40263165  1
  Ge  Ge1  1  0.79868418  0.95004820  0.59736835  1
  Ge  Ge2  1  0.79868434  0.64732049  0.59736868  1
  Ge  Ge3  1  0.20131566  0.35267951  0.40263132  1
  Ge  Ge4  1  0.42102240  0.92102248  0.84204480  1
  Ge  Ge5  1  0.42010583  0.42010589  0.84021166  1
  Ge  Ge6  1  0.57897760  0.07897752  0.15795520  1
  Ge  Ge7  1  0.57989417  0.57989411  0.15978834  1
  La  La8  1  0.00000002  0.26099691  0.00000003  1
  La  La9  1  0.99999998  0.73900309  0.99999997  1
  Tm  Tm10  1  0.79328443  0.29328461  0.58656886  1
  Tm  Tm11  1  0.20671557  0.70671539  0.41343114  1
  Ir  Ir12  1  0.64895390  0.39721245  0.29790779  1
  Ir  Ir13  1  0.35104610  0.60278755  0.70209221  1
  Ir  Ir14  1  0.64895385  0.90069531  0.29790770  1
  Ir  Ir15  1  0.35104615  0.09930469  0.70209230  1
