# generated using pymatgen
data_KNa4GeAs3
_symmetry_space_group_name_H-M   'P 1'
_cell_length_a   4.82358851
_cell_length_b   13.24266842
_cell_length_c   15.29391564
_cell_angle_alpha   90.00000000
_cell_angle_beta   90.00000000
_cell_angle_gamma   90.00000000
_symmetry_Int_Tables_number   1
_chemical_formula_structural   KNa4GeAs3
_chemical_formula_sum   'K4 Na16 Ge4 As12'
_cell_volume   976.93225168
_cell_formula_units_Z   4
loop_
 _symmetry_equiv_pos_site_id
 _symmetry_equiv_pos_as_xyz
  1  'x, y, z'
loop_
 _atom_site_type_symbol
 _atom_site_label
 _atom_site_symmetry_multiplicity
 _atom_site_fract_x
 _atom_site_fract_y
 _atom_site_fract_z
 _atom_site_occupancy
  Na  Na0  1  0.25000000  0.42800675  0.56227453  1
  Na  Na1  1  0.75000000  0.57199325  0.43772547  1
  Na  Na2  1  0.75000000  0.92800675  0.93772547  1
  Na  Na3  1  0.25000000  0.07199325  0.06227453  1
  Na  Na4  1  0.25000000  0.80973726  0.08071353  1
  Na  Na5  1  0.75000000  0.19026274  0.91928647  1
  Na  Na6  1  0.75000000  0.30973726  0.41928647  1
  Na  Na7  1  0.25000000  0.69026274  0.58071353  1
  Na  Na8  1  0.25000000  0.23726773  0.25589902  1
  Na  Na9  1  0.75000000  0.76273227  0.74410098  1
  Na  Na10  1  0.75000000  0.73726773  0.24410098  1
  Na  Na11  1  0.25000000  0.26273227  0.75589902  1
  Na  Na12  1  0.25000000  0.94062857  0.28723960  1
  Na  Na13  1  0.75000000  0.05937143  0.71276040  1
  Na  Na14  1  0.75000000  0.44062857  0.21276040  1
  Na  Na15  1  0.25000000  0.55937143  0.78723960  1
  K  K16  1  0.25000000  0.12861493  0.51646515  1
  K  K17  1  0.75000000  0.87138507  0.48353485  1
  K  K18  1  0.75000000  0.62861493  0.98353485  1
  K  K19  1  0.25000000  0.37138507  0.01646515  1
  Ge  Ge20  1  0.25000000  0.58434468  0.29400005  1
  Ge  Ge21  1  0.75000000  0.41565532  0.70599995  1
  Ge  Ge22  1  0.75000000  0.08434468  0.20599995  1
  Ge  Ge23  1  0.25000000  0.91565532  0.79400005  1
  As  As24  1  0.25000000  0.59137738  0.13965558  1
  As  As25  1  0.75000000  0.40862262  0.86034442  1
  As  As26  1  0.75000000  0.09137738  0.36034442  1
  As  As27  1  0.25000000  0.90862262  0.63965558  1
  As  As28  1  0.25000000  0.42417341  0.36580813  1
  As  As29  1  0.75000000  0.57582659  0.63419187  1
  As  As30  1  0.75000000  0.92417341  0.13419187  1
  As  As31  1  0.25000000  0.07582659  0.86580813  1
  As  As32  1  0.25000000  0.73215334  0.38274864  1
  As  As33  1  0.75000000  0.26784666  0.61725136  1
  As  As34  1  0.75000000  0.23215334  0.11725136  1
  As  As35  1  0.25000000  0.76784666  0.88274864  1
