# generated using pymatgen
data_Lu2SiO5
_symmetry_space_group_name_H-M   'P 1'
_cell_length_a   6.67335051
_cell_length_b   7.88268490
_cell_length_c   9.49384812
_cell_angle_alpha   71.93042431
_cell_angle_beta   69.42356889
_cell_angle_gamma   64.95741725
_symmetry_Int_Tables_number   1
_chemical_formula_structural   Lu2SiO5
_chemical_formula_sum   'Lu8 Si4 O20'
_cell_volume   415.86001048
_cell_formula_units_Z   4
loop_
 _symmetry_equiv_pos_site_id
 _symmetry_equiv_pos_as_xyz
  1  'x, y, z'
loop_
 _atom_site_type_symbol
 _atom_site_label
 _atom_site_symmetry_multiplicity
 _atom_site_fract_x
 _atom_site_fract_y
 _atom_site_fract_z
 _atom_site_occupancy
  O  O0  1  0.38851337  0.63698545  0.39564125  1
  O  O1  1  0.42114006  0.86301455  0.10435875  1
  O  O2  1  0.61148663  0.36301455  0.60435875  1
  O  O3  1  0.57885994  0.13698545  0.89564125  1
  O  O4  1  0.12602271  0.02801183  0.56627182  1
  O  O5  1  0.72030636  0.47198817  0.93372818  1
  O  O6  1  0.87397729  0.97198817  0.43372818  1
  O  O7  1  0.27969364  0.52801183  0.06627182  1
  O  O8  1  0.45013134  0.72325261  0.67862463  1
  O  O9  1  0.85200859  0.77674739  0.82137537  1
  O  O10  1  0.54986866  0.27674739  0.32137537  1
  O  O11  1  0.14799141  0.22325261  0.17862463  1
  O  O12  1  0.07431506  0.45731994  0.36601031  1
  O  O13  1  0.89764531  0.04268006  0.13398969  1
  O  O14  1  0.92568494  0.54268006  0.63398969  1
  O  O15  1  0.10235469  0.95731994  0.86601031  1
  O  O16  1  0.83371636  0.58650940  0.16935109  1
  O  O17  1  0.58957686  0.91349060  0.33064891  1
  O  O18  1  0.16628364  0.41349060  0.83064891  1
  O  O19  1  0.41042314  0.08650940  0.66935109  1
  Si  Si20  1  0.27491283  0.94092965  0.69398674  1
  Si  Si21  1  0.90982922  0.55907035  0.80601326  1
  Si  Si22  1  0.72508717  0.05907035  0.30601326  1
  Si  Si23  1  0.09017078  0.44092965  0.19398674  1
  Lu  Lu24  1  0.24034811  0.94338532  0.33915929  1
  Lu  Lu25  1  0.52289272  0.55661468  0.16084071  1
  Lu  Lu26  1  0.75965189  0.05661468  0.66084071  1
  Lu  Lu27  1  0.47710728  0.44338532  0.83915929  1
  Lu  Lu28  1  0.21852220  0.10517561  0.97136841  1
  Lu  Lu29  1  0.29506622  0.39482439  0.52863159  1
  Lu  Lu30  1  0.78147780  0.89482439  0.02863159  1
  Lu  Lu31  1  0.70493378  0.60517561  0.47136841  1
