# generated using pymatgen
data_SrNd2Ti4O12
_symmetry_space_group_name_H-M   'P 1'
_cell_length_a   5.50006297
_cell_length_b   5.50006297
_cell_length_c   7.81663770
_cell_angle_alpha   90.00000000
_cell_angle_beta   90.00000000
_cell_angle_gamma   90.00000000
_symmetry_Int_Tables_number   1
_chemical_formula_structural   SrNd2Ti4O12
_chemical_formula_sum   'Sr1 Nd2 Ti4 O12'
_cell_volume   236.45870444
_cell_formula_units_Z   1
loop_
 _symmetry_equiv_pos_site_id
 _symmetry_equiv_pos_as_xyz
  1  'x, y, z'
loop_
 _atom_site_type_symbol
 _atom_site_label
 _atom_site_symmetry_multiplicity
 _atom_site_fract_x
 _atom_site_fract_y
 _atom_site_fract_z
 _atom_site_occupancy
  Sr  Sr0  1  -0.00000000  0.00000000  0.50074020  1
  Nd  Nd1  1  0.50000000  0.50000000  0.49937052  1
  Nd  Nd2  1  -0.00000000  0.00000000  0.99931988  1
  Ti  Ti3  1  0.50000000  0.00000000  0.24266004  1
  Ti  Ti4  1  -0.00000000  0.50000000  0.24266004  1
  Ti  Ti5  1  0.50000000  0.00000000  0.75566869  1
  Ti  Ti6  1  -0.00000000  0.50000000  0.75566869  1
  O  O7  1  0.50000000  0.00000000  0.50271253  1
  O  O8  1  -0.00000000  0.50000000  0.50271253  1
  O  O9  1  0.24445978  0.24445978  0.74633501  1
  O  O10  1  0.75554022  0.75554022  0.74633501  1
  O  O11  1  0.24445978  0.75554022  0.74633501  1
  O  O12  1  0.75554022  0.24445978  0.74633501  1
  O  O13  1  0.50000000  0.00000000  0.00178544  1
  O  O14  1  -0.00000000  0.50000000  0.00178544  1
  O  O15  1  0.24480997  0.24480997  0.25919398  1
  O  O16  1  0.75519003  0.75519003  0.25919398  1
  O  O17  1  0.24480997  0.75519003  0.25919398  1
  O  O18  1  0.75519003  0.24480997  0.25919398  1
