# generated using pymatgen
data_Ba3Te2O9
_symmetry_space_group_name_H-M   'P 1'
_cell_length_a   5.95466409
_cell_length_b   5.95466409
_cell_length_c   14.62747189
_cell_angle_alpha   90.00000000
_cell_angle_beta   90.00000000
_cell_angle_gamma   120.00000006
_symmetry_Int_Tables_number   1
_chemical_formula_structural   Ba3Te2O9
_chemical_formula_sum   'Ba6 Te4 O18'
_cell_volume   449.17382301
_cell_formula_units_Z   2
loop_
 _symmetry_equiv_pos_site_id
 _symmetry_equiv_pos_as_xyz
  1  'x, y, z'
loop_
 _atom_site_type_symbol
 _atom_site_label
 _atom_site_symmetry_multiplicity
 _atom_site_fract_x
 _atom_site_fract_y
 _atom_site_fract_z
 _atom_site_occupancy
  O  O0  1  0.83629223  0.16370777  0.40811680  1
  O  O1  1  0.83629223  0.67258447  0.40811680  1
  O  O2  1  0.32741553  0.16370777  0.40811680  1
  O  O3  1  0.67258447  0.83629223  0.90811680  1
  O  O4  1  0.16370777  0.32741553  0.59188320  1
  O  O5  1  0.16370777  0.83629223  0.90811680  1
  O  O6  1  0.16370777  0.32741553  0.90811680  1
  O  O7  1  0.83629223  0.16370777  0.09188320  1
  O  O8  1  0.32741553  0.16370777  0.09188320  1
  O  O9  1  0.67258447  0.83629223  0.59188320  1
  O  O10  1  0.14303098  0.28606195  0.25000000  1
  O  O11  1  0.85696902  0.14303098  0.75000000  1
  O  O12  1  0.28606195  0.14303098  0.75000000  1
  O  O13  1  0.71393805  0.85696902  0.25000000  1
  O  O14  1  0.14303098  0.85696902  0.25000000  1
  O  O15  1  0.85696902  0.71393805  0.75000000  1
  O  O16  1  0.83629223  0.67258447  0.09188320  1
  O  O17  1  0.16370777  0.83629223  0.59188320  1
  Te  Te18  1  0.00000000  0.00000000  0.34984837  1
  Te  Te19  1  0.00000000  0.00000000  0.84984837  1
  Te  Te20  1  0.00000000  0.00000000  0.65015163  1
  Te  Te21  1  0.00000000  0.00000000  0.15015163  1
  Ba  Ba22  1  0.33333333  0.66666667  0.44024442  1
  Ba  Ba23  1  0.66666667  0.33333333  0.94024442  1
  Ba  Ba24  1  0.66666667  0.33333333  0.55975558  1
  Ba  Ba25  1  0.33333333  0.66666667  0.05975558  1
  Ba  Ba26  1  0.66666667  0.33333333  0.25000000  1
  Ba  Ba27  1  0.33333333  0.66666667  0.75000000  1
