# generated using pymatgen
data_K5SnAs3
_symmetry_space_group_name_H-M   'P 1'
_cell_length_a   8.46265199
_cell_length_b   9.37264524
_cell_length_c   15.39302681
_cell_angle_alpha   89.62334603
_cell_angle_beta   90.00000000
_cell_angle_gamma   90.00000000
_symmetry_Int_Tables_number   1
_chemical_formula_structural   K5SnAs3
_chemical_formula_sum   'K20 Sn4 As12'
_cell_volume   1220.90902024
_cell_formula_units_Z   4
loop_
 _symmetry_equiv_pos_site_id
 _symmetry_equiv_pos_as_xyz
  1  'x, y, z'
loop_
 _atom_site_type_symbol
 _atom_site_label
 _atom_site_symmetry_multiplicity
 _atom_site_fract_x
 _atom_site_fract_y
 _atom_site_fract_z
 _atom_site_occupancy
  K  K0  1  0.16087538  0.42172922  0.74118561  1
  K  K1  1  0.66087538  0.07827078  0.75881439  1
  K  K2  1  0.83912462  0.57827078  0.25881439  1
  K  K3  1  0.33912462  0.92172922  0.24118561  1
  K  K4  1  0.17001156  0.42168903  0.41973674  1
  K  K5  1  0.67001156  0.07831097  0.08026326  1
  K  K6  1  0.82998844  0.57831097  0.58026326  1
  K  K7  1  0.32998844  0.92168903  0.91973674  1
  K  K8  1  0.00760202  0.80756273  0.08639376  1
  K  K9  1  0.50760202  0.69243727  0.41360624  1
  K  K10  1  0.99239798  0.19243727  0.91360624  1
  K  K11  1  0.49239798  0.30756273  0.58639376  1
  K  K12  1  0.51937095  0.65733620  0.07628939  1
  K  K13  1  0.01937095  0.84266380  0.42371061  1
  K  K14  1  0.48062905  0.34266380  0.92371061  1
  K  K15  1  0.98062905  0.15733620  0.57628939  1
  K  K16  1  0.98536130  0.19075570  0.25567610  1
  K  K17  1  0.48536130  0.30924430  0.24432390  1
  K  K18  1  0.01463870  0.80924430  0.74432390  1
  K  K19  1  0.51463870  0.69075570  0.75567610  1
  As  As20  1  0.31575047  0.08062802  0.43465007  1
  As  As21  1  0.81575047  0.41937198  0.06534993  1
  As  As22  1  0.68424953  0.91937198  0.56534993  1
  As  As23  1  0.18424953  0.58062802  0.93465007  1
  As  As24  1  0.22755053  0.57765815  0.22379028  1
  As  As25  1  0.72755053  0.92234185  0.27620972  1
  As  As26  1  0.77244947  0.42234185  0.77620972  1
  As  As27  1  0.27244947  0.07765815  0.72379028  1
  As  As28  1  0.25958843  0.16108167  0.07979113  1
  As  As29  1  0.75958843  0.33891833  0.42020887  1
  As  As30  1  0.74041157  0.83891833  0.92020887  1
  As  As31  1  0.24041157  0.66108167  0.57979113  1
  Sn  Sn32  1  0.35943541  0.92631457  0.58551506  1
  Sn  Sn33  1  0.85943541  0.57368543  0.91448494  1
  Sn  Sn34  1  0.64056459  0.07368543  0.41448494  1
  Sn  Sn35  1  0.14056459  0.42631457  0.08551506  1
