# generated using pymatgen
data_Sr3MgRhO6
_symmetry_space_group_name_H-M   'P 1'
_cell_length_a   6.73585361
_cell_length_b   6.73585361
_cell_length_c   6.73585361
_cell_angle_alpha   92.58943955
_cell_angle_beta   92.58943948
_cell_angle_gamma   92.58943949
_symmetry_Int_Tables_number   1
_chemical_formula_structural   Sr3MgRhO6
_chemical_formula_sum   'Sr6 Mg2 Rh2 O12'
_cell_volume   304.65187540
_cell_formula_units_Z   2
loop_
 _symmetry_equiv_pos_site_id
 _symmetry_equiv_pos_as_xyz
  1  'x, y, z'
loop_
 _atom_site_type_symbol
 _atom_site_label
 _atom_site_symmetry_multiplicity
 _atom_site_fract_x
 _atom_site_fract_y
 _atom_site_fract_z
 _atom_site_occupancy
  O  O0  1  0.78748734  0.59366802  0.46294818  1
  O  O1  1  0.59366802  0.46294818  0.78748734  1
  O  O2  1  0.46294818  0.78748734  0.59366802  1
  O  O3  1  0.03705182  0.90633198  0.71251266  1
  O  O4  1  0.90633198  0.71251266  0.03705182  1
  O  O5  1  0.71251266  0.03705182  0.90633198  1
  O  O6  1  0.21251266  0.40633198  0.53705182  1
  O  O7  1  0.40633198  0.53705182  0.21251266  1
  O  O8  1  0.53705182  0.21251266  0.40633198  1
  O  O9  1  0.96294818  0.09366802  0.28748734  1
  O  O10  1  0.28748734  0.96294818  0.09366802  1
  O  O11  1  0.09366802  0.28748734  0.96294818  1
  Mg  Mg12  1  0.25000000  0.25000000  0.25000000  1
  Mg  Mg13  1  0.75000000  0.75000000  0.75000000  1
  Sr  Sr14  1  0.25000000  0.61544642  0.88455358  1
  Sr  Sr15  1  0.61544642  0.88455358  0.25000000  1
  Sr  Sr16  1  0.11544642  0.75000000  0.38455358  1
  Sr  Sr17  1  0.75000000  0.38455358  0.11544642  1
  Sr  Sr18  1  0.38455358  0.11544642  0.75000000  1
  Sr  Sr19  1  0.88455358  0.25000000  0.61544642  1
  Rh  Rh20  1  0.00000000  0.00000000  0.00000000  1
  Rh  Rh21  1  0.50000000  0.50000000  0.50000000  1
