# generated using pymatgen
data_Ba10P6SO24
_symmetry_space_group_name_H-M   'P 1'
_cell_length_a   10.39360314
_cell_length_b   10.39360314
_cell_length_c   7.75835484
_cell_angle_alpha   90.00000000
_cell_angle_beta   90.00000000
_cell_angle_gamma   120.00000001
_symmetry_Int_Tables_number   1
_chemical_formula_structural   Ba10P6SO24
_chemical_formula_sum   'Ba10 P6 S1 O24'
_cell_volume   725.82601594
_cell_formula_units_Z   1
loop_
 _symmetry_equiv_pos_site_id
 _symmetry_equiv_pos_as_xyz
  1  'x, y, z'
loop_
 _atom_site_type_symbol
 _atom_site_label
 _atom_site_symmetry_multiplicity
 _atom_site_fract_x
 _atom_site_fract_y
 _atom_site_fract_z
 _atom_site_occupancy
  O  O0  1  0.47703673  0.14118111  0.73734388  1
  O  O1  1  0.09480350  0.37621383  0.58057483  1
  O  O2  1  0.28141033  0.90519650  0.58057483  1
  O  O3  1  0.62378617  0.71858967  0.58057483  1
  O  O4  1  0.90519650  0.62378617  0.41942517  1
  O  O5  1  0.71858967  0.09480350  0.41942517  1
  O  O6  1  0.37621383  0.28141033  0.41942517  1
  O  O7  1  0.06245999  0.31664086  0.89911353  1
  O  O8  1  0.25418087  0.93754001  0.89911353  1
  O  O9  1  0.68335914  0.74581913  0.89911353  1
  O  O10  1  0.31664086  0.25418087  0.10088647  1
  O  O11  1  0.11122403  0.56988009  0.78693718  1
  O  O12  1  0.45865606  0.88877597  0.78693718  1
  O  O13  1  0.43011991  0.54134394  0.78693718  1
  O  O14  1  0.88877597  0.43011991  0.21306282  1
  O  O15  1  0.54134394  0.11122403  0.21306282  1
  O  O16  1  0.33585563  0.47703673  0.26265612  1
  O  O17  1  0.52296327  0.85881889  0.26265612  1
  O  O18  1  0.14118111  0.66414437  0.26265612  1
  O  O19  1  0.66414437  0.52296327  0.73734388  1
  O  O20  1  0.74581913  0.06245999  0.10088647  1
  O  O21  1  0.85881889  0.33585563  0.73734388  1
  O  O22  1  0.56988009  0.45865606  0.21306282  1
  O  O23  1  0.93754001  0.68335914  0.10088647  1
  P  P24  1  0.36889893  0.97020128  0.75188565  1
  P  P25  1  0.60130236  0.63110107  0.75188565  1
  P  P26  1  0.97020128  0.60130236  0.24811435  1
  P  P27  1  0.02979872  0.39869764  0.75188565  1
  P  P28  1  0.39869764  0.36889893  0.24811435  1
  P  P29  1  0.63110107  0.02979872  0.24811435  1
  S  S30  1  0.00000000  0.00000000  0.50000000  1
  Ba  Ba31  1  0.98579764  0.74137460  0.73889586  1
  Ba  Ba32  1  0.25862540  0.24442304  0.73889586  1
  Ba  Ba33  1  0.75557696  0.01420236  0.73889586  1
  Ba  Ba34  1  0.74137460  0.75557696  0.26110414  1
  Ba  Ba35  1  0.01420236  0.25862540  0.26110414  1
  Ba  Ba36  1  0.24442304  0.98579764  0.26110414  1
  Ba  Ba37  1  0.66666667  0.33333333  0.48018929  1
  Ba  Ba38  1  0.33333333  0.66666667  0.51981071  1
  Ba  Ba39  1  0.66666667  0.33333333  0.98091209  1
  Ba  Ba40  1  0.33333333  0.66666667  0.01908791  1
