# generated using pymatgen
data_Na2Si2O5
_symmetry_space_group_name_H-M   'P 1'
_cell_length_a   4.96163202
_cell_length_b   6.48563844
_cell_length_c   15.63427613
_cell_angle_alpha   90.00000000
_cell_angle_beta   90.00000000
_cell_angle_gamma   90.00000000
_symmetry_Int_Tables_number   1
_chemical_formula_structural   Na2Si2O5
_chemical_formula_sum   'Na8 Si8 O20'
_cell_volume   503.10086475
_cell_formula_units_Z   4
loop_
 _symmetry_equiv_pos_site_id
 _symmetry_equiv_pos_as_xyz
  1  'x, y, z'
loop_
 _atom_site_type_symbol
 _atom_site_label
 _atom_site_symmetry_multiplicity
 _atom_site_fract_x
 _atom_site_fract_y
 _atom_site_fract_z
 _atom_site_occupancy
  O  O0  1  0.26112766  0.45229644  0.92183058  1
  O  O1  1  0.26112766  0.54770356  0.57816942  1
  O  O2  1  0.23887234  0.95229644  0.07816942  1
  O  O3  1  0.23887234  0.04770356  0.42183058  1
  O  O4  1  0.73887234  0.54770356  0.07816942  1
  O  O5  1  0.73887234  0.45229644  0.42183058  1
  O  O6  1  0.76112766  0.04770356  0.92183058  1
  O  O7  1  0.76112766  0.95229644  0.57816942  1
  O  O8  1  0.88391002  0.67948839  0.84802633  1
  O  O9  1  0.88391002  0.32051161  0.65197367  1
  O  O10  1  0.61608998  0.17948839  0.15197367  1
  O  O11  1  0.61608998  0.82051161  0.34802633  1
  O  O12  1  0.11608998  0.32051161  0.15197367  1
  O  O13  1  0.11608998  0.67948839  0.34802633  1
  O  O14  1  0.38391002  0.82051161  0.84802633  1
  O  O15  1  0.38391002  0.17948839  0.65197367  1
  O  O16  1  0.76061388  0.00000000  0.75000000  1
  O  O17  1  0.73938612  0.50000000  0.25000000  1
  O  O18  1  0.23938612  0.00000000  0.25000000  1
  O  O19  1  0.26061388  0.50000000  0.75000000  1
  Na  Na20  1  0.76360303  0.09802730  0.43990951  1
  Na  Na21  1  0.76360303  0.90197270  0.06009049  1
  Na  Na22  1  0.73639697  0.59802730  0.56009049  1
  Na  Na23  1  0.73639697  0.40197270  0.93990951  1
  Na  Na24  1  0.23639697  0.90197270  0.56009049  1
  Na  Na25  1  0.23639697  0.09802730  0.93990951  1
  Na  Na26  1  0.26360303  0.40197270  0.43990951  1
  Na  Na27  1  0.26360303  0.59802730  0.06009049  1
  Si  Si28  1  0.70446204  0.10468220  0.65679216  1
  Si  Si29  1  0.70446204  0.89531780  0.84320784  1
  Si  Si30  1  0.79553796  0.60468220  0.34320784  1
  Si  Si31  1  0.79553796  0.39531780  0.15679216  1
  Si  Si32  1  0.29553796  0.89531780  0.34320784  1
  Si  Si33  1  0.29553796  0.10468220  0.15679216  1
  Si  Si34  1  0.20446204  0.39531780  0.65679216  1
  Si  Si35  1  0.20446204  0.60468220  0.84320784  1
