# generated using pymatgen
data_Rb2B4O7
_symmetry_space_group_name_H-M   'P 1'
_cell_length_a   6.73519136
_cell_length_b   10.03715117
_cell_length_c   10.77612034
_cell_angle_alpha   89.17702048
_cell_angle_beta   76.65661001
_cell_angle_gamma   78.70312968
_symmetry_Int_Tables_number   1
_chemical_formula_structural   Rb2B4O7
_chemical_formula_sum   'Rb8 B16 O28'
_cell_volume   694.72621650
_cell_formula_units_Z   4
loop_
 _symmetry_equiv_pos_site_id
 _symmetry_equiv_pos_as_xyz
  1  'x, y, z'
loop_
 _atom_site_type_symbol
 _atom_site_label
 _atom_site_symmetry_multiplicity
 _atom_site_fract_x
 _atom_site_fract_y
 _atom_site_fract_z
 _atom_site_occupancy
  B  B0  1  0.29701344  0.71235878  0.44975409  1
  B  B1  1  0.70298656  0.28764122  0.55024591  1
  B  B2  1  0.85133358  0.79132107  0.14815741  1
  B  B3  1  0.14866642  0.20867893  0.85184259  1
  B  B4  1  0.13121162  0.44163161  0.19933439  1
  B  B5  1  0.86878838  0.55836839  0.80066561  1
  B  B6  1  0.20732440  0.08671259  0.26296890  1
  B  B7  1  0.79267560  0.91328741  0.73703110  1
  B  B8  1  0.43678364  0.83755621  0.26086748  1
  B  B9  1  0.56321636  0.16244379  0.73913252  1
  B  B10  1  0.91131400  0.28988608  0.31941751  1
  B  B11  1  0.08868600  0.71011392  0.68058249  1
  B  B12  1  0.07455039  0.22914136  0.10073727  1
  B  B13  1  0.92544961  0.77085864  0.89926273  1
  B  B14  1  0.16514668  0.68954949  0.25133640  1
  B  B15  1  0.83485332  0.31045051  0.74866360  1
  O  O16  1  0.87560215  0.25547477  0.19700074  1
  O  O17  1  0.07463067  0.17910801  0.35551846  1
  O  O18  1  0.28295141  0.69740083  0.57969095  1
  O  O19  1  0.71704859  0.30259917  0.42030905  1
  O  O20  1  0.01184623  0.57744551  0.68991772  1
  O  O21  1  0.92536933  0.82089199  0.64448154  1
  O  O22  1  0.66690100  0.01850261  0.69227276  1
  O  O23  1  0.33309900  0.98149739  0.30772724  1
  O  O24  1  0.36016243  0.15713943  0.82760366  1
  O  O25  1  0.63983757  0.84286057  0.17239634  1
  O  O26  1  0.68292107  0.22980558  0.80492098  1
  O  O27  1  0.31707893  0.77019442  0.19507902  1
  O  O28  1  0.77578008  0.44682409  0.81798243  1
  O  O29  1  0.22421992  0.55317591  0.18201757  1
  O  O30  1  0.53820178  0.23198260  0.61718025  1
  O  O31  1  0.46179822  0.76801740  0.38281975  1
  O  O32  1  0.84022329  0.33040832  0.60913999  1
  O  O33  1  0.15977671  0.66959168  0.39086001  1
  O  O34  1  0.05507321  0.24689532  0.75182636  1
  O  O35  1  0.94492679  0.75310468  0.24817364  1
  O  O36  1  0.18709965  0.34597751  0.09983368  1
  O  O37  1  0.81290035  0.65402249  0.90016632  1
  O  O38  1  0.21136427  0.10319180  0.13515924  1
  O  O39  1  0.78863573  0.89680820  0.86484076  1
  O  O40  1  0.96990857  0.78426115  0.02468743  1
  O  O41  1  0.03009143  0.21573885  0.97531257  1
  O  O42  1  0.98815377  0.42255449  0.31008228  1
  O  O43  1  0.12439785  0.74452523  0.80299926  1
  Rb  Rb44  1  0.76813889  0.98792098  0.40772620  1
  Rb  Rb45  1  0.23186111  0.01207902  0.59227380  1
  Rb  Rb46  1  0.24236333  0.38067711  0.49442799  1
  Rb  Rb47  1  0.75763667  0.61932289  0.50557201  1
  Rb  Rb48  1  0.66819369  0.51711370  0.12346385  1
  Rb  Rb49  1  0.33180631  0.48288630  0.87653615  1
  Rb  Rb50  1  0.64891384  0.12184762  0.04696429  1
  Rb  Rb51  1  0.35108616  0.87815238  0.95303571  1
