# generated using pymatgen
data_Ba3MgSb2O9
_symmetry_space_group_name_H-M   'P 1'
_cell_length_a   5.93388619
_cell_length_b   5.93388618
_cell_length_c   14.65841752
_cell_angle_alpha   90.00000000
_cell_angle_beta   90.00000000
_cell_angle_gamma   119.99999998
_symmetry_Int_Tables_number   1
_chemical_formula_structural   Ba3MgSb2O9
_chemical_formula_sum   'Ba6 Mg2 Sb4 O18'
_cell_volume   446.98828804
_cell_formula_units_Z   2
loop_
 _symmetry_equiv_pos_site_id
 _symmetry_equiv_pos_as_xyz
  1  'x, y, z'
loop_
 _atom_site_type_symbol
 _atom_site_label
 _atom_site_symmetry_multiplicity
 _atom_site_fract_x
 _atom_site_fract_y
 _atom_site_fract_z
 _atom_site_occupancy
  O  O0  1  0.16909068  0.83090932  0.08369432  1
  O  O1  1  0.16909068  0.33818135  0.08369432  1
  O  O2  1  0.66181865  0.83090932  0.08369432  1
  O  O3  1  0.33818135  0.16909068  0.58369432  1
  O  O4  1  0.83090932  0.66181865  0.91630568  1
  O  O5  1  0.83090932  0.16909068  0.58369432  1
  O  O6  1  0.83090932  0.66181865  0.58369432  1
  O  O7  1  0.16909068  0.83090932  0.41630568  1
  O  O8  1  0.66181865  0.83090932  0.41630568  1
  O  O9  1  0.33818135  0.16909068  0.91630568  1
  O  O10  1  0.83090932  0.16909068  0.91630568  1
  O  O11  1  0.16909068  0.33818135  0.41630568  1
  O  O12  1  0.48167450  0.96334900  0.25000000  1
  O  O13  1  0.51832550  0.48167450  0.75000000  1
  O  O14  1  0.96334900  0.48167450  0.75000000  1
  O  O15  1  0.03665100  0.51832550  0.25000000  1
  O  O16  1  0.48167450  0.51832550  0.25000000  1
  O  O17  1  0.51832550  0.03665100  0.75000000  1
  Mg  Mg18  1  0.00000000  0.00000000  0.00000000  1
  Mg  Mg19  1  0.00000000  0.00000000  0.50000000  1
  Sb  Sb20  1  0.66666667  0.33333333  0.65149679  1
  Sb  Sb21  1  0.33333333  0.66666667  0.15149679  1
  Sb  Sb22  1  0.66666667  0.33333333  0.84850321  1
  Sb  Sb23  1  0.33333333  0.66666667  0.34850321  1
  Ba  Ba24  1  0.33333333  0.66666667  0.58790879  1
  Ba  Ba25  1  0.66666667  0.33333333  0.08790879  1
  Ba  Ba26  1  0.66666667  0.33333333  0.41209121  1
  Ba  Ba27  1  0.33333333  0.66666667  0.91209121  1
  Ba  Ba28  1  0.00000000  0.00000000  0.75000000  1
  Ba  Ba29  1  0.00000000  0.00000000  0.25000000  1
