# generated using pymatgen
data_KGaS2
_symmetry_space_group_name_H-M   'P 1'
_cell_length_a   7.47782948
_cell_length_b   7.47782542
_cell_length_c   15.02263590
_cell_angle_alpha   97.16021939
_cell_angle_beta   97.16022465
_cell_angle_gamma   89.97785919
_symmetry_Int_Tables_number   1
_chemical_formula_structural   KGaS2
_chemical_formula_sum   'K8 Ga8 S16'
_cell_volume   826.88540700
_cell_formula_units_Z   8
loop_
 _symmetry_equiv_pos_site_id
 _symmetry_equiv_pos_as_xyz
  1  'x, y, z'
loop_
 _atom_site_type_symbol
 _atom_site_label
 _atom_site_symmetry_multiplicity
 _atom_site_fract_x
 _atom_site_fract_y
 _atom_site_fract_z
 _atom_site_occupancy
  S  S0  1  0.83863694  0.46332576  0.08681512  1
  S  S1  1  0.46332546  0.83863722  0.58681527  1
  S  S2  1  0.62911175  0.25333298  0.26756518  1
  S  S3  1  0.25333297  0.62911183  0.76756531  1
  S  S4  1  0.32858933  0.95343349  0.08608112  1
  S  S5  1  0.95343376  0.32858903  0.58608127  1
  S  S6  1  0.75304998  0.62750254  0.76397787  1
  S  S7  1  0.62750242  0.75304989  0.26397769  1
  S  S8  1  0.46342053  0.32858418  0.58657746  1
  S  S9  1  0.32858442  0.46342077  0.08657738  1
  S  S10  1  0.53836885  0.16418381  0.90529251  1
  S  S11  1  0.83828891  0.95309209  0.08621721  1
  S  S12  1  0.16489837  0.03896066  0.40894360  1
  S  S13  1  0.03896056  0.16489825  0.90894342  1
  S  S14  1  0.95309239  0.83828922  0.58621740  1
  S  S15  1  0.16418390  0.53836881  0.40529264  1
  K  K16  1  0.11711075  0.24184496  0.22524979  1
  K  K17  1  0.54890749  0.67241056  0.94727296  1
  K  K18  1  0.11967725  0.74366776  0.22739723  1
  K  K19  1  0.74366766  0.11967722  0.72739721  1
  K  K20  1  0.04723362  0.67291522  0.94572925  1
  K  K21  1  0.67291519  0.04723352  0.44572922  1
  K  K22  1  0.24184503  0.11711084  0.72524981  1
  K  K23  1  0.67241064  0.54890758  0.44727297  1
  Ga  Ga24  1  0.60493588  0.98325933  0.17258876  1
  Ga  Ga25  1  0.98325936  0.60493582  0.67258869  1
  Ga  Ga26  1  0.47660110  0.60505072  0.67298555  1
  Ga  Ga27  1  0.60505071  0.47660117  0.17298560  1
  Ga  Ga28  1  0.31535798  0.18715018  0.00000244  1
  Ga  Ga29  1  0.18715020  0.31535790  0.50000237  1
  Ga  Ga30  1  0.18701185  0.80858475  0.50020382  1
  Ga  Ga31  1  0.80858474  0.18701191  0.00020388  1
