# generated using pymatgen
data_MnCrSeS
_symmetry_space_group_name_H-M   'P 1'
_cell_length_a   3.71298722
_cell_length_b   3.71298722
_cell_length_c   6.25511567
_cell_angle_alpha   72.73473244
_cell_angle_beta   90.00000000
_cell_angle_gamma   120.00000000
_symmetry_Int_Tables_number   1
_chemical_formula_structural   MnCrSeS
_chemical_formula_sum   'Mn1 Cr1 Se1 S1'
_cell_volume   70.15884247
_cell_formula_units_Z   1
loop_
 _symmetry_equiv_pos_site_id
 _symmetry_equiv_pos_as_xyz
  1  'x, y, z'
loop_
 _atom_site_type_symbol
 _atom_site_label
 _atom_site_symmetry_multiplicity
 _atom_site_fract_x
 _atom_site_fract_y
 _atom_site_fract_z
 _atom_site_occupancy
  Mn  Mn0  1  0.51144060  0.02288121  0.46567819  1
  Cr  Cr1  1  0.99124000  0.98248000  0.02628000  1
  Se  Se2  1  0.74586891  0.49173782  0.76239327  1
  S  S3  1  0.25145049  0.50290097  0.24564854  1
