# generated using pymatgen
data_Nd2C3
_symmetry_space_group_name_H-M   'P 1'
_cell_length_a   7.46237177
_cell_length_b   7.46237178
_cell_length_c   7.46237178
_cell_angle_alpha   109.47122065
_cell_angle_beta   109.47122065
_cell_angle_gamma   109.47122062
_symmetry_Int_Tables_number   1
_chemical_formula_structural   Nd2C3
_chemical_formula_sum   'Nd8 C12'
_cell_volume   319.89595958
_cell_formula_units_Z   4
loop_
 _symmetry_equiv_pos_site_id
 _symmetry_equiv_pos_as_xyz
  1  'x, y, z'
loop_
 _atom_site_type_symbol
 _atom_site_label
 _atom_site_symmetry_multiplicity
 _atom_site_fract_x
 _atom_site_fract_y
 _atom_site_fract_z
 _atom_site_occupancy
  C  C0  1  0.75000000  0.79781706  0.04781706  1
  C  C1  1  0.75000000  0.95218294  0.20218294  1
  C  C2  1  0.29781706  0.25000000  0.54781706  1
  C  C3  1  0.54781706  0.29781706  0.25000000  1
  C  C4  1  0.20218294  0.75000000  0.95218294  1
  C  C5  1  0.95218294  0.20218294  0.75000000  1
  C  C6  1  0.25000000  0.70218294  0.45218294  1
  C  C7  1  0.70218294  0.45218294  0.25000000  1
  C  C8  1  0.25000000  0.54781706  0.29781706  1
  C  C9  1  0.45218294  0.25000000  0.70218294  1
  C  C10  1  0.04781706  0.75000000  0.79781706  1
  C  C11  1  0.79781706  0.04781706  0.75000000  1
  Nd  Nd12  1  0.60336428  0.60336428  0.60336428  1
  Nd  Nd13  1  0.39663572  0.50000000  0.00000000  1
  Nd  Nd14  1  0.50000000  0.00000000  0.39663572  1
  Nd  Nd15  1  0.00000000  0.39663572  0.50000000  1
  Nd  Nd16  1  0.50000000  0.00000000  0.89663572  1
  Nd  Nd17  1  0.00000000  0.89663572  0.50000000  1
  Nd  Nd18  1  0.89663572  0.50000000  0.00000000  1
  Nd  Nd19  1  0.10336428  0.10336428  0.10336428  1
