# generated using pymatgen
data_Zr3Te
_symmetry_space_group_name_H-M   'P 1'
_cell_length_a   5.68373886
_cell_length_b   8.55333294
_cell_length_c   8.55333294
_cell_angle_alpha   83.66208856
_cell_angle_beta   70.59442724
_cell_angle_gamma   70.59442723
_symmetry_Int_Tables_number   1
_chemical_formula_structural   Zr3Te
_chemical_formula_sum   'Zr12 Te4'
_cell_volume   369.91638227
_cell_formula_units_Z   4
loop_
 _symmetry_equiv_pos_site_id
 _symmetry_equiv_pos_as_xyz
  1  'x, y, z'
loop_
 _atom_site_type_symbol
 _atom_site_label
 _atom_site_symmetry_multiplicity
 _atom_site_fract_x
 _atom_site_fract_y
 _atom_site_fract_z
 _atom_site_occupancy
  Zr  Zr0  1  0.29286599  0.02103419  0.81466084  1
  Zr  Zr1  1  0.89247317  0.81466084  0.97896581  1
  Zr  Zr2  1  0.68609982  0.18533916  0.02103419  1
  Zr  Zr3  1  0.12856102  0.97896581  0.18533916  1
  Zr  Zr4  1  0.33454000  0.66067255  0.62330338  1
  Zr  Zr5  1  0.04215662  0.62330338  0.33932745  1
  Zr  Zr6  1  0.00478746  0.37669662  0.66067255  1
  Zr  Zr7  1  0.61851593  0.33932745  0.37669662  1
  Zr  Zr8  1  0.95129876  0.03049939  0.59624215  1
  Zr  Zr9  1  0.45245909  0.59624215  0.96950061  1
  Zr  Zr10  1  0.01820185  0.40375785  0.03049939  1
  Zr  Zr11  1  0.57804029  0.96950061  0.40375785  1
  Te  Te12  1  0.76456982  0.74349120  0.67989553  1
  Te  Te13  1  0.55553465  0.67989553  0.25650880  1
  Te  Te14  1  0.49193898  0.32010447  0.74349120  1
  Te  Te15  1  0.18795655  0.25650880  0.32010447  1
