# generated using pymatgen
data_Cs2LiMnO4
_symmetry_space_group_name_H-M   'P 1'
_cell_length_a   6.08039036
_cell_length_b   6.90172512
_cell_length_c   8.31034264
_cell_angle_alpha   90.00000000
_cell_angle_beta   90.00000000
_cell_angle_gamma   116.13565121
_symmetry_Int_Tables_number   1
_chemical_formula_structural   Cs2LiMnO4
_chemical_formula_sum   'Cs4 Li2 Mn2 O8'
_cell_volume   313.08714307
_cell_formula_units_Z   2
loop_
 _symmetry_equiv_pos_site_id
 _symmetry_equiv_pos_as_xyz
  1  'x, y, z'
loop_
 _atom_site_type_symbol
 _atom_site_label
 _atom_site_symmetry_multiplicity
 _atom_site_fract_x
 _atom_site_fract_y
 _atom_site_fract_z
 _atom_site_occupancy
  Li  Li0  1  0.79209325  0.58418650  0.82696567  1
  Li  Li1  1  0.20790675  0.41581350  0.32696567  1
  O  O2  1  0.42940444  0.32701632  0.21072096  1
  O  O3  1  0.57059556  0.67298368  0.71072096  1
  O  O4  1  0.63940968  0.27881937  0.91912126  1
  O  O5  1  0.36059032  0.72118063  0.41912126  1
  O  O6  1  0.89761188  0.32701632  0.21072096  1
  O  O7  1  0.10238812  0.67298368  0.71072096  1
  O  O8  1  0.16477799  0.32955597  0.56098292  1
  O  O9  1  0.83522201  0.67044403  0.06098292  1
  Mn  Mn10  1  0.30143710  0.60287421  0.60785806  1
  Mn  Mn11  1  0.69856290  0.39712579  0.10785806  1
  Cs  Cs12  1  0.60647191  0.21294382  0.54509834  1
  Cs  Cs13  1  0.39352809  0.78705618  0.04509834  1
  Cs  Cs14  1  0.92640933  0.85281866  0.41063183  1
  Cs  Cs15  1  0.07359067  0.14718134  0.91063183  1
