# generated using pymatgen
data_Na4FeO3
_symmetry_space_group_name_H-M   'P 1'
_cell_length_a   5.87528908
_cell_length_b   6.28547912
_cell_length_c   8.24494791
_cell_angle_alpha   110.48174906
_cell_angle_beta   90.00000000
_cell_angle_gamma   117.86371420
_symmetry_Int_Tables_number   1
_chemical_formula_structural   Na4FeO3
_chemical_formula_sum   'Na8 Fe2 O6'
_cell_volume   247.19560136
_cell_formula_units_Z   2
loop_
 _symmetry_equiv_pos_site_id
 _symmetry_equiv_pos_as_xyz
  1  'x, y, z'
loop_
 _atom_site_type_symbol
 _atom_site_label
 _atom_site_symmetry_multiplicity
 _atom_site_fract_x
 _atom_site_fract_y
 _atom_site_fract_z
 _atom_site_occupancy
  O  O0  1  0.88796860  0.87550062  0.79595052  1
  O  O1  1  0.31278820  0.62992819  0.60687270  1
  O  O2  1  0.31714028  0.62992876  0.10687385  1
  O  O3  1  0.98753237  0.87550119  0.29595048  1
  O  O4  1  0.63762521  0.29660252  0.34210650  1
  O  O5  1  0.65897708  0.29660195  0.84210654  1
  Na  Na6  1  0.27654456  0.22578708  0.94636645  1
  Na  Na7  1  0.72770231  0.76991297  0.03362300  1
  Na  Na8  1  0.94924186  0.22578566  0.44636587  1
  Na  Na9  1  0.09532903  0.61003684  0.84747176  1
  Na  Na10  1  0.51470809  0.61003741  0.34747172  1
  Na  Na11  1  0.86888053  0.41905796  0.13180784  1
  Na  Na12  1  0.04221037  0.76991240  0.53362304  1
  Na  Na13  1  0.55017820  0.41905939  0.63180842  1
  Fe  Fe14  1  0.62534260  0.95677162  0.74689936  1
  Fe  Fe15  1  0.33142930  0.95677219  0.24690052  1
