# generated using pymatgen
data_Ba2CdS3
_symmetry_space_group_name_H-M   'P 1'
_cell_length_a   4.39563286
_cell_length_b   9.06803817
_cell_length_c   17.50500220
_cell_angle_alpha   90.00000000
_cell_angle_beta   90.00000000
_cell_angle_gamma   90.00000000
_symmetry_Int_Tables_number   1
_chemical_formula_structural   Ba2CdS3
_chemical_formula_sum   'Ba8 Cd4 S12'
_cell_volume   697.74530125
_cell_formula_units_Z   4
loop_
 _symmetry_equiv_pos_site_id
 _symmetry_equiv_pos_as_xyz
  1  'x, y, z'
loop_
 _atom_site_type_symbol
 _atom_site_label
 _atom_site_symmetry_multiplicity
 _atom_site_fract_x
 _atom_site_fract_y
 _atom_site_fract_z
 _atom_site_occupancy
  S  S0  1  0.25000000  0.48358045  0.90350587  1
  S  S1  1  0.75000000  0.51641955  0.09649413  1
  S  S2  1  0.25000000  0.98358045  0.59649413  1
  S  S3  1  0.75000000  0.01641955  0.40350587  1
  S  S4  1  0.25000000  0.62166261  0.42772950  1
  S  S5  1  0.75000000  0.37833739  0.57227050  1
  S  S6  1  0.25000000  0.12166261  0.07227050  1
  S  S7  1  0.75000000  0.68122325  0.72509635  1
  S  S8  1  0.25000000  0.81877675  0.22509635  1
  S  S9  1  0.75000000  0.18122325  0.77490365  1
  S  S10  1  0.25000000  0.31877675  0.27490365  1
  S  S11  1  0.75000000  0.87833739  0.92772950  1
  Cd  Cd12  1  0.75000000  0.62110209  0.86882919  1
  Cd  Cd13  1  0.75000000  0.12110209  0.63117081  1
  Cd  Cd14  1  0.25000000  0.37889791  0.13117081  1
  Cd  Cd15  1  0.25000000  0.87889791  0.36882919  1
  Ba  Ba16  1  0.25000000  0.26526059  0.45813373  1
  Ba  Ba17  1  0.75000000  0.23473941  0.95813373  1
  Ba  Ba18  1  0.25000000  0.76526059  0.04186627  1
  Ba  Ba19  1  0.75000000  0.73473941  0.54186627  1
  Ba  Ba20  1  0.25000000  0.91942276  0.78406675  1
  Ba  Ba21  1  0.75000000  0.08057724  0.21593325  1
  Ba  Ba22  1  0.25000000  0.41942276  0.71593325  1
  Ba  Ba23  1  0.75000000  0.58057724  0.28406675  1
