# generated using pymatgen
data_Ba4LiNb3O12
_symmetry_space_group_name_H-M   'P 1'
_cell_length_a   5.88723546
_cell_length_b   5.88723545
_cell_length_c   19.40103010
_cell_angle_alpha   90.00000000
_cell_angle_beta   90.00000000
_cell_angle_gamma   120.00000003
_symmetry_Int_Tables_number   1
_chemical_formula_structural   Ba4LiNb3O12
_chemical_formula_sum   'Ba8 Li2 Nb6 O24'
_cell_volume   582.34215886
_cell_formula_units_Z   2
loop_
 _symmetry_equiv_pos_site_id
 _symmetry_equiv_pos_as_xyz
  1  'x, y, z'
loop_
 _atom_site_type_symbol
 _atom_site_label
 _atom_site_symmetry_multiplicity
 _atom_site_fract_x
 _atom_site_fract_y
 _atom_site_fract_z
 _atom_site_occupancy
  Li  Li0  1  0.00000000  0.00000000  0.16602663  1
  Li  Li1  1  0.00000000  0.00000000  0.66602663  1
  O  O2  1  0.84068419  0.68136839  0.75671403  1
  O  O3  1  0.15931581  0.31863161  0.25671403  1
  O  O4  1  0.68136839  0.84068419  0.25671403  1
  O  O5  1  0.84068419  0.15931581  0.75671403  1
  O  O6  1  0.16955741  0.83044259  0.87832470  1
  O  O7  1  0.33911483  0.16955741  0.37832470  1
  O  O8  1  0.83044259  0.66088517  0.37832470  1
  O  O9  1  0.16955741  0.33911483  0.87832470  1
  O  O10  1  0.66088517  0.83044259  0.87832470  1
  O  O11  1  0.83044259  0.16955741  0.37832470  1
  O  O12  1  0.17294325  0.82705675  0.61840573  1
  O  O13  1  0.34588649  0.17294325  0.11840573  1
  O  O14  1  0.15931581  0.84068419  0.25671403  1
  O  O15  1  0.31863161  0.15931581  0.75671403  1
  O  O16  1  0.49863603  0.50136397  0.99679976  1
  O  O17  1  0.99727206  0.49863603  0.49679976  1
  O  O18  1  0.50136397  0.00272794  0.49679976  1
  O  O19  1  0.49863603  0.99727206  0.99679976  1
  O  O20  1  0.00272794  0.50136397  0.99679976  1
  O  O21  1  0.50136397  0.49863603  0.49679976  1
  O  O22  1  0.82705675  0.17294325  0.11840573  1
  O  O23  1  0.65411351  0.82705675  0.61840573  1
  O  O24  1  0.17294325  0.34588649  0.61840573  1
  O  O25  1  0.82705675  0.65411351  0.11840573  1
  Nb  Nb26  1  0.66666667  0.33333333  0.43996271  1
  Nb  Nb27  1  0.33333333  0.66666667  0.93996271  1
  Nb  Nb28  1  0.66666667  0.33333333  0.06770291  1
  Nb  Nb29  1  0.33333333  0.66666667  0.56770291  1
  Nb  Nb30  1  0.00000000  0.00000000  0.80836546  1
  Nb  Nb31  1  0.00000000  0.00000000  0.30836546  1
  Ba  Ba32  1  0.66666667  0.33333333  0.25095162  1
  Ba  Ba33  1  0.33333333  0.66666667  0.75095162  1
  Ba  Ba34  1  0.66666667  0.33333333  0.87104380  1
  Ba  Ba35  1  0.33333333  0.66666667  0.37104380  1
  Ba  Ba36  1  0.66666667  0.33333333  0.64409678  1
  Ba  Ba37  1  0.33333333  0.66666667  0.14409678  1
  Ba  Ba38  1  0.00000000  0.00000000  0.50111742  1
  Ba  Ba39  1  0.00000000  0.00000000  0.00111742  1
