# generated using pymatgen
data_Sr2ZnBi2
_symmetry_space_group_name_H-M   'P 1'
_cell_length_a   4.83666281
_cell_length_b   4.83666281
_cell_length_c   8.83719254
_cell_angle_alpha   90.00000000
_cell_angle_beta   90.00000000
_cell_angle_gamma   120.46971447
_symmetry_Int_Tables_number   1
_chemical_formula_structural   Sr2ZnBi2
_chemical_formula_sum   'Sr2 Zn1 Bi2'
_cell_volume   178.18103097
_cell_formula_units_Z   1
loop_
 _symmetry_equiv_pos_site_id
 _symmetry_equiv_pos_as_xyz
  1  'x, y, z'
loop_
 _atom_site_type_symbol
 _atom_site_label
 _atom_site_symmetry_multiplicity
 _atom_site_fract_x
 _atom_site_fract_y
 _atom_site_fract_z
 _atom_site_occupancy
  Sr  Sr0  1  0.99921582  0.00078418  0.53414114  1
  Sr  Sr1  1  0.99921582  0.00078418  0.96585886  1
  Zn  Zn2  1  0.66612834  0.33387166  0.25000000  1
  Bi  Bi3  1  0.66818859  0.33181141  0.75000000  1
  Bi  Bi4  1  0.33395143  0.66604857  0.25000000  1
