# generated using pymatgen
data_BaCo2Si2O7
_symmetry_space_group_name_H-M   'P 1'
_cell_length_a   7.36953113
_cell_length_b   7.45388114
_cell_length_c   13.86067472
_cell_angle_alpha   89.93691057
_cell_angle_beta   89.87237684
_cell_angle_gamma   60.37363792
_symmetry_Int_Tables_number   1
_chemical_formula_structural   BaCo2Si2O7
_chemical_formula_sum   'Ba4 Co8 Si8 O28'
_cell_volume   661.84926914
_cell_formula_units_Z   4
loop_
 _symmetry_equiv_pos_site_id
 _symmetry_equiv_pos_as_xyz
  1  'x, y, z'
loop_
 _atom_site_type_symbol
 _atom_site_label
 _atom_site_symmetry_multiplicity
 _atom_site_fract_x
 _atom_site_fract_y
 _atom_site_fract_z
 _atom_site_occupancy
  O  O0  1  0.98753427  0.77436141  0.94613618  1
  O  O1  1  0.23810407  0.77436141  0.55386359  1
  O  O2  1  0.01246525  0.22563878  0.05386364  1
  O  O3  1  0.76189680  0.22563878  0.44613623  1
  O  O4  1  0.92011831  0.72882310  0.75552273  1
  O  O5  1  0.35105835  0.72882310  0.74447705  1
  O  O6  1  0.07988121  0.27117709  0.24447710  1
  O  O7  1  0.64894117  0.27117709  0.25552277  1
  O  O8  1  0.60453323  0.97454923  0.87788300  1
  O  O9  1  0.42091730  0.97454923  0.62211750  1
  O  O10  1  0.39546629  0.02545096  0.12211682  1
  O  O11  1  0.57908358  0.02545096  0.37788305  1
  O  O12  1  0.31785041  0.36390202  0.86658039  1
  O  O13  1  0.31824730  0.36390202  0.63341955  1
  O  O14  1  0.68214911  0.63609817  0.13341943  1
  O  O15  1  0.68175222  0.63609817  0.36658100  1
  O  O16  1  0.61590752  0.27284771  0.98945697  1
  O  O17  1  0.11124585  0.27284771  0.51054297  1
  O  O18  1  0.38409335  0.72715249  0.01054358  1
  O  O19  1  0.88875503  0.72715249  0.48945685  1
  O  O20  1  0.35099699  0.43994370  0.38371484  1
  O  O21  1  0.20905878  0.43994370  0.11628576  1
  O  O22  1  0.64900253  0.56005649  0.61628571  1
  O  O23  1  0.79094074  0.56005649  0.88371479  1
  O  O24  1  0.71815113  0.23038767  0.79768472  1
  O  O25  1  0.28184974  0.76961252  0.20231511  1
  O  O26  1  0.05146227  0.23038767  0.70231522  1
  O  O27  1  0.94853860  0.76961252  0.29768460  1
  Si  Si28  1  0.57283917  0.21377318  0.88136984  1
  Si  Si29  1  0.21338873  0.21377318  0.61863009  1
  Si  Si30  1  0.42716171  0.78622701  0.11862998  1
  Si  Si31  1  0.78661214  0.78622701  0.38136973  1
  Si  Si32  1  0.83428048  0.75419481  0.86683711  1
  Si  Si33  1  0.41152447  0.75419481  0.63316267  1
  Si  Si34  1  0.16571904  0.24580539  0.13316272  1
  Si  Si35  1  0.58847505  0.24580539  0.36683715  1
  Co  Co36  1  0.73783702  0.46061253  0.00975133  1
  Co  Co37  1  0.80154996  0.46061253  0.49024911  1
  Co  Co38  1  0.77297965  0.45404156  0.24999985  1
  Co  Co39  1  0.19845034  0.53938610  0.50975144  1
  Co  Co40  1  0.77159804  0.45680367  0.74999989  1
  Co  Co41  1  0.22840148  0.54319652  0.24999994  1
  Co  Co42  1  0.22702122  0.54595863  0.74999997  1
  Co  Co43  1  0.26216328  0.53938610  0.99024850  1
  Ba  Ba44  1  0.78060614  0.03459518  0.62260646  1
  Ba  Ba45  1  0.18479840  0.03459518  0.87739348  1
  Ba  Ba46  1  0.21939473  0.96540501  0.37739336  1
  Ba  Ba47  1  0.81520112  0.96540501  0.12260635  1
