# generated using pymatgen
data_Ho6WO12
_symmetry_space_group_name_H-M   'P 1'
_cell_length_a   6.46095877
_cell_length_b   6.46095877
_cell_length_c   6.46095876
_cell_angle_alpha   98.72058270
_cell_angle_beta   98.72058274
_cell_angle_gamma   98.72058274
_symmetry_Int_Tables_number   1
_chemical_formula_structural   Ho6WO12
_chemical_formula_sum   'Ho6 W1 O12'
_cell_volume   259.26429886
_cell_formula_units_Z   1
loop_
 _symmetry_equiv_pos_site_id
 _symmetry_equiv_pos_as_xyz
  1  'x, y, z'
loop_
 _atom_site_type_symbol
 _atom_site_label
 _atom_site_symmetry_multiplicity
 _atom_site_fract_x
 _atom_site_fract_y
 _atom_site_fract_z
 _atom_site_occupancy
  O  O0  1  0.43120558  0.17740730  0.59048595  1
  O  O1  1  0.17740617  0.59048528  0.43120524  1
  O  O2  1  0.59048645  0.43120578  0.17740674  1
  O  O3  1  0.56879478  0.82259270  0.40951395  1
  O  O4  1  0.82259419  0.40951473  0.56879465  1
  O  O5  1  0.40951391  0.56879422  0.82259315  1
  O  O6  1  0.03522810  0.92150417  0.70243993  1
  O  O7  1  0.29755936  0.96477311  0.07849587  1
  O  O8  1  0.07849583  0.29755972  0.96477298  1
  O  O9  1  0.92150453  0.70244029  0.03522691  1
  O  O10  1  0.70244100  0.03522689  0.92150402  1
  O  O11  1  0.96477226  0.07849584  0.29755996  1
  Ho  Ho12  1  0.14431536  0.31720155  0.61106279  1
  Ho  Ho13  1  0.68279854  0.38893688  0.85568418  1
  Ho  Ho14  1  0.38893614  0.85568429  0.68279779  1
  Ho  Ho15  1  0.61106422  0.14431572  0.31720210  1
  Ho  Ho16  1  0.31720182  0.61106313  0.14431572  1
  Ho  Ho17  1  0.85568500  0.68279846  0.38893710  1
  W  W18  1  0.00000000  0.00000000  0.00000000  1
