# generated using pymatgen
data_Sr2CoWO6
_symmetry_space_group_name_H-M   'P 1'
_cell_length_a   5.67841778
_cell_length_b   5.71575791
_cell_length_c   7.99712669
_cell_angle_alpha   89.85913361
_cell_angle_beta   90.00000000
_cell_angle_gamma   90.00000000
_symmetry_Int_Tables_number   1
_chemical_formula_structural   Sr2CoWO6
_chemical_formula_sum   'Sr4 Co2 W2 O12'
_cell_volume   259.55764854
_cell_formula_units_Z   2
loop_
 _symmetry_equiv_pos_site_id
 _symmetry_equiv_pos_as_xyz
  1  'x, y, z'
loop_
 _atom_site_type_symbol
 _atom_site_label
 _atom_site_symmetry_multiplicity
 _atom_site_fract_x
 _atom_site_fract_y
 _atom_site_fract_z
 _atom_site_occupancy
  O  O0  1  0.21896305  0.26076683  0.46970843  1
  O  O1  1  0.71896195  0.23923342  0.03029171  1
  O  O2  1  0.78103653  0.73923367  0.53029185  1
  O  O3  1  0.28103763  0.76076708  0.96970731  1
  O  O4  1  0.73701379  0.21682774  0.46883377  1
  O  O5  1  0.23701311  0.28317251  0.03116637  1
  O  O6  1  0.26298580  0.78317277  0.53116651  1
  O  O7  1  0.76298647  0.71682799  0.96883391  1
  O  O8  1  0.99255777  0.05872537  0.74037381  1
  O  O9  1  0.49255709  0.44127479  0.75962640  1
  O  O10  1  0.50744249  0.55872571  0.24037387  1
  O  O11  1  0.00744359  0.94127513  0.25962647  1
  Co  Co12  1  0.50000068  0.50000025  0.50000014  1
  Co  Co13  1  0.00000000  0.00000000  0.00000000  1
  Sr  Sr14  1  0.51741777  0.99730596  0.75140634  1
  Sr  Sr15  1  0.01741887  0.50269480  0.74859408  1
  Sr  Sr16  1  0.48258181  0.00269454  0.24859394  1
  Sr  Sr17  1  0.98258071  0.49730571  0.25140620  1
  W  W18  1  0.00000000  0.99999996  0.50000004  1
  W  W19  1  0.50000068  0.50000029  0.00000010  1
