# generated using pymatgen
data_K2Co(SeO3)2
_symmetry_space_group_name_H-M   'P 1'
_cell_length_a   7.09928495
_cell_length_b   7.05734113
_cell_length_c   7.09261848
_cell_angle_alpha   46.76725803
_cell_angle_beta   46.36417240
_cell_angle_gamma   46.69274566
_symmetry_Int_Tables_number   1
_chemical_formula_structural   K2Co(SeO3)2
_chemical_formula_sum   'K2 Co1 Se2 O6'
_cell_volume   171.37415278
_cell_formula_units_Z   1
loop_
 _symmetry_equiv_pos_site_id
 _symmetry_equiv_pos_as_xyz
  1  'x, y, z'
loop_
 _atom_site_type_symbol
 _atom_site_label
 _atom_site_symmetry_multiplicity
 _atom_site_fract_x
 _atom_site_fract_y
 _atom_site_fract_z
 _atom_site_occupancy
  O  O0  1  0.24815703  0.72897152  0.24703944  1
  O  O1  1  0.75184312  0.27102859  0.75296130  1
  O  O2  1  0.26765719  0.75698636  0.75597109  1
  Se  Se3  1  0.63090411  0.63222531  0.63097440  1
  K  K4  1  0.80596264  0.80508509  0.80566920  1
  O  O5  1  0.73234265  0.24301350  0.24402851  1
  Co  Co6  1  0.99999961  0.99999967  0.00000074  1
  K  K7  1  0.19403674  0.19491615  0.19433173  1
  O  O8  1  0.24579370  0.24381623  0.73150151  1
  Se  Se9  1  0.36909595  0.36777484  0.36902524  1
  O  O10  1  0.75420726  0.75618275  0.26849685  1
