# generated using pymatgen
data_BaCoP2O7
_symmetry_space_group_name_H-M   'P 1'
_cell_length_a   5.38200785
_cell_length_b   7.51824978
_cell_length_c   7.69477417
_cell_angle_alpha   102.72905978
_cell_angle_beta   92.08564915
_cell_angle_gamma   94.29332255
_symmetry_Int_Tables_number   1
_chemical_formula_structural   BaCoP2O7
_chemical_formula_sum   'Ba2 Co2 P4 O14'
_cell_volume   302.40332158
_cell_formula_units_Z   2
loop_
 _symmetry_equiv_pos_site_id
 _symmetry_equiv_pos_as_xyz
  1  'x, y, z'
loop_
 _atom_site_type_symbol
 _atom_site_label
 _atom_site_symmetry_multiplicity
 _atom_site_fract_x
 _atom_site_fract_y
 _atom_site_fract_z
 _atom_site_occupancy
  O  O0  1  0.56389499  0.27379663  0.39354827  1
  O  O1  1  0.43610582  0.72620410  0.60645139  1
  O  O2  1  0.78993816  0.96843276  0.74934059  1
  O  O3  1  0.21006247  0.03156661  0.25065879  1
  O  O4  1  0.10818464  0.34831680  0.40965103  1
  O  O5  1  0.89181413  0.65168259  0.59034832  1
  O  O6  1  0.73069830  0.87090375  0.41402686  1
  O  O7  1  0.26930250  0.12909698  0.58597280  1
  O  O8  1  0.07485277  0.38518157  0.79761263  1
  O  O9  1  0.92514790  0.61481783  0.20238806  1
  O  O10  1  0.55057367  0.38329982  0.79329304  1
  O  O11  1  0.70467485  0.85060261  0.07999451  1
  O  O12  1  0.29532582  0.14939680  0.92000618  1
  O  O13  1  0.44942513  0.61669960  0.20670761  1
  P  P14  1  0.69964164  0.73292313  0.21762981  1
  P  P15  1  0.30035730  0.26707762  0.78236982  1
  P  P16  1  0.29226719  0.19389917  0.39849819  1
  P  P17  1  0.70773158  0.80610022  0.60150115  1
  Co  Co18  1  0.80560249  0.38505206  0.60208986  1
  Co  Co19  1  0.19439631  0.61494737  0.39791079  1
  Ba  Ba20  1  0.20238644  0.77798104  0.93441642  1
  Ba  Ba21  1  0.79761423  0.22201837  0.06558427  1
