# generated using pymatgen
data_Rb2MoO4
_symmetry_space_group_name_H-M   'P 1'
_cell_length_a   6.39708570
_cell_length_b   7.27132265
_cell_length_c   8.01030923
_cell_angle_alpha   113.03861807
_cell_angle_beta   90.00000000
_cell_angle_gamma   116.09651836
_symmetry_Int_Tables_number   1
_chemical_formula_structural   Rb2MoO4
_chemical_formula_sum   'Rb4 Mo2 O8'
_cell_volume   301.17321161
_cell_formula_units_Z   2
loop_
 _symmetry_equiv_pos_site_id
 _symmetry_equiv_pos_as_xyz
  1  'x, y, z'
loop_
 _atom_site_type_symbol
 _atom_site_label
 _atom_site_symmetry_multiplicity
 _atom_site_fract_x
 _atom_site_fract_y
 _atom_site_fract_z
 _atom_site_occupancy
  O  O0  1  0.37335448  0.28615522  0.08144512  1
  O  O1  1  0.08719921  0.71384541  0.91855479  1
  O  O2  1  0.62664621  0.71384541  0.91855479  1
  O  O3  1  0.91280149  0.28615522  0.08144512  1
  O  O4  1  0.67314988  0.34629901  0.62726008  1
  O  O5  1  0.32685081  0.65370163  0.37273983  1
  O  O6  1  0.09362069  0.18724139  0.35655395  1
  O  O7  1  0.90637914  0.81275754  0.64344536  1
  Rb  Rb8  1  0.84386861  0.68773647  0.25250194  1
  Rb  Rb9  1  0.15613208  0.31226416  0.74749798  1
  Rb  Rb10  1  0.48694863  0.97389727  0.76133866  1
  Rb  Rb11  1  0.51305120  0.02610166  0.23866190  1
  Mo  Mo12  1  0.17584989  0.35169978  0.22475034  1
  Mo  Mo13  1  0.82415080  0.64830085  0.77524957  1
