# generated using pymatgen
data_K2NiO2
_symmetry_space_group_name_H-M   'P 1'
_cell_length_a   3.96490903
_cell_length_b   3.96490903
_cell_length_c   7.08127369
_cell_angle_alpha   106.25765838
_cell_angle_beta   106.25765834
_cell_angle_gamma   89.99999996
_symmetry_Int_Tables_number   1
_chemical_formula_structural   K2NiO2
_chemical_formula_sum   'K2 Ni1 O2'
_cell_volume   102.22460454
_cell_formula_units_Z   1
loop_
 _symmetry_equiv_pos_site_id
 _symmetry_equiv_pos_as_xyz
  1  'x, y, z'
loop_
 _atom_site_type_symbol
 _atom_site_label
 _atom_site_symmetry_multiplicity
 _atom_site_fract_x
 _atom_site_fract_y
 _atom_site_fract_z
 _atom_site_occupancy
  O  O0  1  0.13231203  0.13231139  0.26462224  1
  O  O1  1  0.86768978  0.86768824  0.73537664  1
  K  K2  1  0.65847279  0.65847265  0.31694690  1
  K  K3  1  0.34152643  0.34152699  0.68305299  1
  Ni  Ni4  1  0.00000000  0.00000000  0.00000000  1
