# generated using pymatgen
data_NdCrO3
_symmetry_space_group_name_H-M   'P 1'
_cell_length_a   5.47634513
_cell_length_b   5.63598032
_cell_length_c   7.81850935
_cell_angle_alpha   90.00000000
_cell_angle_beta   90.00000000
_cell_angle_gamma   90.00000000
_symmetry_Int_Tables_number   1
_chemical_formula_structural   NdCrO3
_chemical_formula_sum   'Nd4 Cr4 O12'
_cell_volume   241.31495554
_cell_formula_units_Z   4
loop_
 _symmetry_equiv_pos_site_id
 _symmetry_equiv_pos_as_xyz
  1  'x, y, z'
loop_
 _atom_site_type_symbol
 _atom_site_label
 _atom_site_symmetry_multiplicity
 _atom_site_fract_x
 _atom_site_fract_y
 _atom_site_fract_z
 _atom_site_occupancy
  O  O0  1  0.70473991  0.29379823  0.45170468  1
  O  O1  1  0.20474017  0.20620212  0.54829537  1
  O  O2  1  0.79525930  0.79379857  0.04829534  1
  O  O3  1  0.29525956  0.70620246  0.95170471  1
  O  O4  1  0.29525956  0.70620246  0.54829537  1
  O  O5  1  0.79525930  0.79379857  0.45170468  1
  O  O6  1  0.20474017  0.20620212  0.95170471  1
  O  O7  1  0.70473991  0.29379823  0.04829534  1
  O  O8  1  0.40919579  0.97393215  0.24999937  1
  O  O9  1  0.90919553  0.52606889  0.74999939  1
  O  O10  1  0.59080552  0.02606854  0.74999939  1
  O  O11  1  0.09080394  0.47393180  0.24999937  1
  Cr  Cr12  1  0.49999974  0.00000000  0.50000003  1
  Cr  Cr13  1  0.00000000  0.50000034  0.50000003  1
  Cr  Cr14  1  0.00000000  0.50000034  0.00000000  1
  Cr  Cr15  1  0.49999974  0.00000000  0.00000000  1
  Nd  Nd16  1  0.48670967  0.44694549  0.74999939  1
  Nd  Nd17  1  0.98670941  0.05305307  0.24999937  1
  Nd  Nd18  1  0.01329006  0.94694583  0.74999939  1
  Nd  Nd19  1  0.51329164  0.55305342  0.24999937  1
