# generated using pymatgen
data_NaV(SiO3)2
_symmetry_space_group_name_H-M   'P 1'
_cell_length_a   5.39500786
_cell_length_b   6.61502659
_cell_length_c   6.61502588
_cell_angle_alpha   84.46111486
_cell_angle_beta   77.31254494
_cell_angle_gamma   77.31254165
_symmetry_Int_Tables_number   1
_chemical_formula_structural   NaV(SiO3)2
_chemical_formula_sum   'Na2 V2 Si4 O12'
_cell_volume   224.40049249
_cell_formula_units_Z   2
loop_
 _symmetry_equiv_pos_site_id
 _symmetry_equiv_pos_as_xyz
  1  'x, y, z'
loop_
 _atom_site_type_symbol
 _atom_site_label
 _atom_site_symmetry_multiplicity
 _atom_site_fract_x
 _atom_site_fract_y
 _atom_site_fract_z
 _atom_site_occupancy
  Na  Na0  1  0.75000000  0.29638085  0.70361915  1
  Na  Na1  1  0.25000000  0.70361915  0.29638085  1
  V  V2  1  0.75000000  0.90461636  0.09538364  1
  V  V3  1  0.25000000  0.09538364  0.90461636  1
  Si  Si4  1  0.25779022  0.20282412  0.38138414  1
  Si  Si5  1  0.75779022  0.38138414  0.20282412  1
  Si  Si6  1  0.24220978  0.61861586  0.79717588  1
  Si  Si7  1  0.74220978  0.79717588  0.61861586  1
  O  O8  1  0.64745516  0.96207927  0.80520158  1
  O  O9  1  0.35254484  0.03792073  0.19479842  1
  O  O10  1  0.69658735  0.61654099  0.10767161  1
  O  O11  1  0.97921650  0.35690792  0.34703825  1
  O  O12  1  0.14745516  0.80520158  0.96207927  1
  O  O13  1  0.52078350  0.65296175  0.64309208  1
  O  O14  1  0.30341265  0.38345901  0.89232839  1
  O  O15  1  0.85254484  0.19479842  0.03792073  1
  O  O16  1  0.47921650  0.34703825  0.35690792  1
  O  O17  1  0.80341265  0.89232839  0.38345901  1
  O  O18  1  0.02078350  0.64309208  0.65296175  1
  O  O19  1  0.19658735  0.10767161  0.61654099  1
