# generated using pymatgen
data_Co3(PO4)2
_symmetry_space_group_name_H-M   'P 1'
_cell_length_a   5.09789051
_cell_length_b   7.72103410
_cell_length_c   8.44241748
_cell_angle_alpha   90.00000000
_cell_angle_beta   90.00000000
_cell_angle_gamma   94.49113952
_symmetry_Int_Tables_number   1
_chemical_formula_structural   Co3(PO4)2
_chemical_formula_sum   'Co6 P4 O16'
_cell_volume   331.28153217
_cell_formula_units_Z   2
loop_
 _symmetry_equiv_pos_site_id
 _symmetry_equiv_pos_as_xyz
  1  'x, y, z'
loop_
 _atom_site_type_symbol
 _atom_site_label
 _atom_site_symmetry_multiplicity
 _atom_site_fract_x
 _atom_site_fract_y
 _atom_site_fract_z
 _atom_site_occupancy
  O  O0  1  0.55601272  0.74541086  0.63889988  1
  O  O1  1  0.94398820  0.75458858  0.13889942  1
  O  O2  1  0.44398794  0.25458921  0.36109985  1
  O  O3  1  0.05601247  0.24541148  0.86110030  1
  O  O4  1  0.45782277  0.64241741  0.92112405  1
  O  O5  1  0.04217688  0.85758357  0.42112360  1
  O  O6  1  0.54217790  0.35758266  0.07887686  1
  O  O7  1  0.95782379  0.14241650  0.57887612  1
  O  O8  1  0.18794206  0.87117151  0.80621957  1
  O  O9  1  0.31205759  0.62882947  0.30622030  1
  O  O10  1  0.17479143  0.44553791  0.63999273  1
  O  O11  1  0.32520898  0.05446278  0.13999346  1
  O  O12  1  0.82520924  0.55446216  0.36000699  1
  O  O13  1  0.81205663  0.12882855  0.19378015  1
  O  O14  1  0.68794308  0.37117060  0.69378060  1
  O  O15  1  0.67479169  0.94553728  0.86000626  1
  P  P16  1  0.46483720  0.80160851  0.80712229  1
  P  P17  1  0.03516230  0.69839115  0.30712302  1
  P  P18  1  0.53516149  0.19839155  0.19287743  1
  P  P19  1  0.96483837  0.30160891  0.69287670  1
  Co  Co20  1  0.90884542  0.88852285  0.64165355  1
  Co  Co21  1  0.59115566  0.61147791  0.14165428  1
  Co  Co22  1  0.40884501  0.38852216  0.85834662  1
  Co  Co23  1  0.09115525  0.11147722  0.35834617  1
  Co  Co24  1  0.50000026  0.49999938  0.50000045  1
  Co  Co25  1  0.00000000  0.00000000  0.00000000  1
