# generated using pymatgen
data_CoSO4
_symmetry_space_group_name_H-M   'P 1'
_cell_length_a   4.81645118
_cell_length_b   6.77824070
_cell_length_c   8.68514889
_cell_angle_alpha   90.00333868
_cell_angle_beta   89.99907642
_cell_angle_gamma   90.00041295
_symmetry_Int_Tables_number   1
_chemical_formula_structural   CoSO4
_chemical_formula_sum   'Co4 S4 O16'
_cell_volume   283.54462371
_cell_formula_units_Z   4
loop_
 _symmetry_equiv_pos_site_id
 _symmetry_equiv_pos_as_xyz
  1  'x, y, z'
loop_
 _atom_site_type_symbol
 _atom_site_label
 _atom_site_symmetry_multiplicity
 _atom_site_fract_x
 _atom_site_fract_y
 _atom_site_fract_z
 _atom_site_occupancy
  S  S0  1  0.97310003  0.75002465  0.32163370  1
  O  O1  1  0.76833288  0.25001721  0.12498651  1
  O  O2  1  0.83627595  0.56752605  0.37467376  1
  O  O3  1  0.95755189  0.74998609  0.14684096  1
  O  O4  1  0.83627531  0.93245474  0.37466502  1
  O  O5  1  0.23166693  0.74998286  0.87501345  1
  S  S6  1  0.52690023  0.74999057  0.82165073  1
  S  S7  1  0.02690008  0.24997544  0.67836630  1
  O  O8  1  0.26832960  0.75000959  0.37499691  1
  S  S9  1  0.47309962  0.25000942  0.17834929  1
  O  O10  1  0.33628276  0.06757205  0.12530264  1
  O  O11  1  0.16372498  0.06754543  0.62533488  1
  O  O12  1  0.54246438  0.74998216  0.64685443  1
  O  O13  1  0.66371500  0.56750177  0.87468016  1
  O  O14  1  0.73167043  0.24999039  0.62500307  1
  O  O15  1  0.33628460  0.43249808  0.12531982  1
  O  O16  1  0.16372405  0.43247409  0.62532624  1
  Co  Co17  1  0.50000008  -0.00000003  0.50000003  1
  O  O18  1  0.45753563  0.25001780  0.35314552  1
  Co  Co19  1  0.00000010  0.99999998  0.00000003  1
  O  O20  1  0.66371725  0.93242780  0.87469741  1
  O  O21  1  0.04244819  0.25001392  0.85315910  1
  Co  Co22  1  0.99999985  0.49999993  -0.00000001  1
  Co  Co23  1  0.50000016  0.50000000  0.50000004  1
