# generated using pymatgen
data_Nd2MnCoO6
_symmetry_space_group_name_H-M   'P 1'
_cell_length_a   5.45193979
_cell_length_b   5.63625655
_cell_length_c   7.76178216
_cell_angle_alpha   90.00000000
_cell_angle_beta   90.00515010
_cell_angle_gamma   90.00000000
_symmetry_Int_Tables_number   1
_chemical_formula_structural   Nd2MnCoO6
_chemical_formula_sum   'Nd4 Mn2 Co2 O12'
_cell_volume   238.50816535
_cell_formula_units_Z   2
loop_
 _symmetry_equiv_pos_site_id
 _symmetry_equiv_pos_as_xyz
  1  'x, y, z'
loop_
 _atom_site_type_symbol
 _atom_site_label
 _atom_site_symmetry_multiplicity
 _atom_site_fract_x
 _atom_site_fract_y
 _atom_site_fract_z
 _atom_site_occupancy
  Nd  Nd0  1  0.51357105  0.55683487  0.25020586  1
  Nd  Nd1  1  0.98642895  0.05683487  0.24979414  1
  Nd  Nd2  1  0.48642895  0.44316513  0.74979414  1
  Nd  Nd3  1  0.01357105  0.94316513  0.75020586  1
  Mn  Mn4  1  0.00000000  0.50000000  0.50000000  1
  Mn  Mn5  1  0.50000000  0.00000000  0.00000000  1
  Co  Co6  1  0.00000000  0.50000000  0.00000000  1
  Co  Co7  1  0.50000000  0.00000000  0.50000000  1
  O  O8  1  0.08639481  0.47793790  0.25716328  1
  O  O9  1  0.19676921  0.21491048  0.54684447  1
  O  O10  1  0.30323079  0.71491048  0.95315553  1
  O  O11  1  0.21382411  0.19882924  0.95542282  1
  O  O12  1  0.91360519  0.52206210  0.74283672  1
  O  O13  1  0.80323079  0.78508952  0.45315553  1
  O  O14  1  0.71382411  0.30117076  0.45542282  1
  O  O15  1  0.58639481  0.02206210  0.75716328  1
  O  O16  1  0.41360519  0.97793790  0.24283672  1
  O  O17  1  0.78617589  0.80117076  0.04457718  1
  O  O18  1  0.28617589  0.69882924  0.54457718  1
  O  O19  1  0.69676921  0.28508952  0.04684447  1
