# generated using pymatgen
data_SnAsPd6
_symmetry_space_group_name_H-M   'P 1'
_cell_length_a   4.50930680
_cell_length_b   4.50930680
_cell_length_c   7.76232775
_cell_angle_alpha   73.11444324
_cell_angle_beta   90.00000000
_cell_angle_gamma   120.00000000
_symmetry_Int_Tables_number   1
_chemical_formula_structural   SnAsPd6
_chemical_formula_sum   'Sn1 As1 Pd6'
_cell_volume   128.77417532
_cell_formula_units_Z   1
loop_
 _symmetry_equiv_pos_site_id
 _symmetry_equiv_pos_as_xyz
  1  'x, y, z'
loop_
 _atom_site_type_symbol
 _atom_site_label
 _atom_site_symmetry_multiplicity
 _atom_site_fract_x
 _atom_site_fract_y
 _atom_site_fract_z
 _atom_site_occupancy
  Sn  Sn0  1  0.50000000  -0.00000000  0.50000000  1
  As  As1  1  -0.00000000  -0.00000000  0.00000000  1
  Pd  Pd2  1  0.63032401  0.26064801  0.10902798  1
  Pd  Pd3  1  0.11845897  0.23691794  0.64462310  1
  Pd  Pd4  1  0.88154103  0.76308206  0.35537690  1
  Pd  Pd5  1  0.36967599  0.73935199  0.89097202  1
  Pd  Pd6  1  0.24493659  0.48987317  0.26519024  1
  Pd  Pd7  1  0.75506341  0.51012683  0.73480976  1
