# generated using pymatgen
data_BaDy2CoO5
_symmetry_space_group_name_H-M   'P 1'
_cell_length_a   5.76120541
_cell_length_b   7.13750163
_cell_length_c   12.37891710
_cell_angle_alpha   90.00000000
_cell_angle_beta   90.00000000
_cell_angle_gamma   90.00000000
_symmetry_Int_Tables_number   1
_chemical_formula_structural   BaDy2CoO5
_chemical_formula_sum   'Ba4 Dy8 Co4 O20'
_cell_volume   509.02865949
_cell_formula_units_Z   4
loop_
 _symmetry_equiv_pos_site_id
 _symmetry_equiv_pos_as_xyz
  1  'x, y, z'
loop_
 _atom_site_type_symbol
 _atom_site_label
 _atom_site_symmetry_multiplicity
 _atom_site_fract_x
 _atom_site_fract_y
 _atom_site_fract_z
 _atom_site_occupancy
  O  O0  1  0.25000012  0.42412713  0.60189297  1
  O  O1  1  0.75000037  0.57587231  0.39810685  1
  O  O2  1  0.75000037  0.92412825  0.89810717  1
  O  O3  1  0.25000012  0.07587259  0.10189265  1
  O  O4  1  0.00112383  0.86067265  0.27490317  1
  O  O5  1  0.50112407  0.13932819  0.72509666  1
  O  O6  1  0.99887492  0.36067293  0.22509715  1
  O  O7  1  0.49887468  0.63932791  0.77490348  1
  O  O8  1  0.99887492  0.13932819  0.72509666  1
  O  O9  1  0.49887468  0.86067265  0.27490317  1
  O  O10  1  0.00112383  0.63932791  0.77490348  1
  O  O11  1  0.50112407  0.36067293  0.22509715  1
  O  O12  1  0.49597290  0.66597548  0.06575753  1
  O  O13  1  0.99597315  0.33402536  0.93424229  1
  O  O14  1  0.50402758  0.16597436  0.43424197  1
  O  O15  1  0.00402734  0.83402508  0.56575785  1
  O  O16  1  0.99597315  0.16597436  0.43424197  1
  O  O17  1  0.49597290  0.83402508  0.56575785  1
  O  O18  1  0.50402758  0.33402536  0.93424229  1
  O  O19  1  0.00402734  0.66597548  0.06575753  1
  Co  Co20  1  0.25000012  0.80839421  0.15204620  1
  Co  Co21  1  0.75000037  0.19160663  0.84795443  1
  Co  Co22  1  0.75000037  0.30839450  0.34795412  1
  Co  Co23  1  0.25000012  0.69160634  0.65204571  1
  Ba  Ba24  1  0.75000037  0.07926227  0.10010542  1
  Ba  Ba25  1  0.75000037  0.42073745  0.60010573  1
  Ba  Ba26  1  0.25000012  0.57926199  0.39989490  1
  Ba  Ba27  1  0.25000012  0.92073716  0.89989441  1
  Dy  Dy28  1  0.25000012  0.40148585  0.07450877  1
  Dy  Dy29  1  0.75000037  0.61960768  0.20836605  1
  Dy  Dy30  1  0.75000037  0.88039147  0.70836637  1
  Dy  Dy31  1  0.25000012  0.11960796  0.29163427  1
  Dy  Dy32  1  0.75000037  0.59851499  0.92549105  1
  Dy  Dy33  1  0.75000037  0.90148556  0.42549074  1
  Dy  Dy34  1  0.25000012  0.09851387  0.57450909  1
  Dy  Dy35  1  0.25000012  0.38039175  0.79163377  1
