# generated using pymatgen
data_Ba3CoSb2O9
_symmetry_space_group_name_H-M   'P 1'
_cell_length_a   5.93774462
_cell_length_b   5.93774462
_cell_length_c   14.71007701
_cell_angle_alpha   90.00000000
_cell_angle_beta   90.00000000
_cell_angle_gamma   120.00000001
_symmetry_Int_Tables_number   1
_chemical_formula_structural   Ba3CoSb2O9
_chemical_formula_sum   'Ba6 Co2 Sb4 O18'
_cell_volume   449.14710786
_cell_formula_units_Z   2
loop_
 _symmetry_equiv_pos_site_id
 _symmetry_equiv_pos_as_xyz
  1  'x, y, z'
loop_
 _atom_site_type_symbol
 _atom_site_label
 _atom_site_symmetry_multiplicity
 _atom_site_fract_x
 _atom_site_fract_y
 _atom_site_fract_z
 _atom_site_occupancy
  O  O0  1  0.16898576  0.83101461  0.08430519  1
  O  O1  1  0.16898601  0.33797202  0.08430519  1
  O  O2  1  0.66202884  0.83101461  0.08430519  1
  O  O3  1  0.33797200  0.16898699  0.58430523  1
  O  O4  1  0.83101385  0.66202762  0.91569488  1
  O  O5  1  0.83101507  0.16898699  0.58430523  1
  O  O6  1  0.83101385  0.66202762  0.58430523  1
  O  O7  1  0.16898576  0.83101461  0.41569484  1
  O  O8  1  0.66202884  0.83101461  0.41569484  1
  O  O9  1  0.33797200  0.16898699  0.91569488  1
  O  O10  1  0.83101507  0.16898699  0.91569488  1
  O  O11  1  0.16898601  0.33797202  0.41569484  1
  O  O12  1  0.48177775  0.96355551  0.25000002  1
  O  O13  1  0.51822180  0.48177775  0.75000005  1
  O  O14  1  0.96355604  0.48177775  0.75000005  1
  O  O15  1  0.51822211  0.03644414  0.75000005  1
  O  O16  1  0.48177806  0.51822189  0.25000002  1
  O  O17  1  0.03644383  0.51822189  0.25000002  1
  Co  Co18  1  0.00000000  0.00000000  0.00000000  1
  Co  Co19  1  0.00000000  0.00000000  0.50000004  1
  Sb  Sb20  1  0.33333321  0.66666643  0.15204971  1
  Sb  Sb21  1  0.66666665  0.33333321  0.65204975  1
  Sb  Sb22  1  0.66666665  0.33333321  0.84795036  1
  Sb  Sb23  1  0.33333321  0.66666643  0.34795032  1
  Ba  Ba24  1  0.33333321  0.66666643  0.58677120  1
  Ba  Ba25  1  0.66666665  0.33333321  0.08677116  1
  Ba  Ba26  1  0.66666665  0.33333321  0.41322887  1
  Ba  Ba27  1  0.33333321  0.66666643  0.91322823  1
  Ba  Ba28  1  0.00000000  0.00000000  0.75000005  1
  Ba  Ba29  1  0.00000000  0.00000000  0.25000002  1
