# generated using pymatgen
data_CeCrSe2O
_symmetry_space_group_name_H-M   'P 1'
_cell_length_a   3.92621028
_cell_length_b   6.09541077
_cell_length_c   8.39456352
_cell_angle_alpha   90.45862856
_cell_angle_beta   90.00347385
_cell_angle_gamma   108.78286465
_symmetry_Int_Tables_number   1
_chemical_formula_structural   CeCrSe2O
_chemical_formula_sum   'Ce2 Cr2 Se4 O2'
_cell_volume   190.19204471
_cell_formula_units_Z   2
loop_
 _symmetry_equiv_pos_site_id
 _symmetry_equiv_pos_as_xyz
  1  'x, y, z'
loop_
 _atom_site_type_symbol
 _atom_site_label
 _atom_site_symmetry_multiplicity
 _atom_site_fract_x
 _atom_site_fract_y
 _atom_site_fract_z
 _atom_site_occupancy
  O  O0  1  0.67245447  0.34502245  0.93700571  1
  O  O1  1  0.32757689  0.65502939  0.06301796  1
  Cr  Cr2  1  0.99995963  0.99995747  0.49998215  1
  Cr  Cr3  1  0.50000406  -0.00002487  1.00001029  1
  Se  Se4  1  0.35468271  0.70919054  0.46424124  1
  Se  Se5  1  0.05243425  0.10453685  0.20335113  1
  Se  Se6  1  0.94759895  0.89544951  0.79664185  1
  Se  Se7  1  0.64527084  0.29077780  0.53573620  1
  Ce  Ce8  1  0.22807973  0.45626216  0.80817943  1
  Ce  Ce9  1  0.77194314  0.54379763  0.19183437  1
