# generated using pymatgen
data_BaDy2NiO5
_symmetry_space_group_name_H-M   'P 1'
_cell_length_a   3.79841606
_cell_length_b   5.81121627
_cell_length_c   6.68910469
_cell_angle_alpha   115.74579976
_cell_angle_beta   106.49463704
_cell_angle_gamma   89.99999996
_symmetry_Int_Tables_number   1
_chemical_formula_structural   BaDy2NiO5
_chemical_formula_sum   'Ba1 Dy2 Ni1 O5'
_cell_volume   126.21396152
_cell_formula_units_Z   1
loop_
 _symmetry_equiv_pos_site_id
 _symmetry_equiv_pos_as_xyz
  1  'x, y, z'
loop_
 _atom_site_type_symbol
 _atom_site_label
 _atom_site_symmetry_multiplicity
 _atom_site_fract_x
 _atom_site_fract_y
 _atom_site_fract_z
 _atom_site_occupancy
  O  O0  1  0.99999978  0.50000008  0.99999994  1
  O  O1  1  0.35007480  0.59014577  0.70014814  1
  O  O2  1  0.64992513  0.40985527  0.29985142  1
  O  O3  1  0.64992646  0.88999660  0.29985153  1
  O  O4  1  0.35007308  0.11000250  0.70014873  1
  Ni  Ni5  1  0.49999984  0.50000008  0.00000043  1
  Ba  Ba6  1  0.00000000  0.00000000  0.00000000  1
  Dy  Dy7  1  0.20327285  0.70327190  0.40654412  1
  Dy  Dy8  1  0.79672669  0.29672721  0.59345614  1
