# generated using pymatgen
data_Ba2Ni(PO4)2
_symmetry_space_group_name_H-M   'P 1'
_cell_length_a   5.39430348
_cell_length_b   8.93458216
_cell_length_c   16.24997495
_cell_angle_alpha   90.00000000
_cell_angle_beta   90.81522034
_cell_angle_gamma   90.00000000
_symmetry_Int_Tables_number   1
_chemical_formula_structural   Ba2Ni(PO4)2
_chemical_formula_sum   'Ba8 Ni4 P8 O32'
_cell_volume   783.10204314
_cell_formula_units_Z   4
loop_
 _symmetry_equiv_pos_site_id
 _symmetry_equiv_pos_as_xyz
  1  'x, y, z'
loop_
 _atom_site_type_symbol
 _atom_site_label
 _atom_site_symmetry_multiplicity
 _atom_site_fract_x
 _atom_site_fract_y
 _atom_site_fract_z
 _atom_site_occupancy
  O  O0  1  0.85247028  0.97000218  0.74456130  1
  O  O1  1  0.64753007  0.47000179  0.75543837  1
  O  O2  1  0.14752934  0.02999860  0.25543869  1
  O  O3  1  0.35246955  0.52999787  0.24456161  1
  O  O4  1  0.45978590  0.88728844  0.66600593  1
  O  O5  1  0.04021472  0.38728917  0.83399408  1
  O  O6  1  0.54021557  0.11271122  0.33399406  1
  O  O7  1  0.95978490  0.61271049  0.16600591  1
  O  O8  1  0.85555399  0.72412667  0.66778290  1
  O  O9  1  0.64444636  0.22412740  0.83221739  1
  O  O10  1  0.14444562  0.27587298  0.33221708  1
  O  O11  1  0.35555511  0.77587337  0.16778261  1
  O  O12  1  0.84695734  0.96993140  0.58904434  1
  O  O13  1  0.65304301  0.46993213  0.91095533  1
  O  O14  1  0.15304228  0.03006826  0.41095565  1
  O  O15  1  0.34695661  0.53006865  0.08904465  1
  O  O16  1  0.46775346  0.86584517  0.87316283  1
  O  O17  1  0.03224530  0.36584590  0.62683717  1
  O  O18  1  0.53224616  0.13415448  0.12683715  1
  O  O19  1  0.96775432  0.63415487  0.37316282  1
  O  O20  1  0.79104881  0.58840960  0.51433299  1
  O  O21  1  0.70895155  0.08841033  0.98566730  1
  O  O22  1  0.20895266  0.41159006  0.48566700  1
  O  O23  1  0.29104807  0.91158933  0.01433269  1
  O  O24  1  0.51461572  0.69498206  0.39998496  1
  O  O25  1  0.98538475  0.19498279  0.10001501  1
  O  O26  1  0.14559061  0.06998295  0.88886685  1
  O  O27  1  0.01461486  0.80501798  0.89998497  1
  O  O28  1  0.64559147  0.43001744  0.38886684  1
  O  O29  1  0.85440901  0.93001671  0.11113313  1
  O  O30  1  0.35441001  0.56998334  0.61113315  1
  O  O31  1  0.48538575  0.30501759  0.60001503  1
  P  P32  1  0.74829543  0.88753462  0.66663672  1
  P  P33  1  0.75170307  0.38753535  0.83336356  1
  P  P34  1  0.25170419  0.11246503  0.33336326  1
  P  P35  1  0.24829655  0.61246542  0.16663642  1
  P  P36  1  0.23199350  0.91380647  0.92179101  1
  P  P37  1  0.73199436  0.58619357  0.42179100  1
  P  P38  1  0.76800611  0.08619318  0.07820897  1
  P  P39  1  0.26800711  0.41380720  0.57820899  1
  Ni  Ni40  1  0.77454342  0.01156878  0.86667426  1
  Ni  Ni41  1  0.72545693  0.51156917  0.63332603  1
  Ni  Ni42  1  0.27454269  0.48843049  0.36667395  1
  Ni  Ni43  1  0.22545619  0.98843088  0.13332572  1
  Ba  Ba44  1  0.24252710  0.65380685  0.76967060  1
  Ba  Ba45  1  0.25747352  0.15380646  0.73032941  1
  Ba  Ba46  1  0.75747252  0.34619392  0.23032939  1
  Ba  Ba47  1  0.74252610  0.84619319  0.26967057  1
  Ba  Ba48  1  0.80188308  0.20304562  0.48132619  1
  Ba  Ba49  1  0.69811739  0.70304489  0.01867378  1
  Ba  Ba50  1  0.19811654  0.79695515  0.51867379  1
  Ba  Ba51  1  0.30188223  0.29695476  0.98132621  1
