# generated using pymatgen
data_Rb2MnSO4F3
_symmetry_space_group_name_H-M   'P 1'
_cell_length_a   7.47577484
_cell_length_b   8.94597059
_cell_length_c   11.38050763
_cell_angle_alpha   90.00000000
_cell_angle_beta   90.00000000
_cell_angle_gamma   92.52835963
_symmetry_Int_Tables_number   1
_chemical_formula_structural   Rb2MnSO4F3
_chemical_formula_sum   'Rb8 Mn4 S4 O16 F12'
_cell_volume   760.36536372
_cell_formula_units_Z   4
loop_
 _symmetry_equiv_pos_site_id
 _symmetry_equiv_pos_as_xyz
  1  'x, y, z'
loop_
 _atom_site_type_symbol
 _atom_site_label
 _atom_site_symmetry_multiplicity
 _atom_site_fract_x
 _atom_site_fract_y
 _atom_site_fract_z
 _atom_site_occupancy
  O  O0  1  0.17981119  0.10616352  0.59687780  1
  O  O1  1  0.82018896  0.39383643  0.09687771  1
  O  O2  1  0.82018904  0.89383690  0.40312150  1
  O  O3  1  0.17981127  0.60616399  0.90312158  1
  O  O4  1  0.33771714  0.10790718  0.40748498  1
  O  O5  1  0.66228301  0.39209277  0.90748507  1
  O  O6  1  0.66228309  0.89209324  0.59251519  1
  O  O7  1  0.33771715  0.60790653  0.09251510  1
  O  O8  1  0.39498721  0.30526170  0.55476826  1
  O  O9  1  0.60501293  0.19473825  0.05476817  1
  O  O10  1  0.60501295  0.69473760  0.44523103  1
  O  O11  1  0.39498729  0.80526217  0.94523112  1
  O  O12  1  0.88921320  0.21247164  0.94417425  1
  O  O13  1  0.88921322  0.71247099  0.55582600  1
  O  O14  1  0.11078702  0.78752878  0.05582592  1
  O  O15  1  0.11078694  0.28752831  0.44417417  1
  F  F16  1  0.52078802  0.55499060  0.65864087  1
  F  F17  1  0.47921088  0.94500916  0.15864079  1
  F  F18  1  0.47921080  0.44500870  0.34135930  1
  F  F19  1  0.52078934  0.05499126  0.84135939  1
  F  F20  1  0.02309007  0.95389967  0.84081046  1
  F  F21  1  0.97691023  0.54610122  0.34081038  1
  F  F22  1  0.76368178  0.39881748  0.50124377  1
  F  F23  1  0.02308999  0.45389920  0.65918980  1
  F  F24  1  0.76368186  0.89881794  0.99875649  1
  F  F25  1  0.23631838  0.60118182  0.49875640  1
  F  F26  1  0.23631837  0.10118248  0.00124368  1
  F  F27  1  0.97691015  0.04610075  0.15918971  1
  S  S28  1  0.25299735  0.19679366  0.49880196  1
  S  S29  1  0.74700279  0.30320630  0.99880205  1
  S  S30  1  0.74700287  0.80320676  0.50119821  1
  S  S31  1  0.25299737  0.69679300  0.00119812  1
  Mn  Mn32  1  0.00000008  0.50000047  0.50000009  1
  Mn  Mn33  1  0.00000000  0.00000000  0.00000000  1
  Mn  Mn34  1  0.50000008  0.49999965  0.50000009  1
  Mn  Mn35  1  0.50000006  0.00000030  0.00000000  1
  Rb  Rb36  1  0.30003613  0.32768437  0.80888701  1
  Rb  Rb37  1  0.69996267  0.17231558  0.30888692  1
  Rb  Rb38  1  0.69996275  0.67231604  0.19111316  1
  Rb  Rb39  1  0.30003615  0.82768372  0.69111325  1
  Rb  Rb40  1  0.80695882  0.16757400  0.69047502  1
  Rb  Rb41  1  0.19304133  0.33242596  0.19047493  1
  Rb  Rb42  1  0.19304141  0.83242642  0.30952515  1
  Rb  Rb43  1  0.80695890  0.66757446  0.80952436  1
