# generated using pymatgen
data_NdNi(BO2)5
_symmetry_space_group_name_H-M   'P 1'
_cell_length_a   7.65157815
_cell_length_b   8.71285107
_cell_length_c   9.56929311
_cell_angle_alpha   93.24596715
_cell_angle_beta   90.00000000
_cell_angle_gamma   90.00000000
_symmetry_Int_Tables_number   1
_chemical_formula_structural   NdNi(BO2)5
_chemical_formula_sum   'Nd4 Ni4 B20 O40'
_cell_volume   636.93314586
_cell_formula_units_Z   4
loop_
 _symmetry_equiv_pos_site_id
 _symmetry_equiv_pos_as_xyz
  1  'x, y, z'
loop_
 _atom_site_type_symbol
 _atom_site_label
 _atom_site_symmetry_multiplicity
 _atom_site_fract_x
 _atom_site_fract_y
 _atom_site_fract_z
 _atom_site_occupancy
  B  B0  1  0.81356153  0.56932463  0.08750213  1
  B  B1  1  0.31356209  0.93067510  0.41249768  1
  B  B2  1  0.18643865  0.43067551  0.91249697  1
  B  B3  1  0.68643809  0.06932505  0.58750246  1
  B  B4  1  0.09946852  0.65800781  0.50104032  1
  B  B5  1  0.59946795  0.84199184  0.99895934  1
  B  B6  1  0.90053166  0.34199234  0.49895982  1
  B  B7  1  0.40053223  0.15800831  0.00104080  1
  B  B8  1  0.03426338  0.77975007  0.05541671  1
  B  B9  1  0.53426282  0.72024966  0.44458414  1
  B  B10  1  0.96573680  0.22025007  0.94458343  1
  B  B11  1  0.46573736  0.27975049  0.55541600  1
  B  B12  1  0.82469961  0.01622230  0.10684560  1
  B  B13  1  0.32469887  0.48377720  0.39315392  1
  B  B14  1  0.17530057  0.98377785  0.89315454  1
  B  B15  1  0.67530000  0.51622180  0.60684616  1
  B  B16  1  0.07775772  0.58827137  0.24108930  1
  B  B17  1  0.57775716  0.91172837  0.25891051  1
  B  B18  1  0.92224246  0.41172878  0.75891084  1
  B  B19  1  0.42224302  0.08827063  0.74108956  1
  O  O20  1  0.94943110  0.26195630  0.38088084  1
  O  O21  1  0.44943036  0.23804320  0.11911972  1
  O  O22  1  0.05056908  0.73804270  0.61911924  1
  O  O23  1  0.55056982  0.76195695  0.88088042  1
  O  O24  1  0.15260599  0.00243960  0.43076217  1
  O  O25  1  0.65260543  0.49755990  0.06923839  1
  O  O26  1  0.84739419  0.99755940  0.56923791  1
  O  O27  1  0.34739475  0.50244025  0.93076174  1
  O  O28  1  0.87692318  0.68437017  0.00975561  1
  O  O29  1  0.37692374  0.81562956  0.49024420  1
  O  O30  1  0.12307700  0.31562998  0.99024453  1
  O  O31  1  0.62307644  0.18437059  0.50975594  1
  O  O32  1  0.72552133  0.95614449  0.98558873  1
  O  O33  1  0.22552059  0.54385631  0.51441203  1
  O  O34  1  0.27447885  0.04385566  0.01441141  1
  O  O35  1  0.77447828  0.45614384  0.48558811  1
  O  O36  1  0.89221191  0.17205948  0.08087207  1
  O  O37  1  0.39221247  0.32794117  0.41912751  1
  O  O38  1  0.10778827  0.82794067  0.91912703  1
  O  O39  1  0.60778771  0.67205898  0.58087263  1
  O  O40  1  0.97277082  0.91436314  0.14836798  1
  O  O41  1  0.47277008  0.58563659  0.35163287  1
  O  O42  1  0.02722935  0.08563585  0.85163209  1
  O  O43  1  0.52723010  0.41436356  0.64836727  1
  O  O44  1  0.15281567  0.68497347  0.13511590  1
  O  O45  1  0.65281510  0.81502626  0.36488391  1
  O  O46  1  0.84718451  0.31502668  0.86488320  1
  O  O47  1  0.34718508  0.18497388  0.63511623  1
  O  O48  1  0.91133344  0.51593160  0.19605791  1
  O  O49  1  0.41133401  0.98406813  0.30394294  1
  O  O50  1  0.08866674  0.48406855  0.80394222  1
  O  O51  1  0.58866617  0.01593202  0.69605720  1
  O  O52  1  0.03589008  0.68793144  0.37086769  1
  O  O53  1  0.53588951  0.81206829  0.12913212  1
  O  O54  1  0.96411010  0.31206871  0.62913141  1
  O  O55  1  0.46411067  0.18793070  0.87086795  1
  O  O56  1  0.20964329  0.46839447  0.26802311  1
  O  O57  1  0.70964272  0.03160618  0.23197751  1
  O  O58  1  0.79035689  0.53160568  0.73197703  1
  O  O59  1  0.29035745  0.96839396  0.76802263  1
  Ni  Ni60  1  0.91067308  0.89730614  0.37279306  1
  Ni  Ni61  1  0.41067364  0.60269359  0.12720779  1
  Ni  Ni62  1  0.08932579  0.10269401  0.62720708  1
  Ni  Ni63  1  0.58932654  0.39730540  0.87279228  1
  Nd  Nd64  1  0.68114295  0.31890311  0.26388875  1
  Nd  Nd65  1  0.18114351  0.18109754  0.23611083  1
  Nd  Nd66  1  0.31885723  0.68109704  0.73611034  1
  Nd  Nd67  1  0.81885667  0.81890261  0.76388931  1
