# generated using pymatgen
data_KP2WO8
_symmetry_space_group_name_H-M   'P 1'
_cell_length_a   5.16968711
_cell_length_b   11.79568035
_cell_length_c   12.03318499
_cell_angle_alpha   90.00000000
_cell_angle_beta   90.00000000
_cell_angle_gamma   91.25410420
_symmetry_Int_Tables_number   1
_chemical_formula_structural   KP2WO8
_chemical_formula_sum   'K4 P8 W4 O32'
_cell_volume   733.60757071
_cell_formula_units_Z   4
loop_
 _symmetry_equiv_pos_site_id
 _symmetry_equiv_pos_as_xyz
  1  'x, y, z'
loop_
 _atom_site_type_symbol
 _atom_site_label
 _atom_site_symmetry_multiplicity
 _atom_site_fract_x
 _atom_site_fract_y
 _atom_site_fract_z
 _atom_site_occupancy
  O  O0  1  0.77560466  0.41299351  0.91124356  1
  O  O1  1  0.72439538  0.08700584  0.41124392  1
  O  O2  1  0.22439435  0.58700656  0.08875655  1
  O  O3  1  0.27560553  0.91299338  0.58875618  1
  O  O4  1  0.77651054  0.21121862  0.82554048  1
  O  O5  1  0.72348954  0.28878158  0.32554085  1
  O  O6  1  0.22348847  0.78878145  0.17445962  1
  O  O7  1  0.27651141  0.71121849  0.67445925  1
  O  O8  1  0.30226948  0.51520774  0.60897083  1
  O  O9  1  0.19773041  0.98479220  0.10897036  1
  O  O10  1  0.69772953  0.48479233  0.39102928  1
  O  O11  1  0.80227054  0.01520787  0.89102974  1
  O  O12  1  0.03915659  0.35619701  0.47249496  1
  O  O13  1  0.46084292  0.14380303  0.97249460  1
  O  O14  1  0.96084436  0.64380306  0.52750514  1
  O  O15  1  0.53915609  0.85619704  0.02750551  1
  O  O16  1  0.69320841  0.68702403  0.87186068  1
  O  O17  1  0.80679205  0.81297607  0.37186104  1
  O  O18  1  0.30679060  0.31297604  0.12813859  1
  O  O19  1  0.19320890  0.18702400  0.62813906  1
  O  O20  1  0.95590431  0.85566760  0.73841488  1
  O  O21  1  0.54409614  0.64433250  0.23841525  1
  O  O22  1  0.04409664  0.14433247  0.26158522  1
  O  O23  1  0.45590481  0.35566756  0.76158486  1
  O  O24  1  0.57148586  0.32345334  0.52382576  1
  O  O25  1  0.07036935  0.62220751  0.28675603  1
  O  O26  1  0.57037042  0.12220764  0.21324360  1
  O  O27  1  0.92962965  0.37779256  0.71324407  1
  O  O28  1  0.07148674  0.82345321  0.97617398  1
  O  O29  1  0.42851315  0.67654672  0.47617351  1
  O  O30  1  0.92851422  0.17654685  0.02382612  1
  O  O31  1  0.42963053  0.87779243  0.78675567  1
  P  P32  1  0.74261631  0.13256921  0.93449197  1
  P  P33  1  0.24261719  0.63256908  0.56550776  1
  P  P34  1  0.25738270  0.86743086  0.06550813  1
  P  P35  1  0.75738376  0.36743099  0.43449151  1
  P  P36  1  0.73606299  0.34751446  0.80640027  1
  P  P37  1  0.76393708  0.15248574  0.30639980  1
  P  P38  1  0.26393796  0.65248561  0.19359983  1
  P  P39  1  0.23606387  0.84751433  0.69360030  1
  K  K40  1  0.73526499  0.05025013  0.62714127  1
  K  K41  1  0.23526392  0.55025000  0.87285847  1
  K  K42  1  0.26473596  0.94974994  0.37285884  1
  K  K43  1  0.76473508  0.44975007  0.12714163  1
  W  W44  1  0.24221326  0.33446773  0.61845269  1
  W  W45  1  0.25778624  0.16553231  0.11845222  1
  W  W46  1  0.75778575  0.66553234  0.38154742  1
  W  W47  1  0.74221471  0.83446776  0.88154789  1
