# generated using pymatgen
data_V2Cd(PO5)2
_symmetry_space_group_name_H-M   'P 1'
_cell_length_a   5.24631762
_cell_length_b   8.10607491
_cell_length_c   17.48949582
_cell_angle_alpha   90.00000000
_cell_angle_beta   92.97839462
_cell_angle_gamma   90.00000000
_symmetry_Int_Tables_number   1
_chemical_formula_structural   V2Cd(PO5)2
_chemical_formula_sum   'V8 Cd4 P8 O40'
_cell_volume   742.77185708
_cell_formula_units_Z   4
loop_
 _symmetry_equiv_pos_site_id
 _symmetry_equiv_pos_as_xyz
  1  'x, y, z'
loop_
 _atom_site_type_symbol
 _atom_site_label
 _atom_site_symmetry_multiplicity
 _atom_site_fract_x
 _atom_site_fract_y
 _atom_site_fract_z
 _atom_site_occupancy
  O  O0  1  0.32324977  0.39206505  0.95025122  1
  O  O1  1  0.67675018  0.89206526  0.54974867  1
  O  O2  1  0.67675170  0.60793537  0.04974907  1
  O  O3  1  0.32324938  0.10793516  0.45025102  1
  O  O4  1  0.67131009  0.64706136  0.90549745  1
  O  O5  1  0.32868986  0.14706115  0.59450301  1
  O  O6  1  0.32868947  0.35293906  0.09450281  1
  O  O7  1  0.67130970  0.85293927  0.40549725  1
  O  O8  1  0.69519916  0.48363585  0.76462175  1
  O  O9  1  0.30480078  0.98363606  0.73537815  1
  O  O10  1  0.30480040  0.51636457  0.23537852  1
  O  O11  1  0.69519878  0.01636436  0.26462154  1
  O  O12  1  0.31939069  0.25723826  0.79963356  1
  O  O13  1  0.68060925  0.75723847  0.70036633  1
  O  O14  1  0.41902583  0.51336546  0.64140948  1
  O  O15  1  0.31939031  0.24276195  0.29963336  1
  O  O16  1  0.22892394  0.59343490  0.81935245  1
  O  O17  1  0.77107601  0.09343469  0.68064744  1
  O  O18  1  0.77107562  0.40656552  0.18064724  1
  O  O19  1  0.22892355  0.90656573  0.31935283  1
  O  O20  1  0.21198435  0.69049120  0.11038871  1
  O  O21  1  0.78801483  0.19049099  0.38961136  1
  O  O22  1  0.78801521  0.30950922  0.88961156  1
  O  O23  1  0.21198474  0.80950943  0.61038891  1
  O  O24  1  0.86394846  0.86409644  0.98926879  1
  O  O25  1  0.13605149  0.36409623  0.51073110  1
  O  O26  1  0.13605110  0.13590275  0.01073090  1
  O  O27  1  0.86394807  0.63590296  0.48926917  1
  O  O28  1  0.90852900  0.98509633  0.14229584  1
  O  O29  1  0.09147208  0.48509612  0.35770425  1
  O  O30  1  0.09147056  0.01490286  0.85770442  1
  O  O31  1  0.90852939  0.51490307  0.64229547  1
  O  O32  1  0.38370635  0.82267858  0.98523014  1
  O  O33  1  0.61629550  0.32267837  0.51476978  1
  O  O34  1  0.61629512  0.17732184  0.01476958  1
  O  O35  1  0.38370597  0.67732205  0.48523051  1
  O  O36  1  0.41902544  0.98663394  0.14140928  1
  O  O37  1  0.58097373  0.48663373  0.35859079  1
  O  O38  1  0.58097412  0.01336648  0.85859099  1
  O  O39  1  0.68061078  0.74276216  0.20036673  1
  P  P40  1  0.33281310  0.06700064  0.81445758  1
  P  P41  1  0.66718685  0.56700085  0.68554231  1
  P  P42  1  0.66718646  0.93299978  0.18554211  1
  P  P43  1  0.33281271  0.43299957  0.31445795  1
  P  P44  1  0.35876019  0.23367509  0.51509162  1
  P  P45  1  0.64123976  0.73367530  0.98490827  1
  P  P46  1  0.64123937  0.76632533  0.48490864  1
  P  P47  1  0.35876171  0.26632512  0.01509145  1
  V  V48  1  0.45978747  0.46605300  0.85298041  1
  V  V49  1  0.54021248  0.96605322  0.64701948  1
  V  V50  1  0.16081933  0.87279224  0.06930882  1
  V  V51  1  0.45978899  0.03394597  0.35298081  1
  V  V52  1  0.16081780  0.62720716  0.56930842  1
  V  V53  1  0.83918215  0.12720818  0.93069147  1
  V  V54  1  0.83918176  0.37279203  0.43069127  1
  V  V55  1  0.54021209  0.53394618  0.14701928  1
  Cd  Cd56  1  0.09089892  0.27626288  0.68176848  1
  Cd  Cd57  1  0.90910103  0.77626186  0.81823141  1
  Cd  Cd58  1  0.90910064  0.72373754  0.31823178  1
  Cd  Cd59  1  0.09089853  0.22373733  0.18176828  1
