# generated using pymatgen
data_Sm6Co2Si3
_symmetry_space_group_name_H-M   'P 1'
_cell_length_a   4.43772171
_cell_length_b   11.68305405
_cell_length_c   11.56814255
_cell_angle_alpha   119.79933204
_cell_angle_beta   90.00000000
_cell_angle_gamma   90.00000000
_symmetry_Int_Tables_number   1
_chemical_formula_structural   Sm6Co2Si3
_chemical_formula_sum   'Sm12 Co4 Si6'
_cell_volume   520.45757965
_cell_formula_units_Z   2
loop_
 _symmetry_equiv_pos_site_id
 _symmetry_equiv_pos_as_xyz
  1  'x, y, z'
loop_
 _atom_site_type_symbol
 _atom_site_label
 _atom_site_symmetry_multiplicity
 _atom_site_fract_x
 _atom_site_fract_y
 _atom_site_fract_z
 _atom_site_occupancy
  Sm  Sm0  1  0.75000000  0.77423489  0.00950865  1
  Sm  Sm1  1  0.75000000  0.00175418  0.76950153  1
  Sm  Sm2  1  0.75000000  0.23076941  0.23078417  1
  Sm  Sm3  1  0.25000000  0.23158328  0.99037415  1
  Sm  Sm4  1  0.25000000  0.01100240  0.24364839  1
  Sm  Sm5  1  0.25000000  0.76593744  0.77320588  1
  Sm  Sm6  1  0.75000000  0.62486333  0.48244173  1
  Sm  Sm7  1  0.75000000  0.51122456  0.13403018  1
  Sm  Sm8  1  0.75000000  0.86618739  0.37565177  1
  Sm  Sm9  1  0.25000000  0.37555171  0.51367280  1
  Sm  Sm10  1  0.25000000  0.47833768  0.86335286  1
  Sm  Sm11  1  0.25000000  0.14063576  0.61714221  1
  Co  Co12  1  0.50028384  0.00047785  0.00061817  1
  Co  Co13  1  -0.00028384  0.00047785  0.00061817  1
  Co  Co14  1  0.75000000  0.28538680  0.84743103  1
  Co  Co15  1  0.75000000  0.14847869  0.43804896  1
  Si  Si16  1  0.75000000  0.32743330  0.66442273  1
  Si  Si17  1  0.25000000  0.66685739  0.33288018  1
  Si  Si18  1  0.75000000  0.56081446  0.71202544  1
  Si  Si19  1  0.25000000  0.71177297  0.15181038  1
  Si  Si20  1  0.25000000  0.84555210  0.55951496  1
  Si  Si21  1  0.25000000  0.44066657  0.28931565  1
