# generated using pymatgen
data_KV2SbO8
_symmetry_space_group_name_H-M   'P 1'
_cell_length_a   5.63077955
_cell_length_b   8.78712760
_cell_length_c   15.32783521
_cell_angle_alpha   90.00000000
_cell_angle_beta   90.00000000
_cell_angle_gamma   90.00000000
_symmetry_Int_Tables_number   1
_chemical_formula_structural   KV2SbO8
_chemical_formula_sum   'K4 V8 Sb4 O32'
_cell_volume   758.39643047
_cell_formula_units_Z   4
loop_
 _symmetry_equiv_pos_site_id
 _symmetry_equiv_pos_as_xyz
  1  'x, y, z'
loop_
 _atom_site_type_symbol
 _atom_site_label
 _atom_site_symmetry_multiplicity
 _atom_site_fract_x
 _atom_site_fract_y
 _atom_site_fract_z
 _atom_site_occupancy
  O  O0  1  0.75000010  0.82937700  0.89890847  1
  O  O1  1  0.25000063  0.17062299  0.10109119  1
  O  O2  1  0.25000063  0.32937643  0.60109167  1
  O  O3  1  0.75000010  0.67062355  0.39890864  1
  O  O4  1  0.50280213  0.25965497  0.45336462  1
  O  O5  1  0.00280087  0.74034501  0.54663570  1
  O  O6  1  0.49719860  0.75965439  0.04663521  1
  O  O7  1  0.99719807  0.24034559  0.95336445  1
  O  O8  1  0.49719860  0.74034501  0.54663570  1
  O  O9  1  0.99719807  0.25965497  0.45336462  1
  O  O10  1  0.50280213  0.24034559  0.95336445  1
  O  O11  1  0.00280087  0.75965439  0.04663521  1
  O  O12  1  0.25000063  0.01887572  0.55326408  1
  O  O13  1  0.75000010  0.98112427  0.44673623  1
  O  O14  1  0.75000010  0.51887628  0.94673606  1
  O  O15  1  0.25000063  0.48112370  0.05326425  1
  O  O16  1  0.25000063  0.87082448  0.18577601  1
  O  O17  1  0.75000010  0.12917550  0.81422365  1
  O  O18  1  0.75000010  0.37082392  0.31422382  1
  O  O19  1  0.25000063  0.62917607  0.68577649  1
  O  O20  1  0.00971399  0.59239436  0.20943610  1
  O  O21  1  0.50971346  0.40760562  0.79056421  1
  O  O22  1  0.99028674  0.09239494  0.29056438  1
  O  O23  1  0.49028727  0.90760505  0.70943593  1
  O  O24  1  0.25000063  0.64000477  0.86856204  1
  O  O25  1  0.49028727  0.59239436  0.20943610  1
  O  O26  1  0.00971399  0.90760505  0.70943593  1
  O  O27  1  0.50971346  0.09239494  0.29056438  1
  O  O28  1  0.25000063  0.85999464  0.36856221  1
  O  O29  1  0.75000010  0.14000535  0.63143810  1
  O  O30  1  0.75000010  0.35999522  0.13143827  1
  O  O31  1  0.99028674  0.40760562  0.79056421  1
  K  K32  1  0.25000063  0.55320488  0.38212613  1
  K  K33  1  0.75000010  0.44679511  0.61787353  1
  K  K34  1  0.25000063  0.94679567  0.88212662  1
  K  K35  1  0.75000010  0.05320432  0.11787370  1
  V  V36  1  0.25000063  0.52459931  0.78513587  1
  V  V37  1  0.25000063  0.29091517  0.01905905  1
  V  V38  1  0.75000010  0.02459875  0.71486427  1
  V  V39  1  0.25000063  0.97540124  0.28513604  1
  V  V40  1  0.75000010  0.70908481  0.98094061  1
  V  V41  1  0.75000010  0.79091574  0.48094078  1
  V  V42  1  0.75000010  0.47540067  0.21486444  1
  V  V43  1  0.25000063  0.20908425  0.51905953  1
  Sb  Sb44  1  0.25000063  0.67050730  0.12458930  1
  Sb  Sb45  1  0.75000010  0.32949269  0.87541102  1
  Sb  Sb46  1  0.75000010  0.17050788  0.37541119  1
  Sb  Sb47  1  0.25000063  0.82949211  0.62458913  1
