# generated using pymatgen
data_Mn2Al4Si5O18
_symmetry_space_group_name_H-M   'P 1'
_cell_length_a   9.39212597
_cell_length_b   9.99619785
_cell_length_c   10.12353071
_cell_angle_alpha   119.58479101
_cell_angle_beta   90.00000000
_cell_angle_gamma   90.00000000
_symmetry_Int_Tables_number   1
_chemical_formula_structural   Mn2Al4Si5O18
_chemical_formula_sum   'Mn4 Al8 Si10 O36'
_cell_volume   826.53886566
_cell_formula_units_Z   2
loop_
 _symmetry_equiv_pos_site_id
 _symmetry_equiv_pos_as_xyz
  1  'x, y, z'
loop_
 _atom_site_type_symbol
 _atom_site_label
 _atom_site_symmetry_multiplicity
 _atom_site_fract_x
 _atom_site_fract_y
 _atom_site_fract_z
 _atom_site_occupancy
  O  O0  1  0.50000017  0.08762011  0.32296013  1
  O  O1  1  0.50000017  0.91237961  0.67703971  1
  O  O2  1  0.00000000  0.76466028  0.67703952  1
  O  O3  1  0.00000000  0.23534059  0.32296088  1
  O  O4  1  0.50000017  0.30458163  0.23719555  1
  O  O5  1  0.50000017  0.69541809  0.76280429  1
  O  O6  1  0.00000000  0.06738559  0.76280394  1
  O  O7  1  0.00000000  0.93261413  0.23719590  1
  O  O8  1  0.50000017  0.79820846  0.08992822  1
  O  O9  1  0.50000017  0.20179242  0.91007218  1
  O  O10  1  0.00000000  0.70828038  0.91007242  1
  O  O11  1  0.00000000  0.29172049  0.08992799  1
  O  O12  1  0.85820906  0.47560257  0.34698224  1
  O  O13  1  0.85820906  0.52439830  0.65301817  1
  O  O14  1  0.64179039  0.12862072  0.65301788  1
  O  O15  1  0.64179039  0.87138015  0.34698253  1
  O  O16  1  0.14179022  0.52439830  0.65301817  1
  O  O17  1  0.14179022  0.47560257  0.34698224  1
  O  O18  1  0.35820889  0.87138015  0.34698253  1
  O  O19  1  0.35820889  0.12862072  0.65301788  1
  O  O20  1  0.84924992  0.35440600  0.88120586  1
  O  O21  1  0.84924992  0.64559487  0.11879454  1
  O  O22  1  0.35850287  0.34868715  0.48480354  1
  O  O23  1  0.35850287  0.65131257  0.51519630  1
  O  O24  1  0.14149730  0.86388367  0.51519671  1
  O  O25  1  0.14149730  0.13611605  0.48480314  1
  O  O26  1  0.64149747  0.65131257  0.51519630  1
  O  O27  1  0.64149747  0.34868715  0.48480354  1
  O  O28  1  0.85850304  0.13611605  0.48480314  1
  O  O29  1  0.65075059  0.47319949  0.11879377  1
  O  O30  1  0.34924975  0.47319949  0.11879377  1
  O  O31  1  0.34924975  0.52680023  0.88120607  1
  O  O32  1  0.15075042  0.35440600  0.88120586  1
  O  O33  1  0.15075042  0.64559487  0.11879454  1
  O  O34  1  0.65075059  0.52680023  0.88120607  1
  O  O35  1  0.85850304  0.86388367  0.51519671  1
  Al  Al36  1  0.50000017  0.35286022  0.09462438  1
  Al  Al37  1  0.50000017  0.64713950  0.90537546  1
  Al  Al38  1  0.00000000  0.25823572  0.90537550  1
  Al  Al39  1  0.00000000  0.74176400  0.09462435  1
  Al  Al40  1  0.74991811  0.99999961  0.49999966  1
  Al  Al41  1  0.75008240  0.49999986  0.49999992  1
  Al  Al42  1  0.25008223  0.99999961  0.49999966  1
  Al  Al43  1  0.24991794  0.49999986  0.49999992  1
  Si  Si44  1  0.00000000  0.36540570  0.26985502  1
  Si  Si45  1  0.50000017  0.73012908  0.62413059  1
  Si  Si46  1  0.00000000  0.89400105  0.62413043  1
  Si  Si47  1  0.00000000  0.63459402  0.73014483  1
  Si  Si48  1  0.74999972  0.50000025  0.00000026  1
  Si  Si49  1  0.24999955  0.50000025  0.00000026  1
  Si  Si50  1  0.50000017  0.09555069  0.73014456  1
  Si  Si51  1  0.50000017  0.90444904  0.26985529  1
  Si  Si52  1  0.50000017  0.26987064  0.37586926  1
  Si  Si53  1  0.00000000  0.10599867  0.37586941  1
  Mn  Mn54  1  0.74999972  0.33713146  0.67426232  1
  Mn  Mn55  1  0.74999972  0.66286826  0.32573752  1
  Mn  Mn56  1  0.24999955  0.66286826  0.32573752  1
  Mn  Mn57  1  0.24999955  0.33713146  0.67426232  1
