# generated using pymatgen
data_KNa2Li3Fe2(Si2O5)6
_symmetry_space_group_name_H-M   'P 1'
_cell_length_a   10.19171078
_cell_length_b   10.19171079
_cell_length_c   14.29588260
_cell_angle_alpha   90.00000000
_cell_angle_beta   90.00000000
_cell_angle_gamma   119.99999998
_symmetry_Int_Tables_number   1
_chemical_formula_structural   KNa2Li3Fe2(Si2O5)6
_chemical_formula_sum   'K2 Na4 Li6 Fe4 Si24 O60'
_cell_volume   1285.98465552
_cell_formula_units_Z   2
loop_
 _symmetry_equiv_pos_site_id
 _symmetry_equiv_pos_as_xyz
  1  'x, y, z'
loop_
 _atom_site_type_symbol
 _atom_site_label
 _atom_site_symmetry_multiplicity
 _atom_site_fract_x
 _atom_site_fract_y
 _atom_site_fract_z
 _atom_site_occupancy
  Li  Li0  1  0.49999983  0.00000000  0.25000018  1
  Li  Li1  1  0.99999995  0.49999972  0.74999983  1
  Li  Li2  1  0.49999977  0.49999972  0.74999983  1
  Li  Li3  1  0.49999983  0.00000000  0.74999983  1
  Li  Li4  1  0.99999995  0.49999972  0.25000018  1
  Li  Li5  1  0.49999977  0.49999972  0.25000018  1
  O  O6  1  0.13956155  0.73957659  0.49999965  1
  O  O7  1  0.49410782  0.65845104  0.82975509  1
  O  O8  1  0.16434331  0.50589237  0.82975509  1
  O  O9  1  0.83565681  0.49410821  0.82975509  1
  O  O10  1  0.34154906  0.50589237  0.67024458  1
  O  O11  1  0.65845106  0.49410821  0.67024458  1
  O  O12  1  0.65845066  0.16434283  0.82975509  1
  O  O13  1  0.83565689  0.34154954  0.67024458  1
  O  O14  1  0.16434323  0.65845104  0.67024458  1
  O  O15  1  0.49410773  0.83565661  0.67024458  1
  O  O16  1  0.50589230  0.34154954  0.82975509  1
  O  O17  1  0.34154889  0.83565661  0.82975509  1
  O  O18  1  0.65845106  0.49410821  0.32975543  1
  O  O19  1  0.50589182  0.16434283  0.32975543  1
  O  O20  1  0.83565689  0.34154954  0.32975543  1
  O  O21  1  0.16434323  0.65845104  0.32975543  1
  O  O22  1  0.34154889  0.83565661  0.17024493  1
  O  O23  1  0.34154906  0.50589237  0.32975543  1
  O  O24  1  0.49410773  0.83565661  0.32975543  1
  O  O25  1  0.50589230  0.34154954  0.17024493  1
  O  O26  1  0.83565681  0.49410821  0.17024493  1
  O  O27  1  0.16434331  0.50589237  0.17024493  1
  O  O28  1  0.49410782  0.65845104  0.17024493  1
  O  O29  1  0.65845066  0.16434283  0.17024493  1
  O  O30  1  0.27549157  0.05406350  0.86478462  1
  O  O31  1  0.72450789  0.77857182  0.63521576  1
  O  O32  1  0.22142797  0.94593594  0.63521576  1
  O  O33  1  0.77857158  0.05406350  0.63521576  1
  O  O34  1  0.94593619  0.22142877  0.86478462  1
  O  O35  1  0.94593695  0.72450831  0.63521576  1
  O  O36  1  0.27549223  0.22142877  0.63521576  1
  O  O37  1  0.72450798  0.94593594  0.86478462  1
  O  O38  1  0.22142811  0.27549227  0.86478462  1
  O  O39  1  0.77857201  0.72450831  0.86478462  1
  O  O40  1  0.73957599  0.13956102  0.00000000  1
  O  O41  1  0.60001504  0.73957659  0.00000000  1
  O  O42  1  0.13956141  0.39998502  0.00000000  1
  O  O43  1  0.86043871  0.60001557  0.00000000  1
  O  O44  1  0.39998508  0.26042400  0.00000000  1
  O  O45  1  0.60001486  0.86043842  0.49999965  1
  O  O46  1  0.26042360  0.39998502  0.49999965  1
  O  O47  1  0.26042356  0.86043842  0.00000000  1
  O  O48  1  0.50589182  0.16434283  0.67024458  1
  O  O49  1  0.86043956  0.26042400  0.49999965  1
  O  O50  1  0.39998469  0.13956102  0.49999965  1
  O  O51  1  0.73957652  0.60001557  0.49999965  1
  O  O52  1  0.94593619  0.22142877  0.13521540  1
  O  O53  1  0.72450798  0.94593594  0.13521540  1
  O  O54  1  0.22142811  0.27549227  0.13521540  1
  O  O55  1  0.77857201  0.72450831  0.13521540  1
  O  O56  1  0.27549157  0.05406350  0.13521540  1
  O  O57  1  0.72450789  0.77857182  0.36478426  1
  O  O58  1  0.05406416  0.27549227  0.36478426  1
  O  O59  1  0.05406393  0.77857182  0.13521540  1
  O  O60  1  0.22142797  0.94593594  0.36478426  1
  O  O61  1  0.77857158  0.05406350  0.36478426  1
  O  O62  1  0.27549223  0.22142877  0.36478426  1
  O  O63  1  0.94593695  0.72450831  0.36478426  1
  O  O64  1  0.05406393  0.77857182  0.86478462  1
  O  O65  1  0.05406416  0.27549227  0.63521576  1
  Na  Na66  1  0.66666621  0.33333277  0.49999965  1
  Na  Na67  1  0.66666621  0.33333277  0.00000000  1
  Na  Na68  1  0.33333334  0.66666668  0.00000000  1
  Na  Na69  1  0.33333334  0.66666668  0.49999965  1
  Si  Si70  1  0.35519450  0.11957602  0.38790792  1
  Si  Si71  1  0.76438108  0.64480533  0.61209138  1
  Si  Si72  1  0.35519450  0.11957602  0.61209138  1
  Si  Si73  1  0.64480542  0.76438135  0.88790829  1
  Si  Si74  1  0.11957621  0.35519525  0.88790829  1
  Si  Si75  1  0.88042391  0.64480533  0.88790829  1
  Si  Si76  1  0.35519470  0.23561924  0.88790829  1
  Si  Si77  1  0.23561896  0.88042457  0.88790829  1
  Si  Si78  1  0.76438108  0.64480533  0.38790792  1
  Si  Si79  1  0.76438116  0.11957602  0.88790829  1
  Si  Si80  1  0.88042419  0.23561924  0.38790792  1
  Si  Si81  1  0.11957593  0.76438135  0.38790792  1
  Si  Si82  1  0.23561896  0.88042457  0.11209173  1
  Si  Si83  1  0.88042419  0.23561924  0.61209138  1
  Si  Si84  1  0.64480562  0.88042457  0.38790792  1
  Si  Si85  1  0.35519470  0.23561924  0.11209173  1
  Si  Si86  1  0.88042391  0.64480533  0.11209173  1
  Si  Si87  1  0.11957621  0.35519525  0.11209173  1
  Si  Si88  1  0.64480542  0.76438135  0.11209173  1
  Si  Si89  1  0.76438116  0.11957602  0.11209173  1
  Si  Si90  1  0.11957593  0.76438135  0.61209138  1
  Si  Si91  1  0.64480562  0.88042457  0.61209138  1
  Si  Si92  1  0.23561904  0.35519525  0.61209138  1
  Si  Si93  1  0.23561904  0.35519525  0.38790792  1
  K  K94  1  0.00000000  0.00000000  0.25000018  1
  K  K95  1  0.00000000  0.00000000  0.74999983  1
  Fe  Fe96  1  0.33333334  0.66666668  0.74999983  1
  Fe  Fe97  1  0.66666621  0.33333277  0.74999983  1
  Fe  Fe98  1  0.66666621  0.33333277  0.25000018  1
  Fe  Fe99  1  0.33333334  0.66666668  0.25000018  1
