# generated using pymatgen
data_Na3Cr2(AsO4)3
_symmetry_space_group_name_H-M   'P 1'
_cell_length_a   10.72659559
_cell_length_b   10.72659558
_cell_length_c   10.72659559
_cell_angle_alpha   109.47122063
_cell_angle_beta   109.47122061
_cell_angle_gamma   109.47122064
_symmetry_Int_Tables_number   1
_chemical_formula_structural   Na3Cr2(AsO4)3
_chemical_formula_sum   'Na12 Cr8 As12 O48'
_cell_volume   950.08799630
_cell_formula_units_Z   4
loop_
 _symmetry_equiv_pos_site_id
 _symmetry_equiv_pos_as_xyz
  1  'x, y, z'
loop_
 _atom_site_type_symbol
 _atom_site_label
 _atom_site_symmetry_multiplicity
 _atom_site_fract_x
 _atom_site_fract_y
 _atom_site_fract_z
 _atom_site_occupancy
  O  O0  1  0.79999925  0.88535127  0.98971831  1
  O  O1  1  0.61464848  0.41464717  0.10436654  1
  O  O2  1  0.51028187  0.39563352  0.81028061  1
  O  O3  1  0.70000145  0.68971891  0.08535291  1
  O  O4  1  0.70000134  0.51028236  0.61464911  1
  O  O5  1  0.68971877  0.08535232  0.70000131  1
  O  O6  1  0.39563339  0.08535232  0.88535097  1
  O  O7  1  0.08535272  0.70000065  0.68971925  1
  O  O8  1  0.10436612  0.98971723  0.68971845  1
  O  O9  1  0.41464736  0.81028068  0.79999881  1
  O  O10  1  0.81028123  0.79999895  0.41464739  1
  O  O11  1  0.61464793  0.70000065  0.51028220  1
  O  O12  1  0.08535201  0.88535127  0.39563377  1
  O  O13  1  0.68971858  0.10436597  0.98971725  1
  O  O14  1  0.51028185  0.61464833  0.70000073  1
  O  O15  1  0.88535149  0.39563352  0.08535219  1
  O  O16  1  0.98971731  0.68971891  0.10436647  1
  O  O17  1  0.10436648  0.61464833  0.41464748  1
  O  O18  1  0.39563333  0.81028068  0.51028175  1
  O  O19  1  0.89563328  0.01028173  0.31028061  1
  O  O20  1  0.88535111  0.98971723  0.79999866  1
  O  O21  1  0.98971756  0.79999895  0.88535178  1
  O  O22  1  0.41464723  0.10436597  0.61464868  1
  O  O23  1  0.79999853  0.41464717  0.81028085  1
  O  O24  1  0.20000172  0.11464885  0.01028260  1
  O  O25  1  0.38535150  0.58535295  0.89563403  1
  O  O26  1  0.48971811  0.60436660  0.18971903  1
  O  O27  1  0.29999853  0.31028120  0.91464766  1
  O  O28  1  0.29999864  0.48971775  0.38535146  1
  O  O29  1  0.31028121  0.91464780  0.29999926  1
  O  O30  1  0.60436659  0.91464780  0.11464866  1
  O  O31  1  0.91464825  0.29999947  0.31028165  1
  O  O32  1  0.20000145  0.58535295  0.18971879  1
  O  O33  1  0.58535275  0.89563414  0.38535189  1
  O  O34  1  0.01028241  0.20000116  0.11464880  1
  O  O35  1  0.11464829  0.01028173  0.20000041  1
  O  O36  1  0.18971911  0.48971775  0.60436616  1
  O  O37  1  0.60436665  0.18971943  0.48971789  1
  O  O38  1  0.89563350  0.38535178  0.58535216  1
  O  O39  1  0.01028267  0.31028120  0.89563410  1
  O  O40  1  0.11464849  0.60436660  0.91464744  1
  O  O41  1  0.48971813  0.38535178  0.29999891  1
  O  O42  1  0.31028140  0.89563414  0.01028238  1
  O  O43  1  0.91464796  0.11464885  0.60436680  1
  O  O44  1  0.38535205  0.29999947  0.48971837  1
  O  O45  1  0.18971875  0.20000116  0.58535224  1
  O  O46  1  0.58535262  0.18971943  0.20000176  1
  O  O47  1  0.81028087  0.51028236  0.39563347  1
  Na  Na48  1  0.25000015  0.87500024  0.62500007  1
  Na  Na49  1  0.87500016  0.62500050  0.25000028  1
  Na  Na50  1  0.62500009  0.87500024  0.75000005  1
  Na  Na51  1  0.87500011  0.75000037  0.62499983  1
  Na  Na52  1  0.62499979  0.24999974  0.87499939  1
  Na  Na53  1  0.75000018  0.62500050  0.87500044  1
  Na  Na54  1  0.74999983  0.12499987  0.37499957  1
  Na  Na55  1  0.12499982  0.37499961  0.74999935  1
  Na  Na56  1  0.37499989  0.12499987  0.24999959  1
  Na  Na57  1  0.12499987  0.24999974  0.37499981  1
  Na  Na58  1  0.37500019  0.75000037  0.12500025  1
  Na  Na59  1  0.24999980  0.37499961  0.12500014  1
  Cr  Cr60  1  0.00000000  0.00000000  0.00000000  1
  Cr  Cr61  1  0.99999978  0.49999948  0.99999948  1
  Cr  Cr62  1  0.49999992  0.00000000  0.99999970  1
  Cr  Cr63  1  0.00000000  0.00000000  0.49999988  1
  Cr  Cr64  1  0.49999992  0.00000000  0.49999958  1
  Cr  Cr65  1  0.99999978  0.49999948  0.49999936  1
  Cr  Cr66  1  0.49999970  0.49999948  0.00000012  1
  Cr  Cr67  1  0.49999970  0.49999948  0.50000000  1
  As  As68  1  0.24999991  0.12499987  0.87499974  1
  As  As69  1  0.75000007  0.87500024  0.12499990  1
  As  As70  1  0.37499983  0.24999974  0.62500007  1
  As  As71  1  0.62499974  0.37499961  0.25000012  1
  As  As72  1  0.12500022  0.75000037  0.87499974  1
  As  As73  1  0.87499981  0.12499987  0.75000010  1
  As  As74  1  0.74999972  0.37499961  0.62499971  1
  As  As75  1  0.37500024  0.62500050  0.75000045  1
  As  As76  1  0.12500017  0.87500024  0.25000047  1
  As  As77  1  0.87499975  0.24999974  0.12499989  1
  As  As78  1  0.62500015  0.75000037  0.37500051  1
  As  As79  1  0.25000026  0.62500050  0.37499992  1
