# generated using pymatgen
data_Rb3NaNb2O3F10
_symmetry_space_group_name_H-M   'P 1'
_cell_length_a   6.11326891
_cell_length_b   11.11948919
_cell_length_c   11.56566885
_cell_angle_alpha   74.72494476
_cell_angle_beta   74.67551971
_cell_angle_gamma   105.95544868
_symmetry_Int_Tables_number   1
_chemical_formula_structural   Rb3NaNb2O3F10
_chemical_formula_sum   'Rb6 Na2 Nb4 O6 F20'
_cell_volume   679.45534086
_cell_formula_units_Z   2
loop_
 _symmetry_equiv_pos_site_id
 _symmetry_equiv_pos_as_xyz
  1  'x, y, z'
loop_
 _atom_site_type_symbol
 _atom_site_label
 _atom_site_symmetry_multiplicity
 _atom_site_fract_x
 _atom_site_fract_y
 _atom_site_fract_z
 _atom_site_occupancy
  Rb  Rb0  1  0.88890123  0.67028169  0.88246679  1
  Rb  Rb1  1  0.10108633  0.32971831  0.11753321  1
  Rb  Rb2  1  0.33809407  0.79067365  0.12406407  1
  Rb  Rb3  1  0.67148450  0.20932635  0.87593593  1
  Rb  Rb4  1  0.26620707  0.14073793  0.59316327  1
  Rb  Rb5  1  0.71863241  0.85926207  0.40683673  1
  Na  Na6  1  0.98811939  -0.00000000  -0.00000000  1
  Na  Na7  1  0.00106837  0.50000000  0.50000000  1
  Nb  Nb8  1  0.64910507  0.55864039  0.26293619  1
  Nb  Nb9  1  0.35340087  0.44135961  0.73706381  1
  Nb  Nb10  1  0.56090668  0.91095782  0.74941268  1
  Nb  Nb11  1  0.39936154  0.08904218  0.25058732  1
  O  O12  1  0.51323223  0.38919799  0.36877374  1
  O  O13  1  0.49280799  0.61080201  0.63122626  1
  O  O14  1  0.98257582  0.34197029  0.38175295  1
  O  O15  1  0.02235848  0.65802971  0.61824705  1
  O  O16  1  0.38215869  0.88107515  0.65417728  1
  O  O17  1  0.15526082  0.11892485  0.34582272  1
  F  F18  1  0.42275893  0.72789758  0.88142786  1
  F  F19  1  0.57628920  0.27210242  0.11857214  1
  F  F20  1  0.40101650  0.62125567  0.35375891  1
  F  F21  1  0.86760895  0.62154664  0.35416527  1
  F  F22  1  0.60022758  0.37845336  0.64583473  1
  F  F23  1  0.13351974  0.37874433  0.64624109  1
  F  F24  1  0.76660687  0.95206908  0.87242894  1
  F  F25  1  0.31446833  0.95273092  0.87344468  1
  F  F26  1  0.23518210  0.04726908  0.12655532  1
  F  F27  1  0.68696673  0.04793092  0.12757106  1
  F  F28  1  0.47739113  0.54826217  0.14004766  1
  F  F29  1  0.93198501  0.54865958  0.13896329  1
  F  F30  1  0.52228871  0.45134042  0.86103671  1
  F  F31  1  0.06917662  0.45173783  0.85995234  1
  F  F32  1  0.72433733  0.10804723  0.65754520  1
  F  F33  1  0.27383530  0.89195277  0.34245480  1
  F  F34  1  0.81769579  0.77191853  0.14082984  1
  F  F35  1  0.18660710  0.22808147  0.85917016  1
  F  F36  1  0.84698866  0.88268692  0.65338614  1
  F  F37  1  0.61768788  0.11731308  0.34661386  1
