# generated using pymatgen
data_K2Ni2(SO4)3
_symmetry_space_group_name_H-M   'P 1'
_cell_length_a   9.97992408
_cell_length_b   9.97992408
_cell_length_c   9.97992408
_cell_angle_alpha   90.00000000
_cell_angle_beta   90.00000000
_cell_angle_gamma   90.00000000
_symmetry_Int_Tables_number   1
_chemical_formula_structural   K2Ni2(SO4)3
_chemical_formula_sum   'K8 Ni8 S12 O48'
_cell_volume   993.98930719
_cell_formula_units_Z   4
loop_
 _symmetry_equiv_pos_site_id
 _symmetry_equiv_pos_as_xyz
  1  'x, y, z'
loop_
 _atom_site_type_symbol
 _atom_site_label
 _atom_site_symmetry_multiplicity
 _atom_site_fract_x
 _atom_site_fract_y
 _atom_site_fract_z
 _atom_site_occupancy
  O  O0  1  0.25419920  0.59569165  0.66377276  1
  O  O1  1  0.75419909  0.90430804  0.33622703  1
  O  O2  1  0.74580160  0.09569175  0.83622692  1
  O  O3  1  0.90430804  0.33622703  0.75419909  1
  O  O4  1  0.83622692  0.74580160  0.09569175  1
  O  O5  1  0.33622703  0.75419909  0.90430804  1
  O  O6  1  0.59569165  0.66377276  0.25419920  1
  O  O7  1  0.66377276  0.25419920  0.59569165  1
  O  O8  1  0.09569175  0.83622692  0.74580160  1
  O  O9  1  0.40430814  0.16377287  0.24580070  1
  O  O10  1  0.16377287  0.24580070  0.40430814  1
  O  O11  1  0.24580070  0.40430814  0.16377287  1
  O  O12  1  0.25872336  0.49607230  0.44532514  1
  O  O13  1  0.75872325  0.00392759  0.55467465  1
  O  O14  1  0.74127643  0.99607220  0.05467476  1
  O  O15  1  0.00392759  0.55467465  0.75872325  1
  O  O16  1  0.05467476  0.74127643  0.99607220  1
  O  O17  1  0.55467465  0.75872325  0.00392759  1
  O  O18  1  0.99632481  0.57637725  0.17023708  1
  O  O19  1  0.44532514  0.25872336  0.49607230  1
  O  O20  1  0.99607220  0.05467476  0.74127643  1
  O  O21  1  0.50392849  0.94532503  0.24127654  1
  O  O22  1  0.94532503  0.24127654  0.50392849  1
  O  O23  1  0.24127654  0.50392849  0.94532503  1
  O  O24  1  0.42362254  0.67023698  0.50367487  1
  O  O25  1  0.92362244  0.82976371  0.49632492  1
  O  O26  1  0.57637725  0.17023708  0.99632481  1
  O  O27  1  0.82976371  0.49632492  0.92362244  1
  O  O28  1  0.30888559  0.27534511  0.96284960  1
  O  O29  1  0.96284960  0.30888559  0.27534511  1
  O  O30  1  0.27534511  0.96284960  0.30888559  1
  O  O31  1  0.22465479  0.03715119  0.80888548  1
  O  O32  1  0.46284870  0.19111431  0.72465468  1
  O  O33  1  0.72465468  0.46284870  0.19111431  1
  O  O34  1  0.53715109  0.69111420  0.77534601  1
  O  O35  1  0.03715119  0.80888548  0.22465479  1
  O  O36  1  0.77534601  0.53715109  0.69111420  1
  O  O37  1  0.80888548  0.22465479  0.03715119  1
  O  O38  1  0.69111420  0.77534601  0.53715109  1
  O  O39  1  0.19111431  0.72465468  0.46284870  1
  O  O40  1  0.07637735  0.32976281  0.00367498  1
  O  O41  1  0.00367498  0.07637735  0.32976281  1
  O  O42  1  0.32976281  0.00367498  0.07637735  1
  O  O43  1  0.17023708  0.99632481  0.57637725  1
  O  O44  1  0.50367487  0.42362254  0.67023698  1
  O  O45  1  0.67023698  0.50367487  0.42362254  1
  O  O46  1  0.49632492  0.92362244  0.82976371  1
  O  O47  1  0.49607230  0.44532514  0.25872336  1
  S  S48  1  0.28235375  0.62273746  0.52091308  1
  S  S49  1  0.78235365  0.87726323  0.47908671  1
  S  S50  1  0.71764704  0.12273656  0.97908660  1
  S  S51  1  0.87726323  0.47908671  0.78235365  1
  S  S52  1  0.97908660  0.71764704  0.12273656  1
  S  S53  1  0.47908671  0.78235365  0.87726323  1
  S  S54  1  0.62273746  0.52091308  0.28235375  1
  S  S55  1  0.52091308  0.28235375  0.62273746  1
  S  S56  1  0.12273656  0.97908660  0.71764704  1
  S  S57  1  0.21764715  0.37726333  0.02091319  1
  S  S58  1  0.02091319  0.21764715  0.37726333  1
  S  S59  1  0.37726333  0.02091319  0.21764715  1
  K  K60  1  0.68490945  0.18490956  0.31509034  1
  K  K61  1  0.31509034  0.68490945  0.18490956  1
  K  K62  1  0.95014609  0.54985460  0.45014619  1
  K  K63  1  0.18490956  0.31509034  0.68490945  1
  K  K64  1  0.04985370  0.04985370  0.04985370  1
  K  K65  1  0.45014619  0.95014609  0.54985460  1
  K  K66  1  0.54985460  0.45014619  0.95014609  1
  K  K67  1  0.81509023  0.81509023  0.81509023  1
  Ni  Ni68  1  0.33602379  0.33602379  0.33602379  1
  Ni  Ni69  1  0.16397711  0.66397701  0.83602368  1
  Ni  Ni70  1  0.83602368  0.16397711  0.66397701  1
  Ni  Ni71  1  0.66397701  0.83602368  0.16397711  1
  Ni  Ni72  1  0.59431002  0.59431002  0.59431002  1
  Ni  Ni73  1  0.09431013  0.90568966  0.40568977  1
  Ni  Ni74  1  0.40568977  0.09431013  0.90568966  1
  Ni  Ni75  1  0.90568966  0.40568977  0.09431013  1
