# generated using pymatgen
data_P2W2O11
_symmetry_space_group_name_H-M   'P 1'
_cell_length_a   6.36626002
_cell_length_b   8.18339832
_cell_length_c   16.12674555
_cell_angle_alpha   90.00000000
_cell_angle_beta   90.00000000
_cell_angle_gamma   90.00000000
_symmetry_Int_Tables_number   1
_chemical_formula_structural   P2W2O11
_chemical_formula_sum   'P8 W8 O44'
_cell_volume   840.16540907
_cell_formula_units_Z   4
loop_
 _symmetry_equiv_pos_site_id
 _symmetry_equiv_pos_as_xyz
  1  'x, y, z'
loop_
 _atom_site_type_symbol
 _atom_site_label
 _atom_site_symmetry_multiplicity
 _atom_site_fract_x
 _atom_site_fract_y
 _atom_site_fract_z
 _atom_site_occupancy
  O  O0  1  0.24999974  0.54606286  0.48077942  1
  O  O1  1  0.74999923  0.45393683  0.51922114  1
  O  O2  1  0.74999923  0.04606240  0.01922117  1
  O  O3  1  0.24999974  0.95393728  0.98077939  1
  O  O4  1  0.24999974  0.53406933  0.65229286  1
  O  O5  1  0.74999923  0.46593036  0.34770708  1
  O  O6  1  0.74999923  0.03406887  0.84770767  1
  O  O7  1  0.24999974  0.96593081  0.15229289  1
  O  O8  1  0.44255436  0.29741553  0.43075644  1
  O  O9  1  0.94255543  0.70258416  0.56924350  1
  O  O10  1  0.55744461  0.79741598  0.06924353  1
  O  O11  1  0.05744513  0.20258370  0.93075641  1
  O  O12  1  0.55744461  0.70258416  0.56924350  1
  O  O13  1  0.05744513  0.29741553  0.43075644  1
  O  O14  1  0.24999974  0.31017111  0.75996735  1
  O  O15  1  0.94255543  0.79741598  0.06924353  1
  O  O16  1  0.24999974  0.63204615  0.15980487  1
  O  O17  1  0.74999923  0.36795354  0.84019507  1
  O  O18  1  0.74999923  0.13204569  0.34019510  1
  O  O19  1  0.24999974  0.86795399  0.65980484  1
  O  O20  1  0.24999974  0.31264672  0.10501181  1
  O  O21  1  0.74999923  0.68735297  0.89498813  1
  O  O22  1  0.74999923  0.81264595  0.39498816  1
  O  O23  1  0.24999974  0.18735374  0.60501178  1
  O  O24  1  0.24999974  0.61431788  0.99094329  1
  O  O25  1  0.74999923  0.38568180  0.00905665  1
  O  O26  1  0.74999923  0.11431743  0.50905662  1
  O  O27  1  0.24999974  0.88568225  0.49094332  1
  O  O28  1  0.94216452  0.42618060  0.21095051  1
  O  O29  1  0.44216503  0.57381908  0.78904943  1
  O  O30  1  0.05783445  0.92617983  0.28904946  1
  O  O31  1  0.55783552  0.07381985  0.71095048  1
  O  O32  1  0.05783445  0.57381908  0.78904943  1
  O  O33  1  0.55783552  0.42618060  0.21095051  1
  O  O34  1  0.94216452  0.07381985  0.71095048  1
  O  O35  1  0.44216503  0.92617983  0.28904946  1
  O  O36  1  0.24999974  0.48397719  0.32861876  1
  O  O37  1  0.74999923  0.51602249  0.67138181  1
  O  O38  1  0.74999923  0.98397765  0.17138184  1
  O  O39  1  0.24999974  0.01602204  0.82861873  1
  O  O40  1  0.24999974  0.18982934  0.25996737  1
  O  O41  1  0.74999923  0.81017157  0.74003257  1
  O  O42  1  0.74999923  0.68982857  0.24003260  1
  O  O43  1  0.44255436  0.20258370  0.93075641  1
  P  P44  1  0.74999923  0.59022244  0.58472333  1
  P  P45  1  0.24999974  0.40977725  0.41527661  1
  P  P46  1  0.24999974  0.09022198  0.91527659  1
  P  P47  1  0.74999923  0.90977770  0.08472336  1
  P  P48  1  0.74999923  0.99636447  0.75596775  1
  P  P49  1  0.24999974  0.00363522  0.24403220  1
  P  P50  1  0.24999974  0.49636524  0.74403217  1
  P  P51  1  0.74999923  0.50363445  0.25596778  1
  W  W52  1  0.24999974  0.72876146  0.56272015  1
  W  W53  1  0.74999923  0.27123822  0.43727980  1
  W  W54  1  0.74999923  0.22876100  0.93727977  1
  W  W55  1  0.24999974  0.77123868  0.06272017  1
  W  W56  1  0.24999974  0.08911997  0.69980437  1
  W  W57  1  0.74999923  0.91087972  0.30019557  1
  W  W58  1  0.74999923  0.58912042  0.80019554  1
  W  W59  1  0.24999974  0.41087926  0.19980440  1
