# generated using pymatgen
data_KNa2Li3Cr2(Si2O5)6
_symmetry_space_group_name_H-M   'P 1'
_cell_length_a   10.16421195
_cell_length_b   10.16421195
_cell_length_c   14.27882040
_cell_angle_alpha   90.00000000
_cell_angle_beta   90.00000000
_cell_angle_gamma   120.00000002
_symmetry_Int_Tables_number   1
_chemical_formula_structural   KNa2Li3Cr2(Si2O5)6
_chemical_formula_sum   'K2 Na4 Li6 Cr4 Si24 O60'
_cell_volume   1277.52788413
_cell_formula_units_Z   2
loop_
 _symmetry_equiv_pos_site_id
 _symmetry_equiv_pos_as_xyz
  1  'x, y, z'
loop_
 _atom_site_type_symbol
 _atom_site_label
 _atom_site_symmetry_multiplicity
 _atom_site_fract_x
 _atom_site_fract_y
 _atom_site_fract_z
 _atom_site_occupancy
  Li  Li0  1  0.49999968  0.00000000  0.24999966  1
  Li  Li1  1  0.99999969  0.50000005  0.74999969  1
  Li  Li2  1  0.50000036  0.50000005  0.74999969  1
  Li  Li3  1  0.49999968  0.00000000  0.74999969  1
  Li  Li4  1  0.99999969  0.50000005  0.24999966  1
  Li  Li5  1  0.50000036  0.50000005  0.24999966  1
  O  O6  1  0.14111589  0.74012437  0.50000003  1
  O  O7  1  0.49246990  0.65746563  0.82978858  1
  O  O8  1  0.16499517  0.50753033  0.82978858  1
  O  O9  1  0.83500455  0.49246977  0.82978858  1
  O  O10  1  0.34253516  0.50753033  0.67021151  1
  O  O11  1  0.65746555  0.49246977  0.67021151  1
  O  O12  1  0.65746568  0.16499586  0.82978858  1
  O  O13  1  0.83500400  0.34253447  0.67021151  1
  O  O14  1  0.16499573  0.65746563  0.67021151  1
  O  O15  1  0.49246921  0.83500424  0.67021151  1
  O  O16  1  0.50752983  0.34253447  0.82978858  1
  O  O17  1  0.34253503  0.83500424  0.82978858  1
  O  O18  1  0.65746555  0.49246977  0.32978855  1
  O  O19  1  0.50753052  0.16499586  0.32978855  1
  O  O20  1  0.83500400  0.34253447  0.32978855  1
  O  O21  1  0.16499573  0.65746563  0.32978855  1
  O  O22  1  0.34253503  0.83500424  0.17021148  1
  O  O23  1  0.34253516  0.50753033  0.32978855  1
  O  O24  1  0.49246921  0.83500424  0.32978855  1
  O  O25  1  0.50752983  0.34253447  0.17021148  1
  O  O26  1  0.83500455  0.49246977  0.17021148  1
  O  O27  1  0.16499517  0.50753033  0.17021148  1
  O  O28  1  0.49246990  0.65746563  0.17021148  1
  O  O29  1  0.65746568  0.16499586  0.17021148  1
  O  O30  1  0.27628452  0.05331262  0.86458244  1
  O  O31  1  0.72371615  0.77702872  0.63541765  1
  O  O32  1  0.22297129  0.94668748  0.63541765  1
  O  O33  1  0.77702844  0.05331262  0.63541765  1
  O  O34  1  0.94668715  0.22297137  0.86458244  1
  O  O35  1  0.94668806  0.72371611  0.63541765  1
  O  O36  1  0.27628357  0.22297137  0.63541765  1
  O  O37  1  0.72371619  0.94668748  0.86458244  1
  O  O38  1  0.22297134  0.27628399  0.86458244  1
  O  O39  1  0.77702839  0.72371611  0.86458244  1
  O  O40  1  0.74012467  0.14111573  0.00000000  1
  O  O41  1  0.59900848  0.74012437  0.00000000  1
  O  O42  1  0.14111655  0.40099146  0.00000000  1
  O  O43  1  0.85888416  0.59900864  0.00000000  1
  O  O44  1  0.40099223  0.25987573  0.00000000  1
  O  O45  1  0.59900775  0.85888323  0.50000003  1
  O  O46  1  0.25987490  0.40099146  0.50000003  1
  O  O47  1  0.25987548  0.85888323  0.00000000  1
  O  O48  1  0.50753052  0.16499586  0.67021151  1
  O  O49  1  0.85888384  0.25987573  0.50000003  1
  O  O50  1  0.40099141  0.14111573  0.50000003  1
  O  O51  1  0.74012482  0.59900864  0.50000003  1
  O  O52  1  0.94668715  0.22297137  0.13541762  1
  O  O53  1  0.72371619  0.94668748  0.13541762  1
  O  O54  1  0.22297134  0.27628399  0.13541762  1
  O  O55  1  0.77702839  0.72371611  0.13541762  1
  O  O56  1  0.27628452  0.05331262  0.13541762  1
  O  O57  1  0.72371615  0.77702872  0.36458241  1
  O  O58  1  0.05331266  0.27628399  0.36458241  1
  O  O59  1  0.05331257  0.77702872  0.13541762  1
  O  O60  1  0.22297129  0.94668748  0.36458241  1
  O  O61  1  0.77702844  0.05331262  0.36458241  1
  O  O62  1  0.27628357  0.22297137  0.36458241  1
  O  O63  1  0.94668806  0.72371611  0.36458241  1
  O  O64  1  0.05331257  0.77702872  0.86458244  1
  O  O65  1  0.05331266  0.27628399  0.63541765  1
  Na  Na66  1  0.66666617  0.33333299  0.50000003  1
  Na  Na67  1  0.66666617  0.33333299  0.00000000  1
  Na  Na68  1  0.33333356  0.66666711  0.00000000  1
  Na  Na69  1  0.33333356  0.66666711  0.50000003  1
  Si  Si70  1  0.35651497  0.12114470  0.38772842  1
  Si  Si71  1  0.76462955  0.64348515  0.61227164  1
  Si  Si72  1  0.35651497  0.12114470  0.61227164  1
  Si  Si73  1  0.64348411  0.76462872  0.88772845  1
  Si  Si74  1  0.12114379  0.35651494  0.88772845  1
  Si  Si75  1  0.87885594  0.64348515  0.88772845  1
  Si  Si76  1  0.35651504  0.23537024  0.88772845  1
  Si  Si77  1  0.23537064  0.87885540  0.88772845  1
  Si  Si78  1  0.76462955  0.64348515  0.38772842  1
  Si  Si79  1  0.76462908  0.12114470  0.88772845  1
  Si  Si80  1  0.87885554  0.23537024  0.38772842  1
  Si  Si81  1  0.12114460  0.76462872  0.38772842  1
  Si  Si82  1  0.23537064  0.87885540  0.11227161  1
  Si  Si83  1  0.87885554  0.23537024  0.61227164  1
  Si  Si84  1  0.64348476  0.87885540  0.38772842  1
  Si  Si85  1  0.35651504  0.23537024  0.11227161  1
  Si  Si86  1  0.87885594  0.64348515  0.11227161  1
  Si  Si87  1  0.12114379  0.35651494  0.11227161  1
  Si  Si88  1  0.64348411  0.76462872  0.11227161  1
  Si  Si89  1  0.76462908  0.12114470  0.11227161  1
  Si  Si90  1  0.12114460  0.76462872  0.61227164  1
  Si  Si91  1  0.64348476  0.87885540  0.61227164  1
  Si  Si92  1  0.23537116  0.35651494  0.61227164  1
  Si  Si93  1  0.23537116  0.35651494  0.38772842  1
  K  K94  1  0.00000000  0.00000000  0.24999966  1
  K  K95  1  0.00000000  0.00000000  0.74999969  1
  Cr  Cr96  1  0.33333356  0.66666711  0.74999969  1
  Cr  Cr97  1  0.66666617  0.33333299  0.74999969  1
  Cr  Cr98  1  0.66666617  0.33333299  0.24999966  1
  Cr  Cr99  1  0.33333356  0.66666711  0.24999966  1
