# generated using pymatgen
data_UCrO4
_symmetry_space_group_name_H-M   'P 1'
_cell_length_a   4.89611414
_cell_length_b   5.17060079
_cell_length_c   11.98505800
_cell_angle_alpha   90.00000000
_cell_angle_beta   90.00000000
_cell_angle_gamma   90.00000000
_symmetry_Int_Tables_number   1
_chemical_formula_structural   UCrO4
_chemical_formula_sum   'U4 Cr4 O16'
_cell_volume   303.41195023
_cell_formula_units_Z   4
loop_
 _symmetry_equiv_pos_site_id
 _symmetry_equiv_pos_as_xyz
  1  'x, y, z'
loop_
 _atom_site_type_symbol
 _atom_site_label
 _atom_site_symmetry_multiplicity
 _atom_site_fract_x
 _atom_site_fract_y
 _atom_site_fract_z
 _atom_site_occupancy
  O  O0  1  0.22058550  0.40657334  0.31011825  1
  O  O1  1  0.72058521  0.59342588  0.18988177  1
  O  O2  1  0.27941420  0.90657295  0.18988177  1
  O  O3  1  0.77941391  0.09342627  0.31011825  1
  O  O4  1  0.77941391  0.59342588  0.68988180  1
  O  O5  1  0.27941420  0.40657334  0.81011828  1
  O  O6  1  0.72058521  0.09342627  0.81011828  1
  O  O7  1  0.22058550  0.90657295  0.68988180  1
  O  O8  1  0.22794525  0.42669472  0.55374864  1
  O  O9  1  0.72794496  0.57330645  0.94625144  1
  O  O10  1  0.27205445  0.92669433  0.94625144  1
  O  O11  1  0.77205416  0.07330684  0.55374864  1
  O  O12  1  0.22794525  0.92669433  0.44625141  1
  O  O13  1  0.27205445  0.42669472  0.05374861  1
  O  O14  1  0.72794496  0.07330684  0.05374861  1
  O  O15  1  0.77205416  0.57330645  0.44625141  1
  Cr  Cr16  1  0.49999970  0.75000039  0.06309037  1
  Cr  Cr17  1  0.00000000  0.25000078  0.43690881  1
  Cr  Cr18  1  0.49999970  0.25000078  0.93690884  1
  Cr  Cr19  1  0.00000000  0.75000039  0.56309039  1
  U  U20  1  0.49999970  0.75000039  0.33098955  1
  U  U21  1  0.00000000  0.25000078  0.16901048  1
  U  U22  1  0.49999970  0.25000078  0.66901050  1
  U  U23  1  0.00000000  0.75000039  0.83098957  1
