# generated using pymatgen
data_Ni2Te3O8
_symmetry_space_group_name_H-M   'P 1'
_cell_length_a   5.29231637
_cell_length_b   6.82168858
_cell_length_c   11.59733204
_cell_angle_alpha   97.82592220
_cell_angle_beta   90.00000000
_cell_angle_gamma   112.82412378
_symmetry_Int_Tables_number   1
_chemical_formula_structural   Ni2Te3O8
_chemical_formula_sum   'Ni4 Te6 O16'
_cell_volume   381.67500092
_cell_formula_units_Z   2
loop_
 _symmetry_equiv_pos_site_id
 _symmetry_equiv_pos_as_xyz
  1  'x, y, z'
loop_
 _atom_site_type_symbol
 _atom_site_label
 _atom_site_symmetry_multiplicity
 _atom_site_fract_x
 _atom_site_fract_y
 _atom_site_fract_z
 _atom_site_occupancy
  O  O0  1  0.72451173  0.46581006  0.97330283  1
  O  O1  1  0.25870050  0.53419014  0.52669737  1
  O  O2  1  0.27549000  0.53419086  0.02669788  1
  O  O3  1  0.74129853  0.46580916  0.47330234  1
  O  O4  1  0.45596131  0.60196597  0.80305337  1
  O  O5  1  0.85399481  0.39803423  0.69694683  1
  O  O6  1  0.54403772  0.39803333  0.19694721  1
  O  O7  1  0.14600502  0.60196669  0.30305301  1
  O  O8  1  0.03735664  0.77457322  0.86868415  1
  O  O9  1  0.26278479  0.22542697  0.63131605  1
  O  O10  1  0.96528974  0.83583690  0.14448680  1
  O  O11  1  0.12945347  0.16416312  0.35551343  1
  O  O12  1  0.03470929  0.16416240  0.85551378  1
  O  O13  1  0.96264239  0.22542607  0.13131643  1
  O  O14  1  0.73721695  0.77457394  0.36868379  1
  O  O15  1  0.87054827  0.83583780  0.64448642  1
  Ni  Ni16  1  0.94176848  0.52894659  0.14471833  1
  Ni  Ni17  1  0.41282252  0.47105342  0.35528189  1
  Ni  Ni18  1  0.05823135  0.47105432  0.85528151  1
  Ni  Ni19  1  0.58717650  0.52894588  0.64471782  1
  Te  Te20  1  0.82104469  0.00000045  0.24999981  1
  Te  Te21  1  0.17895605  0.99999973  0.75000017  1
  Te  Te22  1  0.04567487  0.72917124  0.44342609  1
  Te  Te23  1  0.31650301  0.27082878  0.05657413  1
  Te  Te24  1  0.95432606  0.27082806  0.55657362  1
  Te  Te25  1  0.68349682  0.72917214  0.94342571  1
