# generated using pymatgen
data_Sr2Co(SeO3)3
_symmetry_space_group_name_H-M   'P 1'
_cell_length_a   7.46007443
_cell_length_b   7.76397962
_cell_length_c   8.87212180
_cell_angle_alpha   103.24765696
_cell_angle_beta   105.47959750
_cell_angle_gamma   95.57394402
_symmetry_Int_Tables_number   1
_chemical_formula_structural   Sr2Co(SeO3)3
_chemical_formula_sum   'Sr4 Co2 Se6 O18'
_cell_volume   475.14047933
_cell_formula_units_Z   2
loop_
 _symmetry_equiv_pos_site_id
 _symmetry_equiv_pos_as_xyz
  1  'x, y, z'
loop_
 _atom_site_type_symbol
 _atom_site_label
 _atom_site_symmetry_multiplicity
 _atom_site_fract_x
 _atom_site_fract_y
 _atom_site_fract_z
 _atom_site_occupancy
  O  O0  1  0.17441428  0.63059108  0.38202094  1
  O  O1  1  0.82558621  0.36940890  0.61798003  1
  O  O2  1  0.22588225  0.40727456  0.58834384  1
  O  O3  1  0.77411825  0.59272541  0.41165601  1
  O  O4  1  0.47479717  0.69954853  0.64611091  1
  O  O5  1  0.52520332  0.30045144  0.35388894  1
  O  O6  1  0.06151314  0.81823584  0.14776753  1
  O  O7  1  0.93848735  0.18176413  0.85223231  1
  O  O8  1  0.16565166  0.58052811  0.93153280  1
  O  O9  1  0.83434884  0.41947186  0.06846705  1
  O  O10  1  0.87214067  0.75216282  0.83010508  1
  O  O11  1  0.12785982  0.24783715  0.16989477  1
  O  O12  1  0.48799787  0.87569702  0.31811418  1
  O  O13  1  0.51200123  0.12430295  0.68188535  1
  O  O14  1  0.85384801  0.94902042  0.35305751  1
  O  O15  1  0.36387677  0.30263332  0.90051685  1
  O  O16  1  0.63612373  0.69736665  0.09948299  1
  O  O17  1  0.14615109  0.05097955  0.64694315  1
  Co  Co18  1  0.09636245  0.33863119  0.75453533  1
  Co  Co19  1  0.90363665  0.66136879  0.24546533  1
  Se  Se20  1  0.23434257  0.63392587  0.58490519  1
  Se  Se21  1  0.90402817  0.21000332  0.04062514  1
  Se  Se22  1  0.36252638  0.08363851  0.79342287  1
  Se  Se23  1  0.63747272  0.91636146  0.20657666  1
  Se  Se24  1  0.09597093  0.78999665  0.95937439  1
  Se  Se25  1  0.76565792  0.36607410  0.41509465  1
  Sr  Sr26  1  0.62783319  0.48431976  0.80703429  1
  Sr  Sr27  1  0.37216730  0.51568021  0.19296556  1
  Sr  Sr28  1  0.75325981  0.90948989  0.61076989  1
  Sr  Sr29  1  0.24674069  0.09051008  0.38922996  1
