# generated using pymatgen
data_Mn6AgP7O24
_symmetry_space_group_name_H-M   'P 1'
_cell_length_a   5.43810344
_cell_length_b   6.65636013
_cell_length_c   27.12596288
_cell_angle_alpha   90.00000000
_cell_angle_beta   90.00000000
_cell_angle_gamma   107.45384501
_symmetry_Int_Tables_number   1
_chemical_formula_structural   Mn6AgP7O24
_chemical_formula_sum   'Mn12 Ag2 P14 O48'
_cell_volume   936.69691786
_cell_formula_units_Z   2
loop_
 _symmetry_equiv_pos_site_id
 _symmetry_equiv_pos_as_xyz
  1  'x, y, z'
loop_
 _atom_site_type_symbol
 _atom_site_label
 _atom_site_symmetry_multiplicity
 _atom_site_fract_x
 _atom_site_fract_y
 _atom_site_fract_z
 _atom_site_occupancy
  O  O0  1  0.85168661  0.63032151  0.02262287  1
  O  O1  1  0.14831446  0.36967828  0.52262288  1
  O  O2  1  0.14831446  0.36967828  0.97737714  1
  O  O3  1  0.85168661  0.63032151  0.47737713  1
  O  O4  1  0.59020002  0.82523721  0.97423443  1
  O  O5  1  0.40979920  0.17476258  0.47423443  1
  O  O6  1  0.40979920  0.17476258  0.02576558  1
  O  O7  1  0.59020002  0.82523721  0.52576558  1
  O  O8  1  0.86909020  0.00296695  0.04768899  1
  O  O9  1  0.13090903  0.99703283  0.54768900  1
  O  O10  1  0.13090903  0.99703283  0.95231102  1
  O  O11  1  0.86909020  0.00296695  0.45231101  1
  O  O12  1  0.44951711  0.71270556  0.05745721  1
  O  O13  1  0.55048269  0.28729581  0.55745722  1
  O  O14  1  0.14144740  0.39715691  0.09487896  1
  O  O15  1  0.44951711  0.71270556  0.44254279  1
  O  O16  1  0.83597583  0.20127829  0.74999982  1
  O  O17  1  0.16402340  0.79872150  0.24999982  1
  O  O18  1  0.37009524  0.22667265  0.74999982  1
  O  O19  1  0.62990399  0.77332714  0.24999982  1
  O  O20  1  0.49552688  0.93429643  0.70375751  1
  O  O21  1  0.50447234  0.06570335  0.20375751  1
  O  O22  1  0.50447234  0.06570335  0.29624250  1
  O  O23  1  0.49552688  0.93429643  0.79624250  1
  O  O24  1  0.51441118  0.61402625  0.14736936  1
  O  O25  1  0.48558805  0.38597353  0.64736937  1
  O  O26  1  0.48558805  0.38597353  0.85263065  1
  O  O27  1  0.51441118  0.61402625  0.35263064  1
  O  O28  1  0.07098676  0.94792417  0.66475155  1
  O  O29  1  0.92901247  0.05207562  0.16475154  1
  O  O30  1  0.92901247  0.05207562  0.33524846  1
  O  O31  1  0.07098676  0.94792417  0.83524847  1
  O  O32  1  0.39126754  0.79270998  0.61997193  1
  O  O33  1  0.60873169  0.20728980  0.11997193  1
  O  O34  1  0.60873169  0.20728980  0.38002808  1
  O  O35  1  0.39126754  0.79270998  0.88002808  1
  O  O36  1  0.12313100  0.59976130  0.69374753  1
  O  O37  1  0.87686823  0.40023849  0.19374752  1
  O  O38  1  0.87686823  0.40023849  0.30625248  1
  O  O39  1  0.12313100  0.59976130  0.80625249  1
  O  O40  1  0.15448315  0.76600990  0.12273021  1
  O  O41  1  0.84551607  0.23398989  0.62273022  1
  O  O42  1  0.84551607  0.23398989  0.87726980  1
  O  O43  1  0.15448315  0.76600990  0.37726979  1
  O  O44  1  0.14144740  0.39715691  0.40512105  1
  O  O45  1  0.85855182  0.60284288  0.90512105  1
  O  O46  1  0.85855182  0.60284288  0.59487896  1
  O  O47  1  0.55048269  0.28729581  0.94254280  1
  P  P48  1  0.31537543  0.61804631  0.10900374  1
  P  P49  1  0.68462564  0.38195349  0.60900375  1
  P  P50  1  0.68462564  0.38195349  0.89099627  1
  P  P51  1  0.31537543  0.61804631  0.39099626  1
  P  P52  1  0.25056415  0.80904075  0.83216737  1
  P  P53  1  0.74943692  0.19095905  0.33216773  1
  P  P54  1  0.74943692  0.19095905  0.16783227  1
  P  P55  1  0.25056415  0.80904075  0.66783228  1
  P  P56  1  0.45220126  0.91288349  0.24999982  1
  P  P57  1  0.54779797  0.08711630  0.74999982  1
  P  P58  1  0.70643562  0.79510670  0.02446039  1
  P  P59  1  0.29356545  0.20489310  0.97553962  1
  P  P60  1  0.70643562  0.79510670  0.47553961  1
  P  P61  1  0.29356545  0.20489310  0.52446040  1
  Mn  Mn62  1  0.81163831  0.31433097  0.45484648  1
  Mn  Mn63  1  0.18836092  0.68566881  0.95484649  1
  Mn  Mn64  1  0.81163831  0.31433097  0.04515352  1
  Mn  Mn65  1  0.18836092  0.68566881  0.54515353  1
  Mn  Mn66  1  0.79369263  0.91360590  0.59766534  1
  Mn  Mn67  1  0.20630660  0.08639389  0.09766533  1
  Mn  Mn68  1  0.12759254  0.27934107  0.81713220  1
  Mn  Mn69  1  0.20630660  0.08639389  0.40233467  1
  Mn  Mn70  1  0.87240725  0.72066030  0.18286781  1
  Mn  Mn71  1  0.12759254  0.27934107  0.68286781  1
  Mn  Mn72  1  0.79369263  0.91360590  0.90233468  1
  Mn  Mn73  1  0.87240725  0.72066030  0.31713220  1
  Ag  Ag74  1  0.77360223  0.58686539  0.74999982  1
  Ag  Ag75  1  0.22639700  0.41313439  0.24999982  1
