# generated using pymatgen
data_NaMnAsO4
_symmetry_space_group_name_H-M   'P 1'
_cell_length_a   5.24914444
_cell_length_b   6.48454376
_cell_length_c   11.02910594
_cell_angle_alpha   90.00000000
_cell_angle_beta   90.00000000
_cell_angle_gamma   90.00000000
_symmetry_Int_Tables_number   1
_chemical_formula_structural   NaMnAsO4
_chemical_formula_sum   'Na4 Mn4 As4 O16'
_cell_volume   375.41209198
_cell_formula_units_Z   4
loop_
 _symmetry_equiv_pos_site_id
 _symmetry_equiv_pos_as_xyz
  1  'x, y, z'
loop_
 _atom_site_type_symbol
 _atom_site_label
 _atom_site_symmetry_multiplicity
 _atom_site_fract_x
 _atom_site_fract_y
 _atom_site_fract_z
 _atom_site_occupancy
  O  O0  1  0.29690291  0.95623588  0.17719355  1
  O  O1  1  0.79690315  0.04376324  0.32280629  1
  O  O2  1  0.70309757  0.45623555  0.82280703  1
  O  O3  1  0.20309733  0.54376357  0.67719338  1
  O  O4  1  0.70309757  0.04376324  0.82280703  1
  O  O5  1  0.20309733  0.95623588  0.67719338  1
  O  O6  1  0.29690291  0.54376357  0.17719355  1
  O  O7  1  0.79690315  0.45623555  0.32280629  1
  O  O8  1  0.23046439  0.24999939  0.88911538  1
  O  O9  1  0.73046463  0.74999973  0.61088412  1
  O  O10  1  0.76953609  0.74999973  0.11088428  1
  O  O11  1  0.26953585  0.24999939  0.38911555  1
  O  O12  1  0.83018200  0.24999939  0.54265321  1
  O  O13  1  0.33018176  0.74999973  0.95734721  1
  O  O14  1  0.66981681  0.24999939  0.04265246  1
  O  O15  1  0.16981657  0.74999973  0.45734737  1
  Na  Na16  1  0.50000024  0.50000033  0.49999983  1
  Na  Na17  1  0.00000000  0.50000033  0.00000000  1
  Na  Na18  1  0.50000024  0.00000000  0.49999983  1
  Na  Na19  1  0.00000000  0.00000000  0.00000000  1
  Mn  Mn20  1  0.49557176  0.24999939  0.21899396  1
  Mn  Mn21  1  0.99557200  0.74999973  0.28100588  1
  Mn  Mn22  1  0.00442848  0.24999939  0.71899471  1
  Mn  Mn23  1  0.50442872  0.74999973  0.78100571  1
  As  As24  1  0.94390620  0.24999939  0.39565264  1
  As  As25  1  0.44390596  0.74999973  0.10434810  1
  As  As26  1  0.05609428  0.74999973  0.60434794  1
  As  As27  1  0.55609452  0.24999939  0.89565248  1
