# generated using pymatgen
data_Li3V2(PO4)3
_symmetry_space_group_name_H-M   'P 1'
_cell_length_a   8.76016456
_cell_length_b   8.77445856
_cell_length_c   12.23000539
_cell_angle_alpha   90.54918948
_cell_angle_beta   90.00000000
_cell_angle_gamma   90.00000000
_symmetry_Int_Tables_number   1
_chemical_formula_structural   Li3V2(PO4)3
_chemical_formula_sum   'Li12 V8 P12 O48'
_cell_volume   940.02475272
_cell_formula_units_Z   4
loop_
 _symmetry_equiv_pos_site_id
 _symmetry_equiv_pos_as_xyz
  1  'x, y, z'
loop_
 _atom_site_type_symbol
 _atom_site_label
 _atom_site_symmetry_multiplicity
 _atom_site_fract_x
 _atom_site_fract_y
 _atom_site_fract_z
 _atom_site_occupancy
  Li  Li0  1  0.19713450  0.43165034  0.74257136  1
  Li  Li1  1  0.69713463  0.06834983  0.75742903  1
  Li  Li2  1  0.80286576  0.56834985  0.25742886  1
  Li  Li3  1  0.30286563  0.93165035  0.24257119  1
  Li  Li4  1  0.08395774  0.07978127  0.69842763  1
  Li  Li5  1  0.58395787  0.42021889  0.80157276  1
  Li  Li6  1  0.91604252  0.92021891  0.30157259  1
  Li  Li7  1  0.41604239  0.57978129  0.19842745  1
  Li  Li8  1  0.22791080  0.79257936  0.82176425  1
  Li  Li9  1  0.72791093  0.70742092  0.67823567  1
  Li  Li10  1  0.77208946  0.20742083  0.17823515  1
  Li  Li11  1  0.27208933  0.29257926  0.32176455  1
  O  O12  1  0.21963647  0.14300130  0.81771630  1
  O  O13  1  0.71963660  0.35699887  0.68228409  1
  O  O14  1  0.78036379  0.85699889  0.18228392  1
  O  O15  1  0.28036366  0.64300131  0.31771613  1
  O  O16  1  0.23865026  0.65753713  0.68717709  1
  O  O17  1  0.73865039  0.84246201  0.81282282  1
  O  O18  1  0.76135000  0.34246191  0.31282312  1
  O  O19  1  0.26134987  0.15753704  0.18717657  1
  O  O20  1  0.36440265  0.11414763  0.57056115  1
  O  O21  1  0.86440278  0.38585254  0.92943924  1
  O  O22  1  0.63559761  0.88585256  0.42943906  1
  O  O23  1  0.13559748  0.61414764  0.07056098  1
  O  O24  1  0.33381339  0.66499329  0.92899600  1
  O  O25  1  0.83381352  0.83500699  0.57100391  1
  O  O26  1  0.66618687  0.33500689  0.07100339  1
  O  O27  1  0.16618674  0.16499320  0.42899630  1
  O  O28  1  0.17966042  0.43062873  0.90612663  1
  O  O29  1  0.67966055  0.06937144  0.59387294  1
  O  O30  1  0.82033984  0.56937145  0.09387358  1
  O  O31  1  0.32033971  0.93062875  0.40612646  1
  O  O32  1  0.13588252  0.95243903  0.56898855  1
  O  O33  1  0.63588265  0.54756010  0.93101135  1
  O  O34  1  0.86411774  0.04756001  0.43101166  1
  O  O35  1  0.36411761  0.45243894  0.06898886  1
  O  O36  1  0.41466237  0.15170876  0.97088727  1
  O  O37  1  0.91466250  0.34829026  0.52911311  1
  O  O38  1  0.58533789  0.84829028  0.02911294  1
  O  O39  1  0.08533776  0.65170878  0.47088710  1
  O  O40  1  0.44553278  0.66356996  0.53836621  1
  O  O41  1  0.94553176  0.83643031  0.96163370  1
  O  O42  1  0.55446748  0.33643022  0.46163401  1
  O  O43  1  0.05446735  0.16356987  0.03836651  1
  O  O44  1  0.00649272  0.31048663  0.72021800  1
  O  O45  1  0.50649285  0.18951354  0.77978239  1
  O  O46  1  0.99350754  0.68951356  0.27978222  1
  O  O47  1  0.49350741  0.81048664  0.22021782  1
  O  O48  1  0.02342829  0.84544764  0.76465653  1
  O  O49  1  0.52342842  0.65455264  0.73534339  1
  O  O50  1  0.97657198  0.15455255  0.23534369  1
  O  O51  1  0.47657184  0.34544754  0.26465683  1
  O  O52  1  0.39421572  0.42712108  0.65715193  1
  O  O53  1  0.89421585  0.07287908  0.84284845  1
  O  O54  1  0.60578454  0.57287910  0.34284828  1
  O  O55  1  0.10578441  0.92712110  0.15715176  1
  O  O56  1  0.40736946  0.93006772  0.83522903  1
  O  O57  1  0.90736959  0.56993255  0.66477089  1
  O  O58  1  0.59263080  0.06993246  0.16477119  1
  O  O59  1  0.09263067  0.43006763  0.33522933  1
  P  P60  1  0.25163206  0.53802965  0.99348497  1
  P  P61  1  0.75163219  0.96197062  0.50651495  1
  P  P62  1  0.74836820  0.46197053  0.00651443  1
  P  P63  1  0.24836807  0.03802956  0.49348527  1
  P  P64  1  0.38671633  0.10411508  0.85214053  1
  P  P65  1  0.88671646  0.39588394  0.64785903  1
  P  P66  1  0.61328393  0.89588396  0.14785885  1
  P  P67  1  0.11328380  0.60411510  0.35214036  1
  P  P68  1  0.40021057  0.60455487  0.64916894  1
  P  P69  1  0.90021070  0.89544540  0.85083098  1
  P  P70  1  0.59978855  0.39544531  0.35083128  1
  P  P71  1  0.09978956  0.10455478  0.14916842  1
  V  V72  1  0.03273535  0.25237683  0.88979531  1
  V  V73  1  0.53273548  0.24762334  0.61020426  1
  V  V74  1  0.96726376  0.74762335  0.11020408  1
  V  V75  1  0.46726363  0.75237685  0.38979596  1
  V  V76  1  0.04159697  0.74835208  0.61091465  1
  V  V77  1  0.54159710  0.75164820  0.88908526  1
  V  V78  1  0.95840214  0.25164810  0.38908556  1
  V  V79  1  0.45840201  0.24835199  0.11091413  1
