# generated using pymatgen
data_NaCa9Mn(PO4)7
_symmetry_space_group_name_H-M   'P 1'
_cell_length_a   13.88303951
_cell_length_b   13.88303951
_cell_length_c   13.88303951
_cell_angle_alpha   44.37556071
_cell_angle_beta   44.37556071
_cell_angle_gamma   44.37556069
_symmetry_Int_Tables_number   1
_chemical_formula_structural   NaCa9Mn(PO4)7
_chemical_formula_sum   'Na2 Ca18 Mn2 P14 O56'
_cell_volume   1189.62338224
_cell_formula_units_Z   2
loop_
 _symmetry_equiv_pos_site_id
 _symmetry_equiv_pos_as_xyz
  1  'x, y, z'
loop_
 _atom_site_type_symbol
 _atom_site_label
 _atom_site_symmetry_multiplicity
 _atom_site_fract_x
 _atom_site_fract_y
 _atom_site_fract_z
 _atom_site_occupancy
  O  O0  1  0.11454658  0.67055676  0.69021426  1
  O  O1  1  0.67055681  0.69021385  0.11454688  1
  O  O2  1  0.69021387  0.11454676  0.67055677  1
  O  O3  1  0.19021334  0.17055699  0.61454703  1
  O  O4  1  0.17055632  0.61454742  0.19021358  1
  O  O5  1  0.61454681  0.19021407  0.17055620  1
  O  O6  1  0.36254311  0.61859107  0.64042323  1
  O  O7  1  0.61859099  0.64042300  0.36254397  1
  O  O8  1  0.64042307  0.36254381  0.61859102  1
  O  O9  1  0.14042320  0.11859016  0.86254432  1
  O  O10  1  0.11859126  0.86254333  0.14042327  1
  O  O11  1  0.86254390  0.14042323  0.11859045  1
  O  O12  1  0.12632078  0.85402662  0.67332861  1
  O  O13  1  0.85402714  0.67332841  0.12632025  1
  O  O14  1  0.67332873  0.12632016  0.85402702  1
  O  O15  1  0.17332890  0.35402685  0.62632000  1
  O  O16  1  0.35402752  0.62631968  0.17332837  1
  O  O17  1  0.62631991  0.17332864  0.35402759  1
  O  O18  1  0.14479498  0.58881698  0.89955978  1
  O  O19  1  0.58881670  0.89955964  0.14479477  1
  O  O20  1  0.89956002  0.14479508  0.58881639  1
  O  O21  1  0.39956036  0.08881607  0.64479533  1
  O  O22  1  0.38329381  0.84437489  0.63547288  1
  O  O23  1  0.64479502  0.39955987  0.08881615  1
  O  O24  1  0.14984192  0.86907809  0.87514363  1
  O  O25  1  0.86907763  0.87514371  0.14984194  1
  O  O26  1  0.87514466  0.14984150  0.86907729  1
  O  O27  1  0.37514422  0.36907719  0.64984179  1
  O  O28  1  0.36907712  0.64984215  0.37514376  1
  O  O29  1  0.64984152  0.37514393  0.36907813  1
  O  O30  1  0.33827591  0.60815499  0.89241665  1
  O  O31  1  0.60815561  0.89241632  0.33827595  1
  O  O32  1  0.89241631  0.33827586  0.60815581  1
  O  O33  1  0.39241735  0.10815522  0.83827540  1
  O  O34  1  0.10815544  0.83827538  0.39241705  1
  O  O35  1  0.83827577  0.39241654  0.10815532  1
  O  O36  1  0.30784858  0.30784774  0.30784777  1
  O  O37  1  0.80784786  0.80784777  0.80784842  1
  O  O38  1  0.25466949  0.11142633  0.39204895  1
  O  O39  1  0.39204803  0.25466988  0.11142668  1
  O  O40  1  0.11142710  0.39204813  0.25466987  1
  O  O41  1  0.61142602  0.75466991  0.89204902  1
  O  O42  1  0.89204808  0.61142636  0.75466987  1
  O  O43  1  0.75467042  0.89204817  0.61142636  1
  O  O44  1  0.91481651  0.35157619  0.25536699  1
  O  O45  1  0.25536654  0.91481746  0.35157631  1
  O  O46  1  0.35157563  0.25536695  0.91481755  1
  O  O47  1  0.85157622  0.41481681  0.75536714  1
  O  O48  1  0.75536710  0.85157596  0.41481658  1
  O  O49  1  0.41481717  0.75536673  0.85157606  1
  O  O50  1  0.88329350  0.13547207  0.34437550  1
  O  O51  1  0.34437537  0.88329324  0.13547256  1
  O  O52  1  0.13547264  0.34437511  0.88329340  1
  O  O53  1  0.63547254  0.38329372  0.84437539  1
  O  O54  1  0.84437499  0.63547298  0.38329333  1
  O  O55  1  0.08881648  0.64479460  0.39956002  1
  Na  Na56  1  0.68684107  0.68684090  0.68684030  1
  Na  Na57  1  0.18684075  0.18684086  0.18684111  1
  P  P58  1  0.80911059  0.32566982  0.77050515  1
  P  P59  1  0.22696278  0.18389232  0.68600010  1
  P  P60  1  0.18389231  0.68600038  0.22696268  1
  P  P61  1  0.68600068  0.22696189  0.18389275  1
  P  P62  1  0.32566981  0.77050482  0.80911056  1
  P  P63  1  0.77050545  0.80911030  0.32566972  1
  P  P64  1  0.72696172  0.18600086  0.68389241  1
  P  P65  1  0.30911031  0.27050504  0.82566990  1
  P  P66  1  0.27050599  0.82566934  0.30911039  1
  P  P67  1  0.82567027  0.30911053  0.27050521  1
  P  P68  1  0.76651467  0.76651442  0.76651420  1
  P  P69  1  0.26651436  0.26651439  0.26651429  1
  P  P70  1  0.68389332  0.72696167  0.18600028  1
  P  P71  1  0.18600056  0.68389323  0.72696156  1
  Ca  Ca72  1  0.94714114  0.55917829  0.97210732  1
  Ca  Ca73  1  0.16017808  0.56430676  0.57506809  1
  Ca  Ca74  1  0.57506790  0.16017779  0.56430661  1
  Ca  Ca75  1  0.55917786  0.97210724  0.94714170  1
  Ca  Ca76  1  0.97210767  0.94714141  0.55917762  1
  Ca  Ca77  1  0.47210771  0.05917826  0.44714092  1
  Ca  Ca78  1  0.05917766  0.44714137  0.47210816  1
  Ca  Ca79  1  0.44714140  0.47210721  0.05917780  1
  Ca  Ca80  1  0.34884782  0.90761583  0.93968371  1
  Ca  Ca81  1  0.90761548  0.93968434  0.34884727  1
  Ca  Ca82  1  0.56430649  0.57506862  0.16017780  1
  Ca  Ca83  1  0.43968430  0.40761492  0.84884761  1
  Ca  Ca84  1  0.40761506  0.84884723  0.43968501  1
  Ca  Ca85  1  0.84884772  0.43968457  0.40761512  1
  Ca  Ca86  1  0.66017855  0.07506771  0.06430653  1
  Ca  Ca87  1  0.07506775  0.06430585  0.66017878  1
  Ca  Ca88  1  0.06430632  0.66017844  0.07506775  1
  Ca  Ca89  1  0.93968465  0.34884772  0.90761473  1
  Mn  Mn90  1  0.00114986  0.00114990  0.00114884  1
  Mn  Mn91  1  0.50114914  0.50114993  0.50114949  1
