# generated using pymatgen
data_K2Zn2(MoO4)3
_symmetry_space_group_name_H-M   'P 1'
_cell_length_a   7.10452030
_cell_length_b   9.24257358
_cell_length_c   19.72435357
_cell_angle_alpha   90.00000000
_cell_angle_beta   91.15507936
_cell_angle_gamma   90.00000000
_symmetry_Int_Tables_number   1
_chemical_formula_structural   K2Zn2(MoO4)3
_chemical_formula_sum   'K8 Zn8 Mo12 O48'
_cell_volume   1294.91778369
_cell_formula_units_Z   4
loop_
 _symmetry_equiv_pos_site_id
 _symmetry_equiv_pos_as_xyz
  1  'x, y, z'
loop_
 _atom_site_type_symbol
 _atom_site_label
 _atom_site_symmetry_multiplicity
 _atom_site_fract_x
 _atom_site_fract_y
 _atom_site_fract_z
 _atom_site_occupancy
  O  O0  1  0.86566747  0.22596186  0.84936506  1
  O  O1  1  0.63433252  0.72596209  0.65063477  1
  O  O2  1  0.13433253  0.77403752  0.15063466  1
  O  O3  1  0.36566747  0.27403729  0.34936545  1
  O  O4  1  0.34876157  0.25290700  0.51082205  1
  O  O5  1  0.15123807  0.75290615  0.98917778  1
  O  O6  1  0.65123843  0.74709346  0.48917767  1
  O  O7  1  0.84876193  0.24709323  0.01082194  1
  O  O8  1  0.16041882  0.07354116  0.95641052  1
  O  O9  1  0.33958081  0.57354138  0.54358982  1
  O  O10  1  0.83958117  0.92645930  0.04358971  1
  O  O11  1  0.66041917  0.42645907  0.45641041  1
  O  O12  1  0.37235904  0.31701242  0.90828267  1
  O  O13  1  0.12764059  0.81701265  0.59171766  1
  O  O14  1  0.62764095  0.68298803  0.09171756  1
  O  O15  1  0.87235940  0.18298780  0.40828256  1
  O  O16  1  0.54574339  0.31977821  0.76901024  1
  O  O17  1  0.95425659  0.81977844  0.73099011  1
  O  O18  1  0.19857463  0.34722030  0.64528140  1
  O  O19  1  0.04574340  0.18022201  0.26901012  1
  O  O20  1  0.58165850  0.05451779  0.93811449  1
  O  O21  1  0.91834148  0.55451694  0.56188586  1
  O  O22  1  0.41834149  0.94548267  0.06188574  1
  O  O23  1  0.08165851  0.44548244  0.43811437  1
  O  O24  1  0.46200426  0.11179116  0.63359284  1
  O  O25  1  0.03799537  0.61179139  0.86640750  1
  O  O26  1  0.53799572  0.88820930  0.36640739  1
  O  O27  1  0.96200462  0.38820907  0.13359273  1
  O  O28  1  0.39321174  0.98979125  0.21550139  1
  O  O29  1  0.10678825  0.48979102  0.28449872  1
  O  O30  1  0.60678826  0.01020813  0.78449833  1
  O  O31  1  0.89321174  0.51020836  0.71550151  1
  O  O32  1  0.10683674  0.09866313  0.11186513  1
  O  O33  1  0.39316325  0.59866336  0.38813498  1
  O  O34  1  0.89316325  0.90133625  0.88813510  1
  O  O35  1  0.60683673  0.40133710  0.61186524  1
  O  O36  1  0.40835025  0.25384283  0.04650317  1
  O  O37  1  0.09164976  0.75384306  0.45349644  1
  O  O38  1  0.59164975  0.74615655  0.95349655  1
  O  O39  1  0.90835024  0.24615740  0.54650329  1
  O  O40  1  0.36297015  0.30922631  0.19962018  1
  O  O41  1  0.13702984  0.80922653  0.30037994  1
  O  O42  1  0.63702983  0.69077415  0.80038005  1
  O  O43  1  0.86297015  0.19077392  0.69962029  1
  O  O44  1  0.69857499  0.15277993  0.14528129  1
  O  O45  1  0.80142535  0.65277908  0.35471883  1
  O  O46  1  0.30142501  0.84722053  0.85471843  1
  O  O47  1  0.45425660  0.68022224  0.23098999  1
  K  K48  1  0.18577783  0.38860388  0.79043442  1
  K  K49  1  0.31422181  0.88860302  0.70956541  1
  K  K50  1  0.81422217  0.61139658  0.20956530  1
  K  K51  1  0.68577819  0.11139635  0.29043431  1
  K  K52  1  0.70109092  0.48102634  0.90162588  1
  K  K53  1  0.79890906  0.98102549  0.59837446  1
  K  K54  1  0.29890907  0.51897411  0.09837435  1
  K  K55  1  0.20109092  0.01897389  0.40162577  1
  Zn  Zn56  1  0.12378952  0.89861304  0.06510048  1
  Zn  Zn57  1  0.37621048  0.39861281  0.43489963  1
  Zn  Zn58  1  0.87621047  0.10138742  0.93489975  1
  Zn  Zn59  1  0.62378951  0.60138765  0.56510060  1
  Zn  Zn60  1  0.90711413  0.36583578  0.63566463  1
  Zn  Zn61  1  0.59288587  0.86583601  0.86433520  1
  Zn  Zn62  1  0.09288587  0.63416467  0.36433509  1
  Zn  Zn63  1  0.40711413  0.13416444  0.13566452  1
  Mo  Mo64  1  0.38198423  0.16957512  0.96430410  1
  Mo  Mo65  1  0.11801681  0.66957535  0.53569625  1
  Mo  Mo66  1  0.61801576  0.83042533  0.03569613  1
  Mo  Mo67  1  0.88198318  0.33042511  0.46430398  1
  Mo  Mo68  1  0.40028475  0.28281484  0.60030375  1
  Mo  Mo69  1  0.09971630  0.78281507  0.89969660  1
  Mo  Mo70  1  0.59971524  0.71718562  0.39969648  1
  Mo  Mo71  1  0.90028369  0.21718539  0.10030363  1
  Mo  Mo72  1  0.71858803  0.18434562  0.77447782  1
  Mo  Mo73  1  0.78141196  0.68434585  0.72552201  1
  Mo  Mo74  1  0.28141197  0.81565375  0.22552190  1
  Mo  Mo75  1  0.21858804  0.31565461  0.27447771  1
