# generated using pymatgen
data_NdNb4O12
_symmetry_space_group_name_H-M   'P 1'
_cell_length_a   5.58338335
_cell_length_b   5.58338335
_cell_length_c   7.95707155
_cell_angle_alpha   90.00000000
_cell_angle_beta   90.00000000
_cell_angle_gamma   89.42694000
_symmetry_Int_Tables_number   1
_chemical_formula_structural   NdNb4O12
_chemical_formula_sum   'Nd1 Nb4 O12'
_cell_volume   248.04269112
_cell_formula_units_Z   1
loop_
 _symmetry_equiv_pos_site_id
 _symmetry_equiv_pos_as_xyz
  1  'x, y, z'
loop_
 _atom_site_type_symbol
 _atom_site_label
 _atom_site_symmetry_multiplicity
 _atom_site_fract_x
 _atom_site_fract_y
 _atom_site_fract_z
 _atom_site_occupancy
  Nd  Nd0  1  0.74185183  0.74185183  -0.00000000  1
  Nb  Nb1  1  0.24703034  0.75048432  0.74093644  1
  Nb  Nb2  1  0.75048432  0.24703034  0.74093644  1
  Nb  Nb3  1  0.75048432  0.24703034  0.25906356  1
  Nb  Nb4  1  0.24703034  0.75048432  0.25906356  1
  O  O5  1  0.21285901  0.78978127  0.50000000  1
  O  O6  1  0.78978127  0.21285901  0.50000000  1
  O  O7  1  0.98730450  0.98730450  0.80287417  1
  O  O8  1  0.98730450  0.98730450  0.19712583  1
  O  O9  1  0.29734670  0.71755356  0.00000000  1
  O  O10  1  0.71755356  0.29734670  -0.00000000  1
  O  O11  1  0.99036897  0.51071158  0.77208003  1
  O  O12  1  0.51071158  0.99036897  0.22791997  1
  O  O13  1  0.99036897  0.51071158  0.22791997  1
  O  O14  1  0.51071158  0.99036897  0.77208003  1
  O  O15  1  0.50655411  0.50655411  0.72841721  1
  O  O16  1  0.50655411  0.50655411  0.27158279  1
