# generated using pymatgen
data_KVTeO5
_symmetry_space_group_name_H-M   'P 1'
_cell_length_a   6.51981783
_cell_length_b   7.05368395
_cell_length_c   11.87283554
_cell_angle_alpha   90.00000000
_cell_angle_beta   90.00000000
_cell_angle_gamma   106.56427470
_symmetry_Int_Tables_number   1
_chemical_formula_structural   KVTeO5
_chemical_formula_sum   'K4 V4 Te4 O20'
_cell_volume   523.35727281
_cell_formula_units_Z   4
loop_
 _symmetry_equiv_pos_site_id
 _symmetry_equiv_pos_as_xyz
  1  'x, y, z'
loop_
 _atom_site_type_symbol
 _atom_site_label
 _atom_site_symmetry_multiplicity
 _atom_site_fract_x
 _atom_site_fract_y
 _atom_site_fract_z
 _atom_site_occupancy
  O  O0  1  0.11434638  0.01176839  0.91020452  1
  O  O1  1  0.88565262  0.48823195  0.41020511  1
  O  O2  1  0.88565364  0.98823163  0.08979514  1
  O  O3  1  0.11434740  0.51176808  0.58979540  1
  O  O4  1  0.53453974  0.21793578  0.98337924  1
  O  O5  1  0.46545883  0.28206307  0.48337898  1
  O  O6  1  0.46545984  0.78206276  0.01662042  1
  O  O7  1  0.53454119  0.71793695  0.51662068  1
  O  O8  1  0.82723658  0.32931798  0.79781086  1
  O  O9  1  0.17276353  0.17068090  0.29781060  1
  O  O10  1  0.17276344  0.67068204  0.20218880  1
  O  O11  1  0.82723649  0.82931912  0.70218906  1
  O  O12  1  0.80791302  0.13754022  0.55017724  1
  O  O13  1  0.19208753  0.36246014  0.05017699  1
  O  O14  1  0.19208700  0.86245981  0.44982327  1
  O  O15  1  0.80791249  0.63753988  0.94982267  1
  O  O16  1  0.46482577  0.45219167  0.79667136  1
  O  O17  1  0.53517425  0.54780835  0.20332914  1
  O  O18  1  0.53517478  0.04780869  0.29667111  1
  O  O19  1  0.46482524  0.95219133  0.70332855  1
  K  K20  1  0.17676700  0.16422988  0.68851123  1
  K  K21  1  0.82323355  0.33577048  0.18851098  1
  K  K22  1  0.82323302  0.83577014  0.31148843  1
  K  K23  1  0.17676647  0.66422954  0.81148868  1
  V  V24  1  0.65244238  0.40525038  0.87787118  1
  V  V25  1  0.34755619  0.09474847  0.37787177  1
  V  V26  1  0.65244383  0.90525155  0.62212873  1
  V  V27  1  0.34755764  0.59474964  0.12212848  1
  Te  Te28  1  0.23621964  0.10061682  0.05404544  1
  Te  Te29  1  0.76378047  0.39938206  0.55404569  1
  Te  Te30  1  0.76378038  0.89938321  0.94595422  1
  Te  Te31  1  0.23621955  0.60061796  0.44595397  1
