# generated using pymatgen
data_Ba2CrO4
_symmetry_space_group_name_H-M   'P 1'
_cell_length_a   6.00512888
_cell_length_b   7.73476756
_cell_length_c   10.71257563
_cell_angle_alpha   90.00000000
_cell_angle_beta   90.00000000
_cell_angle_gamma   90.00000000
_symmetry_Int_Tables_number   1
_chemical_formula_structural   Ba2CrO4
_chemical_formula_sum   'Ba8 Cr4 O16'
_cell_volume   497.58067012
_cell_formula_units_Z   4
loop_
 _symmetry_equiv_pos_site_id
 _symmetry_equiv_pos_as_xyz
  1  'x, y, z'
loop_
 _atom_site_type_symbol
 _atom_site_label
 _atom_site_symmetry_multiplicity
 _atom_site_fract_x
 _atom_site_fract_y
 _atom_site_fract_z
 _atom_site_occupancy
  O  O0  1  0.99645848  0.19119056  0.85222617  1
  O  O1  1  0.49645868  0.80880934  0.14777387  1
  O  O2  1  0.50354092  0.69119051  0.64777389  1
  O  O3  1  0.00354112  0.30880939  0.35222615  1
  O  O4  1  0.00354112  0.80880934  0.14777387  1
  O  O5  1  0.50354092  0.19119056  0.85222617  1
  O  O6  1  0.49645868  0.30880939  0.35222615  1
  O  O7  1  0.99645848  0.69119051  0.64777389  1
  O  O8  1  0.25000074  0.81162971  0.92159119  1
  O  O9  1  0.75000054  0.18837020  0.07840885  1
  O  O10  1  0.25000074  0.31162975  0.57840887  1
  O  O11  1  0.75000054  0.68837015  0.42159117  1
  O  O12  1  0.75000054  0.01148906  0.57869972  1
  O  O13  1  0.25000074  0.98851084  0.42130032  1
  O  O14  1  0.25000074  0.48851089  0.07869970  1
  O  O15  1  0.75000054  0.51148901  0.92130034  1
  Cr  Cr16  1  0.25000074  0.71843119  0.07851526  1
  Cr  Cr17  1  0.75000054  0.28156871  0.92148479  1
  Cr  Cr18  1  0.25000074  0.21843124  0.42148477  1
  Cr  Cr19  1  0.75000054  0.78156866  0.57851528  1
  Ba  Ba20  1  0.25000074  0.99530157  0.69615318  1
  Ba  Ba21  1  0.75000054  0.50469828  0.19615316  1
  Ba  Ba22  1  0.25000074  0.49530162  0.80384595  1
  Ba  Ba23  1  0.75000054  0.00469833  0.30384592  1
  Ba  Ba24  1  0.25000074  0.65081603  0.42931253  1
  Ba  Ba25  1  0.75000054  0.34918387  0.57068751  1
  Ba  Ba26  1  0.25000074  0.15081608  0.07068749  1
  Ba  Ba27  1  0.75000054  0.84918382  0.92931255  1
