# generated using pymatgen
data_Sr2V2O7
_symmetry_space_group_name_H-M   'P 1'
_cell_length_a   7.20064544
_cell_length_b   7.20064544
_cell_length_c   26.33409044
_cell_angle_alpha   90.00000000
_cell_angle_beta   90.00000000
_cell_angle_gamma   90.00000000
_symmetry_Int_Tables_number   1
_chemical_formula_structural   Sr2V2O7
_chemical_formula_sum   'Sr16 V16 O56'
_cell_volume   1365.40401726
_cell_formula_units_Z   8
loop_
 _symmetry_equiv_pos_site_id
 _symmetry_equiv_pos_as_xyz
  1  'x, y, z'
loop_
 _atom_site_type_symbol
 _atom_site_label
 _atom_site_symmetry_multiplicity
 _atom_site_fract_x
 _atom_site_fract_y
 _atom_site_fract_z
 _atom_site_occupancy
  O  O0  1  0.19800035  0.80103859  0.59912674  1
  O  O1  1  0.19896105  0.19800069  0.84912651  1
  O  O2  1  0.80103825  0.80199928  0.34912659  1
  O  O3  1  0.80200034  0.19896138  0.09912644  1
  O  O4  1  0.86134893  0.86991430  0.65406321  1
  O  O5  1  0.13008534  0.86134788  0.90406336  1
  O  O6  1  0.86991535  0.13865209  0.40406344  1
  O  O7  1  0.13865176  0.13008567  0.15406330  1
  O  O8  1  0.06821487  0.55394553  0.67398287  1
  O  O9  1  0.44605410  0.06821520  0.92398302  1
  O  O10  1  0.55394659  0.93178477  0.42398310  1
  O  O11  1  0.93178443  0.44605444  0.17398295  1
  O  O12  1  0.88602826  0.55284991  0.58189305  1
  O  O13  1  0.44714972  0.88602860  0.83189282  1
  O  O14  1  0.55284958  0.11397137  0.33189290  1
  O  O15  1  0.11397104  0.44715006  0.08189314  1
  O  O16  1  0.88523293  0.75149494  0.48724901  1
  O  O17  1  0.24850470  0.88523327  0.73724916  1
  O  O18  1  0.75149599  0.11476670  0.23724924  1
  O  O19  1  0.11476637  0.24850503  0.98724930  1
  O  O20  1  0.56527022  0.76270744  0.54371223  1
  O  O21  1  0.58588788  0.14341795  0.60000720  1
  O  O22  1  0.76270710  0.43472942  0.29371208  1
  O  O23  1  0.43472908  0.23729253  0.04371231  1
  O  O24  1  0.67419725  0.43050518  0.49284887  1
  O  O25  1  0.56949445  0.67419619  0.74284864  1
  O  O26  1  0.43050485  0.32580378  0.24284872  1
  O  O27  1  0.32580344  0.56949479  0.99284878  1
  O  O28  1  0.26472929  0.19600795  0.65748457  1
  O  O29  1  0.80399169  0.26472963  0.90748433  1
  O  O30  1  0.19600900  0.73527034  0.40748442  1
  O  O31  1  0.73527001  0.80399202  0.15748465  1
  O  O32  1  0.89648228  0.61525028  0.96838801  1
  O  O33  1  0.38474936  0.89648261  0.21838795  1
  O  O34  1  0.61524994  0.10351736  0.71838786  1
  O  O35  1  0.10351841  0.38474970  0.46838771  1
  O  O36  1  0.70994956  0.93975450  0.99180569  1
  O  O37  1  0.06024652  0.70994990  0.24180563  1
  O  O38  1  0.93975417  0.29005147  0.74180592  1
  O  O39  1  0.29005113  0.06024547  0.49180577  1
  O  O40  1  0.03057526  0.84735592  0.04823281  1
  O  O41  1  0.15264511  0.03057560  0.29823295  1
  O  O42  1  0.84735558  0.96942437  0.79823287  1
  O  O43  1  0.96942543  0.15264405  0.54823310  1
  O  O44  1  0.70300137  0.61400657  0.05987493  1
  O  O45  1  0.38599307  0.70300170  0.30987470  1
  O  O46  1  0.61400623  0.29699827  0.80987499  1
  O  O47  1  0.29699932  0.38599340  0.55987484  1
  O  O48  1  0.46939015  0.51509277  0.14599148  1
  O  O49  1  0.48490825  0.46938909  0.39599124  1
  O  O50  1  0.51509244  0.53061088  0.89599116  1
  O  O51  1  0.53061054  0.48490720  0.64599139  1
  O  O52  1  0.41411281  0.85658202  0.10000729  1
  O  O53  1  0.14341762  0.41411175  0.35000706  1
  O  O54  1  0.85658168  0.58588822  0.85000697  1
  O  O55  1  0.23729220  0.56527055  0.79371238  1
  V  V56  1  0.00636836  0.70529808  0.62719623  1
  V  V57  1  0.29470156  0.00636870  0.87719638  1
  V  V58  1  0.70529774  0.99363266  0.37719646  1
  V  V59  1  0.99363233  0.29470189  0.12719631  1
  V  V60  1  0.74732175  0.61955170  0.52631781  1
  V  V61  1  0.38044794  0.74732208  0.77631796  1
  V  V62  1  0.61955136  0.25267789  0.27631805  1
  V  V63  1  0.25267755  0.38044827  0.02631790  1
  V  V64  1  0.41960718  0.30669382  0.61766674  1
  V  V65  1  0.69330582  0.41960751  0.86766689  1
  V  V66  1  0.30669487  0.58039246  0.36766698  1
  V  V67  1  0.58039212  0.69330615  0.11766683  1
  V  V68  1  0.15972972  0.23938164  0.51739018  1
  V  V69  1  0.76061799  0.15973006  0.76739033  1
  V  V70  1  0.23938131  0.84026991  0.26739041  1
  V  V71  1  0.84026957  0.76061833  0.01739026  1
  Sr  Sr72  1  0.90104383  0.23063197  0.64224425  1
  Sr  Sr73  1  0.76936766  0.90104417  0.89224440  1
  Sr  Sr74  1  0.23063303  0.09895580  0.39224448  1
  Sr  Sr75  1  0.09895547  0.76936800  0.14224433  1
  Sr  Sr76  1  0.66767806  0.07823412  0.50514342  1
  Sr  Sr77  1  0.92176552  0.66767839  0.75514357  1
  Sr  Sr78  1  0.07823378  0.33232158  0.25514366  1
  Sr  Sr79  1  0.33232124  0.92176586  0.00514351  1
  Sr  Sr80  1  0.49288306  0.84488142  0.65287512  1
  Sr  Sr81  1  0.15511821  0.49288340  0.90287527  1
  Sr  Sr82  1  0.84488108  0.50711657  0.40287536  1
  Sr  Sr83  1  0.50711763  0.15511855  0.15287521  1
  Sr  Sr84  1  0.24647364  0.70946074  0.50430522  1
  Sr  Sr85  1  0.29054028  0.24647398  0.75430499  1
  Sr  Sr86  1  0.70946041  0.75352599  0.25430507  1
  Sr  Sr87  1  0.75352566  0.29054062  0.00430530  1
