# generated using pymatgen
data_LaFeGe3
_symmetry_space_group_name_H-M   'P 1'
_cell_length_a   4.36564712
_cell_length_b   4.36564713
_cell_length_c   5.88346658
_cell_angle_alpha   111.77790570
_cell_angle_beta   111.77790571
_cell_angle_gamma   90.00000005
_symmetry_Int_Tables_number   1
_chemical_formula_structural   LaFeGe3
_chemical_formula_sum   'La1 Fe1 Ge3'
_cell_volume   95.45764791
_cell_formula_units_Z   1
loop_
 _symmetry_equiv_pos_site_id
 _symmetry_equiv_pos_as_xyz
  1  'x, y, z'
loop_
 _atom_site_type_symbol
 _atom_site_label
 _atom_site_symmetry_multiplicity
 _atom_site_fract_x
 _atom_site_fract_y
 _atom_site_fract_z
 _atom_site_occupancy
  Fe  Fe0  1  0.23108965  0.23108965  0.46217929  1
  Ge  Ge1  1  0.82179180  0.32179180  0.64358360  1
  Ge  Ge2  1  0.00339455  0.00339455  0.00678910  1
  Ge  Ge3  1  0.32179180  0.82179180  0.64358360  1
  La  La4  1  0.56570220  0.56570220  0.13140440  1
