# generated using pymatgen
data_Hf(FeGe)6
_symmetry_space_group_name_H-M   'P 1'
_cell_length_a   5.06147304
_cell_length_b   5.06147304
_cell_length_c   8.08268169
_cell_angle_alpha   90.00000000
_cell_angle_beta   90.00000000
_cell_angle_gamma   120.00000002
_symmetry_Int_Tables_number   1
_chemical_formula_structural   Hf(FeGe)6
_chemical_formula_sum   'Hf1 Fe6 Ge6'
_cell_volume   179.32463811
_cell_formula_units_Z   1
loop_
 _symmetry_equiv_pos_site_id
 _symmetry_equiv_pos_as_xyz
  1  'x, y, z'
loop_
 _atom_site_type_symbol
 _atom_site_label
 _atom_site_symmetry_multiplicity
 _atom_site_fract_x
 _atom_site_fract_y
 _atom_site_fract_z
 _atom_site_occupancy
  Fe  Fe0  1  0.50000000  0.00000000  0.24833207  1
  Fe  Fe1  1  0.50000000  0.50000000  0.24833207  1
  Fe  Fe2  1  0.00000000  0.50000000  0.24833207  1
  Fe  Fe3  1  0.50000000  0.00000000  0.75166793  1
  Fe  Fe4  1  0.50000000  0.50000000  0.75166793  1
  Fe  Fe5  1  0.00000000  0.50000000  0.75166793  1
  Ge  Ge6  1  0.00000000  0.00000000  0.65804909  1
  Ge  Ge7  1  0.33333333  0.66666667  0.00000000  1
  Ge  Ge8  1  0.66666667  0.33333333  0.00000000  1
  Ge  Ge9  1  0.33333333  0.66666667  0.50000000  1
  Ge  Ge10  1  0.66666667  0.33333333  0.50000000  1
  Ge  Ge11  1  0.00000000  0.00000000  0.34195091  1
  Hf  Hf12  1  0.00000000  0.00000000  0.00000000  1
