# generated using pymatgen
data_NiAs2Rh3
_symmetry_space_group_name_H-M   'P 1'
_cell_length_a   3.95625392
_cell_length_b   5.78688534
_cell_length_c   7.50879011
_cell_angle_alpha   90.00000000
_cell_angle_beta   90.00000000
_cell_angle_gamma   90.00000000
_symmetry_Int_Tables_number   1
_chemical_formula_structural   NiAs2Rh3
_chemical_formula_sum   'Ni2 As4 Rh6'
_cell_volume   171.90915277
_cell_formula_units_Z   2
loop_
 _symmetry_equiv_pos_site_id
 _symmetry_equiv_pos_as_xyz
  1  'x, y, z'
loop_
 _atom_site_type_symbol
 _atom_site_label
 _atom_site_symmetry_multiplicity
 _atom_site_fract_x
 _atom_site_fract_y
 _atom_site_fract_z
 _atom_site_occupancy
  Ni  Ni0  1  0.75000000  0.46334006  0.18067891  1
  Ni  Ni1  1  0.75000000  0.96334006  0.31932109  1
  As  As2  1  0.75000000  0.27303310  0.89278472  1
  As  As3  1  0.75000000  0.77303310  0.60721528  1
  As  As4  1  0.25000000  0.73100301  0.11018650  1
  As  As5  1  0.25000000  0.23100301  0.38981350  1
  Rh  Rh6  1  0.25000000  0.52846390  0.82109737  1
  Rh  Rh7  1  0.25000000  0.02846390  0.67890263  1
  Rh  Rh8  1  0.75000000  0.35141744  0.56760692  1
  Rh  Rh9  1  0.75000000  0.85141744  0.93239308  1
  Rh  Rh10  1  0.25000000  0.65274249  0.42064676  1
  Rh  Rh11  1  0.25000000  0.15274249  0.07935324  1
