# generated using pymatgen
data_GdNbO4
_symmetry_space_group_name_H-M   'P 1'
_cell_length_a   5.17109856
_cell_length_b   5.41194723
_cell_length_c   6.68062721
_cell_angle_alpha   112.09198984
_cell_angle_beta   110.89891503
_cell_angle_gamma   94.29030548
_symmetry_Int_Tables_number   1
_chemical_formula_structural   GdNbO4
_chemical_formula_sum   'Gd2 Nb2 O8'
_cell_volume   157.05192798
_cell_formula_units_Z   2
loop_
 _symmetry_equiv_pos_site_id
 _symmetry_equiv_pos_as_xyz
  1  'x, y, z'
loop_
 _atom_site_type_symbol
 _atom_site_label
 _atom_site_symmetry_multiplicity
 _atom_site_fract_x
 _atom_site_fract_y
 _atom_site_fract_z
 _atom_site_occupancy
  O  O0  1  0.98809610  0.78636984  0.56449278  1
  O  O1  1  0.57639668  0.27812294  0.56449278  1
  O  O2  1  0.01190390  0.21363016  0.43550722  1
  O  O3  1  0.42360332  0.72187706  0.43550722  1
  O  O4  1  0.20630426  0.36603802  0.91827829  1
  O  O5  1  0.71197403  0.05224026  0.91827829  1
  O  O6  1  0.79369574  0.63396198  0.08172171  1
  O  O7  1  0.28802597  0.94775974  0.08172171  1
  Nb  Nb8  1  0.85603378  0.10603378  0.71206757  1
  Nb  Nb9  1  0.14396622  0.89396622  0.28793243  1
  Gd  Gd10  1  0.37885419  0.62885419  0.75770838  1
  Gd  Gd11  1  0.62114581  0.37114581  0.24229162  1
