# generated using pymatgen
data_GdGeRu
_symmetry_space_group_name_H-M   'P 1'
_cell_length_a   4.49420882
_cell_length_b   7.14929977
_cell_length_c   7.18654593
_cell_angle_alpha   90.00000000
_cell_angle_beta   90.00000000
_cell_angle_gamma   90.00000000
_symmetry_Int_Tables_number   1
_chemical_formula_structural   GdGeRu
_chemical_formula_sum   'Gd4 Ge4 Ru4'
_cell_volume   230.90692653
_cell_formula_units_Z   4
loop_
 _symmetry_equiv_pos_site_id
 _symmetry_equiv_pos_as_xyz
  1  'x, y, z'
loop_
 _atom_site_type_symbol
 _atom_site_label
 _atom_site_symmetry_multiplicity
 _atom_site_fract_x
 _atom_site_fract_y
 _atom_site_fract_z
 _atom_site_occupancy
  Ge  Ge0  1  0.25000000  0.69942487  0.89308968  1
  Ge  Ge1  1  0.75000000  0.30057513  0.10691032  1
  Ge  Ge2  1  0.25000000  0.19942487  0.60691032  1
  Ge  Ge3  1  0.75000000  0.80057513  0.39308968  1
  Ru  Ru4  1  0.75000000  0.15256818  0.43571696  1
  Ru  Ru5  1  0.25000000  0.84743182  0.56428304  1
  Ru  Ru6  1  0.75000000  0.65256818  0.06428304  1
  Ru  Ru7  1  0.25000000  0.34743182  0.93571696  1
  Gd  Gd8  1  0.25000000  0.52042320  0.30996472  1
  Gd  Gd9  1  0.75000000  0.47957680  0.69003528  1
  Gd  Gd10  1  0.25000000  0.02042320  0.19003528  1
  Gd  Gd11  1  0.75000000  0.97957680  0.80996472  1
