# generated using pymatgen
data_Nd2(CoCu)5
_symmetry_space_group_name_H-M   'P 1'
_cell_length_a   4.06560458
_cell_length_b   5.08121794
_cell_length_c   8.66593186
_cell_angle_alpha   89.99999836
_cell_angle_beta   90.00000000
_cell_angle_gamma   90.00000000
_symmetry_Int_Tables_number   1
_chemical_formula_structural   Nd2(CoCu)5
_chemical_formula_sum   'Nd2 Co5 Cu5'
_cell_volume   179.02275211
_cell_formula_units_Z   1
loop_
 _symmetry_equiv_pos_site_id
 _symmetry_equiv_pos_as_xyz
  1  'x, y, z'
loop_
 _atom_site_type_symbol
 _atom_site_label
 _atom_site_symmetry_multiplicity
 _atom_site_fract_x
 _atom_site_fract_y
 _atom_site_fract_z
 _atom_site_occupancy
  Nd  Nd0  1  -0.00000000  -0.00000190  0.00000000  1
  Nd  Nd1  1  -0.00000000  0.50000081  0.50000000  1
  Co  Co2  1  0.00000000  0.99997969  0.34550686  1
  Co  Co3  1  -0.00000000  0.49997489  0.83565681  1
  Co  Co4  1  -0.00000000  0.49997489  0.16434319  1
  Co  Co5  1  -0.00000000  0.99997969  0.65449314  1
  Co  Co6  1  0.50000000  0.99998030  0.50000000  1
  Cu  Cu7  1  0.50000000  0.49998462  -0.00000000  1
  Cu  Cu8  1  0.50000000  0.25015703  0.25141292  1
  Cu  Cu9  1  0.50000000  0.74980647  0.74858753  1
  Cu  Cu10  1  0.50000000  0.74980647  0.25141247  1
  Cu  Cu11  1  0.50000000  0.25015703  0.74858708  1
