# generated using pymatgen
data_GdB2Rh2C
_symmetry_space_group_name_H-M   'P 1'
_cell_length_a   3.82026647
_cell_length_b   3.82026647
_cell_length_c   5.84686127
_cell_angle_alpha   109.06822396
_cell_angle_beta   109.06822397
_cell_angle_gamma   90.00000004
_symmetry_Int_Tables_number   1
_chemical_formula_structural   GdB2Rh2C
_chemical_formula_sum   'Gd1 B2 Rh2 C1'
_cell_volume   75.67826332
_cell_formula_units_Z   1
loop_
 _symmetry_equiv_pos_site_id
 _symmetry_equiv_pos_as_xyz
  1  'x, y, z'
loop_
 _atom_site_type_symbol
 _atom_site_label
 _atom_site_symmetry_multiplicity
 _atom_site_fract_x
 _atom_site_fract_y
 _atom_site_fract_z
 _atom_site_occupancy
  B  B0  1  0.35552497  0.35552497  0.71104994  1
  B  B1  1  0.64447503  0.64447503  0.28895006  1
  C  C2  1  0.50000000  0.50000000  0.00000000  1
  Rh  Rh3  1  0.75000000  0.25000000  0.50000000  1
  Rh  Rh4  1  0.25000000  0.75000000  0.50000000  1
  Gd  Gd5  1  0.00000000  0.00000000  0.00000000  1
