# generated using pymatgen
data_Li(TiS2)3
_symmetry_space_group_name_H-M   'P 1'
_cell_length_a   3.42112848
_cell_length_b   3.42112848
_cell_length_c   21.58186908
_cell_angle_alpha   90.00000000
_cell_angle_beta   90.00000000
_cell_angle_gamma   120.00000003
_symmetry_Int_Tables_number   1
_chemical_formula_structural   Li(TiS2)3
_chemical_formula_sum   'Li1 Ti3 S6'
_cell_volume   218.75523438
_cell_formula_units_Z   1
loop_
 _symmetry_equiv_pos_site_id
 _symmetry_equiv_pos_as_xyz
  1  'x, y, z'
loop_
 _atom_site_type_symbol
 _atom_site_label
 _atom_site_symmetry_multiplicity
 _atom_site_fract_x
 _atom_site_fract_y
 _atom_site_fract_z
 _atom_site_occupancy
  Li  Li0  1  0.00000000  0.00000000  0.50000000  1
  S  S1  1  0.66666667  0.33333333  0.28977850  1
  S  S2  1  0.33333333  0.66666667  0.71022150  1
  S  S3  1  0.33333333  0.66666667  0.06576444  1
  S  S4  1  0.66666667  0.33333333  0.93423556  1
  S  S5  1  0.33333333  0.66666667  0.42418436  1
  S  S6  1  0.66666667  0.33333333  0.57581564  1
  Ti  Ti7  1  0.00000000  0.00000000  0.64592231  1
  Ti  Ti8  1  0.00000000  0.00000000  0.35407769  1
  Ti  Ti9  1  0.00000000  0.00000000  0.00000000  1
