# generated using pymatgen
data_LaP7
_symmetry_space_group_name_H-M   'P 1'
_cell_length_a   7.04317895
_cell_length_b   7.96799215
_cell_length_c   11.71653222
_cell_angle_alpha   90.00000000
_cell_angle_beta   90.00000000
_cell_angle_gamma   93.13932430
_symmetry_Int_Tables_number   1
_chemical_formula_structural   LaP7
_chemical_formula_sum   'La4 P28'
_cell_volume   656.54497864
_cell_formula_units_Z   4
loop_
 _symmetry_equiv_pos_site_id
 _symmetry_equiv_pos_as_xyz
  1  'x, y, z'
loop_
 _atom_site_type_symbol
 _atom_site_label
 _atom_site_symmetry_multiplicity
 _atom_site_fract_x
 _atom_site_fract_y
 _atom_site_fract_z
 _atom_site_occupancy
  P  P0  1  0.46360335  0.74967114  0.21955564  1
  P  P1  1  0.03639665  0.75032886  0.71955564  1
  P  P2  1  0.53639665  0.25032886  0.78044436  1
  P  P3  1  0.96360335  0.24967114  0.28044436  1
  P  P4  1  0.90310870  0.59164790  0.46591232  1
  P  P5  1  0.59689130  0.90835210  0.96591232  1
  P  P6  1  0.09689130  0.40835210  0.53408768  1
  P  P7  1  0.40310870  0.09164790  0.03408768  1
  P  P8  1  0.62412820  0.26226093  0.11526446  1
  P  P9  1  0.87587180  0.23773907  0.61526446  1
  P  P10  1  0.37587180  0.73773907  0.88473554  1
  P  P11  1  0.12412820  0.76226093  0.38473554  1
  P  P12  1  0.75218744  0.04881306  0.33736917  1
  P  P13  1  0.74781256  0.45118694  0.83736917  1
  P  P14  1  0.24781256  0.95118694  0.66263083  1
  P  P15  1  0.25218744  0.54881306  0.16263083  1
  P  P16  1  0.91259273  0.17734453  0.09901794  1
  P  P17  1  0.58740727  0.32265547  0.59901794  1
  P  P18  1  0.08740727  0.82265547  0.90098206  1
  P  P19  1  0.41259273  0.67734453  0.40098206  1
  P  P20  1  0.84520523  0.00712960  0.51197279  1
  P  P21  1  0.65479477  0.49287040  0.01197279  1
  P  P22  1  0.15479477  0.99287040  0.48802721  1
  P  P23  1  0.34520523  0.50712960  0.98802721  1
  P  P24  1  0.78530092  0.47244131  0.31007571  1
  P  P25  1  0.71469908  0.02755869  0.81007571  1
  P  P26  1  0.21469908  0.52755869  0.68992429  1
  P  P27  1  0.28530092  0.97244131  0.18992429  1
  La  La28  1  0.39803065  0.28369637  0.34913483  1
  La  La29  1  0.10196935  0.21630363  0.84913483  1
  La  La30  1  0.60196935  0.71630363  0.65086517  1
  La  La31  1  0.89803065  0.78369637  0.15086517  1
