# generated using pymatgen
data_P6H24N19
_symmetry_space_group_name_H-M   'P 1'
_cell_length_a   11.83609031
_cell_length_b   13.18503306
_cell_length_c   13.69614614
_cell_angle_alpha   90.00000000
_cell_angle_beta   90.00000000
_cell_angle_gamma   90.00000000
_symmetry_Int_Tables_number   1
_chemical_formula_structural   P6H24N19
_chemical_formula_sum   'P24 H96 N76'
_cell_volume   2137.41018546
_cell_formula_units_Z   4
loop_
 _symmetry_equiv_pos_site_id
 _symmetry_equiv_pos_as_xyz
  1  'x, y, z'
loop_
 _atom_site_type_symbol
 _atom_site_label
 _atom_site_symmetry_multiplicity
 _atom_site_fract_x
 _atom_site_fract_y
 _atom_site_fract_z
 _atom_site_occupancy
  P  P0  1  0.60181505  0.91124596  0.85094992  1
  P  P1  1  0.10181505  0.08875404  0.64905008  1
  P  P2  1  0.39818495  0.58875404  0.35094992  1
  P  P3  1  0.89818495  0.41124596  0.14905008  1
  P  P4  1  0.39828144  0.08876072  0.14902121  1
  P  P5  1  0.89828144  0.91123928  0.35097879  1
  P  P6  1  0.60171856  0.41123928  0.64902121  1
  P  P7  1  0.10171856  0.58876072  0.85097879  1
  P  P8  1  0.47359077  0.08791398  0.82008234  1
  P  P9  1  0.97359077  0.91208602  0.67991766  1
  P  P10  1  0.52640923  0.41208602  0.32008234  1
  P  P11  1  0.02640923  0.58791398  0.17991766  1
  P  P12  1  0.52643372  0.91206388  0.18002277  1
  P  P13  1  0.02643372  0.08793612  0.31997723  1
  P  P14  1  0.47356628  0.58793612  0.68002277  1
  P  P15  1  0.97356628  0.41206388  0.81997723  1
  P  P16  1  0.36475048  0.90064986  0.85886811  1
  P  P17  1  0.86475048  0.09935014  0.64113189  1
  P  P18  1  0.63524952  0.59935014  0.35886811  1
  P  P19  1  0.13524952  0.40064986  0.14113189  1
  P  P20  1  0.63532689  0.09926891  0.14112272  1
  P  P21  1  0.13532689  0.90073109  0.35887728  1
  P  P22  1  0.36467311  0.40073109  0.64112272  1
  P  P23  1  0.86467311  0.59926891  0.85887728  1
  H  H24  1  0.80578468  0.92292172  0.49615312  1
  H  H25  1  0.30578468  0.07707828  0.00384688  1
  H  H26  1  0.19421532  0.57707828  0.99615312  1
  H  H27  1  0.69421532  0.42292172  0.50384688  1
  H  H28  1  0.19412171  0.07715166  0.50379736  1
  H  H29  1  0.69412171  0.92284834  0.99620264  1
  H  H30  1  0.80587829  0.42284834  0.00379736  1
  H  H31  1  0.30587829  0.57715166  0.49620264  1
  H  H32  1  0.79744098  0.61815450  0.44528030  1
  H  H33  1  0.29744098  0.38184550  0.05471970  1
  H  H34  1  0.20255902  0.88184550  0.94528030  1
  H  H35  1  0.70255902  0.11815450  0.55471970  1
  H  H36  1  0.20240269  0.38221355  0.55515517  1
  H  H37  1  0.70240269  0.61778645  0.94484483  1
  H  H38  1  0.79759731  0.11778645  0.05515517  1
  H  H39  1  0.29759731  0.88221355  0.44484483  1
  H  H40  1  0.23139113  0.78135468  0.26809230  1
  H  H41  1  0.73139113  0.21864532  0.23190770  1
  H  H42  1  0.76860887  0.71864532  0.76809230  1
  H  H43  1  0.26860887  0.28135468  0.73190770  1
  H  H44  1  0.76871586  0.21865092  0.73192805  1
  H  H45  1  0.26871586  0.78134908  0.76807195  1
  H  H46  1  0.23128414  0.28134908  0.23192805  1
  H  H47  1  0.73128414  0.71865092  0.26807195  1
  H  H48  1  0.09224758  0.67448751  0.70564444  1
  H  H49  1  0.59224758  0.32551249  0.79435556  1
  H  H50  1  0.90775242  0.82551249  0.20564444  1
  H  H51  1  0.40775242  0.17448751  0.29435556  1
  H  H52  1  0.90765558  0.32534299  0.29426301  1
  H  H53  1  0.40765558  0.67465701  0.20573699  1
  H  H54  1  0.09234442  0.17465701  0.79426301  1
  H  H55  1  0.59234442  0.82534299  0.70573699  1
  H  H56  1  0.77054399  0.81584907  0.43568055  1
  H  H57  1  0.27054399  0.18415093  0.06431945  1
  H  H58  1  0.22945601  0.68415093  0.93568055  1
  H  H59  1  0.72945601  0.31584907  0.56431945  1
  H  H60  1  0.22952344  0.18410126  0.56433381  1
  H  H61  1  0.72952344  0.81589874  0.93566619  1
  H  H62  1  0.77047656  0.31589874  0.06433381  1
  H  H63  1  0.27047656  0.68410126  0.43566619  1
  H  H64  1  0.98797019  0.80961436  0.81942865  1
  H  H65  1  0.48797019  0.19038564  0.68057135  1
  H  H66  1  0.01202981  0.69038564  0.31942865  1
  H  H67  1  0.51202981  0.30961436  0.18057135  1
  H  H68  1  0.01195101  0.19034668  0.18057104  1
  H  H69  1  0.51195101  0.80965332  0.31942896  1
  H  H70  1  0.98804899  0.30965332  0.68057104  1
  H  H71  1  0.48804899  0.69034668  0.81942896  1
  H  H72  1  0.10995847  0.59632980  0.33133409  1
  H  H73  1  0.60995847  0.40367020  0.16866591  1
  H  H74  1  0.89004153  0.90367020  0.83133409  1
  H  H75  1  0.39004153  0.09632980  0.66866591  1
  H  H76  1  0.89028871  0.40387893  0.66851682  1
  H  H77  1  0.39028871  0.59612107  0.83148318  1
  H  H78  1  0.10971129  0.09612107  0.16851682  1
  H  H79  1  0.60971129  0.90387893  0.33148318  1
  H  H80  1  0.18505009  0.88285656  0.51937348  1
  H  H81  1  0.68505009  0.11714344  0.98062652  1
  H  H82  1  0.81494991  0.61714344  0.01937348  1
  H  H83  1  0.31494991  0.38285656  0.48062652  1
  H  H84  1  0.81540551  0.11737116  0.48067561  1
  H  H85  1  0.31540551  0.88262884  0.01932439  1
  H  H86  1  0.18459449  0.38262884  0.98067561  1
  H  H87  1  0.68459449  0.61737116  0.51932439  1
  H  H88  1  0.21157683  0.60235997  0.71255332  1
  H  H89  1  0.71157683  0.39764003  0.78744668  1
  H  H90  1  0.78842317  0.89764003  0.21255332  1
  H  H91  1  0.28842317  0.10235997  0.28744668  1
  H  H92  1  0.78843447  0.39767600  0.28756315  1
  H  H93  1  0.28843447  0.60232400  0.21243685  1
  H  H94  1  0.21156553  0.10232400  0.78756315  1
  H  H95  1  0.71156553  0.89767600  0.71243685  1
  H  H96  1  0.74260689  0.60030203  0.72894465  1
  H  H97  1  0.24260689  0.39969797  0.77105535  1
  H  H98  1  0.25739311  0.89969797  0.22894465  1
  H  H99  1  0.75739311  0.10030203  0.27105535  1
  H  H100  1  0.25744300  0.39967073  0.27092561  1
  H  H101  1  0.75744300  0.60032927  0.22907439  1
  H  H102  1  0.74255700  0.10032927  0.77092561  1
  H  H103  1  0.24255700  0.89967073  0.72907439  1
  H  H104  1  0.99518131  0.80587486  0.54914914  1
  H  H105  1  0.49518131  0.19412514  0.95085086  1
  H  H106  1  0.00481869  0.69412514  0.04914914  1
  H  H107  1  0.50481869  0.30587486  0.45085086  1
  H  H108  1  0.00484031  0.19403534  0.45082368  1
  H  H109  1  0.50484031  0.80596466  0.04917632  1
  H  H110  1  0.99515969  0.30596466  0.95082368  1
  H  H111  1  0.49515969  0.69403534  0.54917632  1
  H  H112  1  0.91595706  0.75253955  0.63918940  1
  H  H113  1  0.41595706  0.24746045  0.86081060  1
  H  H114  1  0.08404294  0.74746045  0.13918940  1
  H  H115  1  0.58404294  0.25253955  0.36081060  1
  H  H116  1  0.08416029  0.24736282  0.36079347  1
  H  H117  1  0.58416029  0.75263718  0.13920653  1
  H  H118  1  0.91583971  0.25263718  0.86079347  1
  H  H119  1  0.41583971  0.74736282  0.63920653  1
  N  N120  1  0.79295431  0.89053563  0.42909151  1
  N  N121  1  0.29295431  0.10946437  0.07090849  1
  N  N122  1  0.20704569  0.60946437  0.92909151  1
  N  N123  1  0.70704569  0.39053563  0.57090849  1
  N  N124  1  0.20715585  0.10940023  0.57090503  1
  N  N125  1  0.70715585  0.89059977  0.92909497  1
  N  N126  1  0.79284415  0.39059977  0.07090503  1
  N  N127  1  0.29284415  0.60940023  0.42909497  1
  N  N128  1  0.98125910  0.80043051  0.62287264  1
  N  N129  1  0.48125910  0.19956949  0.87712736  1
  N  N130  1  0.01874090  0.69956949  0.12287264  1
  N  N131  1  0.51874090  0.30043051  0.37712736  1
  N  N132  1  0.01873767  0.19959876  0.37710053  1
  N  N133  1  0.51873767  0.80040124  0.12289947  1
  N  N134  1  0.98126233  0.30040124  0.87710053  1
  N  N135  1  0.48126233  0.69959876  0.62289947  1
  N  N136  1  0.59177708  0.03327854  0.84657842  1
  N  N137  1  0.09177708  0.96672146  0.65342158  1
  N  N138  1  0.40822292  0.46672146  0.34657842  1
  N  N139  1  0.90822292  0.53327854  0.15342158  1
  N  N140  1  0.40830866  0.96673695  0.15334093  1
  N  N141  1  0.90830866  0.03326305  0.34665907  1
  N  N142  1  0.59169134  0.53326305  0.65334093  1
  N  N143  1  0.09169134  0.46673695  0.84665907  1
  N  N144  1  0.21528290  0.86002968  0.45268653  1
  N  N145  1  0.71528290  0.13997032  0.04731347  1
  N  N146  1  0.78471710  0.63997032  0.95268653  1
  N  N147  1  0.28471710  0.36002968  0.54731347  1
  N  N148  1  0.78509990  0.14020650  0.54731299  1
  N  N149  1  0.28509990  0.85979350  0.95268701  1
  N  N150  1  0.21490010  0.35979350  0.04731299  1
  N  N151  1  0.71490010  0.64020650  0.45268701  1
  N  N152  1  0.01319952  0.85060933  0.37845328  1
  N  N153  1  0.51319952  0.14939067  0.12154672  1
  N  N154  1  0.98680048  0.64939067  0.87845328  1
  N  N155  1  0.48680048  0.35060933  0.62154672  1
  N  N156  1  0.98694536  0.14941032  0.62157649  1
  N  N157  1  0.48694536  0.85058968  0.87842351  1
  N  N158  1  0.01305464  0.35058968  0.12157649  1
  N  N159  1  0.51305464  0.64941032  0.37842351  1
  N  N160  1  0.03919223  0.62053539  0.29635779  1
  N  N161  1  0.53919223  0.37946461  0.20364221  1
  N  N162  1  0.96080777  0.87946461  0.79635779  1
  N  N163  1  0.46080777  0.12053539  0.70364221  1
  N  N164  1  0.96094292  0.37954506  0.70358800  1
  N  N165  1  0.46094292  0.62045494  0.79641200  1
  N  N166  1  0.03905708  0.12045494  0.20358800  1
  N  N167  1  0.53905708  0.87954506  0.29641200  1
  N  N168  1  0.36169226  0.02259058  0.84699673  1
  N  N169  1  0.86169226  0.97740942  0.65300327  1
  N  N170  1  0.63830774  0.47740942  0.34699673  1
  N  N171  1  0.13830774  0.52259058  0.15300327  1
  N  N172  1  0.63837417  0.97735281  0.15299495  1
  N  N173  1  0.13837417  0.02264719  0.34700505  1
  N  N174  1  0.36162583  0.52264719  0.65299495  1
  N  N175  1  0.86162583  0.47735281  0.84700505  1
  N  N176  1  0.80200783  0.64731709  0.76004375  1
  N  N177  1  0.30200783  0.35268291  0.73995625  1
  N  N178  1  0.19799217  0.85268291  0.26004375  1
  N  N179  1  0.69799217  0.14731709  0.23995625  1
  N  N180  1  0.19786899  0.35267055  0.24003800  1
  N  N181  1  0.69786899  0.64732945  0.25996200  1
  N  N182  1  0.80213101  0.14732945  0.74003800  1
  N  N183  1  0.30213101  0.85267055  0.75996200  1
  N  N184  1  0.15254443  0.64433614  0.75032514  1
  N  N185  1  0.65254443  0.35566386  0.74967486  1
  N  N186  1  0.84745557  0.85566386  0.25032514  1
  N  N187  1  0.34745557  0.14433614  0.24967486  1
  N  N188  1  0.84735916  0.35567350  0.24969563  1
  N  N189  1  0.34735916  0.64432650  0.25030437  1
  N  N190  1  0.15264084  0.14432650  0.74969563  1
  N  N191  1  0.65264084  0.85567350  0.75030437  1
  N  N192  1  0.97113055  0.54125882  0.50733493  1
  N  N193  1  0.47113055  0.45874118  0.99266507  1
  N  N194  1  0.02886945  0.95874118  0.00733493  1
  N  N195  1  0.52886945  0.04125882  0.49266507  1
