# generated using pymatgen
data_Nd3Ge5
_symmetry_space_group_name_H-M   'P 1'
_cell_length_a   5.96910498
_cell_length_b   7.68935918
_cell_length_c   9.42810741
_cell_angle_alpha   82.94226654
_cell_angle_beta   71.54504357
_cell_angle_gamma   67.16114847
_symmetry_Int_Tables_number   1
_chemical_formula_structural   Nd3Ge5
_chemical_formula_sum   'Nd6 Ge10'
_cell_volume   378.30066626
_cell_formula_units_Z   2
loop_
 _symmetry_equiv_pos_site_id
 _symmetry_equiv_pos_as_xyz
  1  'x, y, z'
loop_
 _atom_site_type_symbol
 _atom_site_label
 _atom_site_symmetry_multiplicity
 _atom_site_fract_x
 _atom_site_fract_y
 _atom_site_fract_z
 _atom_site_occupancy
  Ge  Ge0  1  0.25980059  0.82876537  0.67364091  1
  Ge  Ge1  1  0.91143404  0.82876537  0.32635909  1
  Ge  Ge2  1  0.48779313  0.32876537  0.17364091  1
  Ge  Ge3  1  0.18344149  0.32876537  0.82635909  1
  Ge  Ge4  1  0.04461899  0.18714419  0.64166655  1
  Ge  Ge5  1  0.76823682  0.18714419  0.35833345  1
  Ge  Ge6  1  0.44535061  0.10929879  0.00000000  1
  Ge  Ge7  1  0.69535061  0.60929879  0.50000000  1
  Ge  Ge8  1  0.93628554  0.68714419  0.85833345  1
  Ge  Ge9  1  0.37657027  0.68714419  0.14166655  1
  Nd  Nd10  1  0.66778755  0.99044036  0.66217751  1
  Nd  Nd11  1  0.34177210  0.99044036  0.33782249  1
  Nd  Nd12  1  0.92959459  0.49044036  0.16217751  1
  Nd  Nd13  1  0.57996505  0.49044036  0.83782249  1
  Nd  Nd14  1  0.24809931  0.50380137  0.50000000  1
  Nd  Nd15  1  0.99809931  0.00380137  0.00000000  1
