# generated using pymatgen
data_Ce(Sn3Ru2)2
_symmetry_space_group_name_H-M   'P 1'
_cell_length_a   6.93634565
_cell_length_b   6.93634566
_cell_length_c   6.96259430
_cell_angle_alpha   119.87536917
_cell_angle_beta   119.87536914
_cell_angle_gamma   89.99999996
_symmetry_Int_Tables_number   1
_chemical_formula_structural   Ce(Sn3Ru2)2
_chemical_formula_sum   'Ce1 Sn6 Ru4'
_cell_volume   237.76373328
_cell_formula_units_Z   1
loop_
 _symmetry_equiv_pos_site_id
 _symmetry_equiv_pos_as_xyz
  1  'x, y, z'
loop_
 _atom_site_type_symbol
 _atom_site_label
 _atom_site_symmetry_multiplicity
 _atom_site_fract_x
 _atom_site_fract_y
 _atom_site_fract_z
 _atom_site_occupancy
  Ru  Ru0  1  0.59950737  0.59950737  0.84687720  1
  Ru  Ru1  1  0.24736984  0.24736984  0.84687720  1
  Ru  Ru2  1  0.40049263  0.75263016  0.15312280  1
  Ru  Ru3  1  0.75263016  0.40049263  0.15312280  1
  Sn  Sn4  1  0.50000000  0.00000000  0.00000000  1
  Sn  Sn5  1  0.53017279  0.53017279  0.40983714  1
  Sn  Sn6  1  0.12033565  0.46982721  0.59016286  1
  Sn  Sn7  1  0.46982721  0.12033565  0.59016286  1
  Sn  Sn8  1  0.87966435  0.87966435  0.40983714  1
  Sn  Sn9  1  0.00000000  0.50000000  0.00000000  1
  Ce  Ce10  1  0.00000000  0.00000000  0.00000000  1
