# generated using pymatgen
data_InAg(PSe3)2
_symmetry_space_group_name_H-M   'P 1'
_cell_length_a   6.58871865
_cell_length_b   6.58871865
_cell_length_c   14.51090557
_cell_angle_alpha   90.00000000
_cell_angle_beta   90.00000000
_cell_angle_gamma   119.99999996
_symmetry_Int_Tables_number   1
_chemical_formula_structural   InAg(PSe3)2
_chemical_formula_sum   'In2 Ag2 P4 Se12'
_cell_volume   545.54059531
_cell_formula_units_Z   2
loop_
 _symmetry_equiv_pos_site_id
 _symmetry_equiv_pos_as_xyz
  1  'x, y, z'
loop_
 _atom_site_type_symbol
 _atom_site_label
 _atom_site_symmetry_multiplicity
 _atom_site_fract_x
 _atom_site_fract_y
 _atom_site_fract_z
 _atom_site_occupancy
  P  P0  1  0.66666667  0.33333333  0.67128610  1
  P  P1  1  0.66666667  0.33333333  0.82871390  1
  P  P2  1  0.33333333  0.66666667  0.32871390  1
  P  P3  1  0.33333333  0.66666667  0.17128610  1
  Se  Se4  1  0.98188115  0.32059630  0.87306753  1
  Se  Se5  1  0.33871515  0.32059630  0.62693247  1
  Se  Se6  1  0.98188115  0.66128485  0.62693247  1
  Se  Se7  1  0.67940370  0.01811885  0.62693247  1
  Se  Se8  1  0.32059630  0.33871515  0.12693247  1
  Se  Se9  1  0.66128485  0.98188115  0.12693247  1
  Se  Se10  1  0.01811885  0.67940370  0.12693247  1
  Se  Se11  1  0.66128485  0.67940370  0.37306753  1
  Se  Se12  1  0.01811885  0.33871515  0.37306753  1
  Se  Se13  1  0.32059630  0.98188115  0.37306753  1
  Se  Se14  1  0.67940370  0.66128485  0.87306753  1
  Se  Se15  1  0.33871515  0.01811885  0.87306753  1
  Ag  Ag16  1  0.66666667  0.33333333  0.25000000  1
  Ag  Ag17  1  0.33333333  0.66666667  0.75000000  1
  In  In18  1  0.00000000  0.00000000  0.25000000  1
  In  In19  1  0.00000000  0.00000000  0.75000000  1
