# generated using pymatgen
data_U2Fe3Ge
_symmetry_space_group_name_H-M   'P 1'
_cell_length_a   5.14012267
_cell_length_b   5.14012267
_cell_length_c   7.85657312
_cell_angle_alpha   90.00000000
_cell_angle_beta   90.00000000
_cell_angle_gamma   119.99999996
_symmetry_Int_Tables_number   1
_chemical_formula_structural   U2Fe3Ge
_chemical_formula_sum   'U4 Fe6 Ge2'
_cell_volume   179.76732486
_cell_formula_units_Z   2
loop_
 _symmetry_equiv_pos_site_id
 _symmetry_equiv_pos_as_xyz
  1  'x, y, z'
loop_
 _atom_site_type_symbol
 _atom_site_label
 _atom_site_symmetry_multiplicity
 _atom_site_fract_x
 _atom_site_fract_y
 _atom_site_fract_z
 _atom_site_occupancy
  Fe  Fe0  1  0.65863124  0.82931562  0.75000000  1
  Fe  Fe1  1  0.34136876  0.17068438  0.25000000  1
  Fe  Fe2  1  0.17068438  0.34136876  0.75000000  1
  Fe  Fe3  1  0.82931562  0.17068438  0.25000000  1
  Fe  Fe4  1  0.82931562  0.65863124  0.25000000  1
  Fe  Fe5  1  0.17068438  0.82931562  0.75000000  1
  Ge  Ge6  1  0.00000000  0.00000000  0.50000000  1
  Ge  Ge7  1  0.00000000  0.00000000  0.00000000  1
  U  U8  1  0.33333333  0.66666667  0.42165857  1
  U  U9  1  0.66666667  0.33333333  0.92165857  1
  U  U10  1  0.66666667  0.33333333  0.57834143  1
  U  U11  1  0.33333333  0.66666667  0.07834143  1
