# generated using pymatgen
data_NbNiP2
_symmetry_space_group_name_H-M   'P 1'
_cell_length_a   3.35780282
_cell_length_b   5.41323752
_cell_length_c   12.20697661
_cell_angle_alpha   90.00000000
_cell_angle_beta   90.00000000
_cell_angle_gamma   90.00000000
_symmetry_Int_Tables_number   1
_chemical_formula_structural   NbNiP2
_chemical_formula_sum   'Nb4 Ni4 P8'
_cell_volume   221.88113830
_cell_formula_units_Z   4
loop_
 _symmetry_equiv_pos_site_id
 _symmetry_equiv_pos_as_xyz
  1  'x, y, z'
loop_
 _atom_site_type_symbol
 _atom_site_label
 _atom_site_symmetry_multiplicity
 _atom_site_fract_x
 _atom_site_fract_y
 _atom_site_fract_z
 _atom_site_occupancy
  P  P0  1  0.25000000  0.69178805  0.53606926  1
  P  P1  1  0.75000000  0.30821195  0.46393074  1
  P  P2  1  0.25000000  0.19178805  0.96393074  1
  P  P3  1  0.75000000  0.80821195  0.03606926  1
  P  P4  1  0.25000000  0.63615392  0.80981727  1
  P  P5  1  0.75000000  0.86384608  0.30981727  1
  P  P6  1  0.25000000  0.13615392  0.69018273  1
  P  P7  1  0.75000000  0.36384608  0.19018273  1
  Ni  Ni8  1  0.25000000  0.51918523  0.08504156  1
  Ni  Ni9  1  0.25000000  0.01918523  0.41495844  1
  Ni  Ni10  1  0.75000000  0.48081477  0.91495844  1
  Ni  Ni11  1  0.75000000  0.98081477  0.58504156  1
  Nb  Nb12  1  0.75000000  0.98410584  0.82969175  1
  Nb  Nb13  1  0.25000000  0.01589416  0.17030825  1
  Nb  Nb14  1  0.75000000  0.48410584  0.67030825  1
  Nb  Nb15  1  0.25000000  0.51589416  0.32969175  1
