# generated using pymatgen
data_Ce2S3
_symmetry_space_group_name_H-M   'P 1'
_cell_length_a   4.03947212
_cell_length_b   7.45547444
_cell_length_c   15.45685934
_cell_angle_alpha   90.00000000
_cell_angle_beta   90.00000000
_cell_angle_gamma   90.00000000
_symmetry_Int_Tables_number   1
_chemical_formula_structural   Ce2S3
_chemical_formula_sum   'Ce8 S12'
_cell_volume   465.50157577
_cell_formula_units_Z   4
loop_
 _symmetry_equiv_pos_site_id
 _symmetry_equiv_pos_as_xyz
  1  'x, y, z'
loop_
 _atom_site_type_symbol
 _atom_site_label
 _atom_site_symmetry_multiplicity
 _atom_site_fract_x
 _atom_site_fract_y
 _atom_site_fract_z
 _atom_site_occupancy
  S  S0  1  0.25000000  0.64742258  0.72018584  1
  S  S1  1  0.75000000  0.35257742  0.27981416  1
  S  S2  1  0.25000000  0.14742258  0.77981416  1
  S  S3  1  0.75000000  0.85257742  0.22018584  1
  S  S4  1  0.25000000  0.87043187  0.93153476  1
  S  S5  1  0.75000000  0.12956813  0.06846524  1
  S  S6  1  0.25000000  0.37043187  0.56846524  1
  S  S7  1  0.75000000  0.62956813  0.43153476  1
  S  S8  1  0.75000000  0.98889721  0.60750643  1
  S  S9  1  0.25000000  0.01110279  0.39249357  1
  S  S10  1  0.75000000  0.48889721  0.89249357  1
  S  S11  1  0.25000000  0.51110279  0.10750643  1
  Ce  Ce12  1  0.25000000  0.75934688  0.54281316  1
  Ce  Ce13  1  0.75000000  0.24065312  0.45718684  1
  Ce  Ce14  1  0.25000000  0.25934688  0.95718684  1
  Ce  Ce15  1  0.75000000  0.74065312  0.04281316  1
  Ce  Ce16  1  0.25000000  0.63721775  0.29329986  1
  Ce  Ce17  1  0.75000000  0.36278225  0.70670014  1
  Ce  Ce18  1  0.25000000  0.13721775  0.20670014  1
  Ce  Ce19  1  0.75000000  0.86278225  0.79329986  1
