# generated using pymatgen
data_CaRuO3
_symmetry_space_group_name_H-M   'P 1'
_cell_length_a   5.42890289
_cell_length_b   5.59399800
_cell_length_c   7.74820429
_cell_angle_alpha   90.00000000
_cell_angle_beta   90.00000000
_cell_angle_gamma   90.00000000
_symmetry_Int_Tables_number   1
_chemical_formula_structural   CaRuO3
_chemical_formula_sum   'Ca4 Ru4 O12'
_cell_volume   235.30732289
_cell_formula_units_Z   4
loop_
 _symmetry_equiv_pos_site_id
 _symmetry_equiv_pos_as_xyz
  1  'x, y, z'
loop_
 _atom_site_type_symbol
 _atom_site_label
 _atom_site_symmetry_multiplicity
 _atom_site_fract_x
 _atom_site_fract_y
 _atom_site_fract_z
 _atom_site_occupancy
  Ca  Ca0  1  0.51434489  0.55724428  0.25000000  1
  Ca  Ca1  1  0.98565511  0.05724428  0.25000000  1
  Ca  Ca2  1  0.48565511  0.44275572  0.75000000  1
  Ca  Ca3  1  0.01434489  0.94275572  0.75000000  1
  Ru  Ru4  1  0.00000000  0.50000000  -0.00000000  1
  Ru  Ru5  1  0.50000000  0.00000000  0.50000000  1
  Ru  Ru6  1  0.00000000  0.50000000  0.50000000  1
  Ru  Ru7  1  0.50000000  -0.00000000  -0.00000000  1
  O  O8  1  0.80340775  0.79859941  0.04929718  1
  O  O9  1  0.69659225  0.29859941  0.45070282  1
  O  O10  1  0.19659225  0.20140059  0.54929718  1
  O  O11  1  0.30340775  0.70140059  0.95070282  1
  O  O12  1  0.19659225  0.20140059  0.95070282  1
  O  O13  1  0.30340775  0.70140059  0.54929718  1
  O  O14  1  0.80340775  0.79859941  0.45070282  1
  O  O15  1  0.69659225  0.29859941  0.04929718  1
  O  O16  1  0.40400456  0.97284008  0.25000000  1
  O  O17  1  0.09599544  0.47284008  0.25000000  1
  O  O18  1  0.59599544  0.02715992  0.75000000  1
  O  O19  1  0.90400456  0.52715992  0.75000000  1
