# generated using pymatgen
data_Sr2PbO4
_symmetry_space_group_name_H-M   'P 1'
_cell_length_a   3.55807575
_cell_length_b   6.23841909
_cell_length_c   10.23816996
_cell_angle_alpha   90.00000000
_cell_angle_beta   90.00000000
_cell_angle_gamma   90.00000000
_symmetry_Int_Tables_number   1
_chemical_formula_structural   Sr2PbO4
_chemical_formula_sum   'Sr4 Pb2 O8'
_cell_volume   227.25428010
_cell_formula_units_Z   2
loop_
 _symmetry_equiv_pos_site_id
 _symmetry_equiv_pos_as_xyz
  1  'x, y, z'
loop_
 _atom_site_type_symbol
 _atom_site_label
 _atom_site_symmetry_multiplicity
 _atom_site_fract_x
 _atom_site_fract_y
 _atom_site_fract_z
 _atom_site_occupancy
  O  O0  1  0.00000000  0.13547184  0.80630578  1
  O  O1  1  0.00000000  0.86452816  0.19369422  1
  O  O2  1  0.00000000  0.63547184  0.69369422  1
  O  O3  1  0.00000000  0.36452816  0.30630578  1
  O  O4  1  0.50000000  0.27449697  0.55135467  1
  O  O5  1  0.50000000  0.72550303  0.44864533  1
  O  O6  1  0.50000000  0.22550303  0.05135467  1
  O  O7  1  0.50000000  0.77449697  0.94864533  1
  Sr  Sr8  1  0.50000000  0.42666679  0.81871230  1
  Sr  Sr9  1  0.50000000  0.57333321  0.18128770  1
  Sr  Sr10  1  0.50000000  0.92666679  0.68128770  1
  Sr  Sr11  1  0.50000000  0.07333321  0.31871230  1
  Pb  Pb12  1  0.00000000  0.50000000  0.50000000  1
  Pb  Pb13  1  0.00000000  0.00000000  0.00000000  1
