# generated using pymatgen
data_MnH7C3NO6
_symmetry_space_group_name_H-M   'P 1'
_cell_length_a   7.41169904
_cell_length_b   7.51974265
_cell_length_c   8.58100242
_cell_angle_alpha   91.34559485
_cell_angle_beta   90.00000014
_cell_angle_gamma   119.52583269
_symmetry_Int_Tables_number   1
_chemical_formula_structural   MnH7C3NO6
_chemical_formula_sum   'Mn2 H14 C6 N2 O12'
_cell_volume   415.99345606
_cell_formula_units_Z   2
loop_
 _symmetry_equiv_pos_site_id
 _symmetry_equiv_pos_as_xyz
  1  'x, y, z'
loop_
 _atom_site_type_symbol
 _atom_site_label
 _atom_site_symmetry_multiplicity
 _atom_site_fract_x
 _atom_site_fract_y
 _atom_site_fract_z
 _atom_site_occupancy
  Mn  Mn0  1  0.66537595  0.33272871  0.74959713  1
  Mn  Mn1  1  0.33264724  0.66727129  0.25040287  1
  H  H2  1  0.00220860  0.58099663  0.50144955  1
  H  H3  1  0.57867039  0.00000000  0.50000000  1
  H  H4  1  0.42121196  0.41900337  0.49855045  1
  H  H5  1  0.00323896  0.42172232  0.00143444  1
  H  H6  1  0.42157796  1.00000000  1.00000000  1
  H  H7  1  0.58151665  0.57827768  0.99856556  1
  H  H8  1  0.10316627  0.07541008  0.65790473  1
  H  H9  1  0.91649302  0.84938126  0.72175650  1
  H  H10  1  0.02775619  0.92458992  0.34209527  1
  H  H11  1  0.06711176  0.15061874  0.27824350  1
  H  H12  1  0.07747659  0.97035287  0.15745157  1
  H  H13  1  0.84775003  0.93345122  0.22209460  1
  H  H14  1  0.10712372  0.02964713  0.84254843  1
  H  H15  1  0.91429881  0.06654878  0.77790540  1
  C  C16  1  0.99870587  0.43181329  0.49765724  1
  C  C17  1  0.42928130  0.00000000  0.50000000  1
  C  C18  1  0.56689258  0.56818671  0.50234276  1
  C  C19  1  0.99959073  0.56714660  0.00125478  1
  C  C20  1  0.57132548  1.00000000  1.00000000  1
  C  C21  1  0.43244413  0.43285340  0.99874522  1
  N  N22  1  0.00786166  0.00385618  0.75005165  1
  N  N23  1  0.00400549  0.99614382  0.24994835  1
  O  O24  1  0.89018503  0.30270089  0.59820214  1
  O  O25  1  0.40328948  0.10914642  0.60329498  1
  O  O26  1  0.70059766  0.59590256  0.60754583  1
  O  O27  1  0.58748414  0.69729911  0.40179786  1
  O  O28  1  0.29414305  0.89085358  0.39670502  1
  O  O29  1  0.10469510  0.40409744  0.39245417  1
  O  O30  1  0.10890300  0.70365672  0.10408233  1
  O  O31  1  0.59784967  0.89689259  0.10398680  1
  O  O32  1  0.30079700  0.41257583  0.10104310  1
  O  O33  1  0.40524628  0.29634328  0.89591767  1
  O  O34  1  0.70095708  0.10310741  0.89601320  1
  O  O35  1  0.88822117  0.58742417  0.89895690  1
