# generated using pymatgen
data_LaIn2Rh
_symmetry_space_group_name_H-M   'P 1'
_cell_length_a   4.55082319
_cell_length_b   5.60618359
_cell_length_c   8.13354745
_cell_angle_alpha   90.00000000
_cell_angle_beta   90.00000000
_cell_angle_gamma   113.94599120
_symmetry_Int_Tables_number   1
_chemical_formula_structural   LaIn2Rh
_chemical_formula_sum   'La2 In4 Rh2'
_cell_volume   189.64853036
_cell_formula_units_Z   2
loop_
 _symmetry_equiv_pos_site_id
 _symmetry_equiv_pos_as_xyz
  1  'x, y, z'
loop_
 _atom_site_type_symbol
 _atom_site_label
 _atom_site_symmetry_multiplicity
 _atom_site_fract_x
 _atom_site_fract_y
 _atom_site_fract_z
 _atom_site_occupancy
  Rh  Rh0  1  0.79260434  0.58520868  0.75000000  1
  Rh  Rh1  1  0.20739566  0.41479132  0.25000000  1
  In  In2  1  0.35134999  0.70269999  0.54992740  1
  In  In3  1  0.64865001  0.29730001  0.45007260  1
  In  In4  1  0.35134999  0.70269999  0.95007260  1
  In  In5  1  0.64865001  0.29730001  0.04992740  1
  La  La6  1  0.93770767  0.87541534  0.25000000  1
  La  La7  1  0.06229233  0.12458466  0.75000000  1
