# generated using pymatgen
data_BaIn2Pt
_symmetry_space_group_name_H-M   'P 1'
_cell_length_a   4.58656411
_cell_length_b   6.33951734
_cell_length_c   8.15167668
_cell_angle_alpha   90.00000000
_cell_angle_beta   90.00000000
_cell_angle_gamma   111.20733671
_symmetry_Int_Tables_number   1
_chemical_formula_structural   BaIn2Pt
_chemical_formula_sum   'Ba2 In4 Pt2'
_cell_volume   220.97126687
_cell_formula_units_Z   2
loop_
 _symmetry_equiv_pos_site_id
 _symmetry_equiv_pos_as_xyz
  1  'x, y, z'
loop_
 _atom_site_type_symbol
 _atom_site_label
 _atom_site_symmetry_multiplicity
 _atom_site_fract_x
 _atom_site_fract_y
 _atom_site_fract_z
 _atom_site_occupancy
  In  In0  1  0.33689408  0.67378816  0.55638071  1
  In  In1  1  0.66310592  0.32621184  0.44361929  1
  In  In2  1  0.33689408  0.67378816  0.94361929  1
  In  In3  1  0.66310592  0.32621184  0.05638071  1
  Ba  Ba4  1  0.94726106  0.89452211  0.25000000  1
  Ba  Ba5  1  0.05273894  0.10547789  0.75000000  1
  Pt  Pt6  1  0.77586112  0.55172224  0.75000000  1
  Pt  Pt7  1  0.22413888  0.44827776  0.25000000  1
