# generated using pymatgen
data_Na2H12SO11
_symmetry_space_group_name_H-M   'P 1'
_cell_length_a   7.18066429
_cell_length_b   7.18066429
_cell_length_c   12.34773072
_cell_angle_alpha   73.08836167
_cell_angle_beta   73.08836167
_cell_angle_gamma   89.97478182
_symmetry_Int_Tables_number   1
_chemical_formula_structural   Na2H12SO11
_chemical_formula_sum   'Na4 H24 S2 O22'
_cell_volume   580.32754823
_cell_formula_units_Z   2
loop_
 _symmetry_equiv_pos_site_id
 _symmetry_equiv_pos_as_xyz
  1  'x, y, z'
loop_
 _atom_site_type_symbol
 _atom_site_label
 _atom_site_symmetry_multiplicity
 _atom_site_fract_x
 _atom_site_fract_y
 _atom_site_fract_z
 _atom_site_occupancy
  Na  Na0  1  0.25986837  0.00802519  0.48219327  1
  Na  Na1  1  0.50802519  0.75986837  0.98219327  1
  Na  Na2  1  0.74206164  0.99021847  0.51780673  1
  Na  Na3  1  0.49021847  0.24206164  0.01780673  1
  H  H4  1  0.99867560  0.65481111  0.56749101  1
  H  H5  1  0.99868148  0.27617853  0.56752886  1
  H  H6  1  0.15481111  0.49867560  0.06749101  1
  H  H7  1  0.16389140  0.93824517  0.06525995  1
  H  H8  1  0.43824517  0.66389140  0.56525995  1
  H  H9  1  0.43700483  0.27023042  0.56497799  1
  H  H10  1  0.77617853  0.49868148  0.06752886  1
  H  H11  1  0.77023042  0.93700483  0.06497799  1
  H  H12  1  0.00198283  0.33520842  0.43502201  1
  H  H13  1  0.00350512  0.72915135  0.43474005  1
  H  H14  1  0.83520842  0.50198283  0.93502201  1
  H  H15  1  0.84370739  0.06621034  0.93247114  1
  H  H16  1  0.56621034  0.34370739  0.43247114  1
  H  H17  1  0.56616660  0.72230212  0.43250899  1
  H  H18  1  0.22915135  0.50350512  0.93474005  1
  H  H19  1  0.22230212  0.06616660  0.93250899  1
  H  H20  1  0.14503756  0.76484912  0.74749394  1
  H  H21  1  0.14513018  0.98694529  0.74754992  1
  H  H22  1  0.26484912  0.64503756  0.24749394  1
  H  H23  1  0.48694529  0.64513018  0.24754992  1
  H  H24  1  0.89268011  0.23449522  0.25245008  1
  H  H25  1  0.89253149  0.01234305  0.25250606  1
  H  H26  1  0.73449522  0.39268011  0.75245008  1
  H  H27  1  0.51234305  0.39253149  0.75250606  1
  S  S28  1  0.12413979  0.37413979  0.75000000  1
  S  S29  1  0.87413979  0.62413979  0.25000000  1
  O  O30  1  0.00130832  0.77547894  0.50265372  1
  O  O31  1  0.00042553  0.22074878  0.50277195  1
  O  O32  1  0.27547894  0.50130832  0.00265372  1
  O  O33  1  0.27813266  0.00396205  0.99734628  1
  O  O34  1  0.50396205  0.77813266  0.49734628  1
  O  O35  1  0.50319749  0.22352074  0.49722805  1
  O  O36  1  0.72074878  0.50042553  0.00277195  1
  O  O37  1  0.72352074  0.00319749  0.99722805  1
  O  O38  1  0.36985611  0.11985611  0.25000000  1
  O  O39  1  0.61985611  0.86985611  0.75000000  1
  O  O40  1  0.99205127  0.41194335  0.67306032  1
  O  O41  1  0.91194335  0.49205127  0.17306032  1
  O  O42  1  0.91194274  0.83299024  0.17307599  1
  O  O43  1  0.33299024  0.41194274  0.67307599  1
  O  O44  1  0.00606622  0.58501872  0.32692401  1
  O  O45  1  0.08501872  0.50606622  0.82692401  1
  O  O46  1  0.08500366  0.16511159  0.82693968  1
  O  O47  1  0.66511159  0.58500366  0.32693968  1
  O  O48  1  0.18882828  0.90135742  0.69629505  1
  O  O49  1  0.40135742  0.68882828  0.19629505  1
  O  O50  1  0.59765247  0.38512333  0.80370495  1
  O  O51  1  0.88512333  0.09765247  0.30370495  1
