# generated using pymatgen
data_PrSnRu
_symmetry_space_group_name_H-M   'P 1'
_cell_length_a   4.89433932
_cell_length_b   7.40211797
_cell_length_c   7.69573606
_cell_angle_alpha   90.00000000
_cell_angle_beta   90.00000000
_cell_angle_gamma   90.00000000
_symmetry_Int_Tables_number   1
_chemical_formula_structural   PrSnRu
_chemical_formula_sum   'Pr4 Sn4 Ru4'
_cell_volume   278.80479709
_cell_formula_units_Z   4
loop_
 _symmetry_equiv_pos_site_id
 _symmetry_equiv_pos_as_xyz
  1  'x, y, z'
loop_
 _atom_site_type_symbol
 _atom_site_label
 _atom_site_symmetry_multiplicity
 _atom_site_fract_x
 _atom_site_fract_y
 _atom_site_fract_z
 _atom_site_occupancy
  Ru  Ru0  1  0.75000000  0.55699215  0.34894648  1
  Ru  Ru1  1  0.75000000  0.94300785  0.84894648  1
  Ru  Ru2  1  0.25000000  0.05699215  0.15105352  1
  Ru  Ru3  1  0.25000000  0.44300785  0.65105352  1
  Sn  Sn4  1  0.75000000  0.61269517  0.69547872  1
  Sn  Sn5  1  0.75000000  0.88730483  0.19547872  1
  Sn  Sn6  1  0.25000000  0.11269517  0.80452128  1
  Sn  Sn7  1  0.25000000  0.38730483  0.30452128  1
  Pr  Pr8  1  0.25000000  0.80915194  0.46818878  1
  Pr  Pr9  1  0.75000000  0.19084806  0.53181122  1
  Pr  Pr10  1  0.75000000  0.30915194  0.03181122  1
  Pr  Pr11  1  0.25000000  0.69084806  0.96818878  1
