# generated using pymatgen
data_EuInPt
_symmetry_space_group_name_H-M   'P 1'
_cell_length_a   4.51155478
_cell_length_b   7.46386956
_cell_length_c   8.57640491
_cell_angle_alpha   90.00000000
_cell_angle_beta   90.00000000
_cell_angle_gamma   90.00000000
_symmetry_Int_Tables_number   1
_chemical_formula_structural   EuInPt
_chemical_formula_sum   'Eu4 In4 Pt4'
_cell_volume   288.79891201
_cell_formula_units_Z   4
loop_
 _symmetry_equiv_pos_site_id
 _symmetry_equiv_pos_as_xyz
  1  'x, y, z'
loop_
 _atom_site_type_symbol
 _atom_site_label
 _atom_site_symmetry_multiplicity
 _atom_site_fract_x
 _atom_site_fract_y
 _atom_site_fract_z
 _atom_site_occupancy
  In  In0  1  0.25000000  0.64758929  0.43568982  1
  In  In1  1  0.25000000  0.14758929  0.06431018  1
  In  In2  1  0.75000000  0.35241071  0.56431018  1
  In  In3  1  0.75000000  0.85241071  0.93568982  1
  Eu  Eu4  1  0.75000000  0.46754132  0.17784444  1
  Eu  Eu5  1  0.25000000  0.03245868  0.67784444  1
  Eu  Eu6  1  0.75000000  0.96754132  0.32215556  1
  Eu  Eu7  1  0.25000000  0.53245868  0.82215556  1
  Pt  Pt8  1  0.25000000  0.76978311  0.12282609  1
  Pt  Pt9  1  0.25000000  0.26978311  0.37717391  1
  Pt  Pt10  1  0.75000000  0.73021689  0.62282609  1
  Pt  Pt11  1  0.75000000  0.23021689  0.87717391  1
