# generated using pymatgen
data_Mn4Fe2Sb3
_symmetry_space_group_name_H-M   'P 1'
_cell_length_a   3.97373731
_cell_length_b   3.97373731
_cell_length_c   18.78231809
_cell_angle_alpha   90.00000000
_cell_angle_beta   90.00000000
_cell_angle_gamma   90.00000000
_symmetry_Int_Tables_number   1
_chemical_formula_structural   Mn4Fe2Sb3
_chemical_formula_sum   'Mn8 Fe4 Sb6'
_cell_volume   296.58385057
_cell_formula_units_Z   2
loop_
 _symmetry_equiv_pos_site_id
 _symmetry_equiv_pos_as_xyz
  1  'x, y, z'
loop_
 _atom_site_type_symbol
 _atom_site_label
 _atom_site_symmetry_multiplicity
 _atom_site_fract_x
 _atom_site_fract_y
 _atom_site_fract_z
 _atom_site_occupancy
  Mn  Mn0  1  -0.00000000  0.00000000  0.33195046  1
  Mn  Mn1  1  0.00000000  -0.00000000  0.66804954  1
  Mn  Mn2  1  0.00000000  0.50000000  0.08580856  1
  Mn  Mn3  1  -0.00000000  0.50000000  0.42666575  1
  Mn  Mn4  1  0.00000000  0.50000000  0.76228957  1
  Mn  Mn5  1  0.50000000  0.00000000  0.23771043  1
  Mn  Mn6  1  0.50000000  0.00000000  0.57333425  1
  Mn  Mn7  1  0.50000000  0.00000000  0.91419144  1
  Fe  Fe8  1  0.50000000  0.50000000  -0.00000000  1
  Fe  Fe9  1  0.50000000  0.50000000  0.33193350  1
  Fe  Fe10  1  0.50000000  0.50000000  0.66806650  1
  Fe  Fe11  1  -0.00000000  0.00000000  -0.00000000  1
  Sb  Sb12  1  -0.00000000  0.50000000  0.23578689  1
  Sb  Sb13  1  0.00000000  0.50000000  0.57181268  1
  Sb  Sb14  1  -0.00000000  0.50000000  0.90984816  1
  Sb  Sb15  1  0.50000000  0.00000000  0.09015184  1
  Sb  Sb16  1  0.50000000  0.00000000  0.42818732  1
  Sb  Sb17  1  0.50000000  0.00000000  0.76421311  1
