# generated using pymatgen
data_La(GePd)2
_symmetry_space_group_name_H-M   'P 1'
_cell_length_a   4.42129023
_cell_length_b   4.42129023
_cell_length_c   5.97061475
_cell_angle_alpha   111.73129456
_cell_angle_beta   111.73129450
_cell_angle_gamma   89.99999997
_symmetry_Int_Tables_number   1
_chemical_formula_structural   La(GePd)2
_chemical_formula_sum   'La1 Ge2 Pd2'
_cell_volume   99.43348550
_cell_formula_units_Z   1
loop_
 _symmetry_equiv_pos_site_id
 _symmetry_equiv_pos_as_xyz
  1  'x, y, z'
loop_
 _atom_site_type_symbol
 _atom_site_label
 _atom_site_symmetry_multiplicity
 _atom_site_fract_x
 _atom_site_fract_y
 _atom_site_fract_z
 _atom_site_occupancy
  Ge  Ge0  1  0.62448256  0.62448256  0.24896512  1
  Ge  Ge1  1  0.37551744  0.37551744  0.75103488  1
  Pd  Pd2  1  0.75000000  0.25000000  0.50000000  1
  Pd  Pd3  1  0.25000000  0.75000000  0.50000000  1
  La  La4  1  0.00000000  0.00000000  0.00000000  1
