# generated using pymatgen
data_U(FeP3)4
_symmetry_space_group_name_H-M   'P 1'
_cell_length_a   6.73571971
_cell_length_b   6.73571971
_cell_length_c   6.73571971
_cell_angle_alpha   109.47122063
_cell_angle_beta   109.47122063
_cell_angle_gamma   109.47122063
_symmetry_Int_Tables_number   1
_chemical_formula_structural   U(FeP3)4
_chemical_formula_sum   'U1 Fe4 P12'
_cell_volume   235.25026992
_cell_formula_units_Z   1
loop_
 _symmetry_equiv_pos_site_id
 _symmetry_equiv_pos_as_xyz
  1  'x, y, z'
loop_
 _atom_site_type_symbol
 _atom_site_label
 _atom_site_symmetry_multiplicity
 _atom_site_fract_x
 _atom_site_fract_y
 _atom_site_fract_z
 _atom_site_occupancy
  U  U0  1  0.00000000  0.00000000  0.00000000  1
  Fe  Fe1  1  0.00000000  0.00000000  0.50000000  1
  Fe  Fe2  1  0.50000000  0.00000000  0.00000000  1
  Fe  Fe3  1  0.00000000  0.50000000  0.00000000  1
  Fe  Fe4  1  0.50000000  0.50000000  0.50000000  1
  P  P5  1  0.34902572  0.19770218  0.84867646  1
  P  P6  1  0.65097428  0.80229782  0.15132354  1
  P  P7  1  0.65097428  0.49965073  0.84867646  1
  P  P8  1  0.34902572  0.50034927  0.15132354  1
  P  P9  1  0.19770218  0.84867646  0.34902572  1
  P  P10  1  0.80229782  0.15132354  0.65097428  1
  P  P11  1  0.49965073  0.84867646  0.65097428  1
  P  P12  1  0.50034927  0.15132354  0.34902572  1
  P  P13  1  0.84867646  0.34902572  0.19770218  1
  P  P14  1  0.15132354  0.65097428  0.80229782  1
  P  P15  1  0.84867646  0.65097428  0.49965073  1
  P  P16  1  0.15132354  0.34902572  0.50034927  1
