# generated using pymatgen
data_NdGeRh
_symmetry_space_group_name_H-M   'P 1'
_cell_length_a   4.46447063
_cell_length_b   7.24780404
_cell_length_c   7.54126640
_cell_angle_alpha   90.00000000
_cell_angle_beta   90.00000000
_cell_angle_gamma   90.00000000
_symmetry_Int_Tables_number   1
_chemical_formula_structural   NdGeRh
_chemical_formula_sum   'Nd4 Ge4 Rh4'
_cell_volume   244.01734402
_cell_formula_units_Z   4
loop_
 _symmetry_equiv_pos_site_id
 _symmetry_equiv_pos_as_xyz
  1  'x, y, z'
loop_
 _atom_site_type_symbol
 _atom_site_label
 _atom_site_symmetry_multiplicity
 _atom_site_fract_x
 _atom_site_fract_y
 _atom_site_fract_z
 _atom_site_occupancy
  Ge  Ge0  1  0.25000000  0.29802614  0.89724845  1
  Ge  Ge1  1  0.75000000  0.70197386  0.10275155  1
  Ge  Ge2  1  0.25000000  0.79802614  0.60275155  1
  Ge  Ge3  1  0.75000000  0.20197386  0.39724845  1
  Rh  Rh4  1  0.75000000  0.84807543  0.42830565  1
  Rh  Rh5  1  0.25000000  0.15192457  0.57169435  1
  Rh  Rh6  1  0.75000000  0.34807543  0.07169435  1
  Rh  Rh7  1  0.25000000  0.65192457  0.92830565  1
  Nd  Nd8  1  0.25000000  0.49129407  0.31035858  1
  Nd  Nd9  1  0.75000000  0.50870593  0.68964142  1
  Nd  Nd10  1  0.25000000  0.99129407  0.18964142  1
  Nd  Nd11  1  0.75000000  0.00870593  0.81035858  1
