# generated using pymatgen
data_Li4MnCo2NiO8
_symmetry_space_group_name_H-M   'P 1'
_cell_length_a   2.94898571
_cell_length_b   5.08396925
_cell_length_c   9.93243291
_cell_angle_alpha   79.13954899
_cell_angle_beta   90.00000074
_cell_angle_gamma   89.99999309
_symmetry_Int_Tables_number   1
_chemical_formula_structural   Li4MnCo2NiO8
_chemical_formula_sum   'Li4 Mn1 Co2 Ni1 O8'
_cell_volume   146.24535189
_cell_formula_units_Z   1
loop_
 _symmetry_equiv_pos_site_id
 _symmetry_equiv_pos_as_xyz
  1  'x, y, z'
loop_
 _atom_site_type_symbol
 _atom_site_label
 _atom_site_symmetry_multiplicity
 _atom_site_fract_x
 _atom_site_fract_y
 _atom_site_fract_z
 _atom_site_occupancy
  Li  Li0  1  0.00000000  0.50823618  0.48951204  1
  Li  Li1  1  1.00000000  0.99176382  0.01048796  1
  Li  Li2  1  0.50000000  0.00506220  0.48285031  1
  Li  Li3  1  0.50000000  0.49493780  0.01714969  1
  Mn  Mn4  1  0.50000000  0.25000000  0.75000000  1
  Co  Co5  1  0.50000000  0.75000000  0.25000000  1
  Co  Co6  1  -0.00000000  0.75000000  0.75000000  1
  Ni  Ni7  1  -0.00000000  0.25000000  0.25000000  1
  O  O8  1  0.50000000  0.60501640  0.63877767  1
  O  O9  1  0.50000000  0.10033385  0.13618954  1
  O  O10  1  1.00000000  0.14036249  0.64098732  1
  O  O11  1  0.00000000  0.62455477  0.13091900  1
  O  O12  1  0.50000000  0.89498360  0.86122233  1
  O  O13  1  0.50000000  0.39966615  0.36381046  1
  O  O14  1  0.00000000  0.35963751  0.85901268  1
  O  O15  1  1.00000000  0.87544523  0.36908100  1
