# generated using pymatgen
data_In6Ga2PtO8
_symmetry_space_group_name_H-M   'P 1'
_cell_length_a   7.18746744
_cell_length_b   7.18746744
_cell_length_c   7.18746743
_cell_angle_alpha   60.00000000
_cell_angle_beta   59.99999999
_cell_angle_gamma   60.00000000
_symmetry_Int_Tables_number   1
_chemical_formula_structural   In6Ga2PtO8
_chemical_formula_sum   'In6 Ga2 Pt1 O8'
_cell_volume   262.55039277
_cell_formula_units_Z   1
loop_
 _symmetry_equiv_pos_site_id
 _symmetry_equiv_pos_as_xyz
  1  'x, y, z'
loop_
 _atom_site_type_symbol
 _atom_site_label
 _atom_site_symmetry_multiplicity
 _atom_site_fract_x
 _atom_site_fract_y
 _atom_site_fract_z
 _atom_site_occupancy
  O  O0  1  0.64133441  0.64133441  0.64133441  1
  O  O1  1  0.35866559  0.35866559  0.92400324  1
  O  O2  1  0.35866559  0.92400324  0.35866559  1
  O  O3  1  0.92400324  0.35866559  0.35866559  1
  O  O4  1  0.64133441  0.07599676  0.64133441  1
  O  O5  1  0.07599676  0.64133441  0.64133441  1
  O  O6  1  0.64133441  0.64133441  0.07599676  1
  O  O7  1  0.35866559  0.35866559  0.35866559  1
  Ga  Ga8  1  0.75000000  0.75000000  0.75000000  1
  Ga  Ga9  1  0.25000000  0.25000000  0.25000000  1
  In  In10  1  0.25323817  0.74676183  0.74676183  1
  In  In11  1  0.25323817  0.74676183  0.25323817  1
  In  In12  1  0.74676183  0.25323817  0.74676183  1
  In  In13  1  0.25323817  0.25323817  0.74676183  1
  In  In14  1  0.74676183  0.74676183  0.25323817  1
  In  In15  1  0.74676183  0.25323817  0.25323817  1
  Pt  Pt16  1  0.00000000  0.00000000  0.00000000  1
