# generated using pymatgen
data_ScNiB4
_symmetry_space_group_name_H-M   'P 1'
_cell_length_a   3.24707137
_cell_length_b   5.78454818
_cell_length_c   11.22123537
_cell_angle_alpha   90.00000000
_cell_angle_beta   90.00000000
_cell_angle_gamma   90.00000000
_symmetry_Int_Tables_number   1
_chemical_formula_structural   ScNiB4
_chemical_formula_sum   'Sc4 Ni4 B16'
_cell_volume   210.76667735
_cell_formula_units_Z   4
loop_
 _symmetry_equiv_pos_site_id
 _symmetry_equiv_pos_as_xyz
  1  'x, y, z'
loop_
 _atom_site_type_symbol
 _atom_site_label
 _atom_site_symmetry_multiplicity
 _atom_site_fract_x
 _atom_site_fract_y
 _atom_site_fract_z
 _atom_site_occupancy
  Sc  Sc0  1  -0.00000000  0.62709287  0.34942309  1
  Sc  Sc1  1  0.00000000  0.37290713  0.65057691  1
  Sc  Sc2  1  -0.00000000  0.12709287  0.15057691  1
  Sc  Sc3  1  0.00000000  0.87290713  0.84942309  1
  Ni  Ni4  1  0.00000000  0.63499024  0.08868858  1
  Ni  Ni5  1  -0.00000000  0.36500976  0.91131142  1
  Ni  Ni6  1  0.00000000  0.13499024  0.41131142  1
  Ni  Ni7  1  -0.00000000  0.86500976  0.58868858  1
  B  B8  1  0.50000000  0.78922060  0.18654717  1
  B  B9  1  0.50000000  0.21077940  0.81345283  1
  B  B10  1  0.50000000  0.28922060  0.31345283  1
  B  B11  1  0.50000000  0.71077940  0.68654717  1
  B  B12  1  0.50000000  0.86610201  0.03267056  1
  B  B13  1  0.50000000  0.13389799  0.96732944  1
  B  B14  1  0.50000000  0.36610201  0.46732944  1
  B  B15  1  0.50000000  0.63389799  0.53267056  1
  B  B16  1  0.50000000  0.88380181  0.45071869  1
  B  B17  1  0.50000000  0.11619819  0.54928131  1
  B  B18  1  0.50000000  0.38380181  0.04928131  1
  B  B19  1  0.50000000  0.61619819  0.95071869  1
  B  B20  1  0.50000000  0.97928076  0.30584086  1
  B  B21  1  0.50000000  0.02071924  0.69415914  1
  B  B22  1  0.50000000  0.47928076  0.19415914  1
  B  B23  1  0.50000000  0.52071924  0.80584086  1
