# generated using pymatgen
data_Dy(GeRu)2
_symmetry_space_group_name_H-M   'P 1'
_cell_length_a   4.26617636
_cell_length_b   4.26617636
_cell_length_c   5.79521844
_cell_angle_alpha   111.59708630
_cell_angle_beta   111.59708626
_cell_angle_gamma   90.00000004
_symmetry_Int_Tables_number   1
_chemical_formula_structural   Dy(GeRu)2
_chemical_formula_sum   'Dy1 Ge2 Ru2'
_cell_volume   90.05805782
_cell_formula_units_Z   1
loop_
 _symmetry_equiv_pos_site_id
 _symmetry_equiv_pos_as_xyz
  1  'x, y, z'
loop_
 _atom_site_type_symbol
 _atom_site_label
 _atom_site_symmetry_multiplicity
 _atom_site_fract_x
 _atom_site_fract_y
 _atom_site_fract_z
 _atom_site_occupancy
  Ge  Ge0  1  0.62989851  0.62989851  0.25979702  1
  Ge  Ge1  1  0.37010149  0.37010149  0.74020298  1
  Ru  Ru2  1  0.75000000  0.25000000  0.50000000  1
  Ru  Ru3  1  0.25000000  0.75000000  0.50000000  1
  Dy  Dy4  1  0.00000000  0.00000000  0.00000000  1
