# generated using pymatgen
data_SrPb
_symmetry_space_group_name_H-M   'P 1'
_cell_length_a   4.70663350
_cell_length_b   5.12890403
_cell_length_c   6.73004093
_cell_angle_alpha   112.39846035
_cell_angle_beta   90.00000000
_cell_angle_gamma   90.00000000
_symmetry_Int_Tables_number   1
_chemical_formula_structural   SrPb
_chemical_formula_sum   'Sr2 Pb2'
_cell_volume   150.20556046
_cell_formula_units_Z   2
loop_
 _symmetry_equiv_pos_site_id
 _symmetry_equiv_pos_as_xyz
  1  'x, y, z'
loop_
 _atom_site_type_symbol
 _atom_site_label
 _atom_site_symmetry_multiplicity
 _atom_site_fract_x
 _atom_site_fract_y
 _atom_site_fract_z
 _atom_site_occupancy
  Sr  Sr0  1  0.25000000  0.86630145  0.73260289  1
  Sr  Sr1  1  0.75000000  0.13369855  0.26739711  1
  Pb  Pb2  1  0.25000000  0.58491906  0.16983811  1
  Pb  Pb3  1  0.75000000  0.41508094  0.83016189  1
