# generated using pymatgen
data_LaNiGe2
_symmetry_space_group_name_H-M   'P 1'
_cell_length_a   4.27044578
_cell_length_b   4.32244723
_cell_length_c   8.75669935
_cell_angle_alpha   104.28870728
_cell_angle_beta   90.00000000
_cell_angle_gamma   90.00000000
_symmetry_Int_Tables_number   1
_chemical_formula_structural   LaNiGe2
_chemical_formula_sum   'La2 Ni2 Ge4'
_cell_volume   156.63758853
_cell_formula_units_Z   2
loop_
 _symmetry_equiv_pos_site_id
 _symmetry_equiv_pos_as_xyz
  1  'x, y, z'
loop_
 _atom_site_type_symbol
 _atom_site_label
 _atom_site_symmetry_multiplicity
 _atom_site_fract_x
 _atom_site_fract_y
 _atom_site_fract_z
 _atom_site_occupancy
  Ni  Ni0  1  0.75000000  0.18203837  0.36407673  1
  Ni  Ni1  1  0.25000000  0.81796163  0.63592327  1
  Ge  Ge2  1  0.25000000  0.24978177  0.49956355  1
  Ge  Ge3  1  0.75000000  0.75021823  0.50043645  1
  Ge  Ge4  1  0.75000000  0.04297575  0.08595151  1
  Ge  Ge5  1  0.25000000  0.95702425  0.91404849  1
  La  La6  1  0.25000000  0.60905242  0.21810483  1
  La  La7  1  0.75000000  0.39094758  0.78189517  1
