# generated using pymatgen
data_CeNiSn
_symmetry_space_group_name_H-M   'P 1'
_cell_length_a   4.58394530
_cell_length_b   7.40497125
_cell_length_c   7.55804608
_cell_angle_alpha   90.00000000
_cell_angle_beta   90.00000000
_cell_angle_gamma   90.00000000
_symmetry_Int_Tables_number   1
_chemical_formula_structural   CeNiSn
_chemical_formula_sum   'Ce4 Ni4 Sn4'
_cell_volume   256.55018885
_cell_formula_units_Z   4
loop_
 _symmetry_equiv_pos_site_id
 _symmetry_equiv_pos_as_xyz
  1  'x, y, z'
loop_
 _atom_site_type_symbol
 _atom_site_label
 _atom_site_symmetry_multiplicity
 _atom_site_fract_x
 _atom_site_fract_y
 _atom_site_fract_z
 _atom_site_occupancy
  Ni  Ni0  1  0.75000000  0.29948812  0.57807353  1
  Ni  Ni1  1  0.25000000  0.20051188  0.07807353  1
  Ni  Ni2  1  0.75000000  0.79948812  0.92192647  1
  Ni  Ni3  1  0.25000000  0.70051188  0.42192647  1
  Sn  Sn4  1  0.25000000  0.31649870  0.40788746  1
  Sn  Sn5  1  0.75000000  0.18350130  0.90788746  1
  Sn  Sn6  1  0.25000000  0.81649870  0.09211254  1
  Sn  Sn7  1  0.75000000  0.68350130  0.59211254  1
  Ce  Ce8  1  0.25000000  0.47969728  0.80242607  1
  Ce  Ce9  1  0.75000000  0.52030272  0.19757393  1
  Ce  Ce10  1  0.25000000  0.97969728  0.69757393  1
  Ce  Ce11  1  0.75000000  0.02030272  0.30242607  1
