# generated using pymatgen
data_Sr2Cu2O5
_symmetry_space_group_name_H-M   'P 1'
_cell_length_a   3.75151600
_cell_length_b   5.54652976
_cell_length_c   11.03750519
_cell_angle_alpha   90.00000000
_cell_angle_beta   90.00000000
_cell_angle_gamma   90.00000000
_symmetry_Int_Tables_number   1
_chemical_formula_structural   Sr2Cu2O5
_chemical_formula_sum   'Sr4 Cu4 O10'
_cell_volume   229.66725059
_cell_formula_units_Z   2
loop_
 _symmetry_equiv_pos_site_id
 _symmetry_equiv_pos_as_xyz
  1  'x, y, z'
loop_
 _atom_site_type_symbol
 _atom_site_label
 _atom_site_symmetry_multiplicity
 _atom_site_fract_x
 _atom_site_fract_y
 _atom_site_fract_z
 _atom_site_occupancy
  O  O0  1  0.00000000  0.50000000  0.50000000  1
  O  O1  1  0.00000000  0.00000000  0.00000000  1
  O  O2  1  0.00000000  0.98248552  0.73076766  1
  O  O3  1  0.00000000  0.01751448  0.26923234  1
  O  O4  1  0.00000000  0.48248552  0.76923234  1
  O  O5  1  0.00000000  0.51751448  0.23076766  1
  O  O6  1  0.50000000  0.20711157  0.59623844  1
  O  O7  1  0.50000000  0.79288843  0.40376156  1
  O  O8  1  0.50000000  0.29288843  0.09623844  1
  O  O9  1  0.50000000  0.70711157  0.90376156  1
  Cu  Cu10  1  0.00000000  0.24220789  0.62255707  1
  Cu  Cu11  1  0.00000000  0.75779211  0.37744293  1
  Cu  Cu12  1  0.00000000  0.74220789  0.87744293  1
  Cu  Cu13  1  0.00000000  0.25779211  0.12255707  1
  Sr  Sr14  1  0.50000000  0.21304271  0.86503630  1
  Sr  Sr15  1  0.50000000  0.78695729  0.13496370  1
  Sr  Sr16  1  0.50000000  0.71304271  0.63496370  1
  Sr  Sr17  1  0.50000000  0.28695729  0.36503630  1
