# generated using pymatgen
data_LaThCN
_symmetry_space_group_name_H-M   'P 1'
_cell_length_a   3.78468879
_cell_length_b   3.78468879
_cell_length_c   6.53104677
_cell_angle_alpha   73.15725992
_cell_angle_beta   90.00000000
_cell_angle_gamma   120.00000000
_symmetry_Int_Tables_number   1
_chemical_formula_structural   LaThCN
_chemical_formula_sum   'La1 Th1 C1 N1'
_cell_volume   76.34765367
_cell_formula_units_Z   1
loop_
 _symmetry_equiv_pos_site_id
 _symmetry_equiv_pos_as_xyz
  1  'x, y, z'
loop_
 _atom_site_type_symbol
 _atom_site_label
 _atom_site_symmetry_multiplicity
 _atom_site_fract_x
 _atom_site_fract_y
 _atom_site_fract_z
 _atom_site_occupancy
  La  La0  1  0.00117226  0.00234452  0.99648321  1
  Th  Th1  1  0.50022127  0.00044253  0.49933620  1
  C  C2  1  0.24254402  0.48508805  0.27236793  1
  N  N3  1  0.75606245  0.51212489  0.73181266  1
