# generated using pymatgen
data_Ce3Ni2B2N3
_symmetry_space_group_name_H-M   'P 1'
_cell_length_a   3.57662787
_cell_length_b   3.57662786
_cell_length_c   10.42179770
_cell_angle_alpha   99.88048806
_cell_angle_beta   99.88048803
_cell_angle_gamma   90.00000000
_symmetry_Int_Tables_number   1
_chemical_formula_structural   Ce3Ni2B2N3
_chemical_formula_sum   'Ce3 Ni2 B2 N3'
_cell_volume   129.33338246
_cell_formula_units_Z   1
loop_
 _symmetry_equiv_pos_site_id
 _symmetry_equiv_pos_as_xyz
  1  'x, y, z'
loop_
 _atom_site_type_symbol
 _atom_site_label
 _atom_site_symmetry_multiplicity
 _atom_site_fract_x
 _atom_site_fract_y
 _atom_site_fract_z
 _atom_site_occupancy
  B  B0  1  0.80828500  0.80828500  0.61657000  1
  B  B1  1  0.19171500  0.19171500  0.38343000  1
  N  N2  1  0.88083592  0.88083592  0.76167185  1
  N  N3  1  0.50000000  0.50000000  0.00000000  1
  N  N4  1  0.11916408  0.11916408  0.23832815  1
  Ni  Ni5  1  0.25000000  0.75000000  0.50000000  1
  Ni  Ni6  1  0.75000000  0.25000000  0.50000000  1
  Ce  Ce7  1  0.62688407  0.62688407  0.25376813  1
  Ce  Ce8  1  0.37311593  0.37311593  0.74623187  1
  Ce  Ce9  1  0.00000000  0.00000000  0.00000000  1
