# generated using pymatgen
data_K(InAu2)2
_symmetry_space_group_name_H-M   'P 1'
_cell_length_a   7.57643208
_cell_length_b   7.57643208
_cell_length_c   7.57643208
_cell_angle_alpha   108.77212417
_cell_angle_beta   108.77212416
_cell_angle_gamma   110.87864748
_symmetry_Int_Tables_number   1
_chemical_formula_structural   K(InAu2)2
_chemical_formula_sum   'K2 In4 Au8'
_cell_volume   334.63794040
_cell_formula_units_Z   2
loop_
 _symmetry_equiv_pos_site_id
 _symmetry_equiv_pos_as_xyz
  1  'x, y, z'
loop_
 _atom_site_type_symbol
 _atom_site_label
 _atom_site_symmetry_multiplicity
 _atom_site_fract_x
 _atom_site_fract_y
 _atom_site_fract_z
 _atom_site_occupancy
  K  K0  1  0.75000000  0.75000000  0.00000000  1
  K  K1  1  0.25000000  0.25000000  0.00000000  1
  In  In2  1  0.35334273  0.85334273  0.20668547  1
  In  In3  1  0.85334273  0.64665727  0.50000000  1
  In  In4  1  0.14665727  0.35334273  0.50000000  1
  In  In5  1  0.64665727  0.14665727  0.79331453  1
  Au  Au6  1  0.51505456  0.31512512  0.50000000  1
  Au  Au7  1  0.31512512  0.81512512  0.80007057  1
  Au  Au8  1  0.81512512  0.01505456  0.50000000  1
  Au  Au9  1  0.01505456  0.51505456  0.19992943  1
  Au  Au10  1  0.68487488  0.18487488  0.19992943  1
  Au  Au11  1  0.18487488  0.98494544  0.50000000  1
  Au  Au12  1  0.48494544  0.68487488  0.50000000  1
  Au  Au13  1  0.98494544  0.48494544  0.80007057  1
