# generated using pymatgen
data_UPdSe3
_symmetry_space_group_name_H-M   'P 1'
_cell_length_a   6.43454899
_cell_length_b   7.77923343
_cell_length_c   8.82090711
_cell_angle_alpha   90.00000000
_cell_angle_beta   90.00000000
_cell_angle_gamma   90.00000000
_symmetry_Int_Tables_number   1
_chemical_formula_structural   UPdSe3
_chemical_formula_sum   'U4 Pd4 Se12'
_cell_volume   441.53807911
_cell_formula_units_Z   4
loop_
 _symmetry_equiv_pos_site_id
 _symmetry_equiv_pos_as_xyz
  1  'x, y, z'
loop_
 _atom_site_type_symbol
 _atom_site_label
 _atom_site_symmetry_multiplicity
 _atom_site_fract_x
 _atom_site_fract_y
 _atom_site_fract_z
 _atom_site_occupancy
  Se  Se0  1  0.33745061  0.83948518  0.94236359  1
  Se  Se1  1  0.16254939  0.33948518  0.94236359  1
  Se  Se2  1  0.66254939  0.16051482  0.05763641  1
  Se  Se3  1  0.33745061  0.83948518  0.55763641  1
  Se  Se4  1  0.18159720  0.06500169  0.25000000  1
  Se  Se5  1  0.68159720  0.43499831  0.75000000  1
  Se  Se6  1  0.31840280  0.56500169  0.25000000  1
  Se  Se7  1  0.81840280  0.93499831  0.75000000  1
  Se  Se8  1  0.16254939  0.33948518  0.55763641  1
  Se  Se9  1  0.66254939  0.16051482  0.44236359  1
  Se  Se10  1  0.83745061  0.66051482  0.05763641  1
  Se  Se11  1  0.83745061  0.66051482  0.44236359  1
  Pd  Pd12  1  0.00000000  0.00000000  0.00000000  1
  Pd  Pd13  1  0.00000000  0.00000000  0.50000000  1
  Pd  Pd14  1  0.50000000  0.50000000  0.50000000  1
  Pd  Pd15  1  0.50000000  0.50000000  0.00000000  1
  U  U16  1  0.93538823  0.36107286  0.25000000  1
  U  U17  1  0.43538823  0.13892714  0.75000000  1
  U  U18  1  0.56461177  0.86107286  0.25000000  1
  U  U19  1  0.06461177  0.63892714  0.75000000  1
