# generated using pymatgen
data_CeSi
_symmetry_space_group_name_H-M   'P 1'
_cell_length_a   3.89421407
_cell_length_b   5.84072856
_cell_length_c   8.16471242
_cell_angle_alpha   90.00000000
_cell_angle_beta   90.00000000
_cell_angle_gamma   90.00000000
_symmetry_Int_Tables_number   1
_chemical_formula_structural   CeSi
_chemical_formula_sum   'Ce4 Si4'
_cell_volume   185.70677049
_cell_formula_units_Z   4
loop_
 _symmetry_equiv_pos_site_id
 _symmetry_equiv_pos_as_xyz
  1  'x, y, z'
loop_
 _atom_site_type_symbol
 _atom_site_label
 _atom_site_symmetry_multiplicity
 _atom_site_fract_x
 _atom_site_fract_y
 _atom_site_fract_z
 _atom_site_occupancy
  Si  Si0  1  0.25000000  0.87789457  0.53434810  1
  Si  Si1  1  0.75000000  0.12210543  0.46565190  1
  Si  Si2  1  0.75000000  0.37789457  0.96565190  1
  Si  Si3  1  0.25000000  0.62210543  0.03434810  1
  Ce  Ce4  1  0.25000000  0.38387131  0.68093652  1
  Ce  Ce5  1  0.75000000  0.61612869  0.31906348  1
  Ce  Ce6  1  0.75000000  0.88387131  0.81906348  1
  Ce  Ce7  1  0.25000000  0.11612869  0.18093652  1
