# generated using pymatgen
data_ErGeIr
_symmetry_space_group_name_H-M   'P 1'
_cell_length_a   4.29707365
_cell_length_b   6.82896660
_cell_length_c   7.60653268
_cell_angle_alpha   90.00000000
_cell_angle_beta   90.00000000
_cell_angle_gamma   90.00000000
_symmetry_Int_Tables_number   1
_chemical_formula_structural   ErGeIr
_chemical_formula_sum   'Er4 Ge4 Ir4'
_cell_volume   223.21044920
_cell_formula_units_Z   4
loop_
 _symmetry_equiv_pos_site_id
 _symmetry_equiv_pos_as_xyz
  1  'x, y, z'
loop_
 _atom_site_type_symbol
 _atom_site_label
 _atom_site_symmetry_multiplicity
 _atom_site_fract_x
 _atom_site_fract_y
 _atom_site_fract_z
 _atom_site_occupancy
  Ge  Ge0  1  0.25000000  0.79016666  0.11197496  1
  Ge  Ge1  1  0.25000000  0.29016666  0.38802504  1
  Ge  Ge2  1  0.75000000  0.20983334  0.88802504  1
  Ge  Ge3  1  0.75000000  0.70983334  0.61197496  1
  Er  Er4  1  0.75000000  0.49458181  0.19179710  1
  Er  Er5  1  0.25000000  0.00541819  0.69179710  1
  Er  Er6  1  0.75000000  0.99458181  0.30820290  1
  Er  Er7  1  0.25000000  0.50541819  0.80820290  1
  Ir  Ir8  1  0.25000000  0.66163646  0.43601276  1
  Ir  Ir9  1  0.25000000  0.16163646  0.06398724  1
  Ir  Ir10  1  0.75000000  0.83836354  0.93601276  1
  Ir  Ir11  1  0.75000000  0.33836354  0.56398724  1
