# generated using pymatgen
data_Ca2PbO4
_symmetry_space_group_name_H-M   'P 1'
_cell_length_a   3.42656962
_cell_length_b   5.90108904
_cell_length_c   9.90764415
_cell_angle_alpha   90.00000000
_cell_angle_beta   90.00000000
_cell_angle_gamma   90.00000000
_symmetry_Int_Tables_number   1
_chemical_formula_structural   Ca2PbO4
_chemical_formula_sum   'Ca4 Pb2 O8'
_cell_volume   200.33744353
_cell_formula_units_Z   2
loop_
 _symmetry_equiv_pos_site_id
 _symmetry_equiv_pos_as_xyz
  1  'x, y, z'
loop_
 _atom_site_type_symbol
 _atom_site_label
 _atom_site_symmetry_multiplicity
 _atom_site_fract_x
 _atom_site_fract_y
 _atom_site_fract_z
 _atom_site_occupancy
  O  O0  1  0.00000000  0.14063256  0.79908269  1
  O  O1  1  0.00000000  0.85936744  0.20091731  1
  O  O2  1  0.00000000  0.64063256  0.70091731  1
  O  O3  1  0.00000000  0.35936744  0.29908269  1
  O  O4  1  0.50000000  0.25962623  0.54903895  1
  O  O5  1  0.50000000  0.74037377  0.45096105  1
  O  O6  1  0.50000000  0.24037377  0.04903895  1
  O  O7  1  0.50000000  0.75962623  0.95096105  1
  Ca  Ca8  1  0.50000000  0.42729146  0.81794661  1
  Ca  Ca9  1  0.50000000  0.57270854  0.18205339  1
  Ca  Ca10  1  0.50000000  0.92729146  0.68205339  1
  Ca  Ca11  1  0.50000000  0.07270854  0.31794661  1
  Pb  Pb12  1  0.00000000  0.50000000  0.50000000  1
  Pb  Pb13  1  0.00000000  0.00000000  0.00000000  1
