# generated using pymatgen
data_Ce2NiB10
_symmetry_space_group_name_H-M   'P 1'
_cell_length_a   4.16077594
_cell_length_b   5.60199191
_cell_length_c   11.14699313
_cell_angle_alpha   90.00000000
_cell_angle_beta   90.00000000
_cell_angle_gamma   90.00000000
_symmetry_Int_Tables_number   1
_chemical_formula_structural   Ce2NiB10
_chemical_formula_sum   'Ce4 Ni2 B20'
_cell_volume   259.82117365
_cell_formula_units_Z   2
loop_
 _symmetry_equiv_pos_site_id
 _symmetry_equiv_pos_as_xyz
  1  'x, y, z'
loop_
 _atom_site_type_symbol
 _atom_site_label
 _atom_site_symmetry_multiplicity
 _atom_site_fract_x
 _atom_site_fract_y
 _atom_site_fract_z
 _atom_site_occupancy
  B  B0  1  0.00000000  0.12523931  0.54072349  1
  B  B1  1  0.00000000  0.87476069  0.45927651  1
  B  B2  1  0.00000000  0.62523931  0.95927651  1
  B  B3  1  0.00000000  0.37476069  0.04072349  1
  B  B4  1  0.00000000  0.15588327  0.69775373  1
  B  B5  1  0.00000000  0.84411673  0.30224627  1
  B  B6  1  0.30126232  0.20080640  0.11400351  1
  B  B7  1  0.30126232  0.79919360  0.88599649  1
  B  B8  1  0.69873768  0.70080640  0.38599649  1
  B  B9  1  0.69873768  0.29919360  0.61400351  1
  B  B10  1  0.69873768  0.79919360  0.88599649  1
  B  B11  1  0.69873768  0.20080640  0.11400351  1
  B  B12  1  0.30126232  0.29919360  0.61400351  1
  B  B13  1  0.30126232  0.70080640  0.38599649  1
  B  B14  1  0.00000000  0.03229527  0.18759644  1
  B  B15  1  0.00000000  0.96770473  0.81240356  1
  B  B16  1  0.00000000  0.53229527  0.31240356  1
  B  B17  1  0.00000000  0.46770473  0.68759644  1
  B  B18  1  0.00000000  0.34411673  0.19775373  1
  B  B19  1  0.00000000  0.65588327  0.80224627  1
  Ni  Ni20  1  0.00000000  0.50000000  0.50000000  1
  Ni  Ni21  1  0.00000000  0.00000000  0.00000000  1
  Ce  Ce22  1  0.50000000  0.31199079  0.86211352  1
  Ce  Ce23  1  0.50000000  0.68800921  0.13788648  1
  Ce  Ce24  1  0.50000000  0.81199079  0.63788648  1
  Ce  Ce25  1  0.50000000  0.18800921  0.36211352  1
