# generated using pymatgen
data_TbCoGe
_symmetry_space_group_name_H-M   'P 1'
_cell_length_a   4.26130305
_cell_length_b   6.95269594
_cell_length_c   7.16638572
_cell_angle_alpha   90.00000000
_cell_angle_beta   90.00000000
_cell_angle_gamma   90.00000000
_symmetry_Int_Tables_number   1
_chemical_formula_structural   TbCoGe
_chemical_formula_sum   'Tb4 Co4 Ge4'
_cell_volume   212.32241121
_cell_formula_units_Z   4
loop_
 _symmetry_equiv_pos_site_id
 _symmetry_equiv_pos_as_xyz
  1  'x, y, z'
loop_
 _atom_site_type_symbol
 _atom_site_label
 _atom_site_symmetry_multiplicity
 _atom_site_fract_x
 _atom_site_fract_y
 _atom_site_fract_z
 _atom_site_occupancy
  Co  Co0  1  0.75000000  0.34614471  0.06874298  1
  Co  Co1  1  0.25000000  0.15385529  0.56874298  1
  Co  Co2  1  0.75000000  0.84614471  0.43125702  1
  Co  Co3  1  0.25000000  0.65385529  0.93125702  1
  Ge  Ge4  1  0.25000000  0.79993463  0.60080416  1
  Ge  Ge5  1  0.75000000  0.70006537  0.10080416  1
  Ge  Ge6  1  0.25000000  0.29993463  0.89919584  1
  Ge  Ge7  1  0.75000000  0.20006537  0.39919584  1
  Tb  Tb8  1  0.25000000  0.48695807  0.30404047  1
  Tb  Tb9  1  0.75000000  0.51304193  0.69595953  1
  Tb  Tb10  1  0.25000000  0.98695807  0.19595953  1
  Tb  Tb11  1  0.75000000  0.01304193  0.80404047  1
