# generated using pymatgen
data_SrCaPb
_symmetry_space_group_name_H-M   'P 1'
_cell_length_a   5.23426627
_cell_length_b   8.53212830
_cell_length_c   9.79099585
_cell_angle_alpha   90.00000000
_cell_angle_beta   90.00000000
_cell_angle_gamma   90.00000000
_symmetry_Int_Tables_number   1
_chemical_formula_structural   SrCaPb
_chemical_formula_sum   'Sr4 Ca4 Pb4'
_cell_volume   437.26030723
_cell_formula_units_Z   4
loop_
 _symmetry_equiv_pos_site_id
 _symmetry_equiv_pos_as_xyz
  1  'x, y, z'
loop_
 _atom_site_type_symbol
 _atom_site_label
 _atom_site_symmetry_multiplicity
 _atom_site_fract_x
 _atom_site_fract_y
 _atom_site_fract_z
 _atom_site_occupancy
  Ca  Ca0  1  0.75000000  0.85117023  0.93080639  1
  Ca  Ca1  1  0.25000000  0.14882977  0.06919361  1
  Ca  Ca2  1  0.75000000  0.35117023  0.56919361  1
  Ca  Ca3  1  0.25000000  0.64882977  0.43080639  1
  Sr  Sr4  1  0.75000000  0.97827254  0.31887735  1
  Sr  Sr5  1  0.25000000  0.02172746  0.68112265  1
  Sr  Sr6  1  0.75000000  0.47827254  0.18112265  1
  Sr  Sr7  1  0.25000000  0.52172746  0.81887735  1
  Pb  Pb8  1  0.75000000  0.73740284  0.61118655  1
  Pb  Pb9  1  0.25000000  0.26259716  0.38881345  1
  Pb  Pb10  1  0.75000000  0.23740284  0.88881345  1
  Pb  Pb11  1  0.25000000  0.76259716  0.11118655  1
