# generated using pymatgen
data_Mn2FeSbO6
_symmetry_space_group_name_H-M   'P 1'
_cell_length_a   5.24942299
_cell_length_b   5.24942221
_cell_length_c   5.71184481
_cell_angle_alpha   62.64381454
_cell_angle_beta   117.35618693
_cell_angle_gamma   119.99999500
_symmetry_Int_Tables_number   1
_chemical_formula_structural   Mn2FeSbO6
_chemical_formula_sum   'Mn2 Fe1 Sb1 O6'
_cell_volume   115.53928651
_cell_formula_units_Z   1
loop_
 _symmetry_equiv_pos_site_id
 _symmetry_equiv_pos_as_xyz
  1  'x, y, z'
loop_
 _atom_site_type_symbol
 _atom_site_label
 _atom_site_symmetry_multiplicity
 _atom_site_fract_x
 _atom_site_fract_y
 _atom_site_fract_z
 _atom_site_occupancy
  Mn  Mn0  1  0.86328964  0.13671036  0.58986892  1
  Mn  Mn1  1  0.13606626  0.86393374  0.40819877  1
  Fe  Fe2  1  0.65732482  0.34267518  0.97197447  1
  Sb  Sb3  1  0.34324218  0.65675782  0.02972653  1
  O  O4  1  0.45463473  0.27835097  0.22948777  1
  O  O5  1  0.05320402  0.54536527  0.22948777  1
  O  O6  1  0.72164903  0.94679598  0.22948777  1
  O  O7  1  0.54792759  0.71519877  0.77058933  1
  O  O8  1  0.93786052  0.45207241  0.77058933  1
  O  O9  1  0.28480123  0.06213948  0.77058933  1
