# generated using pymatgen
data_K3NaS2
_symmetry_space_group_name_H-M   'P 1'
_cell_length_a   5.09454138
_cell_length_b   5.09470847
_cell_length_c   7.37288779
_cell_angle_alpha   90.00000000
_cell_angle_beta   90.00000000
_cell_angle_gamma   59.99891500
_symmetry_Int_Tables_number   1
_chemical_formula_structural   K3NaS2
_chemical_formula_sum   'K3 Na1 S2'
_cell_volume   165.72496647
_cell_formula_units_Z   1
loop_
 _symmetry_equiv_pos_site_id
 _symmetry_equiv_pos_as_xyz
  1  'x, y, z'
loop_
 _atom_site_type_symbol
 _atom_site_label
 _atom_site_symmetry_multiplicity
 _atom_site_fract_x
 _atom_site_fract_y
 _atom_site_fract_z
 _atom_site_occupancy
  K  K0  1  0.00000628  -0.00000314  0.50229745  1
  K  K1  1  0.00000628  -0.00000314  0.99770255  1
  K  K2  1  0.33332187  0.33333907  0.25000000  1
  Na  Na3  1  0.66661695  0.66669153  0.75000000  1
  S  S4  1  0.33336520  0.33331740  0.75000000  1
  S  S5  1  0.66668342  0.66665829  0.25000000  1
