# generated using pymatgen
data_U2Co3Si5
_symmetry_space_group_name_H-M   'P 1'
_cell_length_a   5.57548692
_cell_length_b   7.82942983
_cell_length_c   7.82942983
_cell_angle_alpha   75.62745209
_cell_angle_beta   69.14160268
_cell_angle_gamma   69.14160273
_symmetry_Int_Tables_number   1
_chemical_formula_structural   U2Co3Si5
_chemical_formula_sum   'U4 Co6 Si10'
_cell_volume   295.54666661
_cell_formula_units_Z   2
loop_
 _symmetry_equiv_pos_site_id
 _symmetry_equiv_pos_as_xyz
  1  'x, y, z'
loop_
 _atom_site_type_symbol
 _atom_site_label
 _atom_site_symmetry_multiplicity
 _atom_site_fract_x
 _atom_site_fract_y
 _atom_site_fract_z
 _atom_site_occupancy
  Si  Si0  1  0.10252622  0.74412303  0.05082454  1
  Si  Si1  1  0.89747378  0.25587697  0.94917546  1
  Si  Si2  1  0.39747378  0.94917546  0.25587697  1
  Si  Si3  1  0.60252622  0.05082454  0.74412303  1
  Si  Si4  1  0.02106446  0.22893554  0.22893554  1
  Si  Si5  1  0.47893554  0.77106446  0.77106446  1
  Si  Si6  1  0.97893554  0.77106446  0.77106446  1
  Si  Si7  1  0.75000000  0.50000000  0.50000000  1
  Si  Si8  1  0.25000000  0.50000000  0.50000000  1
  Si  Si9  1  0.52106446  0.22893554  0.22893554  1
  Co  Co10  1  0.75000000  0.00000000  0.00000000  1
  Co  Co11  1  0.86132836  0.52396107  0.75338222  1
  Co  Co12  1  0.36132836  0.75338222  0.52396107  1
  Co  Co13  1  0.63867164  0.24661778  0.47603893  1
  Co  Co14  1  0.25000000  0.00000000  0.00000000  1
  Co  Co15  1  0.13867164  0.47603893  0.24661778  1
  U  U16  1  0.36554591  0.40090246  0.86800573  1
  U  U17  1  0.63445409  0.59909754  0.13199427  1
  U  U18  1  0.13445409  0.13199427  0.59909754  1
  U  U19  1  0.86554591  0.86800573  0.40090246  1
