# generated using pymatgen
data_PuGa2
_symmetry_space_group_name_H-M   'P 1'
_cell_length_a   4.62274195
_cell_length_b   4.62311360
_cell_length_c   3.37588813
_cell_angle_alpha   90.00169420
_cell_angle_beta   89.99874675
_cell_angle_gamma   120.02803612
_symmetry_Int_Tables_number   1
_chemical_formula_structural   PuGa2
_chemical_formula_sum   'Pu1 Ga2'
_cell_volume   62.46404897
_cell_formula_units_Z   1
loop_
 _symmetry_equiv_pos_site_id
 _symmetry_equiv_pos_as_xyz
  1  'x, y, z'
loop_
 _atom_site_type_symbol
 _atom_site_label
 _atom_site_symmetry_multiplicity
 _atom_site_fract_x
 _atom_site_fract_y
 _atom_site_fract_z
 _atom_site_occupancy
  Pu  Pu0  1  0.00000094  0.00000048  0.00000060  1
  Ga  Ga1  1  0.33329660  0.66670881  0.49999428  1
  Ga  Ga2  1  0.66670246  0.33329371  0.50000712  1
