# generated using pymatgen
data_Ba(InTe2)2
_symmetry_space_group_name_H-M   'P 1'
_cell_length_a   7.15422120
_cell_length_b   7.15422120
_cell_length_c   12.42511821
_cell_angle_alpha   90.00000000
_cell_angle_beta   90.00000000
_cell_angle_gamma   119.11921451
_symmetry_Int_Tables_number   1
_chemical_formula_structural   Ba(InTe2)2
_chemical_formula_sum   'Ba2 In4 Te8'
_cell_volume   555.57461614
_cell_formula_units_Z   2
loop_
 _symmetry_equiv_pos_site_id
 _symmetry_equiv_pos_as_xyz
  1  'x, y, z'
loop_
 _atom_site_type_symbol
 _atom_site_label
 _atom_site_symmetry_multiplicity
 _atom_site_fract_x
 _atom_site_fract_y
 _atom_site_fract_z
 _atom_site_occupancy
  In  In0  1  0.24035013  0.76219659  0.50000000  1
  In  In1  1  0.75964987  0.23780341  0.50000000  1
  In  In2  1  0.23780341  0.75964987  0.00000000  1
  In  In3  1  0.76219659  0.24035013  0.00000000  1
  Te  Te4  1  0.50000000  0.00000000  0.32251820  1
  Te  Te5  1  0.00000000  0.50000000  0.17748180  1
  Te  Te6  1  0.65883766  0.80442463  0.00000000  1
  Te  Te7  1  0.34116234  0.19557537  0.00000000  1
  Te  Te8  1  0.80442463  0.65883766  0.50000000  1
  Te  Te9  1  0.19557537  0.34116234  0.50000000  1
  Te  Te10  1  0.50000000  0.00000000  0.67748180  1
  Te  Te11  1  0.00000000  0.50000000  0.82251820  1
  Ba  Ba12  1  0.50000000  0.50000000  0.25000000  1
  Ba  Ba13  1  0.50000000  0.50000000  0.75000000  1
