# generated using pymatgen
data_TbCoSi
_symmetry_space_group_name_H-M   'P 1'
_cell_length_a   3.98958272
_cell_length_b   3.98958272
_cell_length_c   6.66585928
_cell_angle_alpha   90.00000000
_cell_angle_beta   90.00000000
_cell_angle_gamma   90.00000000
_symmetry_Int_Tables_number   1
_chemical_formula_structural   TbCoSi
_chemical_formula_sum   'Tb2 Co2 Si2'
_cell_volume   106.09895088
_cell_formula_units_Z   2
loop_
 _symmetry_equiv_pos_site_id
 _symmetry_equiv_pos_as_xyz
  1  'x, y, z'
loop_
 _atom_site_type_symbol
 _atom_site_label
 _atom_site_symmetry_multiplicity
 _atom_site_fract_x
 _atom_site_fract_y
 _atom_site_fract_z
 _atom_site_occupancy
  Si  Si0  1  0.75000000  0.75000000  0.81526639  1
  Si  Si1  1  0.25000000  0.25000000  0.18473361  1
  Co  Co2  1  0.75000000  0.25000000  0.00000000  1
  Co  Co3  1  0.25000000  0.75000000  0.00000000  1
  Tb  Tb4  1  0.25000000  0.25000000  0.68273057  1
  Tb  Tb5  1  0.75000000  0.75000000  0.31726943  1
