# generated using pymatgen
data_YbIn2Ni
_symmetry_space_group_name_H-M   'P 1'
_cell_length_a   4.35886418
_cell_length_b   5.51564219
_cell_length_c   7.71294183
_cell_angle_alpha   90.00000000
_cell_angle_beta   90.00000000
_cell_angle_gamma   113.27449360
_symmetry_Int_Tables_number   1
_chemical_formula_structural   YbIn2Ni
_chemical_formula_sum   'Yb2 In4 Ni2'
_cell_volume   170.34386514
_cell_formula_units_Z   2
loop_
 _symmetry_equiv_pos_site_id
 _symmetry_equiv_pos_as_xyz
  1  'x, y, z'
loop_
 _atom_site_type_symbol
 _atom_site_label
 _atom_site_symmetry_multiplicity
 _atom_site_fract_x
 _atom_site_fract_y
 _atom_site_fract_z
 _atom_site_occupancy
  Ni  Ni0  1  0.78162361  0.56324722  0.75000000  1
  Ni  Ni1  1  0.21837639  0.43675278  0.25000000  1
  In  In2  1  0.35133295  0.70266590  0.55243973  1
  In  In3  1  0.64866705  0.29733410  0.44756027  1
  In  In4  1  0.35133295  0.70266590  0.94756027  1
  In  In5  1  0.64866705  0.29733410  0.05243973  1
  Yb  Yb6  1  0.93817504  0.87635007  0.25000000  1
  Yb  Yb7  1  0.06182496  0.12364993  0.75000000  1
