# generated using pymatgen
data_Sm(GeRu)2
_symmetry_space_group_name_H-M   'P 1'
_cell_length_a   4.28654342
_cell_length_b   4.28654342
_cell_length_c   5.85428493
_cell_angle_alpha   111.47548354
_cell_angle_beta   111.47548353
_cell_angle_gamma   90.00000003
_symmetry_Int_Tables_number   1
_chemical_formula_structural   Sm(GeRu)2
_chemical_formula_sum   'Sm1 Ge2 Ru2'
_cell_volume   92.02910202
_cell_formula_units_Z   1
loop_
 _symmetry_equiv_pos_site_id
 _symmetry_equiv_pos_as_xyz
  1  'x, y, z'
loop_
 _atom_site_type_symbol
 _atom_site_label
 _atom_site_symmetry_multiplicity
 _atom_site_fract_x
 _atom_site_fract_y
 _atom_site_fract_z
 _atom_site_occupancy
  Ge  Ge0  1  0.63168455  0.63168455  0.26336909  1
  Ge  Ge1  1  0.36831545  0.36831545  0.73663091  1
  Ru  Ru2  1  0.75000000  0.25000000  0.50000000  1
  Ru  Ru3  1  0.25000000  0.75000000  0.50000000  1
  Sm  Sm4  1  0.00000000  0.00000000  0.00000000  1
