# generated using pymatgen
data_GdCoB4
_symmetry_space_group_name_H-M   'P 1'
_cell_length_a   3.40410281
_cell_length_b   5.92231767
_cell_length_c   11.47760733
_cell_angle_alpha   90.00000000
_cell_angle_beta   90.00000000
_cell_angle_gamma   90.00000000
_symmetry_Int_Tables_number   1
_chemical_formula_structural   GdCoB4
_chemical_formula_sum   'Gd4 Co4 B16'
_cell_volume   231.39060934
_cell_formula_units_Z   4
loop_
 _symmetry_equiv_pos_site_id
 _symmetry_equiv_pos_as_xyz
  1  'x, y, z'
loop_
 _atom_site_type_symbol
 _atom_site_label
 _atom_site_symmetry_multiplicity
 _atom_site_fract_x
 _atom_site_fract_y
 _atom_site_fract_z
 _atom_site_occupancy
  B  B0  1  0.50000000  0.02187906  0.68983742  1
  B  B1  1  0.50000000  0.97812094  0.31016258  1
  B  B2  1  0.50000000  0.52187906  0.81016258  1
  B  B3  1  0.50000000  0.47812094  0.18983742  1
  B  B4  1  0.50000000  0.11100592  0.54581966  1
  B  B5  1  0.50000000  0.88899408  0.45418034  1
  B  B6  1  0.50000000  0.61100592  0.95418034  1
  B  B7  1  0.50000000  0.38899408  0.04581966  1
  B  B8  1  0.50000000  0.28141593  0.31606319  1
  B  B9  1  0.50000000  0.71858407  0.68393681  1
  B  B10  1  0.50000000  0.78141593  0.18393681  1
  B  B11  1  0.50000000  0.21858407  0.81606319  1
  B  B12  1  0.50000000  0.36000782  0.46715523  1
  B  B13  1  0.50000000  0.63999218  0.53284477  1
  B  B14  1  0.50000000  0.86000782  0.03284477  1
  B  B15  1  0.50000000  0.13999218  0.96715523  1
  Co  Co16  1  0.00000000  0.36543607  0.91109582  1
  Co  Co17  1  0.00000000  0.63456393  0.08890418  1
  Co  Co18  1  0.00000000  0.86543607  0.58890418  1
  Co  Co19  1  0.00000000  0.13456393  0.41109582  1
  Gd  Gd20  1  0.00000000  0.37248635  0.65013488  1
  Gd  Gd21  1  0.00000000  0.62751365  0.34986512  1
  Gd  Gd22  1  0.00000000  0.87248635  0.84986512  1
  Gd  Gd23  1  0.00000000  0.12751365  0.15013488  1
