# generated using pymatgen
data_In(GaO2)3
_symmetry_space_group_name_H-M   'P 1'
_cell_length_a   3.16791530
_cell_length_b   6.12931460
_cell_length_c   6.50298334
_cell_angle_alpha   104.54339367
_cell_angle_beta   75.90241908
_cell_angle_gamma   89.99999991
_symmetry_Int_Tables_number   1
_chemical_formula_structural   In(GaO2)3
_chemical_formula_sum   'In1 Ga3 O6'
_cell_volume   118.29049526
_cell_formula_units_Z   1
loop_
 _symmetry_equiv_pos_site_id
 _symmetry_equiv_pos_as_xyz
  1  'x, y, z'
loop_
 _atom_site_type_symbol
 _atom_site_label
 _atom_site_symmetry_multiplicity
 _atom_site_fract_x
 _atom_site_fract_y
 _atom_site_fract_z
 _atom_site_occupancy
  In  In0  1  0.09538126  0.20330540  0.80923749  1
  Ga  Ga1  1  0.90806274  0.79456314  0.18387452  1
  Ga  Ga2  1  0.66126761  0.68419174  0.67746478  1
  Ga  Ga3  1  0.33975671  0.31580564  0.32048658  1
  O  O4  1  0.17952812  0.44902992  0.64094375  1
  O  O5  1  0.82766047  0.56728010  0.34467906  1
  O  O6  1  0.16702446  0.86795860  0.66595109  1
  O  O7  1  0.83419628  0.10892362  0.33160744  1
  O  O8  1  0.49481977  0.74435909  0.01036045  1
  O  O9  1  0.49230258  0.26458276  0.01539483  1
