# generated using pymatgen
data_ThSi
_symmetry_space_group_name_H-M   'P 1'
_cell_length_a   4.11439065
_cell_length_b   5.90593323
_cell_length_c   7.99088182
_cell_angle_alpha   90.00000000
_cell_angle_beta   90.00000000
_cell_angle_gamma   90.00000000
_symmetry_Int_Tables_number   1
_chemical_formula_structural   ThSi
_chemical_formula_sum   'Th4 Si4'
_cell_volume   194.17296615
_cell_formula_units_Z   4
loop_
 _symmetry_equiv_pos_site_id
 _symmetry_equiv_pos_as_xyz
  1  'x, y, z'
loop_
 _atom_site_type_symbol
 _atom_site_label
 _atom_site_symmetry_multiplicity
 _atom_site_fract_x
 _atom_site_fract_y
 _atom_site_fract_z
 _atom_site_occupancy
  Si  Si0  1  0.25000000  0.62574741  0.03763743  1
  Si  Si1  1  0.75000000  0.37425259  0.96236257  1
  Si  Si2  1  0.75000000  0.12574741  0.46236257  1
  Si  Si3  1  0.25000000  0.87425259  0.53763743  1
  Th  Th4  1  0.25000000  0.12304409  0.17986993  1
  Th  Th5  1  0.75000000  0.87695591  0.82013007  1
  Th  Th6  1  0.75000000  0.62304409  0.32013007  1
  Th  Th7  1  0.25000000  0.37695591  0.67986993  1
