# generated using pymatgen
data_Eu(PIr)2
_symmetry_space_group_name_H-M   'P 1'
_cell_length_a   6.72474764
_cell_length_b   6.72474764
_cell_length_c   7.11882462
_cell_angle_alpha   90.00000000
_cell_angle_beta   90.00000000
_cell_angle_gamma   120.00000000
_symmetry_Int_Tables_number   1
_chemical_formula_structural   Eu(PIr)2
_chemical_formula_sum   'Eu3 P6 Ir6'
_cell_volume   278.79880491
_cell_formula_units_Z   3
loop_
 _symmetry_equiv_pos_site_id
 _symmetry_equiv_pos_as_xyz
  1  'x, y, z'
loop_
 _atom_site_type_symbol
 _atom_site_label
 _atom_site_symmetry_multiplicity
 _atom_site_fract_x
 _atom_site_fract_y
 _atom_site_fract_z
 _atom_site_occupancy
  P  P0  1  0.88227660  0.22190230  0.54351880  1
  P  P1  1  0.22190230  0.88227660  0.45648120  1
  P  P2  1  0.11772340  0.33962570  0.12314786  1
  P  P3  1  0.77809770  0.66037430  0.21018547  1
  P  P4  1  0.33962570  0.11772340  0.87685214  1
  P  P5  1  0.66037430  0.77809770  0.78981453  1
  Eu  Eu6  1  0.39567799  0.39567799  0.50000000  1
  Eu  Eu7  1  0.60432201  0.00000000  0.16666667  1
  Eu  Eu8  1  0.00000000  0.60432201  0.83333333  1
  Ir  Ir9  1  0.86872010  0.86872010  0.50000000  1
  Ir  Ir10  1  0.13127990  0.00000000  0.16666667  1
  Ir  Ir11  1  0.48656140  0.48656140  0.00000000  1
  Ir  Ir12  1  0.00000000  0.51343860  0.33333333  1
  Ir  Ir13  1  0.51343860  0.00000000  0.66666667  1
  Ir  Ir14  1  0.00000000  0.13127990  0.83333333  1
