# generated using pymatgen
data_Gd(SiAu)2
_symmetry_space_group_name_H-M   'P 1'
_cell_length_a   4.30014825
_cell_length_b   4.30014826
_cell_length_c   5.95201642
_cell_angle_alpha   111.17603488
_cell_angle_beta   111.17603498
_cell_angle_gamma   90.00000002
_symmetry_Int_Tables_number   1
_chemical_formula_structural   Gd(SiAu)2
_chemical_formula_sum   'Gd1 Si2 Au2'
_cell_volume   94.61474600
_cell_formula_units_Z   1
loop_
 _symmetry_equiv_pos_site_id
 _symmetry_equiv_pos_as_xyz
  1  'x, y, z'
loop_
 _atom_site_type_symbol
 _atom_site_label
 _atom_site_symmetry_multiplicity
 _atom_site_fract_x
 _atom_site_fract_y
 _atom_site_fract_z
 _atom_site_occupancy
  Si  Si0  1  0.61261713  0.61261713  0.22523426  1
  Si  Si1  1  0.38738287  0.38738287  0.77476574  1
  Gd  Gd2  1  0.00000000  0.00000000  0.00000000  1
  Au  Au3  1  0.25000000  0.75000000  0.50000000  1
  Au  Au4  1  0.75000000  0.25000000  0.50000000  1
