# generated using pymatgen
data_Cr2CuTe4
_symmetry_space_group_name_H-M   'P 1'
_cell_length_a   7.91707580
_cell_length_b   7.91707581
_cell_length_c   7.91707581
_cell_angle_alpha   60.00000003
_cell_angle_beta   60.00000001
_cell_angle_gamma   60.00000005
_symmetry_Int_Tables_number   1
_chemical_formula_structural   Cr2CuTe4
_chemical_formula_sum   'Cr4 Cu2 Te8'
_cell_volume   350.89680389
_cell_formula_units_Z   2
loop_
 _symmetry_equiv_pos_site_id
 _symmetry_equiv_pos_as_xyz
  1  'x, y, z'
loop_
 _atom_site_type_symbol
 _atom_site_label
 _atom_site_symmetry_multiplicity
 _atom_site_fract_x
 _atom_site_fract_y
 _atom_site_fract_z
 _atom_site_occupancy
  Cr  Cr0  1  0.50000000  0.50000000  0.50000000  1
  Cr  Cr1  1  0.50000000  0.50000000  0.00000000  1
  Cr  Cr2  1  0.00000000  0.50000000  0.50000000  1
  Cr  Cr3  1  0.50000000  0.00000000  0.50000000  1
  Cu  Cu4  1  0.87500000  0.87500000  0.87500000  1
  Cu  Cu5  1  0.12500000  0.12500000  0.12500000  1
  Te  Te6  1  0.25713610  0.25713610  0.25713610  1
  Te  Te7  1  0.74286390  0.74286390  0.27140831  1
  Te  Te8  1  0.27140831  0.74286390  0.74286390  1
  Te  Te9  1  0.74286390  0.27140831  0.74286390  1
  Te  Te10  1  0.72859169  0.25713610  0.25713610  1
  Te  Te11  1  0.25713610  0.72859169  0.25713610  1
  Te  Te12  1  0.25713610  0.25713610  0.72859169  1
  Te  Te13  1  0.74286390  0.74286390  0.74286390  1
