# generated using pymatgen
data_Dy2(Ga3Ru)3
_symmetry_space_group_name_H-M   'P 1'
_cell_length_a   7.47974184
_cell_length_b   7.47974184
_cell_length_c   9.72756648
_cell_angle_alpha   90.00000000
_cell_angle_beta   90.00000000
_cell_angle_gamma   119.04164391
_symmetry_Int_Tables_number   1
_chemical_formula_structural   Dy2(Ga3Ru)3
_chemical_formula_sum   'Dy4 Ga18 Ru6'
_cell_volume   475.79685038
_cell_formula_units_Z   2
loop_
 _symmetry_equiv_pos_site_id
 _symmetry_equiv_pos_as_xyz
  1  'x, y, z'
loop_
 _atom_site_type_symbol
 _atom_site_label
 _atom_site_symmetry_multiplicity
 _atom_site_fract_x
 _atom_site_fract_y
 _atom_site_fract_z
 _atom_site_occupancy
  Ga  Ga0  1  0.86673478  0.86673478  0.75000000  1
  Ga  Ga1  1  0.13326522  0.13326522  0.25000000  1
  Ga  Ga2  1  0.66232040  0.66232040  0.43866526  1
  Ga  Ga3  1  0.33767960  0.33767960  0.93866526  1
  Ga  Ga4  1  0.66232040  0.66232040  0.06133474  1
  Ga  Ga5  1  0.33767960  0.33767960  0.56133474  1
  Ga  Ga6  1  0.65976899  0.44443262  0.75000000  1
  Ga  Ga7  1  0.34023101  0.55556738  0.25000000  1
  Ga  Ga8  1  0.44443262  0.65976899  0.75000000  1
  Ga  Ga9  1  0.55556738  0.34023101  0.25000000  1
  Ga  Ga10  1  0.33819340  0.00941466  0.07726643  1
  Ga  Ga11  1  0.66180660  0.99058534  0.57726643  1
  Ga  Ga12  1  0.00941466  0.33819340  0.42273357  1
  Ga  Ga13  1  0.99058534  0.66180660  0.92273357  1
  Ga  Ga14  1  0.66180660  0.99058534  0.92273357  1
  Ga  Ga15  1  0.33819340  0.00941466  0.42273357  1
  Ga  Ga16  1  0.99058534  0.66180660  0.57726643  1
  Ga  Ga17  1  0.00941466  0.33819340  0.07726643  1
  Ru  Ru18  1  0.00000000  0.00000000  0.50000000  1
  Ru  Ru19  1  0.00000000  0.00000000  0.00000000  1
  Ru  Ru20  1  0.32368025  0.67631975  0.50000000  1
  Ru  Ru21  1  0.67631975  0.32368025  0.00000000  1
  Ru  Ru22  1  0.67631975  0.32368025  0.50000000  1
  Ru  Ru23  1  0.32368025  0.67631975  0.00000000  1
  Dy  Dy24  1  0.00216736  0.32428352  0.75000000  1
  Dy  Dy25  1  0.99783264  0.67571648  0.25000000  1
  Dy  Dy26  1  0.32428352  0.00216736  0.75000000  1
  Dy  Dy27  1  0.67571648  0.99783264  0.25000000  1
