# generated using pymatgen
data_Nb3FeS6
_symmetry_space_group_name_H-M   'P 1'
_cell_length_a   5.77896831
_cell_length_b   5.77894671
_cell_length_c   11.64937005
_cell_angle_alpha   89.99977425
_cell_angle_beta   90.00000001
_cell_angle_gamma   120.00011570
_symmetry_Int_Tables_number   1
_chemical_formula_structural   Nb3FeS6
_chemical_formula_sum   'Nb6 Fe2 S12'
_cell_volume   336.92370558
_cell_formula_units_Z   2
loop_
 _symmetry_equiv_pos_site_id
 _symmetry_equiv_pos_as_xyz
  1  'x, y, z'
loop_
 _atom_site_type_symbol
 _atom_site_label
 _atom_site_symmetry_multiplicity
 _atom_site_fract_x
 _atom_site_fract_y
 _atom_site_fract_z
 _atom_site_occupancy
  Nb  Nb0  1  0.99999507  1.00000000  0.50000000  1
  Nb  Nb1  1  0.00001618  0.00000000  0.00000000  1
  Nb  Nb2  1  0.66668300  0.33334086  0.00514176  1
  Nb  Nb3  1  0.33334214  0.66665914  0.99485824  1
  Nb  Nb4  1  0.33332415  0.66666093  0.50514427  1
  Nb  Nb5  1  0.66666322  0.33333907  0.49485573  1
  Fe  Fe6  1  0.66666652  0.33333368  0.75000453  1
  Fe  Fe7  1  0.33333284  0.66666632  0.24999547  1
  S  S8  1  0.66893016  0.00796618  0.63591630  1
  S  S9  1  0.33902580  0.33104893  0.63592068  1
  S  S10  1  0.99202320  0.66096146  0.63591869  1
  S  S11  1  0.66096398  0.99203382  0.36408370  1
  S  S12  1  0.00797687  0.66895107  0.36407932  1
  S  S13  1  0.33106174  0.33903854  0.36408131  1
  S  S14  1  0.33108459  0.99203122  0.13591562  1
  S  S15  1  0.66098585  0.66894311  0.13591632  1
  S  S16  1  0.00797799  0.33902740  0.13592050  1
  S  S17  1  0.33905337  0.00796878  0.86408438  1
  S  S18  1  0.99204273  0.33105689  0.86408368  1
  S  S19  1  0.66895059  0.66097260  0.86407950  1
