# generated using pymatgen
data_Ho2Si3
_symmetry_space_group_name_H-M   'P 1'
_cell_length_a   3.97289647
_cell_length_b   3.88153674
_cell_length_c   7.37046723
_cell_angle_alpha   74.73303209
_cell_angle_beta   74.36461762
_cell_angle_gamma   90.00000000
_symmetry_Int_Tables_number   1
_chemical_formula_structural   Ho2Si3
_chemical_formula_sum   'Ho2 Si3'
_cell_volume   105.28250713
_cell_formula_units_Z   1
loop_
 _symmetry_equiv_pos_site_id
 _symmetry_equiv_pos_as_xyz
  1  'x, y, z'
loop_
 _atom_site_type_symbol
 _atom_site_label
 _atom_site_symmetry_multiplicity
 _atom_site_fract_x
 _atom_site_fract_y
 _atom_site_fract_z
 _atom_site_occupancy
  Ho  Ho0  1  0.87255187  0.62255187  0.75489626  1
  Ho  Ho1  1  0.11775729  0.36775729  0.26448541  1
  Si  Si2  1  0.71391138  0.96391138  0.07217724  1
  Si  Si3  1  0.44233705  0.19233705  0.61532590  1
  Si  Si4  1  0.54344240  0.79344240  0.41311519  1
