# generated using pymatgen
data_KInP2S7
_symmetry_space_group_name_H-M   'P 1'
_cell_length_a   6.52557169
_cell_length_b   6.75797002
_cell_length_c   6.75797003
_cell_angle_alpha   97.82258150
_cell_angle_beta   95.87754743
_cell_angle_gamma   95.87754746
_symmetry_Int_Tables_number   1
_chemical_formula_structural   KInP2S7
_chemical_formula_sum   'K1 In1 P2 S7'
_cell_volume   291.64466857
_cell_formula_units_Z   1
loop_
 _symmetry_equiv_pos_site_id
 _symmetry_equiv_pos_as_xyz
  1  'x, y, z'
loop_
 _atom_site_type_symbol
 _atom_site_label
 _atom_site_symmetry_multiplicity
 _atom_site_fract_x
 _atom_site_fract_y
 _atom_site_fract_z
 _atom_site_occupancy
  P  P0  1  0.08667081  0.03829993  0.36168447  1
  P  P1  1  0.91332919  0.63831553  0.96170007  1
  S  S2  1  0.00000000  0.95943349  0.04056651  1
  S  S3  1  0.75275274  0.52750075  0.17373987  1
  S  S4  1  0.29188209  0.28865994  0.36925464  1
  S  S5  1  0.70811791  0.63074536  0.71134006  1
  S  S6  1  0.83095142  0.11336991  0.48615955  1
  S  S7  1  0.16904858  0.51384045  0.88663009  1
  S  S8  1  0.24724726  0.82626013  0.47249925  1
  K  K9  1  0.50000000  0.08314802  0.91685198  1
  In  In10  1  0.00000000  0.49892649  0.50107351  1
