# generated using pymatgen
data_Ce3(CuGe)4
_symmetry_space_group_name_H-M   'P 1'
_cell_length_a   4.35770446
_cell_length_b   6.66708809
_cell_length_c   8.12048546
_cell_angle_alpha   114.21583648
_cell_angle_beta   105.56405468
_cell_angle_gamma   90.00000004
_symmetry_Int_Tables_number   1
_chemical_formula_structural   Ce3(CuGe)4
_chemical_formula_sum   'Ce3 Cu4 Ge4'
_cell_volume   205.64354055
_cell_formula_units_Z   1
loop_
 _symmetry_equiv_pos_site_id
 _symmetry_equiv_pos_as_xyz
  1  'x, y, z'
loop_
 _atom_site_type_symbol
 _atom_site_label
 _atom_site_symmetry_multiplicity
 _atom_site_fract_x
 _atom_site_fract_y
 _atom_site_fract_z
 _atom_site_occupancy
  Cu  Cu0  1  0.66659573  0.85401675  0.33319146  1
  Cu  Cu1  1  0.33340427  0.14598325  0.66680854  1
  Cu  Cu2  1  0.66656507  0.47914752  0.33313015  1
  Cu  Cu3  1  0.33343493  0.52085248  0.66686985  1
  Ge  Ge4  1  0.78355297  0.28353926  0.56710594  1
  Ge  Ge5  1  0.50001514  0.80942473  0.00003028  1
  Ge  Ge6  1  0.49998486  0.19057527  0.99996972  1
  Ge  Ge7  1  0.21644703  0.71646074  0.43289406  1
  Ce  Ce8  1  0.00000000  0.50000000  0.00000000  1
  Ce  Ce9  1  0.86792443  0.86793142  0.73584885  1
  Ce  Ce10  1  0.13207557  0.13206858  0.26415115  1
