# generated using pymatgen
data_Hf8GeMo5
_symmetry_space_group_name_H-M   'P 1'
_cell_length_a   8.47163523
_cell_length_b   8.46989749
_cell_length_c   8.78765815
_cell_angle_alpha   90.00000000
_cell_angle_beta   90.00000000
_cell_angle_gamma   61.63603517
_symmetry_Int_Tables_number   1
_chemical_formula_structural   Hf8GeMo5
_chemical_formula_sum   'Hf16 Ge2 Mo10'
_cell_volume   554.84967346
_cell_formula_units_Z   2
loop_
 _symmetry_equiv_pos_site_id
 _symmetry_equiv_pos_as_xyz
  1  'x, y, z'
loop_
 _atom_site_type_symbol
 _atom_site_label
 _atom_site_symmetry_multiplicity
 _atom_site_fract_x
 _atom_site_fract_y
 _atom_site_fract_z
 _atom_site_occupancy
  Hf  Hf0  1  0.19353769  0.60496702  0.54724803  1
  Hf  Hf1  1  0.60484062  0.19365352  0.54717032  1
  Hf  Hf2  1  0.19907720  0.19909728  0.54881850  1
  Hf  Hf3  1  0.80670864  0.39542817  0.45856688  1
  Hf  Hf4  1  0.39554656  0.80661782  0.45859734  1
  Hf  Hf5  1  0.79410940  0.79404499  0.47153942  1
  Hf  Hf6  1  0.80670864  0.39542817  0.04143312  1
  Hf  Hf7  1  0.39554656  0.80661782  0.04140266  1
  Hf  Hf8  1  0.79410940  0.79404499  0.02846058  1
  Hf  Hf9  1  0.19353769  0.60496702  0.95275197  1
  Hf  Hf10  1  0.60484062  0.19365352  0.95282968  1
  Hf  Hf11  1  0.19907720  0.19909728  0.95118150  1
  Hf  Hf12  1  0.55050522  0.55033344  0.75000000  1
  Hf  Hf13  1  0.46764646  0.07011354  0.25000000  1
  Hf  Hf14  1  0.07024725  0.46757931  0.25000000  1
  Hf  Hf15  1  0.45997336  0.46009958  0.25000000  1
  Ge  Ge16  1  0.33702016  0.33730129  0.75000000  1
  Ge  Ge17  1  0.66414528  0.66397247  0.25000000  1
  Mo  Mo18  1  0.99785941  0.99783551  0.50109331  1
  Mo  Mo19  1  0.99785941  0.99783551  0.99890669  1
  Mo  Mo20  1  0.89288909  0.22031842  0.75000000  1
  Mo  Mo21  1  0.22035724  0.89285114  0.75000000  1
  Mo  Mo22  1  0.88730952  0.88733826  0.75000000  1
  Mo  Mo23  1  0.10731967  0.77907443  0.25000000  1
  Mo  Mo24  1  0.77915981  0.10722174  0.25000000  1
  Mo  Mo25  1  0.10991341  0.10977299  0.25000000  1
  Mo  Mo26  1  0.52412846  0.94639290  0.75000000  1
  Mo  Mo27  1  0.94602600  0.52434186  0.75000000  1
