# generated using pymatgen
data_InAg(PS3)2
_symmetry_space_group_name_H-M   'P 1'
_cell_length_a   6.25918940
_cell_length_b   6.25918940
_cell_length_c   14.36996644
_cell_angle_alpha   90.00000000
_cell_angle_beta   90.00000000
_cell_angle_gamma   119.99999999
_symmetry_Int_Tables_number   1
_chemical_formula_structural   InAg(PS3)2
_chemical_formula_sum   'In2 Ag2 P4 S12'
_cell_volume   487.55382994
_cell_formula_units_Z   2
loop_
 _symmetry_equiv_pos_site_id
 _symmetry_equiv_pos_as_xyz
  1  'x, y, z'
loop_
 _atom_site_type_symbol
 _atom_site_label
 _atom_site_symmetry_multiplicity
 _atom_site_fract_x
 _atom_site_fract_y
 _atom_site_fract_z
 _atom_site_occupancy
  P  P0  1  0.66666667  0.33333333  0.67131209  1
  P  P1  1  0.66666667  0.33333333  0.82868791  1
  P  P2  1  0.33333333  0.66666667  0.32868791  1
  P  P3  1  0.33333333  0.66666667  0.17131209  1
  S  S4  1  0.97143209  0.31729751  0.86861151  1
  S  S5  1  0.34586543  0.31729751  0.63138849  1
  S  S6  1  0.97143209  0.65413457  0.63138849  1
  S  S7  1  0.68270249  0.02856791  0.63138849  1
  S  S8  1  0.31729751  0.34586543  0.13138849  1
  S  S9  1  0.65413457  0.97143209  0.13138849  1
  S  S10  1  0.02856791  0.68270249  0.13138849  1
  S  S11  1  0.65413457  0.68270249  0.36861151  1
  S  S12  1  0.02856791  0.34586543  0.36861151  1
  S  S13  1  0.31729751  0.97143209  0.36861151  1
  S  S14  1  0.68270249  0.65413457  0.86861151  1
  S  S15  1  0.34586543  0.02856791  0.86861151  1
  Ag  Ag16  1  0.66666667  0.33333333  0.25000000  1
  Ag  Ag17  1  0.33333333  0.66666667  0.75000000  1
  In  In18  1  0.00000000  0.00000000  0.25000000  1
  In  In19  1  0.00000000  0.00000000  0.75000000  1
