# generated using pymatgen
data_Co2NiS4
_symmetry_space_group_name_H-M   'P 1'
_cell_length_a   6.59398709
_cell_length_b   6.59398710
_cell_length_c   6.59398709
_cell_angle_alpha   59.99999999
_cell_angle_beta   59.99999995
_cell_angle_gamma   60.00000000
_symmetry_Int_Tables_number   1
_chemical_formula_structural   Co2NiS4
_chemical_formula_sum   'Co4 Ni2 S8'
_cell_volume   202.73525614
_cell_formula_units_Z   2
loop_
 _symmetry_equiv_pos_site_id
 _symmetry_equiv_pos_as_xyz
  1  'x, y, z'
loop_
 _atom_site_type_symbol
 _atom_site_label
 _atom_site_symmetry_multiplicity
 _atom_site_fract_x
 _atom_site_fract_y
 _atom_site_fract_z
 _atom_site_occupancy
  S  S0  1  0.74078751  0.74078751  0.74078751  1
  S  S1  1  0.25921249  0.25921249  0.72236254  1
  S  S2  1  0.25921249  0.72236254  0.25921249  1
  S  S3  1  0.72236254  0.25921249  0.25921249  1
  S  S4  1  0.74078751  0.27763746  0.74078751  1
  S  S5  1  0.27763746  0.74078751  0.74078751  1
  S  S6  1  0.25921249  0.25921249  0.25921249  1
  S  S7  1  0.74078751  0.74078751  0.27763746  1
  Co  Co8  1  0.50000000  0.50000000  0.50000000  1
  Co  Co9  1  0.50000000  0.50000000  0.00000000  1
  Co  Co10  1  0.50000000  0.00000000  0.50000000  1
  Co  Co11  1  0.00000000  0.50000000  0.50000000  1
  Ni  Ni12  1  0.87500000  0.87500000  0.87500000  1
  Ni  Ni13  1  0.12500000  0.12500000  0.12500000  1
