# generated using pymatgen
data_Zr2Se
_symmetry_space_group_name_H-M   'P 1'
_cell_length_a   3.64069979
_cell_length_b   12.72777034
_cell_length_c   15.90645679
_cell_angle_alpha   90.00000000
_cell_angle_beta   90.00000000
_cell_angle_gamma   90.00000000
_symmetry_Int_Tables_number   1
_chemical_formula_structural   Zr2Se
_chemical_formula_sum   'Zr24 Se12'
_cell_volume   737.07324846
_cell_formula_units_Z   12
loop_
 _symmetry_equiv_pos_site_id
 _symmetry_equiv_pos_as_xyz
  1  'x, y, z'
loop_
 _atom_site_type_symbol
 _atom_site_label
 _atom_site_symmetry_multiplicity
 _atom_site_fract_x
 _atom_site_fract_y
 _atom_site_fract_z
 _atom_site_occupancy
  Se  Se0  1  0.00000000  0.57911165  0.79324203  1
  Se  Se1  1  0.00000000  0.42088835  0.20675797  1
  Se  Se2  1  0.50000000  0.07911165  0.70675797  1
  Se  Se3  1  0.50000000  0.92088835  0.29324203  1
  Se  Se4  1  0.00000000  0.75454933  0.58025078  1
  Se  Se5  1  0.00000000  0.24545067  0.41974922  1
  Se  Se6  1  0.50000000  0.25454933  0.91974922  1
  Se  Se7  1  0.50000000  0.74545067  0.08025078  1
  Se  Se8  1  0.00000000  0.31717165  0.65188679  1
  Se  Se9  1  0.00000000  0.68282835  0.34811321  1
  Se  Se10  1  0.50000000  0.81717165  0.84811321  1
  Se  Se11  1  0.50000000  0.18282835  0.15188679  1
  Zr  Zr12  1  0.00000000  0.85031697  0.97621619  1
  Zr  Zr13  1  0.00000000  0.14968303  0.02378381  1
  Zr  Zr14  1  0.50000000  0.35031697  0.52378381  1
  Zr  Zr15  1  0.50000000  0.64968303  0.47621619  1
  Zr  Zr16  1  0.00000000  0.92275374  0.74690081  1
  Zr  Zr17  1  0.00000000  0.07724626  0.25309919  1
  Zr  Zr18  1  0.50000000  0.42275374  0.75309919  1
  Zr  Zr19  1  0.50000000  0.57724626  0.24690081  1
  Zr  Zr20  1  0.00000000  0.41686295  0.91980431  1
  Zr  Zr21  1  0.00000000  0.58313705  0.08019569  1
  Zr  Zr22  1  0.50000000  0.91686295  0.58019569  1
  Zr  Zr23  1  0.50000000  0.08313705  0.41980431  1
  Zr  Zr24  1  0.00000000  0.53246657  0.60969439  1
  Zr  Zr25  1  0.00000000  0.46753343  0.39030561  1
  Zr  Zr26  1  0.50000000  0.03246657  0.89030561  1
  Zr  Zr27  1  0.50000000  0.96753343  0.10969439  1
  Zr  Zr28  1  0.00000000  0.19941829  0.79680351  1
  Zr  Zr29  1  0.00000000  0.80058171  0.20319649  1
  Zr  Zr30  1  0.50000000  0.69941829  0.70319649  1
  Zr  Zr31  1  0.50000000  0.30058171  0.29680351  1
  Zr  Zr32  1  0.00000000  0.12274927  0.57603070  1
  Zr  Zr33  1  0.00000000  0.87725073  0.42396930  1
  Zr  Zr34  1  0.50000000  0.62274927  0.92396930  1
  Zr  Zr35  1  0.50000000  0.37725073  0.07603070  1
