# generated using pymatgen
data_NdInCu
_symmetry_space_group_name_H-M   'P 1'
_cell_length_a   7.59920500
_cell_length_b   7.59920500
_cell_length_c   4.10099726
_cell_angle_alpha   90.00000000
_cell_angle_beta   90.00000000
_cell_angle_gamma   119.99999999
_symmetry_Int_Tables_number   1
_chemical_formula_structural   NdInCu
_chemical_formula_sum   'Nd3 In3 Cu3'
_cell_volume   205.09564173
_cell_formula_units_Z   3
loop_
 _symmetry_equiv_pos_site_id
 _symmetry_equiv_pos_as_xyz
  1  'x, y, z'
loop_
 _atom_site_type_symbol
 _atom_site_label
 _atom_site_symmetry_multiplicity
 _atom_site_fract_x
 _atom_site_fract_y
 _atom_site_fract_z
 _atom_site_occupancy
  Cu  Cu0  1  0.33333333  0.66666667  0.00000000  1
  Cu  Cu1  1  0.00000000  0.00000000  0.50000000  1
  Cu  Cu2  1  0.66666667  0.33333333  0.00000000  1
  In  In3  1  0.75137160  0.75137160  0.00000000  1
  In  In4  1  0.00000000  0.24862840  0.00000000  1
  In  In5  1  0.24862840  0.00000000  0.00000000  1
  Nd  Nd6  1  0.00000000  0.58660061  0.50000000  1
  Nd  Nd7  1  0.41339939  0.41339939  0.50000000  1
  Nd  Nd8  1  0.58660061  0.00000000  0.50000000  1
