# generated using pymatgen
data_Ce2Sb
_symmetry_space_group_name_H-M   'P 1'
_cell_length_a   4.45806934
_cell_length_b   4.45806934
_cell_length_c   9.23946217
_cell_angle_alpha   103.96042030
_cell_angle_beta   103.96042030
_cell_angle_gamma   90.00000003
_symmetry_Int_Tables_number   1
_chemical_formula_structural   Ce2Sb
_chemical_formula_sum   'Ce4 Sb2'
_cell_volume   172.61043420
_cell_formula_units_Z   2
loop_
 _symmetry_equiv_pos_site_id
 _symmetry_equiv_pos_as_xyz
  1  'x, y, z'
loop_
 _atom_site_type_symbol
 _atom_site_label
 _atom_site_symmetry_multiplicity
 _atom_site_fract_x
 _atom_site_fract_y
 _atom_site_fract_z
 _atom_site_occupancy
  Sb  Sb0  1  0.63871412  0.63871412  0.27742825  1
  Sb  Sb1  1  0.36128588  0.36128588  0.72257175  1
  Ce  Ce2  1  0.17472014  0.17472014  0.34944029  1
  Ce  Ce3  1  0.82527986  0.82527986  0.65055971  1
  Ce  Ce4  1  0.00000000  0.50000000  0.00000000  1
  Ce  Ce5  1  0.50000000  0.00000000  0.00000000  1
