# generated using pymatgen
data_TaNiB2
_symmetry_space_group_name_H-M   'P 1'
_cell_length_a   3.11367588
_cell_length_b   6.03733280
_cell_length_c   8.18467025
_cell_angle_alpha   90.00000000
_cell_angle_beta   90.00000000
_cell_angle_gamma   90.00000000
_symmetry_Int_Tables_number   1
_chemical_formula_structural   TaNiB2
_chemical_formula_sum   'Ta4 Ni4 B8'
_cell_volume   153.85786645
_cell_formula_units_Z   4
loop_
 _symmetry_equiv_pos_site_id
 _symmetry_equiv_pos_as_xyz
  1  'x, y, z'
loop_
 _atom_site_type_symbol
 _atom_site_label
 _atom_site_symmetry_multiplicity
 _atom_site_fract_x
 _atom_site_fract_y
 _atom_site_fract_z
 _atom_site_occupancy
  B  B0  1  0.25000000  0.67206183  0.66786239  1
  B  B1  1  0.75000000  0.32793817  0.33213761  1
  B  B2  1  0.25000000  0.17206183  0.83213761  1
  B  B3  1  0.75000000  0.82793817  0.16786239  1
  B  B4  1  0.25000000  0.74222762  0.07645100  1
  B  B5  1  0.75000000  0.75777238  0.57645100  1
  B  B6  1  0.25000000  0.24222762  0.42354900  1
  B  B7  1  0.75000000  0.25777238  0.92354900  1
  Ni  Ni8  1  0.75000000  0.99885423  0.38375721  1
  Ni  Ni9  1  0.75000000  0.49885423  0.11624279  1
  Ni  Ni10  1  0.25000000  0.00114577  0.61624279  1
  Ni  Ni11  1  0.25000000  0.50114577  0.88375721  1
  Ta  Ta12  1  0.25000000  0.63278227  0.36756742  1
  Ta  Ta13  1  0.75000000  0.36721773  0.63243258  1
  Ta  Ta14  1  0.25000000  0.13278227  0.13243258  1
  Ta  Ta15  1  0.75000000  0.86721773  0.86756742  1
