# generated using pymatgen
data_LiPPbO4
_symmetry_space_group_name_H-M   'P 1'
_cell_length_a   5.03773644
_cell_length_b   8.12173718
_cell_length_c   18.88610841
_cell_angle_alpha   90.00000000
_cell_angle_beta   90.00000000
_cell_angle_gamma   90.00000000
_symmetry_Int_Tables_number   1
_chemical_formula_structural   LiPPbO4
_chemical_formula_sum   'Li8 P8 Pb8 O32'
_cell_volume   772.72836169
_cell_formula_units_Z   8
loop_
 _symmetry_equiv_pos_site_id
 _symmetry_equiv_pos_as_xyz
  1  'x, y, z'
loop_
 _atom_site_type_symbol
 _atom_site_label
 _atom_site_symmetry_multiplicity
 _atom_site_fract_x
 _atom_site_fract_y
 _atom_site_fract_z
 _atom_site_occupancy
  Li  Li0  1  0.69626273  0.32284976  0.84884533  1
  Li  Li1  1  0.19626273  0.67715024  0.15115467  1
  Li  Li2  1  0.19626273  0.17715024  0.34884533  1
  Li  Li3  1  0.69626273  0.82284976  0.65115467  1
  Li  Li4  1  0.19677599  0.48931552  0.44329416  1
  Li  Li5  1  0.69677599  0.51068448  0.55670584  1
  Li  Li6  1  0.69677599  0.01068448  0.94329416  1
  Li  Li7  1  0.19677599  0.98931552  0.05670584  1
  O  O8  1  0.07886409  0.24824034  0.85242571  1
  O  O9  1  0.57886409  0.75175966  0.14757429  1
  O  O10  1  0.57886409  0.25175966  0.35242571  1
  O  O11  1  0.07886409  0.74824034  0.64757429  1
  O  O12  1  0.11609129  0.39346203  0.97161825  1
  O  O13  1  0.61609129  0.60653797  0.02838175  1
  O  O14  1  0.61609129  0.10653797  0.47161825  1
  O  O15  1  0.11609129  0.89346203  0.52838175  1
  O  O16  1  0.57992121  0.23101283  0.75701575  1
  O  O17  1  0.07992121  0.76898717  0.24298425  1
  O  O18  1  0.07992121  0.26898717  0.25701575  1
  O  O19  1  0.57992121  0.73101283  0.74298425  1
  O  O20  1  0.55871836  0.05456345  0.64758885  1
  O  O21  1  0.05871836  0.94543655  0.35241115  1
  O  O22  1  0.05871836  0.44543655  0.14758885  1
  O  O23  1  0.55871836  0.55456345  0.85241115  1
  O  O24  1  0.99751357  0.19446722  0.68220875  1
  O  O25  1  0.49751357  0.80553278  0.31779125  1
  O  O26  1  0.49751357  0.30553278  0.18220875  1
  O  O27  1  0.99751357  0.69446722  0.81779125  1
  O  O28  1  0.60860471  0.36390626  0.63505850  1
  O  O29  1  0.10860471  0.63609374  0.36494150  1
  O  O30  1  0.10860471  0.13609374  0.13505850  1
  O  O31  1  0.60860471  0.86390626  0.86494150  1
  O  O32  1  0.49911192  0.71652102  0.57312023  1
  O  O33  1  0.99911192  0.28347898  0.42687977  1
  O  O34  1  0.99911192  0.78347898  0.07312023  1
  O  O35  1  0.49911192  0.21652102  0.92687977  1
  O  O36  1  0.06166492  0.58562553  0.53228863  1
  O  O37  1  0.56166492  0.41437447  0.46771137  1
  O  O38  1  0.56166492  0.91437447  0.03228863  1
  O  O39  1  0.06166492  0.08562553  0.96771137  1
  P  P40  1  0.19318807  0.23260036  0.92908606  1
  P  P41  1  0.69318807  0.76739964  0.07091394  1
  P  P42  1  0.69318807  0.26739964  0.42908606  1
  P  P43  1  0.19318807  0.73260036  0.57091394  1
  P  P44  1  0.69022254  0.71270305  0.82030782  1
  P  P45  1  0.19022254  0.28729695  0.17969218  1
  P  P46  1  0.19022254  0.78729695  0.32030782  1
  P  P47  1  0.69022254  0.21270305  0.67969218  1
  Pb  Pb48  1  0.23536691  0.53267196  0.72882007  1
  Pb  Pb49  1  0.73536691  0.46732804  0.27117993  1
  Pb  Pb50  1  0.73536691  0.96732804  0.22882007  1
  Pb  Pb51  1  0.23536691  0.03267196  0.77117993  1
  Pb  Pb52  1  0.25569367  0.67284581  0.94572129  1
  Pb  Pb53  1  0.75569367  0.32715419  0.05427871  1
  Pb  Pb54  1  0.75569367  0.82715419  0.44572129  1
  Pb  Pb55  1  0.25569367  0.17284581  0.55427871  1
