# generated using pymatgen
data_Er2AlGe4
_symmetry_space_group_name_H-M   'P 1'
_cell_length_a   4.13229318
_cell_length_b   4.22067162
_cell_length_c   8.60004649
_cell_angle_alpha   75.79532073
_cell_angle_beta   90.00000000
_cell_angle_gamma   90.00000000
_symmetry_Int_Tables_number   1
_chemical_formula_structural   Er2AlGe4
_chemical_formula_sum   'Er2 Al1 Ge4'
_cell_volume   145.40784735
_cell_formula_units_Z   1
loop_
 _symmetry_equiv_pos_site_id
 _symmetry_equiv_pos_as_xyz
  1  'x, y, z'
loop_
 _atom_site_type_symbol
 _atom_site_label
 _atom_site_symmetry_multiplicity
 _atom_site_fract_x
 _atom_site_fract_y
 _atom_site_fract_z
 _atom_site_occupancy
  Er  Er0  1  0.25000000  0.90096879  0.19806241  1
  Er  Er1  1  0.75000000  0.10280634  0.79438733  1
  Al  Al2  1  0.25000000  0.68047485  0.63905029  1
  Ge  Ge3  1  0.25000000  0.53594398  0.92811203  1
  Ge  Ge4  1  0.75000000  0.44504862  0.10990276  1
  Ge  Ge5  1  0.25000000  0.26527432  0.46945137  1
  Ge  Ge6  1  0.75000000  0.76648309  0.46703381  1
