# generated using pymatgen
data_Ce2Ni2Sn
_symmetry_space_group_name_H-M   'P 1'
_cell_length_a   4.35922851
_cell_length_b   5.44896784
_cell_length_c   5.44896784
_cell_angle_alpha   64.43943239
_cell_angle_beta   66.42151039
_cell_angle_gamma   66.42151044
_symmetry_Int_Tables_number   1
_chemical_formula_structural   Ce2Ni2Sn
_chemical_formula_sum   'Ce2 Ni2 Sn1'
_cell_volume   102.88760795
_cell_formula_units_Z   1
loop_
 _symmetry_equiv_pos_site_id
 _symmetry_equiv_pos_as_xyz
  1  'x, y, z'
loop_
 _atom_site_type_symbol
 _atom_site_label
 _atom_site_symmetry_multiplicity
 _atom_site_fract_x
 _atom_site_fract_y
 _atom_site_fract_z
 _atom_site_occupancy
  Ni  Ni0  1  0.50000000  0.28836309  0.71163691  1
  Ni  Ni1  1  0.50000000  0.71163691  0.28836309  1
  Sn  Sn2  1  0.00000000  0.00000000  0.00000000  1
  Ce  Ce3  1  0.79814567  0.70185433  0.70185433  1
  Ce  Ce4  1  0.20185433  0.29814567  0.29814567  1
