# generated using pymatgen
data_GdAl7Au3
_symmetry_space_group_name_H-M   'P 1'
_cell_length_a   8.47567112
_cell_length_b   8.47567112
_cell_length_c   8.47567112
_cell_angle_alpha   57.24149883
_cell_angle_beta   57.24149887
_cell_angle_gamma   57.24149881
_symmetry_Int_Tables_number   1
_chemical_formula_structural   GdAl7Au3
_chemical_formula_sum   'Gd2 Al14 Au6'
_cell_volume   403.18291390
_cell_formula_units_Z   2
loop_
 _symmetry_equiv_pos_site_id
 _symmetry_equiv_pos_as_xyz
  1  'x, y, z'
loop_
 _atom_site_type_symbol
 _atom_site_label
 _atom_site_symmetry_multiplicity
 _atom_site_fract_x
 _atom_site_fract_y
 _atom_site_fract_z
 _atom_site_occupancy
  Al  Al0  1  0.64725926  0.43027702  0.83250318  1
  Al  Al1  1  0.43027702  0.83250318  0.64725926  1
  Al  Al2  1  0.83250318  0.64725926  0.43027702  1
  Al  Al3  1  0.66749682  0.06972298  0.85274074  1
  Al  Al4  1  0.06972298  0.85274074  0.66749682  1
  Al  Al5  1  0.85274074  0.66749682  0.06972298  1
  Al  Al6  1  0.35274074  0.56972298  0.16749682  1
  Al  Al7  1  0.56972298  0.16749682  0.35274074  1
  Al  Al8  1  0.25000000  0.25000000  0.25000000  1
  Al  Al9  1  0.75000000  0.75000000  0.75000000  1
  Al  Al10  1  0.14725926  0.33250318  0.93027702  1
  Al  Al11  1  0.93027702  0.14725926  0.33250318  1
  Al  Al12  1  0.33250318  0.93027702  0.14725926  1
  Al  Al13  1  0.16749682  0.35274074  0.56972298  1
  Gd  Gd14  1  0.50000000  0.50000000  0.50000000  1
  Gd  Gd15  1  0.00000000  0.00000000  0.00000000  1
  Au  Au16  1  0.07274701  0.75000000  0.42725299  1
  Au  Au17  1  0.75000000  0.42725299  0.07274701  1
  Au  Au18  1  0.42725299  0.07274701  0.75000000  1
  Au  Au19  1  0.92725299  0.25000000  0.57274701  1
  Au  Au20  1  0.25000000  0.57274701  0.92725299  1
  Au  Au21  1  0.57274701  0.92725299  0.25000000  1
