# generated using pymatgen
data_Sb8(PbS5)3
_symmetry_space_group_name_H-M   'P 1'
_cell_length_a   8.97682028
_cell_length_b   8.97682027
_cell_length_c   18.19712253
_cell_angle_alpha   85.56737840
_cell_angle_beta   85.56737841
_cell_angle_gamma   81.59494424
_symmetry_Int_Tables_number   1
_chemical_formula_structural   Sb8(PbS5)3
_chemical_formula_sum   'Sb16 Pb6 S30'
_cell_volume   1443.05469487
_cell_formula_units_Z   2
loop_
 _symmetry_equiv_pos_site_id
 _symmetry_equiv_pos_as_xyz
  1  'x, y, z'
loop_
 _atom_site_type_symbol
 _atom_site_label
 _atom_site_symmetry_multiplicity
 _atom_site_fract_x
 _atom_site_fract_y
 _atom_site_fract_z
 _atom_site_occupancy
  S  S0  1  0.18386326  0.81613674  0.25000000  1
  S  S1  1  0.81613674  0.18386326  0.75000000  1
  S  S2  1  0.93428880  0.19623727  0.34235489  1
  S  S3  1  0.80376273  0.06571120  0.15764511  1
  S  S4  1  0.06571120  0.80376273  0.65764511  1
  S  S5  1  0.19623727  0.93428880  0.84235489  1
  S  S6  1  0.11108303  0.82960010  0.03651816  1
  S  S7  1  0.17039990  0.88891697  0.46348184  1
  S  S8  1  0.88891697  0.17039990  0.96348184  1
  S  S9  1  0.82960010  0.11108303  0.53651816  1
  S  S10  1  0.95093665  0.42799607  0.09718663  1
  S  S11  1  0.57200393  0.04906335  0.40281337  1
  S  S12  1  0.04906335  0.57200393  0.90281337  1
  S  S13  1  0.42799607  0.95093665  0.59718663  1
  S  S14  1  0.60587698  0.44984606  0.41119628  1
  S  S15  1  0.55015394  0.39412302  0.08880372  1
  S  S16  1  0.39412302  0.55015394  0.58880372  1
  S  S17  1  0.44984606  0.60587698  0.91119628  1
  S  S18  1  0.94647810  0.59615032  0.33697128  1
  S  S19  1  0.40384968  0.05352190  0.16302872  1
  S  S20  1  0.05352190  0.40384968  0.66302872  1
  S  S21  1  0.59615032  0.94647810  0.83697128  1
  S  S22  1  0.29415064  0.23402651  0.96274896  1
  S  S23  1  0.76597349  0.70584936  0.53725104  1
  S  S24  1  0.70584936  0.76597349  0.03725104  1
  S  S25  1  0.23402651  0.29415064  0.46274896  1
  S  S26  1  0.39983271  0.30955905  0.75130418  1
  S  S27  1  0.69044095  0.60016729  0.74869582  1
  S  S28  1  0.60016729  0.69044095  0.24869582  1
  S  S29  1  0.30955905  0.39983271  0.25130418  1
  Sb  Sb30  1  0.03847088  0.13953669  0.07292923  1
  Sb  Sb31  1  0.86046331  0.96152912  0.42707077  1
  Sb  Sb32  1  0.96152912  0.86046331  0.92707077  1
  Sb  Sb33  1  0.13953669  0.03847088  0.57292923  1
  Sb  Sb34  1  0.88219316  0.39564989  0.43464142  1
  Sb  Sb35  1  0.60435011  0.11780684  0.06535858  1
  Sb  Sb36  1  0.11780684  0.60435011  0.56535858  1
  Sb  Sb37  1  0.39564989  0.88219316  0.93464142  1
  Sb  Sb38  1  0.23689301  0.50405705  0.99905792  1
  Sb  Sb39  1  0.49594295  0.76310699  0.50094208  1
  Sb  Sb40  1  0.76310699  0.49594295  0.00094208  1
  Sb  Sb41  1  0.50405705  0.23689301  0.49905792  1
  Sb  Sb42  1  0.22459895  0.58865643  0.34155565  1
  Sb  Sb43  1  0.41134357  0.77540105  0.15844435  1
  Sb  Sb44  1  0.77540105  0.41134357  0.65844435  1
  Sb  Sb45  1  0.58865643  0.22459895  0.84155565  1
  Pb  Pb46  1  0.88192952  0.73845736  0.16213521  1
  Pb  Pb47  1  0.26154264  0.11807048  0.33786479  1
  Pb  Pb48  1  0.11807048  0.26154264  0.83786479  1
  Pb  Pb49  1  0.73845736  0.88192952  0.66213521  1
  Pb  Pb50  1  0.62537425  0.37462575  0.25000000  1
  Pb  Pb51  1  0.37462575  0.62537425  0.75000000  1
