# generated using pymatgen
data_La3(GePd)4
_symmetry_space_group_name_H-M   'P 1'
_cell_length_a   4.23864538
_cell_length_b   4.43272277
_cell_length_c   13.06560429
_cell_angle_alpha   99.76649821
_cell_angle_beta   99.33497823
_cell_angle_gamma   89.99999998
_symmetry_Int_Tables_number   1
_chemical_formula_structural   La3(GePd)4
_chemical_formula_sum   'La3 Ge4 Pd4'
_cell_volume   238.62900120
_cell_formula_units_Z   1
loop_
 _symmetry_equiv_pos_site_id
 _symmetry_equiv_pos_as_xyz
  1  'x, y, z'
loop_
 _atom_site_type_symbol
 _atom_site_label
 _atom_site_symmetry_multiplicity
 _atom_site_fract_x
 _atom_site_fract_y
 _atom_site_fract_z
 _atom_site_occupancy
  Ge  Ge0  1  0.45025714  0.45025714  0.90051429  1
  Ge  Ge1  1  0.54974286  0.54974286  0.09948571  1
  Ge  Ge2  1  0.69640147  0.19640147  0.39280293  1
  Ge  Ge3  1  0.30359853  0.80359853  0.60719707  1
  Pd  Pd4  1  0.40302291  0.90302291  0.80604583  1
  Pd  Pd5  1  0.74982447  0.74982447  0.49964895  1
  Pd  Pd6  1  0.25017553  0.25017553  0.50035105  1
  Pd  Pd7  1  0.59697709  0.09697709  0.19395417  1
  La  La8  1  0.85172246  0.35172246  0.70344492  1
  La  La9  1  0.14827754  0.64827754  0.29655508  1
  La  La10  1  0.00000000  0.00000000  0.00000000  1
