# generated using pymatgen
data_Dy2Si3
_symmetry_space_group_name_H-M   'P 1'
_cell_length_a   3.89093999
_cell_length_b   3.98990965
_cell_length_c   7.41622731
_cell_angle_alpha   74.39531660
_cell_angle_beta   74.79187033
_cell_angle_gamma   90.00000000
_symmetry_Int_Tables_number   1
_chemical_formula_structural   Dy2Si3
_chemical_formula_sum   'Dy2 Si3'
_cell_volume   106.69717339
_cell_formula_units_Z   1
loop_
 _symmetry_equiv_pos_site_id
 _symmetry_equiv_pos_as_xyz
  1  'x, y, z'
loop_
 _atom_site_type_symbol
 _atom_site_label
 _atom_site_symmetry_multiplicity
 _atom_site_fract_x
 _atom_site_fract_y
 _atom_site_fract_z
 _atom_site_occupancy
  Dy  Dy0  1  0.87352763  0.62352763  0.75294475  1
  Dy  Dy1  1  0.12709226  0.37709226  0.24581549  1
  Si  Si2  1  0.53201015  0.78201015  0.43597971  1
  Si  Si3  1  0.30169807  0.05169807  0.89660386  1
  Si  Si4  1  0.70167190  0.95167190  0.09665619  1
