# generated using pymatgen
data_Sr2LuIrO6
_symmetry_space_group_name_H-M   'P 1'
_cell_length_a   5.79459194
_cell_length_b   5.77861250
_cell_length_c   8.19038043
_cell_angle_alpha   90.20556518
_cell_angle_beta   90.00000000
_cell_angle_gamma   90.00000000
_symmetry_Int_Tables_number   1
_chemical_formula_structural   Sr2LuIrO6
_chemical_formula_sum   'Sr4 Lu2 Ir2 O12'
_cell_volume   274.25067784
_cell_formula_units_Z   2
loop_
 _symmetry_equiv_pos_site_id
 _symmetry_equiv_pos_as_xyz
  1  'x, y, z'
loop_
 _atom_site_type_symbol
 _atom_site_label
 _atom_site_symmetry_multiplicity
 _atom_site_fract_x
 _atom_site_fract_y
 _atom_site_fract_z
 _atom_site_occupancy
  Sr  Sr0  1  0.47362776  0.49529846  0.75026130  1
  Sr  Sr1  1  0.02637224  0.99529846  0.25026130  1
  Sr  Sr2  1  0.97362776  0.00470154  0.74973870  1
  Sr  Sr3  1  0.52637224  0.50470154  0.24973870  1
  Lu  Lu4  1  0.00000000  0.50000000  0.50000000  1
  Lu  Lu5  1  0.50000000  0.00000000  0.00000000  1
  Ir  Ir6  1  0.50000000  0.00000000  0.50000000  1
  Ir  Ir7  1  0.00000000  0.50000000  0.00000000  1
  O  O8  1  0.29217802  0.72964539  0.46912978  1
  O  O9  1  0.51259184  0.93955324  0.73895471  1
  O  O10  1  0.22902781  0.20629675  0.53328397  1
  O  O11  1  0.20782198  0.22964539  0.96912978  1
  O  O12  1  0.27097219  0.70629675  0.03328397  1
  O  O13  1  0.48740816  0.06044676  0.26104529  1
  O  O14  1  0.77097219  0.79370325  0.46671603  1
  O  O15  1  0.72902781  0.29370325  0.96671603  1
  O  O16  1  0.70782198  0.27035461  0.53087022  1
  O  O17  1  0.01259184  0.56044676  0.76104529  1
  O  O18  1  0.98740816  0.43955324  0.23895471  1
  O  O19  1  0.79217802  0.77035461  0.03087022  1
