# generated using pymatgen
data_Sr(Sb3Ru)4
_symmetry_space_group_name_H-M   'P 1'
_cell_length_a   8.15252590
_cell_length_b   8.15252590
_cell_length_c   8.15252590
_cell_angle_alpha   109.47122061
_cell_angle_beta   109.47122061
_cell_angle_gamma   109.47122069
_symmetry_Int_Tables_number   1
_chemical_formula_structural   Sr(Sb3Ru)4
_chemical_formula_sum   'Sr1 Sb12 Ru4'
_cell_volume   417.11390770
_cell_formula_units_Z   1
loop_
 _symmetry_equiv_pos_site_id
 _symmetry_equiv_pos_as_xyz
  1  'x, y, z'
loop_
 _atom_site_type_symbol
 _atom_site_label
 _atom_site_symmetry_multiplicity
 _atom_site_fract_x
 _atom_site_fract_y
 _atom_site_fract_z
 _atom_site_occupancy
  Sr  Sr0  1  0.00000000  0.00000000  0.00000000  1
  Ru  Ru1  1  0.50000000  0.50000000  0.50000000  1
  Ru  Ru2  1  0.00000000  0.50000000  0.00000000  1
  Ru  Ru3  1  0.00000000  0.00000000  0.50000000  1
  Ru  Ru4  1  0.50000000  0.00000000  0.00000000  1
  Sb  Sb5  1  0.34241036  0.15938677  0.50179713  1
  Sb  Sb6  1  0.84061323  0.49820287  0.65758964  1
  Sb  Sb7  1  0.18302359  0.34241036  0.84061323  1
  Sb  Sb8  1  0.15938677  0.81697641  0.65758964  1
  Sb  Sb9  1  0.49820287  0.65758964  0.84061323  1
  Sb  Sb10  1  0.84061323  0.18302359  0.34241036  1
  Sb  Sb11  1  0.81697641  0.65758964  0.15938677  1
  Sb  Sb12  1  0.50179713  0.34241036  0.15938677  1
  Sb  Sb13  1  0.15938677  0.50179713  0.34241036  1
  Sb  Sb14  1  0.65758964  0.84061323  0.49820287  1
  Sb  Sb15  1  0.34241036  0.84061323  0.18302359  1
  Sb  Sb16  1  0.65758964  0.15938677  0.81697641  1
