# generated using pymatgen
data_EuSn2Ir
_symmetry_space_group_name_H-M   'P 1'
_cell_length_a   4.39085973
_cell_length_b   6.06034138
_cell_length_c   7.66026917
_cell_angle_alpha   90.00000000
_cell_angle_beta   90.00000000
_cell_angle_gamma   111.23916283
_symmetry_Int_Tables_number   1
_chemical_formula_structural   EuSn2Ir
_chemical_formula_sum   'Eu2 Sn4 Ir2'
_cell_volume   189.99501090
_cell_formula_units_Z   2
loop_
 _symmetry_equiv_pos_site_id
 _symmetry_equiv_pos_as_xyz
  1  'x, y, z'
loop_
 _atom_site_type_symbol
 _atom_site_label
 _atom_site_symmetry_multiplicity
 _atom_site_fract_x
 _atom_site_fract_y
 _atom_site_fract_z
 _atom_site_occupancy
  Sn  Sn0  1  0.35173997  0.70347994  0.54775425  1
  Sn  Sn1  1  0.64826003  0.29652006  0.45224575  1
  Sn  Sn2  1  0.35173997  0.70347994  0.95224575  1
  Sn  Sn3  1  0.64826003  0.29652006  0.04775425  1
  Eu  Eu4  1  0.93603854  0.87207707  0.25000000  1
  Eu  Eu5  1  0.06396146  0.12792293  0.75000000  1
  Ir  Ir6  1  0.78701540  0.57403080  0.75000000  1
  Ir  Ir7  1  0.21298460  0.42596920  0.25000000  1
