# generated using pymatgen
data_ThGa4Co
_symmetry_space_group_name_H-M   'P 1'
_cell_length_a   4.19446341
_cell_length_b   6.59873835
_cell_length_c   8.12238415
_cell_angle_alpha   90.00000000
_cell_angle_beta   104.96351780
_cell_angle_gamma   90.00000000
_symmetry_Int_Tables_number   1
_chemical_formula_structural   ThGa4Co
_chemical_formula_sum   'Th2 Ga8 Co2'
_cell_volume   217.18939932
_cell_formula_units_Z   2
loop_
 _symmetry_equiv_pos_site_id
 _symmetry_equiv_pos_as_xyz
  1  'x, y, z'
loop_
 _atom_site_type_symbol
 _atom_site_label
 _atom_site_symmetry_multiplicity
 _atom_site_fract_x
 _atom_site_fract_y
 _atom_site_fract_z
 _atom_site_occupancy
  Co  Co0  1  0.72604200  0.75000000  0.45208401  1
  Co  Co1  1  0.27395800  0.25000000  0.54791599  1
  Ga  Ga2  1  0.00000000  0.00000000  0.00000000  1
  Ga  Ga3  1  0.00000000  0.50000000  0.00000000  1
  Ga  Ga4  1  0.81011476  0.05504608  0.62022952  1
  Ga  Ga5  1  0.18988524  0.94495392  0.37977048  1
  Ga  Ga6  1  0.18988524  0.55504608  0.37977048  1
  Ga  Ga7  1  0.81011476  0.44495392  0.62022952  1
  Ga  Ga8  1  0.42303356  0.25000000  0.84606712  1
  Ga  Ga9  1  0.57696644  0.75000000  0.15393288  1
  Th  Th10  1  0.38401631  0.75000000  0.76803262  1
  Th  Th11  1  0.61598369  0.25000000  0.23196738  1
