# generated using pymatgen
data_Na3In2(AsO4)3
_symmetry_space_group_name_H-M   'P 1'
_cell_length_a   6.97385955
_cell_length_b   9.28109468
_cell_length_c   9.28109469
_cell_angle_alpha   92.77832942
_cell_angle_beta   106.22381899
_cell_angle_gamma   106.22382562
_symmetry_Int_Tables_number   1
_chemical_formula_structural   Na3In2(AsO4)3
_chemical_formula_sum   'Na6 In4 As6 O24'
_cell_volume   548.58706481
_cell_formula_units_Z   2
loop_
 _symmetry_equiv_pos_site_id
 _symmetry_equiv_pos_as_xyz
  1  'x, y, z'
loop_
 _atom_site_type_symbol
 _atom_site_label
 _atom_site_symmetry_multiplicity
 _atom_site_fract_x
 _atom_site_fract_y
 _atom_site_fract_z
 _atom_site_occupancy
  Na  Na0  1  0.00000000  0.50000000  0.50000000  1
  Na  Na1  1  0.25000000  0.27595948  0.72404052  1
  Na  Na2  1  0.25000000  0.00464341  0.99535659  1
  Na  Na3  1  0.75000000  0.99535659  0.00464341  1
  Na  Na4  1  0.75000000  0.72404052  0.27595948  1
  Na  Na5  1  0.50000000  0.50000000  0.50000000  1
  In  In6  1  0.14541126  0.37871783  0.06603839  1
  In  In7  1  0.64541126  0.06603839  0.37871783  1
  In  In8  1  0.85458874  0.62128217  0.93396161  1
  In  In9  1  0.35458874  0.93396161  0.62128217  1
  As  As10  1  0.86773369  0.86414529  0.65729267  1
  As  As11  1  0.25000000  0.72345414  0.27654586  1
  As  As12  1  0.36773369  0.65729267  0.86414529  1
  As  As13  1  0.75000000  0.27654586  0.72345414  1
  As  As14  1  0.13226631  0.13585471  0.34270733  1
  As  As15  1  0.63226631  0.34270733  0.13585471  1
  O  O16  1  0.61479834  0.15489708  0.16133226  1
  O  O17  1  0.89837981  1.00088125  0.33153296  1
  O  O18  1  0.88520166  0.83866774  0.84510292  1
  O  O19  1  0.60162019  0.66846704  -0.00088125  1
  O  O20  1  0.03029670  0.75128923  0.15508324  1
  O  O21  1  0.81780898  0.70267719  0.54380228  1
  O  O22  1  0.83108578  0.40888648  0.05212250  1
  O  O23  1  0.39837981  0.33153296  1.00088125  1
  O  O24  1  0.66891422  0.94787750  0.59111352  1
  O  O25  1  0.72419381  0.45623880  0.73741670  1
  O  O26  1  0.16891422  0.59111352  0.94787750  1
  O  O27  1  0.77580619  0.26258330  0.54376120  1
  O  O28  1  0.38520166  0.84510292  0.83866774  1
  O  O29  1  0.33108578  0.05212250  0.40888648  1
  O  O30  1  0.18219102  0.29732281  0.45619772  1
  O  O31  1  0.22419381  0.73741670  0.45623880  1
  O  O32  1  0.53029670  0.15508324  0.75128923  1
  O  O33  1  0.46970330  0.84491676  0.24871077  1
  O  O34  1  0.10162019  -0.00088125  0.66846704  1
  O  O35  1  0.31780898  0.54380228  0.70267719  1
  O  O36  1  0.27580619  0.54376120  0.26258330  1
  O  O37  1  0.11479834  0.16133226  0.15489708  1
  O  O38  1  0.96970330  0.24871077  0.84491676  1
  O  O39  1  0.68219102  0.45619772  0.29732281  1
