# generated using pymatgen
data_DyTmMn4
_symmetry_space_group_name_H-M   'P 1'
_cell_length_a   5.09112661
_cell_length_b   5.08786276
_cell_length_c   8.35579641
_cell_angle_alpha   90.00000000
_cell_angle_beta   90.00639611
_cell_angle_gamma   60.02119929
_symmetry_Int_Tables_number   1
_chemical_formula_structural   DyTmMn4
_chemical_formula_sum   'Dy2 Tm2 Mn8'
_cell_volume   187.48239663
_cell_formula_units_Z   2
loop_
 _symmetry_equiv_pos_site_id
 _symmetry_equiv_pos_as_xyz
  1  'x, y, z'
loop_
 _atom_site_type_symbol
 _atom_site_label
 _atom_site_symmetry_multiplicity
 _atom_site_fract_x
 _atom_site_fract_y
 _atom_site_fract_z
 _atom_site_occupancy
  Dy  Dy0  1  0.33335506  0.33332247  0.56338974  1
  Dy  Dy1  1  0.66664494  0.66667753  0.43661026  1
  Tm  Tm2  1  0.66666378  0.66666811  0.06235586  1
  Tm  Tm3  1  0.33333622  0.33333189  0.93764414  1
  Mn  Mn4  1  0.00000000  0.00000000  0.50000000  1
  Mn  Mn5  1  0.00000000  0.00000000  0.00000000  1
  Mn  Mn6  1  0.83147909  0.33721973  0.75255419  1
  Mn  Mn7  1  0.33720434  0.83139783  0.75248011  1
  Mn  Mn8  1  0.83147909  0.83130117  0.75255419  1
  Mn  Mn9  1  0.16852091  0.66278027  0.24744581  1
  Mn  Mn10  1  0.66279566  0.16860217  0.24751989  1
  Mn  Mn11  1  0.16852091  0.16869883  0.24744581  1
