# generated using pymatgen
data_SmMnB4
_symmetry_space_group_name_H-M   'P 1'
_cell_length_a   3.47174778
_cell_length_b   5.97730244
_cell_length_c   11.56262819
_cell_angle_alpha   90.00000000
_cell_angle_beta   90.00000000
_cell_angle_gamma   90.00000000
_symmetry_Int_Tables_number   1
_chemical_formula_structural   SmMnB4
_chemical_formula_sum   'Sm4 Mn4 B16'
_cell_volume   239.94403504
_cell_formula_units_Z   4
loop_
 _symmetry_equiv_pos_site_id
 _symmetry_equiv_pos_as_xyz
  1  'x, y, z'
loop_
 _atom_site_type_symbol
 _atom_site_label
 _atom_site_symmetry_multiplicity
 _atom_site_fract_x
 _atom_site_fract_y
 _atom_site_fract_z
 _atom_site_occupancy
  B  B0  1  0.50000000  0.02527012  0.68919272  1
  B  B1  1  0.50000000  0.97472988  0.31080728  1
  B  B2  1  0.50000000  0.52527012  0.81080728  1
  B  B3  1  0.50000000  0.47472988  0.18919272  1
  B  B4  1  0.50000000  0.38878848  0.04552768  1
  B  B5  1  0.50000000  0.61121152  0.95447232  1
  B  B6  1  0.50000000  0.88878848  0.45447232  1
  B  B7  1  0.50000000  0.11121152  0.54552768  1
  B  B8  1  0.50000000  0.27734771  0.31752621  1
  B  B9  1  0.50000000  0.72265229  0.68247379  1
  B  B10  1  0.50000000  0.77734771  0.18247379  1
  B  B11  1  0.50000000  0.22265229  0.81752621  1
  B  B12  1  0.50000000  0.35936812  0.46746469  1
  B  B13  1  0.50000000  0.64063188  0.53253531  1
  B  B14  1  0.50000000  0.85936812  0.03253531  1
  B  B15  1  0.50000000  0.14063188  0.96746469  1
  Mn  Mn16  1  0.00000000  0.37421900  0.91689968  1
  Mn  Mn17  1  0.00000000  0.62578100  0.08310032  1
  Mn  Mn18  1  0.00000000  0.87421900  0.58310032  1
  Mn  Mn19  1  0.00000000  0.12578100  0.41689968  1
  Sm  Sm20  1  0.00000000  0.37541974  0.65062263  1
  Sm  Sm21  1  0.00000000  0.62458026  0.34937737  1
  Sm  Sm22  1  0.00000000  0.87541974  0.84937737  1
  Sm  Sm23  1  0.00000000  0.12458026  0.15062263  1
