# generated using pymatgen
data_BaIn2Ir
_symmetry_space_group_name_H-M   'P 1'
_cell_length_a   4.46527676
_cell_length_b   6.31947428
_cell_length_c   8.18888739
_cell_angle_alpha   90.00000000
_cell_angle_beta   90.00000000
_cell_angle_gamma   110.68898223
_symmetry_Int_Tables_number   1
_chemical_formula_structural   BaIn2Ir
_chemical_formula_sum   'Ba2 In4 Ir2'
_cell_volume   216.17406401
_cell_formula_units_Z   2
loop_
 _symmetry_equiv_pos_site_id
 _symmetry_equiv_pos_as_xyz
  1  'x, y, z'
loop_
 _atom_site_type_symbol
 _atom_site_label
 _atom_site_symmetry_multiplicity
 _atom_site_fract_x
 _atom_site_fract_y
 _atom_site_fract_z
 _atom_site_occupancy
  In  In0  1  0.33507243  0.67014487  0.55552303  1
  In  In1  1  0.66492757  0.32985513  0.44447697  1
  In  In2  1  0.33507243  0.67014487  0.94447697  1
  In  In3  1  0.66492757  0.32985513  0.05552303  1
  Ba  Ba4  1  0.94614084  0.89228168  0.25000000  1
  Ba  Ba5  1  0.05385916  0.10771832  0.75000000  1
  Ir  Ir6  1  0.77965212  0.55930424  0.75000000  1
  Ir  Ir7  1  0.22034788  0.44069576  0.25000000  1
