# generated using pymatgen
data_KCeSiS4
_symmetry_space_group_name_H-M   'P 1'
_cell_length_a   6.57542190
_cell_length_b   6.70026807
_cell_length_c   8.82506583
_cell_angle_alpha   90.00000000
_cell_angle_beta   107.23730005
_cell_angle_gamma   90.00000000
_symmetry_Int_Tables_number   1
_chemical_formula_structural   KCeSiS4
_chemical_formula_sum   'K2 Ce2 Si2 S8'
_cell_volume   371.34371398
_cell_formula_units_Z   2
loop_
 _symmetry_equiv_pos_site_id
 _symmetry_equiv_pos_as_xyz
  1  'x, y, z'
loop_
 _atom_site_type_symbol
 _atom_site_label
 _atom_site_symmetry_multiplicity
 _atom_site_fract_x
 _atom_site_fract_y
 _atom_site_fract_z
 _atom_site_occupancy
  Si  Si0  1  0.21638169  0.51084222  0.31895987  1
  Si  Si1  1  0.78361831  0.01084222  0.68104013  1
  S  S2  1  0.40184846  0.55056032  0.56149131  1
  S  S3  1  0.59815154  0.05056032  0.43850869  1
  S  S4  1  0.58668553  0.01001841  0.83137967  1
  S  S5  1  0.41331447  0.51001841  0.16862033  1
  S  S6  1  0.02208465  0.24906697  0.28785057  1
  S  S7  1  0.97791535  0.74906697  0.71214943  1
  S  S8  1  0.01272982  0.24657494  0.72732466  1
  S  S9  1  0.98727018  0.74657494  0.27267534  1
  K  K10  1  0.72262209  0.49906330  0.93194103  1
  K  K11  1  0.27737791  0.99906330  0.06805897  1
  Ce  Ce12  1  0.77011035  0.48087383  0.45006965  1
  Ce  Ce13  1  0.22988965  0.98087383  0.54993035  1
