# generated using pymatgen
data_TmGeRh
_symmetry_space_group_name_H-M   'P 1'
_cell_length_a   4.28738598
_cell_length_b   6.85110612
_cell_length_c   7.54098282
_cell_angle_alpha   90.00000000
_cell_angle_beta   90.00000000
_cell_angle_gamma   90.00000000
_symmetry_Int_Tables_number   1
_chemical_formula_structural   TmGeRh
_chemical_formula_sum   'Tm4 Ge4 Rh4'
_cell_volume   221.50382460
_cell_formula_units_Z   4
loop_
 _symmetry_equiv_pos_site_id
 _symmetry_equiv_pos_as_xyz
  1  'x, y, z'
loop_
 _atom_site_type_symbol
 _atom_site_label
 _atom_site_symmetry_multiplicity
 _atom_site_fract_x
 _atom_site_fract_y
 _atom_site_fract_z
 _atom_site_occupancy
  Ge  Ge0  1  0.25000000  0.28613066  0.89310424  1
  Ge  Ge1  1  0.75000000  0.71386934  0.10689576  1
  Ge  Ge2  1  0.25000000  0.78613066  0.60689576  1
  Ge  Ge3  1  0.75000000  0.21386934  0.39310424  1
  Rh  Rh4  1  0.75000000  0.84300666  0.43325488  1
  Rh  Rh5  1  0.25000000  0.15699334  0.56674512  1
  Rh  Rh6  1  0.75000000  0.34300666  0.06674512  1
  Rh  Rh7  1  0.25000000  0.65699334  0.93325488  1
  Tm  Tm8  1  0.25000000  0.00365624  0.19545810  1
  Tm  Tm9  1  0.75000000  0.99634376  0.80454190  1
  Tm  Tm10  1  0.25000000  0.50365624  0.30454190  1
  Tm  Tm11  1  0.75000000  0.49634376  0.69545810  1
