# generated using pymatgen
data_Ba2In2S5
_symmetry_space_group_name_H-M   'P 1'
_cell_length_a   11.99404864
_cell_length_b   12.92485981
_cell_length_c   13.39899319
_cell_angle_alpha   90.00000000
_cell_angle_beta   90.00000000
_cell_angle_gamma   90.00000000
_symmetry_Int_Tables_number   1
_chemical_formula_structural   Ba2In2S5
_chemical_formula_sum   'Ba16 In16 S40'
_cell_volume   2077.13064574
_cell_formula_units_Z   8
loop_
 _symmetry_equiv_pos_site_id
 _symmetry_equiv_pos_as_xyz
  1  'x, y, z'
loop_
 _atom_site_type_symbol
 _atom_site_label
 _atom_site_symmetry_multiplicity
 _atom_site_fract_x
 _atom_site_fract_y
 _atom_site_fract_z
 _atom_site_occupancy
  S  S0  1  0.75715671  0.35640986  0.54041023  1
  S  S1  1  0.25715671  0.64359014  0.95958977  1
  S  S2  1  0.74284329  0.85640986  0.45958977  1
  S  S3  1  0.24284329  0.14359014  0.04041023  1
  S  S4  1  0.24284329  0.64359014  0.45958977  1
  S  S5  1  0.74284329  0.35640986  0.04041023  1
  S  S6  1  0.25715671  0.14359014  0.54041023  1
  S  S7  1  0.75715671  0.85640986  0.95958977  1
  S  S8  1  0.24160058  0.48781108  0.20894928  1
  S  S9  1  0.74160058  0.51218892  0.29105072  1
  S  S10  1  0.25839942  0.98781108  0.79105072  1
  S  S11  1  0.75839942  0.01218892  0.70894928  1
  S  S12  1  0.75839942  0.51218892  0.79105072  1
  S  S13  1  0.25839942  0.48781108  0.70894928  1
  S  S14  1  0.74160058  0.01218892  0.20894928  1
  S  S15  1  0.24160058  0.98781108  0.29105072  1
  S  S16  1  0.43088473  0.38894173  0.43002196  1
  S  S17  1  1.00198724  0.22186114  0.72349674  1
  S  S18  1  0.93088473  0.61105827  0.06997804  1
  S  S19  1  0.56911527  0.11105827  0.93002196  1
  S  S20  1  0.56911527  0.61105827  0.56997804  1
  S  S21  1  0.06911527  0.38894173  0.93002196  1
  S  S22  1  0.93088473  0.11105827  0.43002196  1
  S  S23  1  0.43088473  0.88894173  0.06997804  1
  S  S24  1  0.90595459  0.12149421  0.97478890  1
  S  S25  1  0.40595459  0.87850579  0.52521110  1
  S  S26  1  0.59404541  0.62149421  0.02521110  1
  S  S27  1  0.09404541  0.37850579  0.47478890  1
  S  S28  1  0.09404541  0.87850579  0.02521110  1
  S  S29  1  0.59404541  0.12149421  0.47478890  1
  S  S30  1  0.40595459  0.37850579  0.97478890  1
  S  S31  1  0.90595459  0.62149421  0.52521110  1
  S  S32  1  1.00198724  0.72186114  0.77650326  1
  S  S33  1  0.50198724  0.27813886  0.72349674  1
  S  S34  1  0.49801276  0.22186114  0.22349674  1
  S  S35  1  -0.00198724  0.77813886  0.27650326  1
  S  S36  1  -0.00198724  0.27813886  0.22349674  1
  S  S37  1  0.49801276  0.72186114  0.27650326  1
  S  S38  1  0.50198724  0.77813886  0.77650326  1
  S  S39  1  0.06911527  0.88894173  0.56997804  1
  In  In40  1  0.55743435  0.29911413  0.55004171  1
  In  In41  1  0.05743435  0.70088587  0.94995829  1
  In  In42  1  0.94256565  0.79911413  0.44995829  1
  In  In43  1  0.44256565  0.20088587  0.05004171  1
  In  In44  1  0.44256565  0.70088587  0.44995829  1
  In  In45  1  0.94256565  0.29911413  0.05004171  1
  In  In46  1  0.05743435  0.20088587  0.55004171  1
  In  In47  1  0.55743435  0.79911413  0.94995829  1
  In  In48  1  0.77469480  0.53465908  0.97226926  1
  In  In49  1  0.27469480  0.46534092  0.52773074  1
  In  In50  1  0.72530520  0.03465908  0.02773074  1
  In  In51  1  0.22530520  0.96534092  0.47226926  1
  In  In52  1  0.22530520  0.46534092  0.02773074  1
  In  In53  1  0.72530520  0.53465908  0.47226926  1
  In  In54  1  0.27469480  0.96534092  0.97226926  1
  In  In55  1  0.77469480  0.03465908  0.52773074  1
  Ba  Ba56  1  0.75155314  0.25372973  0.30884515  1
  Ba  Ba57  1  0.25155314  0.74627027  0.19115485  1
  Ba  Ba58  1  0.74844686  0.75372973  0.69115485  1
  Ba  Ba59  1  0.24844686  0.24627027  0.80884515  1
  Ba  Ba60  1  0.24844686  0.74627027  0.69115485  1
  Ba  Ba61  1  0.74844686  0.25372973  0.80884515  1
  Ba  Ba62  1  0.25155314  0.24627027  0.30884515  1
  Ba  Ba63  1  0.75155314  0.75372973  0.19115485  1
  Ba  Ba64  1  0.50525067  0.47439786  0.19402085  1
  Ba  Ba65  1  0.00525067  0.52560214  0.30597915  1
  Ba  Ba66  1  0.99474933  0.97439786  0.80597915  1
  Ba  Ba67  1  0.49474933  0.02560214  0.69402085  1
  Ba  Ba68  1  0.49474933  0.52560214  0.80597915  1
  Ba  Ba69  1  0.99474933  0.47439786  0.69402085  1
  Ba  Ba70  1  0.00525067  0.02560214  0.19402085  1
  Ba  Ba71  1  0.50525067  0.97439786  0.30597915  1
