# generated using pymatgen
data_Bi2S3
_symmetry_space_group_name_H-M   'P 1'
_cell_length_a   4.02142059
_cell_length_b   11.17050341
_cell_length_c   11.73532505
_cell_angle_alpha   90.00000000
_cell_angle_beta   90.00000000
_cell_angle_gamma   90.00000000
_symmetry_Int_Tables_number   1
_chemical_formula_structural   Bi2S3
_chemical_formula_sum   'Bi8 S12'
_cell_volume   527.16596814
_cell_formula_units_Z   4
loop_
 _symmetry_equiv_pos_site_id
 _symmetry_equiv_pos_as_xyz
  1  'x, y, z'
loop_
 _atom_site_type_symbol
 _atom_site_label
 _atom_site_symmetry_multiplicity
 _atom_site_fract_x
 _atom_site_fract_y
 _atom_site_fract_z
 _atom_site_occupancy
  S  S0  1  0.75000000  0.37035072  0.95242239  1
  S  S1  1  0.25000000  0.62964928  0.04757761  1
  S  S2  1  0.25000000  0.87035072  0.54757761  1
  S  S3  1  0.75000000  0.12964928  0.45242239  1
  S  S4  1  0.75000000  0.44525127  0.62157459  1
  S  S5  1  0.25000000  0.55474873  0.37842541  1
  S  S6  1  0.25000000  0.94525127  0.87842541  1
  S  S7  1  0.75000000  0.05474873  0.12157459  1
  S  S8  1  0.25000000  0.30916894  0.21081724  1
  S  S9  1  0.75000000  0.69083106  0.78918276  1
  S  S10  1  0.75000000  0.80916894  0.28918276  1
  S  S11  1  0.25000000  0.19083106  0.71081724  1
  Bi  Bi12  1  0.25000000  0.32644377  0.51760909  1
  Bi  Bi13  1  0.75000000  0.67355623  0.48239091  1
  Bi  Bi14  1  0.75000000  0.82644377  0.98239091  1
  Bi  Bi15  1  0.25000000  0.17355623  0.01760909  1
  Bi  Bi16  1  0.75000000  0.03222673  0.65622364  1
  Bi  Bi17  1  0.25000000  0.96777327  0.34377636  1
  Bi  Bi18  1  0.25000000  0.53222673  0.84377636  1
  Bi  Bi19  1  0.75000000  0.46777327  0.15622364  1
