# generated using pymatgen
data_Pr2I5
_symmetry_space_group_name_H-M   'P 1'
_cell_length_a   4.36479316
_cell_length_b   9.41697288
_cell_length_c   15.00303334
_cell_angle_alpha   94.67338554
_cell_angle_beta   90.00000000
_cell_angle_gamma   90.00000000
_symmetry_Int_Tables_number   1
_chemical_formula_structural   Pr2I5
_chemical_formula_sum   'Pr4 I10'
_cell_volume   614.62153851
_cell_formula_units_Z   2
loop_
 _symmetry_equiv_pos_site_id
 _symmetry_equiv_pos_as_xyz
  1  'x, y, z'
loop_
 _atom_site_type_symbol
 _atom_site_label
 _atom_site_symmetry_multiplicity
 _atom_site_fract_x
 _atom_site_fract_y
 _atom_site_fract_z
 _atom_site_occupancy
  I  I0  1  0.75000000  0.36563282  0.71502237  1
  I  I1  1  0.25000000  0.63436718  0.28497763  1
  I  I2  1  0.75000000  0.86634146  0.07114499  1
  I  I3  1  0.25000000  0.13365854  0.92885501  1
  I  I4  1  0.25000000  0.31915135  0.48532881  1
  I  I5  1  0.75000000  0.68084865  0.51467119  1
  I  I6  1  0.25000000  0.93471391  0.69153493  1
  I  I7  1  0.75000000  0.06528609  0.30846507  1
  I  I8  1  0.25000000  0.65214379  0.87501946  1
  I  I9  1  0.75000000  0.34785621  0.12498054  1
  Pr  Pr10  1  0.75000000  0.89763469  0.84874786  1
  Pr  Pr11  1  0.25000000  0.10236531  0.15125214  1
  Pr  Pr12  1  0.75000000  0.41400029  0.34248115  1
  Pr  Pr13  1  0.25000000  0.58599971  0.65751885  1
