# generated using pymatgen
data_SnP2PbO8
_symmetry_space_group_name_H-M   'P 1'
_cell_length_a   4.93070710
_cell_length_b   8.95337848
_cell_length_c   15.07305123
_cell_angle_alpha   90.00000000
_cell_angle_beta   90.00000000
_cell_angle_gamma   92.66238724
_symmetry_Int_Tables_number   1
_chemical_formula_structural   SnP2PbO8
_chemical_formula_sum   'Sn4 P8 Pb4 O32'
_cell_volume   664.70399062
_cell_formula_units_Z   4
loop_
 _symmetry_equiv_pos_site_id
 _symmetry_equiv_pos_as_xyz
  1  'x, y, z'
loop_
 _atom_site_type_symbol
 _atom_site_label
 _atom_site_symmetry_multiplicity
 _atom_site_fract_x
 _atom_site_fract_y
 _atom_site_fract_z
 _atom_site_occupancy
  O  O0  1  0.90712894  0.33924677  0.89269936  1
  O  O1  1  0.59287106  0.16075323  0.39269936  1
  O  O2  1  0.09287106  0.66075323  0.10730064  1
  O  O3  1  0.40712894  0.83924677  0.60730064  1
  O  O4  1  0.44335739  0.33769780  0.96083131  1
  O  O5  1  0.05664261  0.16230220  0.46083131  1
  O  O6  1  0.55664261  0.66230220  0.03916869  1
  O  O7  1  0.94335739  0.83769780  0.53916869  1
  O  O8  1  0.85327113  0.37582745  0.06206895  1
  O  O9  1  0.64672887  0.12417255  0.56206895  1
  O  O10  1  0.14672887  0.62417255  0.93793105  1
  O  O11  1  0.35327113  0.87582745  0.43793105  1
  O  O12  1  0.74426107  0.37278779  0.49539800  1
  O  O13  1  0.75573893  0.12721221  0.99539800  1
  O  O14  1  0.25573893  0.62721221  0.50460200  1
  O  O15  1  0.24426107  0.87278779  0.00460200  1
  O  O16  1  0.84120285  0.95068501  0.15165654  1
  O  O17  1  0.65879715  0.54931499  0.65165654  1
  O  O18  1  0.15879715  0.04931499  0.84834346  1
  O  O19  1  0.34120285  0.45068501  0.34834346  1
  O  O20  1  0.43784472  0.96453785  0.24954653  1
  O  O21  1  0.06215528  0.53546215  0.74954653  1
  O  O22  1  0.56215528  0.03546215  0.75045347  1
  O  O23  1  0.93784472  0.46453785  0.25045347  1
  O  O24  1  0.89928629  0.91674676  0.32121258  1
  O  O25  1  0.60071371  0.58325324  0.82121258  1
  O  O26  1  0.10071371  0.08325324  0.67878742  1
  O  O27  1  0.39928629  0.41674676  0.17878742  1
  O  O28  1  0.84784567  0.78290594  0.73407507  1
  O  O29  1  0.65215433  0.71709406  0.23407507  1
  O  O30  1  0.15215433  0.21709406  0.26592493  1
  O  O31  1  0.34784567  0.28290594  0.76592493  1
  P  P32  1  0.74379349  0.29651751  0.97650985  1
  P  P33  1  0.75620651  0.20348249  0.47650985  1
  P  P34  1  0.25620651  0.70348249  0.02349015  1
  P  P35  1  0.24379349  0.79651751  0.52349015  1
  P  P36  1  0.21858024  0.39052346  0.26257290  1
  P  P37  1  0.28141976  0.10947654  0.76257290  1
  P  P38  1  0.78141976  0.60947654  0.73742710  1
  P  P39  1  0.71858024  0.89052346  0.23742710  1
  Sn  Sn40  1  0.26367631  0.44980162  0.85846002  1
  Sn  Sn41  1  0.23632369  0.05019838  0.35846002  1
  Sn  Sn42  1  0.73632369  0.55019838  0.14153998  1
  Sn  Sn43  1  0.76367631  0.94980162  0.64153998  1
  Pb  Pb44  1  0.28581377  0.41083017  0.60060157  1
  Pb  Pb45  1  0.21418623  0.08916983  0.10060157  1
  Pb  Pb46  1  0.71418623  0.58916983  0.39939843  1
  Pb  Pb47  1  0.78581377  0.91083017  0.89939843  1
