# generated using pymatgen
data_KNb8O14
_symmetry_space_group_name_H-M   'P 1'
_cell_length_a   5.98952253
_cell_length_b   9.48672161
_cell_length_c   10.39335833
_cell_angle_alpha   90.00000000
_cell_angle_beta   90.00000000
_cell_angle_gamma   90.00000000
_symmetry_Int_Tables_number   1
_chemical_formula_structural   KNb8O14
_chemical_formula_sum   'K2 Nb16 O28'
_cell_volume   590.56031543
_cell_formula_units_Z   2
loop_
 _symmetry_equiv_pos_site_id
 _symmetry_equiv_pos_as_xyz
  1  'x, y, z'
loop_
 _atom_site_type_symbol
 _atom_site_label
 _atom_site_symmetry_multiplicity
 _atom_site_fract_x
 _atom_site_fract_y
 _atom_site_fract_z
 _atom_site_occupancy
  K  K0  1  0.50000000  0.00000000  0.50000000  1
  K  K1  1  0.50000000  0.50000000  0.00000000  1
  Nb  Nb2  1  0.50000000  0.62054269  0.33374816  1
  Nb  Nb3  1  0.50000000  0.12054269  0.16625184  1
  Nb  Nb4  1  0.00000000  0.38691169  0.16209069  1
  Nb  Nb5  1  0.50000000  0.37945731  0.66625184  1
  Nb  Nb6  1  0.50000000  0.87945731  0.83374816  1
  Nb  Nb7  1  0.26491128  0.12686328  0.92388038  1
  Nb  Nb8  1  0.26491128  0.37313672  0.42388038  1
  Nb  Nb9  1  0.73508872  0.12686328  0.92388038  1
  Nb  Nb10  1  0.26491128  0.62686328  0.57611962  1
  Nb  Nb11  1  0.73508872  0.62686328  0.57611962  1
  Nb  Nb12  1  0.73508872  0.37313672  0.42388038  1
  Nb  Nb13  1  0.26491128  0.87313672  0.07611962  1
  Nb  Nb14  1  0.00000000  0.88691169  0.33790931  1
  Nb  Nb15  1  0.73508872  0.87313672  0.07611962  1
  Nb  Nb16  1  0.00000000  0.11308831  0.66209069  1
  Nb  Nb17  1  0.00000000  0.61308831  0.83790931  1
  O  O18  1  0.74950099  0.49493358  0.24834022  1
  O  O19  1  0.74950099  0.99493358  0.25165978  1
  O  O20  1  0.00000000  0.00000000  0.50000000  1
  O  O21  1  0.25049901  0.00506642  0.74834022  1
  O  O22  1  0.50000000  0.25361592  0.84270153  1
  O  O23  1  0.74950099  0.00506642  0.74834022  1
  O  O24  1  0.24650844  0.25291514  0.08945961  1
  O  O25  1  0.50000000  0.75361592  0.65729847  1
  O  O26  1  0.25049901  0.99493358  0.25165978  1
  O  O27  1  0.24650844  0.74708486  0.91054039  1
  O  O28  1  0.74950099  0.50506642  0.75165978  1
  O  O29  1  0.50000000  0.74638408  0.15729847  1
  O  O30  1  0.24650844  0.75291514  0.41054039  1
  O  O31  1  0.24650844  0.24708486  0.58945961  1
  O  O32  1  0.00000000  0.76688307  0.17683499  1
  O  O33  1  0.50000000  0.24638408  0.34270153  1
  O  O34  1  0.00000000  0.50000000  0.00000000  1
  O  O35  1  0.75349156  0.25291514  0.08945961  1
  O  O36  1  0.75349156  0.74708486  0.91054039  1
  O  O37  1  0.75349156  0.24708486  0.58945961  1
  O  O38  1  0.25049901  0.49493358  0.24834022  1
  O  O39  1  0.25049901  0.50506642  0.75165978  1
  O  O40  1  0.00000000  0.23311693  0.82316501  1
  O  O41  1  0.00000000  0.73311693  0.67683499  1
  O  O42  1  0.75349156  0.75291514  0.41054039  1
  O  O43  1  0.00000000  0.50000000  0.50000000  1
  O  O44  1  0.00000000  0.00000000  0.00000000  1
  O  O45  1  0.00000000  0.26688307  0.32316501  1
