# generated using pymatgen
data_Eu2Ge2O7
_symmetry_space_group_name_H-M   'P 1'
_cell_length_a   7.03795832
_cell_length_b   7.03795832
_cell_length_c   12.72625873
_cell_angle_alpha   90.00000000
_cell_angle_beta   90.00000000
_cell_angle_gamma   90.00000000
_symmetry_Int_Tables_number   1
_chemical_formula_structural   Eu2Ge2O7
_chemical_formula_sum   'Eu8 Ge8 O28'
_cell_volume   630.36795781
_cell_formula_units_Z   4
loop_
 _symmetry_equiv_pos_site_id
 _symmetry_equiv_pos_as_xyz
  1  'x, y, z'
loop_
 _atom_site_type_symbol
 _atom_site_label
 _atom_site_symmetry_multiplicity
 _atom_site_fract_x
 _atom_site_fract_y
 _atom_site_fract_z
 _atom_site_occupancy
  O  O0  1  0.85666711  0.30462410  0.95363141  1
  O  O1  1  0.14333289  0.69537590  0.45363141  1
  O  O2  1  0.30462410  0.85666711  0.04636859  1
  O  O3  1  0.80462410  0.64333289  0.70363141  1
  O  O4  1  0.19537590  0.35666711  0.20363141  1
  O  O5  1  0.64333289  0.80462410  0.29636859  1
  O  O6  1  0.35666711  0.19537590  0.79636859  1
  O  O7  1  0.69537590  0.14333289  0.54636859  1
  O  O8  1  0.66068685  0.93992825  0.92655804  1
  O  O9  1  0.33931315  0.06007175  0.42655804  1
  O  O10  1  0.93992825  0.66068685  0.07344196  1
  O  O11  1  0.43992825  0.83931315  0.67655804  1
  O  O12  1  0.56007175  0.16068685  0.17655804  1
  O  O13  1  0.83931315  0.43992825  0.32344196  1
  O  O14  1  0.16068685  0.56007175  0.82344196  1
  O  O15  1  0.06007175  0.33931315  0.57344196  1
  O  O16  1  0.30307284  0.30307284  0.00000000  1
  O  O17  1  0.19692716  0.80307284  0.25000000  1
  O  O18  1  0.80307284  0.19692716  0.75000000  1
  O  O19  1  0.69692716  0.69692716  0.50000000  1
  O  O20  1  0.07740598  0.97589647  0.62660111  1
  O  O21  1  0.52410353  0.57740598  0.87660111  1
  O  O22  1  0.47589647  0.42259402  0.37660111  1
  O  O23  1  0.57740598  0.52410353  0.12339889  1
  O  O24  1  0.42259402  0.47589647  0.62339889  1
  O  O25  1  0.92259402  0.02410353  0.12660111  1
  O  O26  1  0.97589647  0.07740598  0.37339889  1
  O  O27  1  0.02410353  0.92259402  0.87339889  1
  Ge  Ge28  1  0.84352165  0.09546714  0.87793577  1
  Ge  Ge29  1  0.15647835  0.90453286  0.37793577  1
  Ge  Ge30  1  0.09546714  0.84352165  0.12206423  1
  Ge  Ge31  1  0.59546714  0.65647835  0.62793577  1
  Ge  Ge32  1  0.40453286  0.34352165  0.12793577  1
  Ge  Ge33  1  0.65647835  0.59546714  0.37206423  1
  Ge  Ge34  1  0.34352165  0.40453286  0.87206423  1
  Ge  Ge35  1  0.90453286  0.15647835  0.62206423  1
  Eu  Eu36  1  0.64990491  0.11754145  0.36482746  1
  Eu  Eu37  1  0.35009509  0.88245855  0.86482746  1
  Eu  Eu38  1  0.11754145  0.64990491  0.63517254  1
  Eu  Eu39  1  0.61754145  0.85009509  0.11482746  1
  Eu  Eu40  1  0.38245855  0.14990491  0.61482746  1
  Eu  Eu41  1  0.85009509  0.61754145  0.88517254  1
  Eu  Eu42  1  0.14990491  0.38245855  0.38517254  1
  Eu  Eu43  1  0.88245855  0.35009509  0.13517254  1
