# generated using pymatgen
data_DySi3Rh5
_symmetry_space_group_name_H-M   'P 1'
_cell_length_a   15.65155042
_cell_length_b   15.65155042
_cell_length_c   3.88198632
_cell_angle_alpha   90.00000000
_cell_angle_beta   90.00000000
_cell_angle_gamma   120.00000000
_symmetry_Int_Tables_number   1
_chemical_formula_structural   DySi3Rh5
_chemical_formula_sum   'Dy6 Si18 Rh30'
_cell_volume   823.56780621
_cell_formula_units_Z   6
loop_
 _symmetry_equiv_pos_site_id
 _symmetry_equiv_pos_as_xyz
  1  'x, y, z'
loop_
 _atom_site_type_symbol
 _atom_site_label
 _atom_site_symmetry_multiplicity
 _atom_site_fract_x
 _atom_site_fract_y
 _atom_site_fract_z
 _atom_site_occupancy
  Si  Si0  1  0.44163567  0.76018315  0.75000000  1
  Si  Si1  1  0.68145252  0.44163567  0.25000000  1
  Si  Si2  1  0.76018315  0.31854748  0.25000000  1
  Si  Si3  1  0.23981685  0.68145252  0.75000000  1
  Si  Si4  1  0.31854748  0.55836433  0.75000000  1
  Si  Si5  1  0.55836433  0.23981685  0.25000000  1
  Si  Si6  1  0.88000751  0.13025009  0.25000000  1
  Si  Si7  1  0.11999249  0.86974991  0.75000000  1
  Si  Si8  1  0.13025009  0.25024258  0.75000000  1
  Si  Si9  1  0.25024258  0.11999249  0.25000000  1
  Si  Si10  1  0.37085818  0.93810608  0.25000000  1
  Si  Si11  1  0.43275210  0.37085818  0.75000000  1
  Si  Si12  1  0.93810608  0.56724790  0.75000000  1
  Si  Si13  1  0.06189392  0.43275210  0.25000000  1
  Si  Si14  1  0.56724790  0.62914182  0.25000000  1
  Si  Si15  1  0.62914182  0.06189392  0.75000000  1
  Si  Si16  1  0.74975742  0.88000751  0.75000000  1
  Si  Si17  1  0.86974991  0.74975742  0.25000000  1
  Rh  Rh18  1  0.46373331  0.92487552  0.75000000  1
  Rh  Rh19  1  0.15323123  0.41442265  0.75000000  1
  Rh  Rh20  1  0.26119142  0.84676877  0.75000000  1
  Rh  Rh21  1  0.73880858  0.15323123  0.25000000  1
  Rh  Rh22  1  0.84676877  0.58557735  0.25000000  1
  Rh  Rh23  1  0.41442265  0.26119142  0.25000000  1
  Rh  Rh24  1  0.65210232  0.22336789  0.75000000  1
  Rh  Rh25  1  0.42873443  0.65210232  0.25000000  1
  Rh  Rh26  1  0.22336789  0.57126557  0.25000000  1
  Rh  Rh27  1  0.77663211  0.42873443  0.75000000  1
  Rh  Rh28  1  0.57126557  0.34789768  0.75000000  1
  Rh  Rh29  1  0.34789768  0.77663211  0.25000000  1
  Rh  Rh30  1  0.14313736  0.02953129  0.75000000  1
  Rh  Rh31  1  0.11360607  0.14313736  0.25000000  1
  Rh  Rh32  1  0.02953129  0.88639393  0.25000000  1
  Rh  Rh33  1  0.97046871  0.11360607  0.75000000  1
  Rh  Rh34  1  0.88639393  0.85686264  0.75000000  1
  Rh  Rh35  1  0.85686264  0.97046871  0.25000000  1
  Rh  Rh36  1  0.92487552  0.46114222  0.25000000  1
  Rh  Rh37  1  0.07512448  0.53885778  0.75000000  1
  Rh  Rh38  1  0.46114222  0.53626669  0.75000000  1
  Rh  Rh39  1  0.53626669  0.07512448  0.25000000  1
  Rh  Rh40  1  0.72867001  0.77194532  0.25000000  1
  Rh  Rh41  1  0.95672469  0.72867001  0.75000000  1
  Rh  Rh42  1  0.77194532  0.04327531  0.75000000  1
  Rh  Rh43  1  0.22805468  0.95672469  0.25000000  1
  Rh  Rh44  1  0.04327531  0.27132999  0.25000000  1
  Rh  Rh45  1  0.27132999  0.22805468  0.75000000  1
  Rh  Rh46  1  0.58557735  0.73880858  0.75000000  1
  Rh  Rh47  1  0.53885778  0.46373331  0.25000000  1
  Dy  Dy48  1  0.60610685  0.89971986  0.25000000  1
  Dy  Dy49  1  0.70638699  0.60610685  0.75000000  1
  Dy  Dy50  1  0.89971986  0.29361301  0.75000000  1
  Dy  Dy51  1  0.10028014  0.70638699  0.25000000  1
  Dy  Dy52  1  0.29361301  0.39389315  0.25000000  1
  Dy  Dy53  1  0.39389315  0.10028014  0.75000000  1
