# generated using pymatgen
data_CoH7C3NO6
_symmetry_space_group_name_H-M   'P 1'
_cell_length_a   7.36955787
_cell_length_b   7.45957355
_cell_length_c   8.20487872
_cell_angle_alpha   91.23403343
_cell_angle_beta   90.00000001
_cell_angle_gamma   119.60161631
_symmetry_Int_Tables_number   1
_chemical_formula_structural   CoH7C3NO6
_chemical_formula_sum   'Co2 H14 C6 N2 O12'
_cell_volume   392.06171148
_cell_formula_units_Z   2
loop_
 _symmetry_equiv_pos_site_id
 _symmetry_equiv_pos_as_xyz
  1  'x, y, z'
loop_
 _atom_site_type_symbol
 _atom_site_label
 _atom_site_symmetry_multiplicity
 _atom_site_fract_x
 _atom_site_fract_y
 _atom_site_fract_z
 _atom_site_occupancy
  Co  Co0  1  0.33429915  0.66695964  0.25034930  1
  Co  Co1  1  0.66733951  0.33304036  0.74965070  1
  H  H2  1  0.99869037  0.40920941  0.49863019  1
  H  H3  1  0.41001469  1.00000000  0.50000000  1
  H  H4  1  0.58948096  0.59079059  0.50136981  1
  H  H5  1  0.99813207  0.59002830  0.99897147  1
  H  H6  1  0.58827966  0.00000000  0.00000000  1
  H  H7  1  0.40810377  0.40997170  0.00102853  1
  H  H8  1  0.89440922  0.92020711  0.34491745  1
  H  H9  1  0.08400843  0.15129617  0.28142115  1
  H  H10  1  0.97420211  0.07979289  0.65508255  1
  H  H11  1  0.93271226  0.84870383  0.71857885  1
  H  H12  1  0.91866331  0.02758495  0.84541821  1
  H  H13  1  0.15300382  0.06740101  0.78103838  1
  H  H14  1  0.89107836  0.97241505  0.15458179  1
  H  H15  1  0.08560281  0.93259899  0.21896162  1
  C  C16  1  0.00147627  0.55880865  0.50153208  1
  C  C17  1  0.55982300  1.00000000  0.50000000  1
  C  C18  1  0.44266762  0.44119135  0.49846792  1
  C  C19  1  0.00026241  0.44278509  0.99926902  1
  C  C20  1  0.43815834  0.00000000  0.00000000  1
  C  C21  1  0.55747732  0.55721491  0.00073098  1
  N  N22  1  0.99152514  0.99576103  0.24999968  1
  N  N23  1  0.99576411  0.00423897  0.75000032  1
  O  O24  1  0.11278619  0.69137891  0.39831322  1
  O  O25  1  0.58490507  0.88630907  0.39545564  1
  O  O26  1  0.30574908  0.41410388  0.39126668  1
  O  O27  1  0.42140728  0.30862109  0.60168678  1
  O  O28  1  0.69859600  0.11369093  0.60454436  1
  O  O29  1  0.89164520  0.58589612  0.60873332  1
  O  O30  1  0.88722528  0.30397285  0.89502426  1
  O  O31  1  0.41206080  0.10723219  0.89376178  1
  O  O32  1  0.69266380  0.57805825  0.89617275  1
  O  O33  1  0.58325243  0.69602715  0.10497574  1
  O  O34  1  0.30482860  0.89276781  0.10623822  1
  O  O35  1  0.11460555  0.42194175  0.10382725  1
