# generated using pymatgen
data_HgCl
_symmetry_space_group_name_H-M   'P 1'
_cell_length_a   4.74624404
_cell_length_b   4.74624404
_cell_length_c   6.49631179
_cell_angle_alpha   111.42622941
_cell_angle_beta   111.42622937
_cell_angle_gamma   90.00000008
_symmetry_Int_Tables_number   1
_chemical_formula_structural   HgCl
_chemical_formula_sum   'Hg2 Cl2'
_cell_volume   125.29992574
_cell_formula_units_Z   2
loop_
 _symmetry_equiv_pos_site_id
 _symmetry_equiv_pos_as_xyz
  1  'x, y, z'
loop_
 _atom_site_type_symbol
 _atom_site_label
 _atom_site_symmetry_multiplicity
 _atom_site_fract_x
 _atom_site_fract_y
 _atom_site_fract_z
 _atom_site_occupancy
  Cl  Cl0  1  0.66319865  0.66319865  0.32639730  1
  Cl  Cl1  1  0.33680135  0.33680135  0.67360270  1
  Hg  Hg2  1  0.88274643  0.88274643  0.76549287  1
  Hg  Hg3  1  0.11725357  0.11725357  0.23450713  1
