# generated using pymatgen
data_La2O3
_symmetry_space_group_name_H-M   'P 1'
_cell_length_a   9.87429901
_cell_length_b   9.87429901
_cell_length_c   9.87429901
_cell_angle_alpha   109.47122062
_cell_angle_beta   109.47122061
_cell_angle_gamma   109.47122064
_symmetry_Int_Tables_number   1
_chemical_formula_structural   La2O3
_chemical_formula_sum   'La16 O24'
_cell_volume   741.13433249
_cell_formula_units_Z   8
loop_
 _symmetry_equiv_pos_site_id
 _symmetry_equiv_pos_as_xyz
  1  'x, y, z'
loop_
 _atom_site_type_symbol
 _atom_site_label
 _atom_site_symmetry_multiplicity
 _atom_site_fract_x
 _atom_site_fract_y
 _atom_site_fract_z
 _atom_site_occupancy
  O  O0  1  0.02668389  0.48946190  0.75888802  1
  O  O1  1  0.23057388  0.26779588  0.74111198  1
  O  O2  1  0.26942612  0.01053810  0.03722199  1
  O  O3  1  0.23220412  0.46277801  0.47331611  1
  O  O4  1  0.46277801  0.47331611  0.23220412  1
  O  O5  1  0.75888802  0.02668389  0.48946190  1
  O  O6  1  0.26779588  0.74111198  0.23057388  1
  O  O7  1  0.03722199  0.26942612  0.01053810  1
  O  O8  1  0.48946190  0.75888802  0.02668389  1
  O  O9  1  0.74111198  0.23057388  0.26779588  1
  O  O10  1  0.01053810  0.03722199  0.26942612  1
  O  O11  1  0.47331611  0.23220412  0.46277801  1
  O  O12  1  0.97331611  0.51053810  0.24111198  1
  O  O13  1  0.76942612  0.73220412  0.25888802  1
  O  O14  1  0.73057388  0.98946190  0.96277801  1
  O  O15  1  0.76779588  0.53722199  0.52668389  1
  O  O16  1  0.52668389  0.76779588  0.53722199  1
  O  O17  1  0.98946190  0.96277801  0.73057388  1
  O  O18  1  0.25888802  0.76942612  0.73220412  1
  O  O19  1  0.51053810  0.24111198  0.97331611  1
  O  O20  1  0.96277801  0.73057388  0.98946190  1
  O  O21  1  0.73220412  0.25888802  0.76942612  1
  O  O22  1  0.24111198  0.97331611  0.51053810  1
  O  O23  1  0.53722199  0.52668389  0.76779588  1
  La  La24  1  0.25000000  0.72095781  0.47095781  1
  La  La25  1  0.02904219  0.75000000  0.77904219  1
  La  La26  1  0.77904219  0.02904219  0.75000000  1
  La  La27  1  0.47095781  0.25000000  0.72095781  1
  La  La28  1  0.72095781  0.47095781  0.25000000  1
  La  La29  1  0.75000000  0.77904219  0.02904219  1
  La  La30  1  0.75000000  0.27904219  0.52904219  1
  La  La31  1  0.97095781  0.25000000  0.22095781  1
  La  La32  1  0.22095781  0.97095781  0.25000000  1
  La  La33  1  0.52904219  0.75000000  0.27904219  1
  La  La34  1  0.27904219  0.52904219  0.75000000  1
  La  La35  1  0.25000000  0.22095781  0.97095781  1
  La  La36  1  0.00000000  0.50000000  0.00000000  1
  La  La37  1  0.50000000  0.00000000  0.00000000  1
  La  La38  1  0.00000000  0.00000000  0.50000000  1
  La  La39  1  0.50000000  0.50000000  0.50000000  1
