# generated using pymatgen
data_CdAs2HF13
_symmetry_space_group_name_H-M   'P 1'
_cell_length_a   9.55856873
_cell_length_b   9.63407676
_cell_length_c   10.79596986
_cell_angle_alpha   104.55292805
_cell_angle_beta   90.00000000
_cell_angle_gamma   90.00000000
_symmetry_Int_Tables_number   1
_chemical_formula_structural   CdAs2HF13
_chemical_formula_sum   'Cd4 As8 H4 F52'
_cell_volume   962.28180033
_cell_formula_units_Z   4
loop_
 _symmetry_equiv_pos_site_id
 _symmetry_equiv_pos_as_xyz
  1  'x, y, z'
loop_
 _atom_site_type_symbol
 _atom_site_label
 _atom_site_symmetry_multiplicity
 _atom_site_fract_x
 _atom_site_fract_y
 _atom_site_fract_z
 _atom_site_occupancy
  H  H0  1  0.47647341  0.79063619  0.41454938  1
  H  H1  1  0.97647341  0.20936381  0.08545062  1
  H  H2  1  0.52352659  0.20936381  0.58545062  1
  H  H3  1  0.02352659  0.79063619  0.91454938  1
  F  F4  1  0.95732727  0.95244500  0.82327262  1
  F  F5  1  0.45732727  0.04755500  0.67672738  1
  F  F6  1  0.04267273  0.04755500  0.17672738  1
  F  F7  1  0.54267273  0.95244500  0.32327262  1
  F  F8  1  0.75111407  0.84786467  0.68379670  1
  F  F9  1  0.25111407  0.15213533  0.81620330  1
  F  F10  1  0.24888593  0.15213533  0.31620330  1
  F  F11  1  0.74888593  0.84786467  0.18379670  1
  F  F12  1  0.76525238  0.04084160  0.56896906  1
  F  F13  1  0.26525238  0.95915840  0.93103094  1
  F  F14  1  0.23474762  0.95915840  0.43103094  1
  F  F15  1  0.73474762  0.04084160  0.06896906  1
  F  F16  1  0.96464106  0.14542525  0.70024817  1
  F  F17  1  0.46464106  0.85457475  0.79975183  1
  F  F18  1  0.03535894  0.85457475  0.29975183  1
  F  F19  1  0.53535894  0.14542525  0.20024817  1
  F  F20  1  0.74360833  0.10612842  0.80964718  1
  F  F21  1  0.24360833  0.89387158  0.69035282  1
  F  F22  1  0.25639167  0.89387158  0.19035282  1
  F  F23  1  0.75639167  0.10612842  0.30964718  1
  F  F24  1  0.97710183  0.88835362  0.57939293  1
  F  F25  1  0.47710183  0.11164638  0.92060707  1
  F  F26  1  0.02289817  0.11164638  0.42060707  1
  F  F27  1  0.52289817  0.88835362  0.07939293  1
  F  F28  1  0.08486827  0.44024370  0.80769105  1
  F  F29  1  0.58486827  0.55975630  0.69230895  1
  F  F30  1  0.91513173  0.55975630  0.19230895  1
  F  F31  1  0.41513173  0.44024370  0.30769105  1
  F  F32  1  0.27741590  0.34847926  0.64602841  1
  F  F33  1  0.77741590  0.65152074  0.85397159  1
  F  F34  1  0.72258410  0.65152074  0.35397159  1
  F  F35  1  0.22258410  0.34847926  0.14602841  1
  F  F36  1  0.23768188  0.55077875  0.54788454  1
  F  F37  1  0.73768188  0.44922125  0.95211546  1
  F  F38  1  0.76231812  0.44922125  0.45211546  1
  F  F39  1  0.26231812  0.55077875  0.04788454  1
  F  F40  1  0.05041072  0.64289512  0.70055272  1
  F  F41  1  0.55041072  0.35710488  0.79944728  1
  F  F42  1  0.94958928  0.35710488  0.29944728  1
  F  F43  1  0.44958928  0.64289512  0.20055272  1
  F  F44  1  0.03636208  0.38788304  0.56815666  1
  F  F45  1  0.53636208  0.61211696  0.93184334  1
  F  F46  1  0.96363792  0.61211696  0.43184334  1
  F  F47  1  0.46363792  0.38788304  0.06815666  1
  F  F48  1  0.28727587  0.60191749  0.78352399  1
  F  F49  1  0.78727587  0.39808251  0.71647601  1
  F  F50  1  0.71272413  0.39808251  0.21647601  1
  F  F51  1  0.21272413  0.60191749  0.28352399  1
  F  F52  1  0.42551936  0.75741722  0.47712753  1
  F  F53  1  0.92551936  0.24258278  0.02287247  1
  F  F54  1  0.57448064  0.24258278  0.52287247  1
  F  F55  1  0.07448064  0.75741722  0.97712753  1
  As  As56  1  0.86154440  0.99300545  0.69832394  1
  As  As57  1  0.36154440  0.00699455  0.80167606  1
  As  As58  1  0.13845560  0.00699455  0.30167606  1
  As  As59  1  0.63845560  0.99300545  0.19832394  1
  As  As60  1  0.16009795  0.49045809  0.67980467  1
  As  As61  1  0.66009795  0.50954191  0.82019533  1
  As  As62  1  0.83990205  0.50954191  0.32019533  1
  As  As63  1  0.33990205  0.49045809  0.17980467  1
  Cd  Cd64  1  0.17110867  0.75075320  0.48605599  1
  Cd  Cd65  1  0.67110867  0.24924680  0.01394401  1
  Cd  Cd66  1  0.82889133  0.24924680  0.51394401  1
  Cd  Cd67  1  0.32889133  0.75075320  0.98605599  1
