# generated using pymatgen
data_Cr3NiSb4
_symmetry_space_group_name_H-M   'P 1'
_cell_length_a   4.03782726
_cell_length_b   4.03782726
_cell_length_c   11.34339472
_cell_angle_alpha   90.01761351
_cell_angle_beta   89.98238649
_cell_angle_gamma   120.00769782
_symmetry_Int_Tables_number   1
_chemical_formula_structural   Cr3NiSb4
_chemical_formula_sum   'Cr3 Ni1 Sb4'
_cell_volume   160.15312882
_cell_formula_units_Z   1
loop_
 _symmetry_equiv_pos_site_id
 _symmetry_equiv_pos_as_xyz
  1  'x, y, z'
loop_
 _atom_site_type_symbol
 _atom_site_label
 _atom_site_symmetry_multiplicity
 _atom_site_fract_x
 _atom_site_fract_y
 _atom_site_fract_z
 _atom_site_occupancy
  Cr  Cr0  1  0.00000000  -0.00000000  0.75000000  1
  Cr  Cr1  1  0.99997029  0.00002971  0.00627090  1
  Cr  Cr2  1  0.00002971  0.99997029  0.49372910  1
  Ni  Ni3  1  0.00000000  -0.00000000  0.25000000  1
  Sb  Sb4  1  0.66671918  0.33328082  0.36203076  1
  Sb  Sb5  1  0.66665803  0.33334197  0.87657227  1
  Sb  Sb6  1  0.33328082  0.66671918  0.13796924  1
  Sb  Sb7  1  0.33334197  0.66665803  0.62342773  1
