# generated using pymatgen
data_HS7N
_symmetry_space_group_name_H-M   'P 1'
_cell_length_a   8.06139998
_cell_length_b   8.56557116
_cell_length_c   13.85305369
_cell_angle_alpha   90.00000000
_cell_angle_beta   90.00000000
_cell_angle_gamma   90.00000000
_symmetry_Int_Tables_number   1
_chemical_formula_structural   HS7N
_chemical_formula_sum   'H4 S28 N4'
_cell_volume   956.56021702
_cell_formula_units_Z   4
loop_
 _symmetry_equiv_pos_site_id
 _symmetry_equiv_pos_as_xyz
  1  'x, y, z'
loop_
 _atom_site_type_symbol
 _atom_site_label
 _atom_site_symmetry_multiplicity
 _atom_site_fract_x
 _atom_site_fract_y
 _atom_site_fract_z
 _atom_site_occupancy
  H  H0  1  0.20844250  0.37312408  0.25000000  1
  H  H1  1  0.70844250  0.12687592  0.75000000  1
  H  H2  1  0.29155750  0.87312408  0.25000000  1
  H  H3  1  0.79155750  0.62687592  0.75000000  1
  N  N4  1  0.22547147  0.25443589  0.25000000  1
  N  N5  1  0.72547147  0.24556411  0.75000000  1
  N  N6  1  0.27452853  0.75443589  0.25000000  1
  N  N7  1  0.77452853  0.74556411  0.75000000  1
  S  S8  1  0.77994024  0.11990472  0.25000000  1
  S  S9  1  0.27994024  0.38009528  0.75000000  1
  S  S10  1  0.72005976  0.61990472  0.25000000  1
  S  S11  1  0.22005976  0.88009528  0.75000000  1
  S  S12  1  0.25622384  0.16743952  0.14259728  1
  S  S13  1  0.75622384  0.33256048  0.85740272  1
  S  S14  1  0.24377616  0.66743952  0.35740272  1
  S  S15  1  0.74377616  0.83256048  0.64259728  1
  S  S16  1  0.74377616  0.83256048  0.85740272  1
  S  S17  1  0.24377616  0.66743952  0.14259728  1
  S  S18  1  0.75622384  0.33256048  0.64259728  1
  S  S19  1  0.25622384  0.16743952  0.35740272  1
  S  S20  1  0.48891220  0.21529678  0.08785002  1
  S  S21  1  0.98891220  0.28470322  0.91214998  1
  S  S22  1  0.01108780  0.71529678  0.41214998  1
  S  S23  1  0.51108780  0.78470322  0.58785002  1
  S  S24  1  0.51108780  0.78470322  0.91214998  1
  S  S25  1  0.01108780  0.71529678  0.08785002  1
  S  S26  1  0.98891220  0.28470322  0.58785002  1
  S  S27  1  0.48891220  0.21529678  0.41214998  1
  S  S28  1  0.65526521  0.04271780  0.12946268  1
  S  S29  1  0.15526521  0.45728220  0.87053732  1
  S  S30  1  0.84473479  0.54271780  0.37053732  1
  S  S31  1  0.34473479  0.95728220  0.62946268  1
  S  S32  1  0.34473479  0.95728220  0.87053732  1
  S  S33  1  0.84473479  0.54271780  0.12946268  1
  S  S34  1  0.15526521  0.45728220  0.62946268  1
  S  S35  1  0.65526521  0.04271780  0.37053732  1
