# generated using pymatgen
data_SbSBr
_symmetry_space_group_name_H-M   'P 1'
_cell_length_a   3.99459522
_cell_length_b   8.67747092
_cell_length_c   10.38560337
_cell_angle_alpha   90.00000000
_cell_angle_beta   90.00000000
_cell_angle_gamma   90.00000000
_symmetry_Int_Tables_number   1
_chemical_formula_structural   SbSBr
_chemical_formula_sum   'Sb4 S4 Br4'
_cell_volume   359.99600198
_cell_formula_units_Z   4
loop_
 _symmetry_equiv_pos_site_id
 _symmetry_equiv_pos_as_xyz
  1  'x, y, z'
loop_
 _atom_site_type_symbol
 _atom_site_label
 _atom_site_symmetry_multiplicity
 _atom_site_fract_x
 _atom_site_fract_y
 _atom_site_fract_z
 _atom_site_occupancy
  S  S0  1  0.76184387  0.66072248  0.53739607  1
  S  S1  1  0.76184387  0.16072248  0.96260393  1
  S  S2  1  0.26184387  0.83927752  0.03739607  1
  S  S3  1  0.26184387  0.33927752  0.46260393  1
  Br  Br4  1  0.75975391  0.47486619  0.19095930  1
  Br  Br5  1  0.75975391  0.97486619  0.30904070  1
  Br  Br6  1  0.25975391  0.02513381  0.69095930  1
  Br  Br7  1  0.25975391  0.52513381  0.80904070  1
  Sb  Sb8  1  0.26460222  0.60467194  0.36850831  1
  Sb  Sb9  1  0.76460222  0.39532806  0.63149169  1
  Sb  Sb10  1  0.76460222  0.89532806  0.86850831  1
  Sb  Sb11  1  0.26460222  0.10467194  0.13149169  1
