# generated using pymatgen
data_SIO3F
_symmetry_space_group_name_H-M   'P 1'
_cell_length_a   5.72044854
_cell_length_b   12.50680111
_cell_length_c   13.71273374
_cell_angle_alpha   90.00000000
_cell_angle_beta   90.00000000
_cell_angle_gamma   90.00000000
_symmetry_Int_Tables_number   1
_chemical_formula_structural   SIO3F
_chemical_formula_sum   'S8 I8 O24 F8'
_cell_volume   981.07084567
_cell_formula_units_Z   8
loop_
 _symmetry_equiv_pos_site_id
 _symmetry_equiv_pos_as_xyz
  1  'x, y, z'
loop_
 _atom_site_type_symbol
 _atom_site_label
 _atom_site_symmetry_multiplicity
 _atom_site_fract_x
 _atom_site_fract_y
 _atom_site_fract_z
 _atom_site_occupancy
  O  O0  1  0.09530989  0.40927118  0.20593212  1
  O  O1  1  0.09905952  0.57583079  0.98416704  1
  O  O2  1  0.40094048  0.42416921  0.48416704  1
  O  O3  1  0.90094048  0.07583079  0.51583296  1
  O  O4  1  0.40469011  0.59072882  0.70593212  1
  O  O5  1  0.90469011  0.90927118  0.29406788  1
  O  O6  1  0.59530989  0.09072882  0.79406788  1
  O  O7  1  0.59905952  0.92416921  0.01583296  1
  O  O8  1  0.97037678  0.83056362  0.05490747  1
  O  O9  1  0.47037678  0.66943638  0.94509253  1
  O  O10  1  0.02962322  0.33056362  0.44509253  1
  O  O11  1  0.52962322  0.16943638  0.55490747  1
  O  O12  1  0.85686944  0.87223530  0.88503403  1
  O  O13  1  0.35686944  0.62776470  0.11496597  1
  O  O14  1  0.14313056  0.37223530  0.61496597  1
  O  O15  1  0.64313056  0.12776470  0.38503403  1
  O  O16  1  0.71643333  0.33345301  0.14690678  1
  O  O17  1  0.21643333  0.16654699  0.85309322  1
  O  O18  1  0.28356667  0.83345301  0.35309322  1
  O  O19  1  0.78356667  0.66654699  0.64690678  1
  O  O20  1  0.98669495  0.21762601  0.22979084  1
  O  O21  1  0.48669495  0.28237399  0.77020916  1
  O  O22  1  0.01330505  0.71762601  0.27020916  1
  O  O23  1  0.51330505  0.78237399  0.72979084  1
  F  F24  1  0.97185962  0.01257476  0.99615617  1
  F  F25  1  0.58401359  0.21371291  0.92993741  1
  F  F26  1  0.91598641  0.78628709  0.42993741  1
  F  F27  1  0.41598641  0.71371291  0.57006259  1
  F  F28  1  0.52814038  0.98742524  0.49615617  1
  F  F29  1  0.02814038  0.51257476  0.50384383  1
  F  F30  1  0.47185962  0.48742524  0.00384383  1
  F  F31  1  0.08401359  0.28628709  0.07006259  1
  S  S32  1  0.84085098  0.89982581  0.99092559  1
  S  S33  1  0.34085098  0.60017419  0.00907441  1
  S  S34  1  0.15914902  0.39982581  0.50907441  1
  S  S35  1  0.65914902  0.10017419  0.49092559  1
  S  S36  1  0.54083622  0.67755867  0.66907479  1
  S  S37  1  0.04083622  0.82244133  0.33092521  1
  S  S38  1  0.45916378  0.17755867  0.83092521  1
  S  S39  1  0.95916378  0.32244133  0.16907479  1
  I  I40  1  0.04460674  0.95168360  0.65773972  1
  I  I41  1  0.54460674  0.54831640  0.34226028  1
  I  I42  1  0.95539326  0.45168360  0.84226028  1
  I  I43  1  0.45539326  0.04831640  0.15773972  1
  I  I44  1  0.19786703  0.82410179  0.80309598  1
  I  I45  1  0.69786703  0.67589821  0.19690402  1
  I  I46  1  0.80213297  0.32410179  0.69690402  1
  I  I47  1  0.30213297  0.17589821  0.30309598  1
