# generated using pymatgen
data_AlSiH9C3Cl2O
_symmetry_space_group_name_H-M   'P 1'
_cell_length_a   7.07420605
_cell_length_b   9.42964951
_cell_length_c   15.48361038
_cell_angle_alpha   90.00000000
_cell_angle_beta   101.56254850
_cell_angle_gamma   90.00000000
_symmetry_Int_Tables_number   1
_chemical_formula_structural   AlSiH9C3Cl2O
_chemical_formula_sum   'Al4 Si4 H36 C12 Cl8 O4'
_cell_volume   1011.90902438
_cell_formula_units_Z   4
loop_
 _symmetry_equiv_pos_site_id
 _symmetry_equiv_pos_as_xyz
  1  'x, y, z'
loop_
 _atom_site_type_symbol
 _atom_site_label
 _atom_site_symmetry_multiplicity
 _atom_site_fract_x
 _atom_site_fract_y
 _atom_site_fract_z
 _atom_site_occupancy
  H  H0  1  0.82496735  0.08386367  0.39614479  1
  H  H1  1  0.67503265  0.58386367  0.10385521  1
  H  H2  1  0.17503265  0.91613633  0.60385521  1
  H  H3  1  0.32496735  0.41613633  0.89614479  1
  H  H4  1  0.79844206  0.14078813  0.50205746  1
  H  H5  1  0.70155794  0.64078813  0.99794254  1
  H  H6  1  0.20155794  0.85921187  0.49794254  1
  H  H7  1  0.29844206  0.35921187  0.00205746  1
  H  H8  1  0.92706214  0.24828041  0.43858773  1
  H  H9  1  0.57293786  0.74828041  0.06141227  1
  H  H10  1  0.07293786  0.75171959  0.56141227  1
  H  H11  1  0.42706214  0.25171959  0.93858773  1
  H  H12  1  0.61194621  0.26609405  0.22705505  1
  H  H13  1  0.15720312  0.61381060  0.05797739  1
  H  H14  1  0.65720312  0.88618940  0.55797739  1
  H  H15  1  0.84279688  0.38618940  0.94202261  1
  H  H16  1  0.37929691  0.05068428  0.33828107  1
  H  H17  1  0.34279688  0.11381060  0.44202261  1
  H  H18  1  0.62070309  0.94931572  0.66171893  1
  H  H19  1  0.87929691  0.44931572  0.83828107  1
  H  H20  1  0.22538189  0.19856908  0.34267476  1
  H  H21  1  0.27461811  0.69856908  0.15732524  1
  H  H22  1  0.77461811  0.80143092  0.65732524  1
  H  H23  1  0.72538189  0.30143092  0.84267476  1
  H  H24  1  0.94572194  0.10091877  0.74302438  1
  H  H25  1  0.55427806  0.60091877  0.75697562  1
  H  H26  1  0.05427806  0.89908123  0.25697562  1
  H  H27  1  0.44572194  0.39908123  0.24302438  1
  H  H28  1  0.19870285  0.07219861  0.77978648  1
  H  H29  1  0.30129715  0.57219861  0.72021352  1
  H  H30  1  0.80129715  0.92780139  0.22021352  1
  H  H31  1  0.69870285  0.42780139  0.27978648  1
  H  H32  1  0.11194621  0.23390595  0.72705505  1
  H  H33  1  0.38805379  0.73390595  0.77294495  1
  H  H34  1  0.88805379  0.76609405  0.27294495  1
  H  H35  1  0.12070309  0.55068428  0.16171893  1
  C  C36  1  0.85952702  0.35328155  0.87584054  1
  C  C37  1  0.64047298  0.85328155  0.62415946  1
  C  C38  1  0.14047298  0.64671845  0.12415946  1
  C  C39  1  0.35952702  0.14671845  0.37584054  1
  C  C40  1  0.58316603  0.34829413  0.27315458  1
  C  C41  1  0.91683397  0.84829413  0.22684542  1
  C  C42  1  0.41683397  0.65170587  0.72684542  1
  C  C43  1  0.08316603  0.15170587  0.77315458  1
  C  C44  1  0.80205447  0.17779963  0.43498730  1
  C  C45  1  0.69794553  0.67779963  0.06501270  1
  C  C46  1  0.19794553  0.82220037  0.56501270  1
  C  C47  1  0.30205447  0.32220037  0.93498730  1
  O  O48  1  0.45934581  0.59282248  0.54973967  1
  O  O49  1  0.54065419  0.40717752  0.45026033  1
  O  O50  1  0.95934581  0.90717752  0.04973967  1
  O  O51  1  0.04065419  0.09282248  0.95026033  1
  Al  Al52  1  0.60335670  0.43049816  0.56986020  1
  Al  Al53  1  0.10335670  0.06950184  0.06986020  1
  Al  Al54  1  0.39664330  0.56950184  0.43013980  1
  Al  Al55  1  0.89664330  0.93049816  0.93013980  1
  Si  Si56  1  0.57194129  0.26633300  0.38170307  1
  Si  Si57  1  0.92805871  0.76633300  0.11829693  1
  Si  Si58  1  0.07194129  0.23366700  0.88170307  1
  Si  Si59  1  0.42805871  0.73366700  0.61829693  1
  Cl  Cl60  1  0.48508758  0.26897866  0.63777481  1
  Cl  Cl61  1  0.01491242  0.76897866  0.86222519  1
  Cl  Cl62  1  0.51491242  0.73102134  0.36222519  1
  Cl  Cl63  1  0.98508758  0.23102134  0.13777481  1
  Cl  Cl64  1  0.89800560  0.47463363  0.62035716  1
  Cl  Cl65  1  0.60199440  0.97463363  0.87964284  1
  Cl  Cl66  1  0.10199440  0.52536637  0.37964284  1
  Cl  Cl67  1  0.39800560  0.02536637  0.12035716  1
