# generated using pymatgen
data_BiP4HO12
_symmetry_space_group_name_H-M   'P 1'
_cell_length_a   7.24806736
_cell_length_b   8.77658426
_cell_length_c   8.99476739
_cell_angle_alpha   99.55189670
_cell_angle_beta   112.10680231
_cell_angle_gamma   106.48933913
_symmetry_Int_Tables_number   1
_chemical_formula_structural   BiP4HO12
_chemical_formula_sum   'Bi2 P8 H2 O24'
_cell_volume   483.76742489
_cell_formula_units_Z   2
loop_
 _symmetry_equiv_pos_site_id
 _symmetry_equiv_pos_as_xyz
  1  'x, y, z'
loop_
 _atom_site_type_symbol
 _atom_site_label
 _atom_site_symmetry_multiplicity
 _atom_site_fract_x
 _atom_site_fract_y
 _atom_site_fract_z
 _atom_site_occupancy
  H  H0  1  0.50480127  0.13335130  0.25759794  1
  H  H1  1  0.49519873  0.86664870  0.74240206  1
  O  O2  1  0.81764519  0.26233049  0.57380403  1
  O  O3  1  0.18235481  0.73766951  0.42619597  1
  O  O4  1  0.67271175  0.46250203  0.69404856  1
  O  O5  1  0.32728825  0.53749797  0.30595144  1
  O  O6  1  0.55686767  0.76491500  0.60013886  1
  O  O7  1  0.44313233  0.23508500  0.39986114  1
  O  O8  1  0.53160024  0.15158383  0.66199127  1
  O  O9  1  0.46839976  0.84841617  0.33800873  1
  O  O10  1  0.10440568  0.56103902  0.70048528  1
  O  O11  1  0.89559432  0.43896098  0.29951472  1
  O  O12  1  0.16291078  0.31188604  0.55049036  1
  O  O13  1  0.83708922  0.68811396  0.44950964  1
  O  O14  1  0.16197519  0.34224810  0.83697351  1
  O  O15  1  0.83802481  0.65775190  0.16302649  1
  O  O16  1  0.23704448  0.21380917  0.07054449  1
  O  O17  1  0.76295552  0.78619083  0.92945551  1
  O  O18  1  0.04881684  0.02336966  0.76030509  1
  O  O19  1  0.95118316  0.97663034  0.23969491  1
  O  O20  1  0.44543279  0.22477493  0.90482188  1
  O  O21  1  0.55456721  0.77522507  0.09517812  1
  O  O22  1  0.44957225  0.94342930  0.80540610  1
  O  O23  1  0.55042775  0.05657070  0.19459390  1
  O  O24  1  0.19373786  0.79426889  0.03395197  1
  O  O25  1  0.80626214  0.20573111  0.96604803  1
  P  P26  1  0.61247227  0.29181381  0.58108471  1
  P  P27  1  0.38752773  0.70818619  0.41891529  1
  P  P28  1  0.57422007  0.13331914  0.84466375  1
  P  P29  1  0.42577993  0.86668086  0.15533625  1
  P  P30  1  0.79449126  0.81351438  0.10738375  1
  P  P31  1  0.20550874  0.18648562  0.89261625  1
  P  P32  1  0.92813826  0.62003222  0.34109831  1
  P  P33  1  0.07186174  0.37996778  0.65890169  1
  Bi  Bi34  1  0.90405717  0.73256634  0.73982297  1
  Bi  Bi35  1  0.09594283  0.26743366  0.26017703  1
