# generated using pymatgen
data_CdH4NCl3
_symmetry_space_group_name_H-M   'P 1'
_cell_length_a   4.08739220
_cell_length_b   9.32445852
_cell_length_c   14.92120356
_cell_angle_alpha   90.00000000
_cell_angle_beta   90.00000000
_cell_angle_gamma   90.00000000
_symmetry_Int_Tables_number   1
_chemical_formula_structural   CdH4NCl3
_chemical_formula_sum   'Cd4 H16 N4 Cl12'
_cell_volume   568.68763878
_cell_formula_units_Z   4
loop_
 _symmetry_equiv_pos_site_id
 _symmetry_equiv_pos_as_xyz
  1  'x, y, z'
loop_
 _atom_site_type_symbol
 _atom_site_label
 _atom_site_symmetry_multiplicity
 _atom_site_fract_x
 _atom_site_fract_y
 _atom_site_fract_z
 _atom_site_occupancy
  H  H0  1  0.45216832  0.88309889  0.69414730  1
  H  H1  1  0.95216832  0.11690111  0.30585270  1
  H  H2  1  0.04783168  0.38309889  0.80585270  1
  H  H3  1  0.54783168  0.61690111  0.19414730  1
  H  H4  1  0.54783168  0.11690111  0.30585270  1
  H  H5  1  0.04783168  0.88309889  0.69414730  1
  H  H6  1  0.95216832  0.61690111  0.19414730  1
  H  H7  1  0.45216832  0.38309889  0.80585270  1
  H  H8  1  0.75000000  0.96520219  0.27940816  1
  H  H9  1  0.25000000  0.03479781  0.72059184  1
  H  H10  1  0.75000000  0.46520219  0.22059184  1
  H  H11  1  0.25000000  0.53479781  0.77940816  1
  H  H12  1  0.75000000  0.01893836  0.38668688  1
  H  H13  1  0.25000000  0.98106164  0.61331312  1
  H  H14  1  0.75000000  0.51893836  0.11331312  1
  H  H15  1  0.25000000  0.48106164  0.88668688  1
  N  N16  1  0.25000000  0.44627017  0.82083509  1
  N  N17  1  0.75000000  0.55372983  0.17916491  1
  N  N18  1  0.25000000  0.94627017  0.67916491  1
  N  N19  1  0.75000000  0.05372983  0.32083509  1
  Cl  Cl20  1  0.75000000  0.23472612  0.72019944  1
  Cl  Cl21  1  0.25000000  0.76527388  0.27980056  1
  Cl  Cl22  1  0.75000000  0.73472612  0.77980056  1
  Cl  Cl23  1  0.25000000  0.26527388  0.22019944  1
  Cl  Cl24  1  0.25000000  0.17200295  0.50451905  1
  Cl  Cl25  1  0.75000000  0.82799705  0.49548095  1
  Cl  Cl26  1  0.25000000  0.67200295  0.99548095  1
  Cl  Cl27  1  0.75000000  0.32799705  0.00451905  1
  Cl  Cl28  1  0.75000000  0.47405686  0.40153200  1
  Cl  Cl29  1  0.25000000  0.52594314  0.59846800  1
  Cl  Cl30  1  0.75000000  0.97405686  0.09846800  1
  Cl  Cl31  1  0.25000000  0.02594314  0.90153200  1
  Cd  Cd32  1  0.75000000  0.33716290  0.55953321  1
  Cd  Cd33  1  0.25000000  0.66283710  0.44046679  1
  Cd  Cd34  1  0.75000000  0.83716290  0.94046679  1
  Cd  Cd35  1  0.25000000  0.16283710  0.05953321  1
