# generated using pymatgen
data_CsBeH3
_symmetry_space_group_name_H-M   'P 1'
_cell_length_a   5.10801262
_cell_length_b   5.96074827
_cell_length_c   7.86972522
_cell_angle_alpha   90.00000000
_cell_angle_beta   108.21788631
_cell_angle_gamma   90.00000000
_symmetry_Int_Tables_number   1
_chemical_formula_structural   CsBeH3
_chemical_formula_sum   'Cs2 Be2 H6'
_cell_volume   227.60329330
_cell_formula_units_Z   2
loop_
 _symmetry_equiv_pos_site_id
 _symmetry_equiv_pos_as_xyz
  1  'x, y, z'
loop_
 _atom_site_type_symbol
 _atom_site_label
 _atom_site_symmetry_multiplicity
 _atom_site_fract_x
 _atom_site_fract_y
 _atom_site_fract_z
 _atom_site_occupancy
  H  H0  1  0.69627532  0.04658326  0.82827440  1
  H  H1  1  0.30372468  0.54658326  0.17172560  1
  H  H2  1  0.30372468  0.95341674  0.17172560  1
  H  H3  1  0.69627532  0.45341674  0.82827440  1
  H  H4  1  0.90868722  0.25000000  0.63791239  1
  H  H5  1  0.09131278  0.75000000  0.36208761  1
  Be  Be6  1  0.23930800  0.75000000  0.23874693  1
  Be  Be7  1  0.76069200  0.25000000  0.76125307  1
  Cs  Cs8  1  0.81769480  0.25000000  0.23112791  1
  Cs  Cs9  1  0.18230520  0.75000000  0.76887209  1
