# generated using pymatgen
data_Mg3P4H48(NO15)2
_symmetry_space_group_name_H-M   'P 1'
_cell_length_a   6.18963137
_cell_length_b   7.05124768
_cell_length_c   17.70827363
_cell_angle_alpha   101.48402592
_cell_angle_beta   91.18298986
_cell_angle_gamma   89.99999996
_symmetry_Int_Tables_number   1
_chemical_formula_structural   Mg3P4H48(NO15)2
_chemical_formula_sum   'Mg3 P4 H48 N2 O30'
_cell_volume   757.23016098
_cell_formula_units_Z   1
loop_
 _symmetry_equiv_pos_site_id
 _symmetry_equiv_pos_as_xyz
  1  'x, y, z'
loop_
 _atom_site_type_symbol
 _atom_site_label
 _atom_site_symmetry_multiplicity
 _atom_site_fract_x
 _atom_site_fract_y
 _atom_site_fract_z
 _atom_site_occupancy
  H  H0  1  0.94670668  0.41223187  0.82446375  1
  H  H1  1  0.05329332  0.58776813  0.17553625  1
  H  H2  1  0.91730706  0.74028929  0.24382946  1
  H  H3  1  0.08269294  0.49645983  0.75617054  1
  H  H4  1  0.08269294  0.25971071  0.75617054  1
  H  H5  1  0.91730706  0.50354017  0.24382946  1
  H  H6  1  0.84553661  0.36609324  0.73218649  1
  H  H7  1  0.15446339  0.63390676  0.26781351  1
  H  H8  1  0.35105725  0.42980850  0.09049646  1
  H  H9  1  0.64894275  0.33931204  0.90950354  1
  H  H10  1  0.64894275  0.57019150  0.90950354  1
  H  H11  1  0.35105725  0.66068796  0.09049646  1
  H  H12  1  0.27947516  0.70611983  0.91723033  1
  H  H13  1  0.72052484  0.78888951  0.08276967  1
  H  H14  1  0.72052484  0.29388017  0.08276967  1
  H  H15  1  0.27947516  0.21111049  0.91723033  1
  H  H16  1  0.03670524  0.13643685  0.90912300  1
  H  H17  1  0.96329476  0.22731385  0.09087700  1
  H  H18  1  0.96329476  0.86356315  0.09087700  1
  H  H19  1  0.03670524  0.77268615  0.90912300  1
  H  H20  1  0.58574654  0.30640381  0.20686913  1
  H  H21  1  0.41425346  0.69359619  0.79313087  1
  H  H22  1  0.79758888  0.43218403  0.46579808  1
  H  H23  1  0.58574654  0.90046532  0.20686913  1
  H  H24  1  0.56036059  0.46441414  0.28420039  1
  H  H25  1  0.43963941  0.18021374  0.71579961  1
  H  H26  1  0.43963941  0.53558586  0.71579961  1
  H  H27  1  0.56036059  0.81978626  0.28420039  1
  H  H28  1  0.91446558  0.88717182  0.77434365  1
  H  H29  1  0.08553442  0.11282818  0.22565635  1
  H  H30  1  0.80347588  0.84475088  0.68950177  1
  H  H31  1  0.19652412  0.15524912  0.31049823  1
  H  H32  1  0.99786149  0.95109157  0.41564203  1
  H  H33  1  0.00213851  0.53544954  0.58435797  1
  H  H34  1  0.00213851  0.04890843  0.58435797  1
  H  H35  1  0.99786149  0.46455046  0.41564203  1
  H  H36  1  0.79758888  0.03361405  0.46579808  1
  H  H37  1  0.20241112  0.56781597  0.53420192  1
  H  H38  1  0.20241112  0.96638595  0.53420192  1
  H  H39  1  0.31929793  0.00795569  0.01591138  1
  H  H40  1  0.68070207  0.99204431  0.98408862  1
  H  H41  1  0.58458611  0.72092673  0.44185347  1
  H  H42  1  0.41541389  0.27907327  0.55814653  1
  H  H43  1  0.37511371  0.31890003  0.40585781  1
  H  H44  1  0.62488629  0.91304222  0.59414219  1
  H  H45  1  0.62488629  0.68109997  0.59414219  1
  H  H46  1  0.37511371  0.08695778  0.40585781  1
  H  H47  1  0.41425346  0.09953468  0.79313087  1
  N  N48  1  0.98763459  0.38346889  0.76693777  1
  N  N49  1  0.01236541  0.61653111  0.23306223  1
  O  O50  1  0.73573513  0.46155556  0.92311113  1
  O  O51  1  0.26426487  0.53844444  0.07688887  1
  O  O52  1  0.12835389  0.25274632  0.92909230  1
  O  O53  1  0.87164611  0.32365403  0.07090770  1
  O  O54  1  0.87164611  0.74725368  0.07090770  1
  O  O55  1  0.12835389  0.67634597  0.92909230  1
  O  O56  1  0.65514826  0.35527496  0.25884792  1
  O  O57  1  0.34485174  0.09642703  0.74115208  1
  O  O58  1  0.34485174  0.64472504  0.74115208  1
  O  O59  1  0.65514826  0.90357297  0.25884792  1
  O  O60  1  0.94402525  0.85891163  0.71782327  1
  O  O61  1  0.05597475  0.14108837  0.28217673  1
  O  O62  1  0.84534053  0.99428418  0.41145379  1
  O  O63  1  0.15465947  0.58283039  0.58854621  1
  O  O64  1  0.15465947  0.00571582  0.58854621  1
  O  O65  1  0.84534053  0.41716961  0.41145379  1
  O  O66  1  0.56978950  0.81073365  0.62146730  1
  O  O67  1  0.43021050  0.18926635  0.37853270  1
  O  O68  1  0.26248436  0.53597675  0.43698738  1
  O  O69  1  0.73751564  0.09898938  0.56301262  1
  O  O70  1  0.73751564  0.46402325  0.56301262  1
  O  O71  1  0.26248436  0.90101062  0.43698738  1
  O  O72  1  0.59784940  0.33988536  0.67977073  1
  O  O73  1  0.40215060  0.66011464  0.32022927  1
  O  O74  1  0.88142905  0.93530938  0.87061875  1
  O  O75  1  0.11857095  0.06469062  0.12938125  1
  O  O76  1  0.47545086  0.24100217  0.11787496  1
  O  O77  1  0.52454914  0.12312721  0.88212504  1
  O  O78  1  0.52454914  0.75899783  0.88212504  1
  O  O79  1  0.47545086  0.87687279  0.11787496  1
  Mg  Mg80  1  0.00000000  0.50000000  0.00000000  1
  Mg  Mg81  1  0.24759449  0.83314890  0.66629780  1
  Mg  Mg82  1  0.75240551  0.16685110  0.33370220  1
  P  P83  1  0.62500796  0.29551008  0.59102015  1
  P  P84  1  0.37499204  0.70448992  0.40897985  1
  P  P85  1  0.65126544  0.95172090  0.90344179  1
  P  P86  1  0.34873456  0.04827910  0.09655821  1
