# generated using pymatgen
data_KBe(H2N)3
_symmetry_space_group_name_H-M   'P 1'
_cell_length_a   11.29711354
_cell_length_b   13.09319568
_cell_length_c   13.28703312
_cell_angle_alpha   90.00000000
_cell_angle_beta   90.00000000
_cell_angle_gamma   90.00000000
_symmetry_Int_Tables_number   1
_chemical_formula_structural   KBe(H2N)3
_chemical_formula_sum   'K16 Be16 H96 N48'
_cell_volume   1965.35573186
_cell_formula_units_Z   16
loop_
 _symmetry_equiv_pos_site_id
 _symmetry_equiv_pos_as_xyz
  1  'x, y, z'
loop_
 _atom_site_type_symbol
 _atom_site_label
 _atom_site_symmetry_multiplicity
 _atom_site_fract_x
 _atom_site_fract_y
 _atom_site_fract_z
 _atom_site_occupancy
  H  H0  1  0.15526463  0.27729064  0.82140846  1
  H  H1  1  0.65526463  0.72270936  0.67859154  1
  H  H2  1  0.34473537  0.77729064  0.17859154  1
  H  H3  1  0.84473537  0.22270936  0.32140846  1
  H  H4  1  0.84473537  0.72270936  0.17859154  1
  H  H5  1  0.34473537  0.27729064  0.32140846  1
  H  H6  1  0.65526463  0.22270936  0.82140846  1
  H  H7  1  0.15526463  0.77729064  0.67859154  1
  H  H8  1  0.05900771  0.35264992  0.87826691  1
  H  H9  1  0.55900771  0.64735008  0.62173309  1
  H  H10  1  0.44099229  0.85264992  0.12173309  1
  H  H11  1  0.94099229  0.14735008  0.37826691  1
  H  H12  1  0.94099229  0.64735008  0.12173309  1
  H  H13  1  0.44099229  0.35264992  0.37826691  1
  H  H14  1  0.55900771  0.14735008  0.87826691  1
  H  H15  1  0.05900771  0.85264992  0.62173309  1
  H  H16  1  0.80820438  0.35186938  0.80974898  1
  H  H17  1  0.30820438  0.64813062  0.69025102  1
  H  H18  1  0.69179562  0.85186938  0.19025102  1
  H  H19  1  0.19179562  0.14813062  0.30974898  1
  H  H20  1  0.19179562  0.64813062  0.19025102  1
  H  H21  1  0.69179562  0.35186938  0.30974898  1
  H  H22  1  0.30820438  0.14813062  0.80974898  1
  H  H23  1  0.80820438  0.85186938  0.69025102  1
  H  H24  1  0.77701817  0.29033633  0.70516830  1
  H  H25  1  0.27701817  0.70966367  0.79483170  1
  H  H26  1  0.72298183  0.79033633  0.29483170  1
  H  H27  1  0.22298183  0.20966367  0.20516830  1
  H  H28  1  0.22298183  0.70966367  0.29483170  1
  H  H29  1  0.72298183  0.29033633  0.20516830  1
  H  H30  1  0.27701817  0.20966367  0.70516830  1
  H  H31  1  0.77701817  0.79033633  0.79483170  1
  H  H32  1  0.93303885  0.14686540  0.61913491  1
  H  H33  1  0.43303885  0.85313460  0.88086509  1
  H  H34  1  0.56696115  0.64686540  0.38086509  1
  H  H35  1  0.06696115  0.35313460  0.11913491  1
  H  H36  1  0.06696115  0.85313460  0.38086509  1
  H  H37  1  0.56696115  0.14686540  0.11913491  1
  H  H38  1  0.43303885  0.35313460  0.61913491  1
  H  H39  1  0.93303885  0.64686540  0.88086509  1
  H  H40  1  0.07128179  0.13478973  0.65784976  1
  H  H41  1  0.57128179  0.86521027  0.84215024  1
  H  H42  1  0.42871821  0.63478973  0.34215024  1
  H  H43  1  0.85345820  0.99309624  0.45486383  1
  H  H44  1  0.92871821  0.36521027  0.15784976  1
  H  H45  1  0.42871821  0.13478973  0.15784976  1
  H  H46  1  0.57128179  0.36521027  0.65784976  1
  H  H47  1  0.07128179  0.63478973  0.84215024  1
  H  H48  1  0.61229212  0.94320029  0.67561177  1
  H  H49  1  0.11229212  0.05679971  0.82438823  1
  H  H50  1  0.88770788  0.44320029  0.32438823  1
  H  H51  1  0.38770788  0.55679971  0.17561177  1
  H  H52  1  0.38770788  0.05679971  0.32438823  1
  H  H53  1  0.88770788  0.94320029  0.17561177  1
  H  H54  1  0.11229212  0.55679971  0.67561177  1
  H  H55  1  0.61229212  0.44320029  0.82438823  1
  H  H56  1  0.58284449  0.06442571  0.69520563  1
  H  H57  1  0.08284449  0.93557429  0.80479437  1
  H  H58  1  0.91715551  0.56442571  0.30479437  1
  H  H59  1  0.41715551  0.43557429  0.19520563  1
  H  H60  1  0.41715551  0.93557429  0.30479437  1
  H  H61  1  0.91715551  0.06442571  0.19520563  1
  H  H62  1  0.08284449  0.43557429  0.69520563  1
  H  H63  1  0.58284449  0.56442571  0.80479437  1
  H  H64  1  0.66841300  0.22629152  0.56146146  1
  H  H65  1  0.16841300  0.77370848  0.93853854  1
  H  H66  1  0.83158700  0.72629152  0.43853854  1
  H  H67  1  0.33158700  0.27370848  0.06146146  1
  H  H68  1  0.33158700  0.77370848  0.43853854  1
  H  H69  1  0.83158700  0.22629152  0.06146146  1
  H  H70  1  0.16841300  0.27370848  0.56146146  1
  H  H71  1  0.66841300  0.72629152  0.93853854  1
  H  H72  1  0.75610934  0.19720840  0.46624640  1
  H  H73  1  0.25610934  0.80279160  0.03375360  1
  H  H74  1  0.74389066  0.69720840  0.53375360  1
  H  H75  1  0.24389066  0.30279160  0.96624640  1
  H  H76  1  0.24389066  0.80279160  0.53375360  1
  H  H77  1  0.74389066  0.19720840  0.96624640  1
  H  H78  1  0.25610934  0.30279160  0.46624640  1
  H  H79  1  0.75610934  0.69720840  0.03375360  1
  H  H80  1  0.80284256  0.39876481  0.97966614  1
  H  H81  1  0.30284256  0.60123519  0.52033386  1
  H  H82  1  0.69715744  0.89876481  0.02033386  1
  H  H83  1  0.19715744  0.10123519  0.47966614  1
  H  H84  1  0.19715744  0.60123519  0.02033386  1
  H  H85  1  0.69715744  0.39876481  0.47966614  1
  H  H86  1  0.30284256  0.10123519  0.97966614  1
  H  H87  1  0.80284256  0.89876481  0.52033386  1
  H  H88  1  0.85345820  0.49309624  0.04513617  1
  H  H89  1  0.35345820  0.50690376  0.45486383  1
  H  H90  1  0.64654180  0.99309624  0.95486383  1
  H  H91  1  0.14654180  0.00690376  0.54513617  1
  H  H92  1  0.14654180  0.50690376  0.95486383  1
  H  H93  1  0.64654180  0.49309624  0.54513617  1
  H  H94  1  0.35345820  0.00690376  0.04513617  1
  H  H95  1  0.92871821  0.86521027  0.34215024  1
  Be  Be96  1  0.20506676  0.44976623  0.55656216  1
  Be  Be97  1  0.79493324  0.05023377  0.05656216  1
  Be  Be98  1  0.29493324  0.94976623  0.44343784  1
  Be  Be99  1  0.29493324  0.44976623  0.05656216  1
  Be  Be100  1  0.79493324  0.55023377  0.44343784  1
  Be  Be101  1  0.20506676  0.94976623  0.94343784  1
  Be  Be102  1  0.70506676  0.05023377  0.55656216  1
  Be  Be103  1  0.96981490  0.75885997  0.74638954  1
  Be  Be104  1  0.46981490  0.24114003  0.75361046  1
  Be  Be105  1  0.53018510  0.25885997  0.25361046  1
  Be  Be106  1  0.03018510  0.74114003  0.24638954  1
  Be  Be107  1  0.03018510  0.24114003  0.25361046  1
  Be  Be108  1  0.53018510  0.75885997  0.24638954  1
  Be  Be109  1  0.46981490  0.74114003  0.74638954  1
  Be  Be110  1  0.96981490  0.25885997  0.75361046  1
  Be  Be111  1  0.70506676  0.55023377  0.94343784  1
  N  N112  1  0.27898761  0.53241715  0.49046101  1
  N  N113  1  0.49325562  0.82877690  0.82886259  1
  N  N114  1  0.50674438  0.67122310  0.32886259  1
  N  N115  1  0.00674438  0.32877690  0.17113741  1
  N  N116  1  0.00674438  0.82877690  0.32886259  1
  N  N117  1  0.50674438  0.17122310  0.17113741  1
  N  N118  1  0.49325562  0.32877690  0.67113741  1
  N  N119  1  0.99325562  0.67122310  0.82886259  1
  N  N120  1  0.61259196  0.01352820  0.64249075  1
  N  N121  1  0.11259196  0.98647180  0.85750925  1
  N  N122  1  0.88740804  0.51352820  0.35750925  1
  N  N123  1  0.38740804  0.48647180  0.14249075  1
  N  N124  1  0.38740804  0.98647180  0.35750925  1
  N  N125  1  0.88740804  0.01352820  0.14249075  1
  N  N126  1  0.11259196  0.48647180  0.64249075  1
  N  N127  1  0.61259196  0.51352820  0.85750925  1
  N  N128  1  0.70448508  0.16739535  0.52169685  1
  N  N129  1  0.20448508  0.83260465  0.97830315  1
  N  N130  1  0.79551492  0.66739535  0.47830315  1
  N  N131  1  0.29551492  0.33260465  0.02169685  1
  N  N132  1  0.29551492  0.83260465  0.47830315  1
  N  N133  1  0.79551492  0.16739535  0.02169685  1
  N  N134  1  0.20448508  0.33260465  0.52169685  1
  N  N135  1  0.70448508  0.66739535  0.97830315  1
  N  N136  1  0.84473338  0.81865643  0.75233596  1
  N  N137  1  0.27898761  0.03241715  0.00953899  1
  N  N138  1  0.72101239  0.46758285  0.50953899  1
  N  N139  1  0.22101239  0.53241715  0.99046101  1
  N  N140  1  0.22101239  0.03241715  0.50953899  1
  N  N141  1  0.72101239  0.96758285  0.99046101  1
  N  N142  1  0.99325562  0.17122310  0.67113741  1
  N  N143  1  0.77898761  0.46758285  0.00953899  1
  N  N144  1  0.34473338  0.18134357  0.74766404  1
  N  N145  1  0.65526662  0.31865643  0.24766404  1
  N  N146  1  0.15526662  0.68134357  0.25233596  1
  N  N147  1  0.15526662  0.18134357  0.24766404  1
  N  N148  1  0.65526662  0.81865643  0.25233596  1
  N  N149  1  0.34473338  0.68134357  0.75233596  1
  N  N150  1  0.84473338  0.31865643  0.74766404  1
  N  N151  1  0.06775665  0.78636254  0.66144842  1
  N  N152  1  0.56775665  0.21363746  0.83855158  1
  N  N153  1  0.43224335  0.28636254  0.33855158  1
  N  N154  1  0.93224335  0.71363746  0.16144842  1
  N  N155  1  0.93224335  0.21363746  0.33855158  1
  N  N156  1  0.43224335  0.78636254  0.16144842  1
  N  N157  1  0.56775665  0.71363746  0.66144842  1
  N  N158  1  0.06775665  0.28636254  0.83855158  1
  N  N159  1  0.77898761  0.96758285  0.49046101  1
  K  K160  1  0.16253313  0.46132121  0.29910420  1
  K  K161  1  0.66253313  0.53867879  0.20089580  1
  K  K162  1  0.33746687  0.96132121  0.70089580  1
  K  K163  1  0.83746687  0.03867879  0.79910420  1
  K  K164  1  0.83746687  0.53867879  0.70089580  1
  K  K165  1  0.33746687  0.46132121  0.79910420  1
  K  K166  1  0.66253313  0.03867879  0.29910420  1
  K  K167  1  0.16253313  0.96132121  0.20089580  1
  K  K168  1  0.94414888  0.34178236  0.52005701  1
  K  K169  1  0.44414888  0.65821764  0.97994299  1
  K  K170  1  0.55585112  0.84178236  0.47994299  1
  K  K171  1  0.05585112  0.15821764  0.02005701  1
  K  K172  1  0.05585112  0.65821764  0.47994299  1
  K  K173  1  0.55585112  0.34178236  0.02005701  1
  K  K174  1  0.44414888  0.15821764  0.52005701  1
  K  K175  1  0.94414888  0.84178236  0.97994299  1
