# generated using pymatgen
data_K3GeH3S3O2
_symmetry_space_group_name_H-M   'P 1'
_cell_length_a   6.80299076
_cell_length_b   7.54871748
_cell_length_c   10.15410501
_cell_angle_alpha   87.93253961
_cell_angle_beta   81.81377915
_cell_angle_gamma   69.62098673
_symmetry_Int_Tables_number   1
_chemical_formula_structural   K3GeH3S3O2
_chemical_formula_sum   'K6 Ge2 H6 S6 O4'
_cell_volume   483.78247182
_cell_formula_units_Z   2
loop_
 _symmetry_equiv_pos_site_id
 _symmetry_equiv_pos_as_xyz
  1  'x, y, z'
loop_
 _atom_site_type_symbol
 _atom_site_label
 _atom_site_symmetry_multiplicity
 _atom_site_fract_x
 _atom_site_fract_y
 _atom_site_fract_z
 _atom_site_occupancy
  H  H0  1  0.06446727  0.05951877  0.17211637  1
  H  H1  1  0.93553273  0.94048123  0.82788363  1
  H  H2  1  0.05959590  0.87094378  0.23628591  1
  H  H3  1  0.94040410  0.12905622  0.76371409  1
  H  H4  1  0.85995948  0.58374193  0.37674464  1
  H  H5  1  0.14004052  0.41625807  0.62325536  1
  O  O6  1  0.03795608  0.00377510  0.78961626  1
  O  O7  1  0.09822449  0.49587811  0.70592545  1
  O  O8  1  0.90177551  0.50412189  0.29407455  1
  O  O9  1  0.96204392  0.99622490  0.21038374  1
  S  S10  1  0.73540050  0.77773984  0.91191294  1
  S  S11  1  0.26459950  0.22226016  0.08808706  1
  S  S12  1  0.27028515  0.20190155  0.44989613  1
  S  S13  1  0.66021860  0.39382267  0.74371764  1
  S  S14  1  0.33978140  0.60617733  0.25628236  1
  S  S15  1  0.72971485  0.79809845  0.55010387  1
  K  K16  1  0.23564758  0.63998507  0.94750125  1
  K  K17  1  0.76435242  0.36001493  0.05249875  1
  K  K18  1  0.74896541  0.23827980  0.44232703  1
  K  K19  1  0.25103459  0.76172020  0.55767297  1
  K  K20  1  0.60559652  0.87757213  0.22605877  1
  K  K21  1  0.39440348  0.12242787  0.77394123  1
  Ge  Ge22  1  0.80530661  0.61538683  0.72387059  1
  Ge  Ge23  1  0.19469339  0.38461317  0.27612941  1
