# generated using pymatgen
data_YH5(SeO4)2
_symmetry_space_group_name_H-M   'P 1'
_cell_length_a   6.68413159
_cell_length_b   7.02897113
_cell_length_c   16.31565524
_cell_angle_alpha   90.00000000
_cell_angle_beta   90.00000000
_cell_angle_gamma   90.00000000
_symmetry_Int_Tables_number   1
_chemical_formula_structural   YH5(SeO4)2
_chemical_formula_sum   'Y4 H20 Se8 O32'
_cell_volume   766.55138137
_cell_formula_units_Z   4
loop_
 _symmetry_equiv_pos_site_id
 _symmetry_equiv_pos_as_xyz
  1  'x, y, z'
loop_
 _atom_site_type_symbol
 _atom_site_label
 _atom_site_symmetry_multiplicity
 _atom_site_fract_x
 _atom_site_fract_y
 _atom_site_fract_z
 _atom_site_occupancy
  H  H0  1  0.19085206  0.40432142  0.08139062  1
  H  H1  1  0.69085206  0.09567858  0.91860938  1
  H  H2  1  0.80914794  0.90432142  0.41860938  1
  H  H3  1  0.30914794  0.59567858  0.58139062  1
  H  H4  1  0.05529674  0.22944883  0.10138994  1
  H  H5  1  0.55529674  0.27055117  0.89861006  1
  H  H6  1  0.94470326  0.72944883  0.39861006  1
  H  H7  1  0.44470326  0.77055117  0.60138994  1
  H  H8  1  0.88860266  0.74022749  0.54065463  1
  H  H9  1  0.38860266  0.75977251  0.45934537  1
  H  H10  1  0.02722356  0.08149199  0.89609980  1
  H  H11  1  0.52722356  0.41850801  0.10390020  1
  H  H12  1  0.97277644  0.58149199  0.60390020  1
  H  H13  1  0.47277644  0.91850801  0.39609980  1
  H  H14  1  0.80005353  0.83035977  0.04641586  1
  H  H15  1  0.30005353  0.66964023  0.95358414  1
  H  H16  1  0.19994647  0.33035977  0.45358414  1
  H  H17  1  0.69994647  0.16964023  0.54641586  1
  H  H18  1  0.11139734  0.24022749  0.95934537  1
  H  H19  1  0.61139734  0.25977251  0.04065463  1
  O  O20  1  0.03214025  0.60951641  0.30036745  1
  O  O21  1  0.53214025  0.89048359  0.69963255  1
  O  O22  1  0.96785975  0.10951641  0.19963255  1
  O  O23  1  0.46785975  0.39048359  0.80036745  1
  O  O24  1  0.39995081  0.40255219  0.40132533  1
  O  O25  1  0.81485299  0.56911823  0.76253736  1
  O  O26  1  0.60004919  0.90255219  0.09867467  1
  O  O27  1  0.10004919  0.59744781  0.90132533  1
  O  O28  1  0.63828088  0.10591088  0.36247785  1
  O  O29  1  0.13828088  0.39408912  0.63752215  1
  O  O30  1  0.36171912  0.60591088  0.13752215  1
  O  O31  1  0.86171912  0.89408912  0.86247785  1
  O  O32  1  0.31485299  0.93088177  0.23746264  1
  O  O33  1  0.07035442  0.29465400  0.48218729  1
  O  O34  1  0.42964558  0.70534600  0.98218729  1
  O  O35  1  0.92964558  0.79465400  0.01781271  1
  O  O36  1  0.18514701  0.06911823  0.73746264  1
  O  O37  1  0.68514701  0.43088177  0.26253736  1
  O  O38  1  0.81176843  0.21095392  0.76376929  1
  O  O39  1  0.31176843  0.28904608  0.23623071  1
  O  O40  1  0.38798611  0.80330437  0.40057115  1
  O  O41  1  0.88798611  0.69669563  0.59942885  1
  O  O42  1  0.61201389  0.30330437  0.09942885  1
  O  O43  1  0.11201389  0.19669563  0.90057115  1
  O  O44  1  0.18823157  0.71095392  0.73623071  1
  O  O45  1  0.68823157  0.78904608  0.26376929  1
  O  O46  1  0.39586648  0.69134789  0.55584475  1
  O  O47  1  0.89586648  0.80865211  0.44415525  1
  O  O48  1  0.60413352  0.19134789  0.94415525  1
  O  O49  1  0.10413352  0.30865211  0.05584475  1
  O  O50  1  0.89995081  0.09744781  0.59867467  1
  O  O51  1  0.57035442  0.20534600  0.51781271  1
  Se  Se52  1  0.86735550  0.68836183  0.92096509  1
  Se  Se53  1  0.36735550  0.81163817  0.07903491  1
  Se  Se54  1  0.13264450  0.18836183  0.57903491  1
  Se  Se55  1  0.63264450  0.31163817  0.42096509  1
  Se  Se56  1  0.65495760  0.38883359  0.72815862  1
  Se  Se57  1  0.15495760  0.11116641  0.27184138  1
  Se  Se58  1  0.84504240  0.61116641  0.22815862  1
  Se  Se59  1  0.34504240  0.88883359  0.77184138  1
  Y  Y60  1  0.12508336  0.39153876  0.78400608  1
  Y  Y61  1  0.62508336  0.10846124  0.21599392  1
  Y  Y62  1  0.87491664  0.89153876  0.71599392  1
  Y  Y63  1  0.37491664  0.60846124  0.28400608  1
