# generated using pymatgen
data_Co2P3H11N2O9
_symmetry_space_group_name_H-M   'P 1'
_cell_length_a   5.43236975
_cell_length_b   5.43236970
_cell_length_c   19.00166588
_cell_angle_alpha   90.08133997
_cell_angle_beta   89.91866002
_cell_angle_gamma   60.07735249
_symmetry_Int_Tables_number   1
_chemical_formula_structural   Co2P3H11N2O9
_chemical_formula_sum   'Co4 P6 H22 N4 O18'
_cell_volume   486.00102842
_cell_formula_units_Z   2
loop_
 _symmetry_equiv_pos_site_id
 _symmetry_equiv_pos_as_xyz
  1  'x, y, z'
loop_
 _atom_site_type_symbol
 _atom_site_label
 _atom_site_symmetry_multiplicity
 _atom_site_fract_x
 _atom_site_fract_y
 _atom_site_fract_z
 _atom_site_occupancy
  Co  Co0  1  0.66676402  0.66700397  0.16729827  1
  Co  Co1  1  0.33299603  0.33323598  0.66729827  1
  Co  Co2  1  0.33484773  0.33068461  0.82367425  1
  Co  Co3  1  0.66931539  0.66515227  0.32367425  1
  P  P4  1  0.99841602  0.00092085  0.12761285  1
  P  P5  1  0.99907915  0.00158398  0.62761285  1
  P  P6  1  0.99947290  0.00090644  0.86920187  1
  P  P7  1  0.99909356  0.00052710  0.36920187  1
  P  P8  1  0.33526486  0.33213781  0.26447014  1
  P  P9  1  0.66786219  0.66473514  0.76447014  1
  H  H10  1  0.24646745  0.21502921  0.05244546  1
  H  H11  1  0.53831616  0.24630036  0.05234584  1
  H  H12  1  0.21616036  0.53839003  0.05244863  1
  H  H13  1  0.78497079  0.75353255  0.55244546  1
  H  H14  1  0.46160997  0.78383964  0.55244863  1
  H  H15  1  0.75369964  0.46168384  0.55234584  1
  H  H16  1  0.75509421  0.78321723  0.94881230  1
  H  H17  1  0.46184038  0.75347300  0.94880806  1
  H  H18  1  0.78376412  0.46170231  0.94881519  1
  H  H19  1  0.21678277  0.24490579  0.44881230  1
  H  H20  1  0.53829769  0.21623588  0.44881519  1
  H  H21  1  0.24652700  0.53815962  0.44880806  1
  H  H22  1  0.33332567  0.33324192  0.97861411  1
  H  H23  1  0.66675808  0.66667433  0.47861411  1
  H  H24  1  0.66611666  0.66727619  0.02253452  1
  H  H25  1  0.33272381  0.33388334  0.52253452  1
  H  H26  1  0.99985189  0.00005219  0.20169066  1
  H  H27  1  0.99994781  0.00014811  0.70169066  1
  H  H28  1  0.00036941  0.99953466  0.79507789  1
  H  H29  1  0.00046534  0.99963059  0.29507789  1
  H  H30  1  0.66740174  0.66565391  0.83817085  1
  H  H31  1  0.33434609  0.33259826  0.33817085  1
  N  N32  1  0.33351815  0.33315554  0.03301314  1
  N  N33  1  0.66684446  0.66648185  0.53301314  1
  N  N34  1  0.66641647  0.66679610  0.96814511  1
  N  N35  1  0.33320390  0.33358353  0.46814511  1
  O  O36  1  0.01699639  0.49141571  0.24397413  1
  O  O37  1  0.49529638  0.01326708  0.24432338  1
  O  O38  1  0.49516988  0.49234146  0.24456639  1
  O  O39  1  0.50858429  0.98300361  0.74397413  1
  O  O40  1  0.50765854  0.50483012  0.74456639  1
  O  O41  1  0.98673292  0.50470362  0.74432338  1
  O  O42  1  0.83634299  0.31144045  0.10187566  1
  O  O43  1  0.84898757  0.83902525  0.10175365  1
  O  O44  1  0.30962051  0.85183992  0.10137900  1
  O  O45  1  0.68855955  0.16365701  0.60187566  1
  O  O46  1  0.14816008  0.69037949  0.60137900  1
  O  O47  1  0.16097475  0.15101243  0.60175365  1
  O  O48  1  0.16106124  0.68908847  0.89402504  1
  O  O49  1  0.15016941  0.16496474  0.89320374  1
  O  O50  1  0.68570308  0.15389627  0.89331986  1
  O  O51  1  0.31091153  0.83893876  0.39402504  1
  O  O52  1  0.84610373  0.31429692  0.39331986  1
  O  O53  1  0.83503526  0.84983059  0.39320374  1
