# generated using pymatgen
data_HgH2SeO5
_symmetry_space_group_name_H-M   'P 1'
_cell_length_a   7.79172913
_cell_length_b   8.07932236
_cell_length_c   8.17242295
_cell_angle_alpha   115.98342016
_cell_angle_beta   90.00000000
_cell_angle_gamma   90.00000000
_symmetry_Int_Tables_number   1
_chemical_formula_structural   HgH2SeO5
_chemical_formula_sum   'Hg4 H8 Se4 O20'
_cell_volume   462.46735024
_cell_formula_units_Z   4
loop_
 _symmetry_equiv_pos_site_id
 _symmetry_equiv_pos_as_xyz
  1  'x, y, z'
loop_
 _atom_site_type_symbol
 _atom_site_label
 _atom_site_symmetry_multiplicity
 _atom_site_fract_x
 _atom_site_fract_y
 _atom_site_fract_z
 _atom_site_occupancy
  H  H0  1  0.43466045  0.70560988  0.12174818  1
  H  H1  1  0.93466045  0.79439012  0.37825182  1
  H  H2  1  0.56533955  0.29439012  0.87825182  1
  H  H3  1  0.06533955  0.20560988  0.62174818  1
  H  H4  1  0.52178240  0.81192079  0.01956591  1
  H  H5  1  0.02178240  0.68807921  0.48043409  1
  H  H6  1  0.47821760  0.18807921  0.98043409  1
  H  H7  1  0.97821760  0.31192079  0.51956591  1
  O  O8  1  0.48399732  0.22295176  0.34075792  1
  O  O9  1  0.98399732  0.27704824  0.15924208  1
  O  O10  1  0.51600268  0.77704824  0.65924208  1
  O  O11  1  0.01600268  0.72295176  0.84075792  1
  O  O12  1  0.50761099  0.36524288  0.71572337  1
  O  O13  1  0.00761099  0.13475712  0.78427663  1
  O  O14  1  0.49238901  0.63475712  0.28427663  1
  O  O15  1  0.99238901  0.86524288  0.21572337  1
  O  O16  1  0.69499762  0.05865081  0.50805560  1
  O  O17  1  0.19499762  0.44134919  0.99194440  1
  O  O18  1  0.30500238  0.94134919  0.49194440  1
  O  O19  1  0.80500238  0.55865081  0.00805560  1
  O  O20  1  0.77404739  0.38673229  0.50084316  1
  O  O21  1  0.27404739  0.11326771  0.99915684  1
  O  O22  1  0.22595261  0.61326771  0.49915684  1
  O  O23  1  0.72595261  0.88673229  0.00084316  1
  O  O24  1  0.09228843  0.26895401  0.54330970  1
  O  O25  1  0.59228843  0.23104599  0.95669030  1
  O  O26  1  0.90771157  0.73104599  0.45669030  1
  O  O27  1  0.40771157  0.76895401  0.04330970  1
  Se  Se28  1  0.88589240  0.75163845  0.01575601  1
  Se  Se29  1  0.38589240  0.74836155  0.48424399  1
  Se  Se30  1  0.11410760  0.24836155  0.98424399  1
  Se  Se31  1  0.61410760  0.25163845  0.51575601  1
  Hg  Hg32  1  0.26781906  0.54960020  0.75717170  1
  Hg  Hg33  1  0.76781906  0.95039980  0.74282830  1
  Hg  Hg34  1  0.73218094  0.45039980  0.24282830  1
  Hg  Hg35  1  0.23218094  0.04960020  0.25717170  1
