# generated using pymatgen
data_FeCoH18(NCl)6
_symmetry_space_group_name_H-M   'P 1'
_cell_length_a   11.39968289
_cell_length_b   11.39968289
_cell_length_c   11.39968289
_cell_angle_alpha   90.00000000
_cell_angle_beta   90.00000000
_cell_angle_gamma   90.00000000
_symmetry_Int_Tables_number   1
_chemical_formula_structural   FeCoH18(NCl)6
_chemical_formula_sum   'Fe4 Co4 H72 N24 Cl24'
_cell_volume   1481.42036859
_cell_formula_units_Z   4
loop_
 _symmetry_equiv_pos_site_id
 _symmetry_equiv_pos_as_xyz
  1  'x, y, z'
loop_
 _atom_site_type_symbol
 _atom_site_label
 _atom_site_symmetry_multiplicity
 _atom_site_fract_x
 _atom_site_fract_y
 _atom_site_fract_z
 _atom_site_occupancy
  H  H0  1  0.09928369  0.63305925  0.14895151  1
  H  H1  1  0.59928369  0.86694075  0.85104849  1
  H  H2  1  0.90071631  0.13305925  0.35104849  1
  H  H3  1  0.86694075  0.85104849  0.59928369  1
  H  H4  1  0.35104849  0.90071631  0.13305925  1
  H  H5  1  0.85104849  0.59928369  0.86694075  1
  H  H6  1  0.63305925  0.14895151  0.09928369  1
  H  H7  1  0.14895151  0.09928369  0.63305925  1
  H  H8  1  0.13305925  0.35104849  0.90071631  1
  H  H9  1  0.36694075  0.64895151  0.40071631  1
  H  H10  1  0.64895151  0.40071631  0.36694075  1
  H  H11  1  0.40071631  0.36694075  0.64895151  1
  H  H12  1  0.90071631  0.36694075  0.85104849  1
  H  H13  1  0.40071631  0.13305925  0.14895151  1
  H  H14  1  0.09928369  0.86694075  0.64895151  1
  H  H15  1  0.13305925  0.14895151  0.40071631  1
  H  H16  1  0.64895151  0.09928369  0.86694075  1
  H  H17  1  0.14895151  0.40071631  0.13305925  1
  H  H18  1  0.36694075  0.85104849  0.90071631  1
  H  H19  1  0.85104849  0.90071631  0.36694075  1
  H  H20  1  0.86694075  0.64895151  0.09928369  1
  H  H21  1  0.63305925  0.35104849  0.59928369  1
  H  H22  1  0.35104849  0.59928369  0.63305925  1
  H  H23  1  0.59928369  0.63305925  0.35104849  1
  H  H24  1  0.18478432  0.62564396  0.03119489  1
  H  H25  1  0.68478432  0.87435604  0.96880511  1
  H  H26  1  0.81521568  0.12564396  0.46880511  1
  H  H27  1  0.87435604  0.96880511  0.68478432  1
  H  H28  1  0.46880511  0.81521568  0.12564396  1
  H  H29  1  0.96880511  0.68478432  0.87435604  1
  H  H30  1  0.62564396  0.03119489  0.18478432  1
  H  H31  1  0.21173573  0.46828984  0.93027657  1
  H  H32  1  0.03119489  0.18478432  0.62564396  1
  H  H33  1  0.37435604  0.53119489  0.31521568  1
  H  H34  1  0.53119489  0.31521568  0.37435604  1
  H  H35  1  0.31521568  0.37435604  0.53119489  1
  H  H36  1  0.81521568  0.37435604  0.96880511  1
  H  H37  1  0.31521568  0.12564396  0.03119489  1
  H  H38  1  0.18478432  0.87435604  0.53119489  1
  H  H39  1  0.12564396  0.03119489  0.31521568  1
  H  H40  1  0.53119489  0.18478432  0.87435604  1
  H  H41  1  0.03119489  0.31521568  0.12564396  1
  H  H42  1  0.37435604  0.96880511  0.81521568  1
  H  H43  1  0.96880511  0.81521568  0.37435604  1
  H  H44  1  0.87435604  0.53119489  0.18478432  1
  H  H45  1  0.62564396  0.46880511  0.68478432  1
  H  H46  1  0.46880511  0.68478432  0.62564396  1
  H  H47  1  0.68478432  0.62564396  0.46880511  1
  H  H48  1  0.06972343  0.71173573  0.03171016  1
  H  H49  1  0.56972343  0.78826427  0.96828984  1
  H  H50  1  0.93027657  0.21173573  0.46828984  1
  H  H51  1  0.78826427  0.96828984  0.56972343  1
  H  H52  1  0.46828984  0.93027657  0.21173573  1
  H  H53  1  0.96828984  0.56972343  0.78826427  1
  H  H54  1  0.71173573  0.03171016  0.06972343  1
  H  H55  1  0.03171016  0.06972343  0.71173573  1
  H  H56  1  0.56972343  0.71173573  0.46828984  1
  H  H57  1  0.46828984  0.56972343  0.71173573  1
  H  H58  1  0.71173573  0.46828984  0.56972343  1
  H  H59  1  0.78826427  0.53171016  0.06972343  1
  H  H60  1  0.96828984  0.93027657  0.28826427  1
  H  H61  1  0.28826427  0.96828984  0.93027657  1
  H  H62  1  0.03171016  0.43027657  0.21173573  1
  H  H63  1  0.53171016  0.06972343  0.78826427  1
  H  H64  1  0.21173573  0.03171016  0.43027657  1
  H  H65  1  0.06972343  0.78826427  0.53171016  1
  H  H66  1  0.43027657  0.21173573  0.03171016  1
  H  H67  1  0.93027657  0.28826427  0.96828984  1
  H  H68  1  0.43027657  0.28826427  0.53171016  1
  H  H69  1  0.53171016  0.43027657  0.28826427  1
  H  H70  1  0.28826427  0.53171016  0.43027657  1
  H  H71  1  0.12564396  0.46880511  0.81521568  1
  N  N72  1  0.09853970  0.63049307  0.05846707  1
  N  N73  1  0.59853970  0.86950693  0.94153293  1
  N  N74  1  0.90146030  0.13049307  0.44153293  1
  N  N75  1  0.86950693  0.94153293  0.59853970  1
  N  N76  1  0.44153293  0.90146030  0.13049307  1
  N  N77  1  0.94153293  0.59853970  0.86950693  1
  N  N78  1  0.63049307  0.05846707  0.09853970  1
  N  N79  1  0.05846707  0.09853970  0.63049307  1
  N  N80  1  0.13049307  0.44153293  0.90146030  1
  N  N81  1  0.36950693  0.55846707  0.40146030  1
  N  N82  1  0.55846707  0.40146030  0.36950693  1
  N  N83  1  0.40146030  0.36950693  0.55846707  1
  N  N84  1  0.90146030  0.36950693  0.94153293  1
  N  N85  1  0.40146030  0.13049307  0.05846707  1
  N  N86  1  0.09853970  0.86950693  0.55846707  1
  N  N87  1  0.13049307  0.05846707  0.40146030  1
  N  N88  1  0.55846707  0.09853970  0.86950693  1
  N  N89  1  0.05846707  0.40146030  0.13049307  1
  N  N90  1  0.36950693  0.94153293  0.90146030  1
  N  N91  1  0.94153293  0.90146030  0.36950693  1
  N  N92  1  0.86950693  0.55846707  0.09853970  1
  N  N93  1  0.63049307  0.44153293  0.59853970  1
  N  N94  1  0.44153293  0.59853970  0.63049307  1
  N  N95  1  0.59853970  0.63049307  0.44153293  1
  Cl  Cl96  1  0.42928254  0.13442756  0.35219164  1
  Cl  Cl97  1  0.92928254  0.36557244  0.64780836  1
  Cl  Cl98  1  0.57071746  0.63442756  0.14780836  1
  Cl  Cl99  1  0.36557244  0.64780836  0.92928254  1
  Cl  Cl100  1  0.92928254  0.13442756  0.14780836  1
  Cl  Cl101  1  0.64780836  0.92928254  0.36557244  1
  Cl  Cl102  1  0.13442756  0.35219164  0.42928254  1
  Cl  Cl103  1  0.35219164  0.42928254  0.13442756  1
  Cl  Cl104  1  0.63442756  0.14780836  0.57071746  1
  Cl  Cl105  1  0.86557244  0.85219164  0.07071746  1
  Cl  Cl106  1  0.85219164  0.07071746  0.86557244  1
  Cl  Cl107  1  0.07071746  0.86557244  0.85219164  1
  Cl  Cl108  1  0.57071746  0.86557244  0.64780836  1
  Cl  Cl109  1  0.07071746  0.63442756  0.35219164  1
  Cl  Cl110  1  0.42928254  0.36557244  0.85219164  1
  Cl  Cl111  1  0.63442756  0.35219164  0.07071746  1
  Cl  Cl112  1  0.85219164  0.42928254  0.36557244  1
  Cl  Cl113  1  0.35219164  0.07071746  0.63442756  1
  Cl  Cl114  1  0.86557244  0.64780836  0.57071746  1
  Cl  Cl115  1  0.64780836  0.57071746  0.86557244  1
  Cl  Cl116  1  0.36557244  0.85219164  0.42928254  1
  Cl  Cl117  1  0.13442756  0.14780836  0.92928254  1
  Cl  Cl118  1  0.14780836  0.92928254  0.13442756  1
  Cl  Cl119  1  0.14780836  0.57071746  0.63442756  1
  Fe  Fe120  1  0.00000000  0.00000000  0.00000000  1
  Fe  Fe121  1  0.50000000  0.00000000  0.50000000  1
  Fe  Fe122  1  0.50000000  0.50000000  0.00000000  1
  Fe  Fe123  1  0.00000000  0.50000000  0.50000000  1
  Co  Co124  1  0.50000000  0.50000000  0.50000000  1
  Co  Co125  1  0.00000000  0.50000000  0.00000000  1
  Co  Co126  1  0.00000000  0.00000000  0.50000000  1
  Co  Co127  1  0.50000000  0.00000000  0.00000000  1
