# generated using pymatgen
data_K2NaAlH6
_symmetry_space_group_name_H-M   'P 1'
_cell_length_a   5.75298027
_cell_length_b   5.75583106
_cell_length_c   8.10444927
_cell_angle_alpha   90.00000000
_cell_angle_beta   90.00471755
_cell_angle_gamma   90.00000000
_symmetry_Int_Tables_number   1
_chemical_formula_structural   K2NaAlH6
_chemical_formula_sum   'K4 Na2 Al2 H12'
_cell_volume   268.36410697
_cell_formula_units_Z   2
loop_
 _symmetry_equiv_pos_site_id
 _symmetry_equiv_pos_as_xyz
  1  'x, y, z'
loop_
 _atom_site_type_symbol
 _atom_site_label
 _atom_site_symmetry_multiplicity
 _atom_site_fract_x
 _atom_site_fract_y
 _atom_site_fract_z
 _atom_site_occupancy
  H  H0  1  0.71392454  0.72272102  0.50001257  1
  H  H1  1  0.78607546  0.22272102  0.99998743  1
  H  H2  1  0.28607546  0.27727898  0.49998743  1
  H  H3  1  0.21392454  0.77727898  0.00001257  1
  H  H4  1  0.77703974  0.78630259  0.99998841  1
  H  H5  1  0.72296026  0.28630259  0.50001159  1
  H  H6  1  0.22296026  0.21369741  0.00001159  1
  H  H7  1  0.27703974  0.71369741  0.49998841  1
  H  H8  1  0.99997722  0.99999977  0.78073380  1
  H  H9  1  0.50002278  0.49999977  0.71926620  1
  H  H10  1  0.00002278  0.00000023  0.21926620  1
  H  H11  1  0.49997722  0.50000023  0.28073380  1
  Na  Na12  1  0.00000000  0.00000000  0.50000000  1
  Na  Na13  1  0.50000000  0.50000000  0.00000000  1
  Al  Al14  1  0.00000000  0.00000000  0.00000000  1
  Al  Al15  1  0.50000000  0.50000000  0.50000000  1
  K  K16  1  0.49999578  0.00000226  0.24997816  1
  K  K17  1  0.00000422  0.50000226  0.25002184  1
  K  K18  1  0.50000422  0.99999774  0.75002184  1
  K  K19  1  0.99999578  0.49999774  0.74997816  1
