# generated using pymatgen
data_LiCd4Ge5HO15
_symmetry_space_group_name_H-M   'P 1'
_cell_length_a   7.19957185
_cell_length_b   8.07427203
_cell_length_c   12.49081036
_cell_angle_alpha   105.74352557
_cell_angle_beta   93.08269352
_cell_angle_gamma   94.85390895
_symmetry_Int_Tables_number   1
_chemical_formula_structural   LiCd4Ge5HO15
_chemical_formula_sum   'Li2 Cd8 Ge10 H2 O30'
_cell_volume   694.12874641
_cell_formula_units_Z   2
loop_
 _symmetry_equiv_pos_site_id
 _symmetry_equiv_pos_as_xyz
  1  'x, y, z'
loop_
 _atom_site_type_symbol
 _atom_site_label
 _atom_site_symmetry_multiplicity
 _atom_site_fract_x
 _atom_site_fract_y
 _atom_site_fract_z
 _atom_site_occupancy
  H  H0  1  0.52098288  0.59037998  0.39003445  1
  H  H1  1  0.47901712  0.40962002  0.60996555  1
  Li  Li2  1  0.67673346  0.86475357  0.40476427  1
  Li  Li3  1  0.32326654  0.13524643  0.59523573  1
  O  O4  1  0.22309643  0.72143437  0.23948765  1
  O  O5  1  0.50978200  0.51589960  0.30475655  1
  O  O6  1  0.49021800  0.48410040  0.69524345  1
  O  O7  1  0.83372979  0.51124826  0.09396764  1
  O  O8  1  0.16627021  0.48875174  0.90603236  1
  O  O9  1  0.64962697  0.97435467  0.88735465  1
  O  O10  1  0.35037303  0.02564533  0.11264535  1
  O  O11  1  0.90218287  0.73894871  0.37931685  1
  O  O12  1  0.09781713  0.26105129  0.62068315  1
  O  O13  1  0.56291261  0.70943899  0.49694027  1
  O  O14  1  0.43708739  0.29056101  0.50305973  1
  O  O15  1  0.77690357  0.27856563  0.76051235  1
  O  O16  1  0.12001472  0.38022039  0.26933707  1
  O  O17  1  0.93705218  0.95446724  0.67786025  1
  O  O18  1  0.06294782  0.04553276  0.32213975  1
  O  O19  1  0.60266856  0.79713019  0.11722827  1
  O  O20  1  0.39733144  0.20286981  0.88277173  1
  O  O21  1  0.64414079  0.56832468  0.91075893  1
  O  O22  1  0.41525107  0.95743890  0.67838378  1
  O  O23  1  0.58474893  0.04256110  0.32161622  1
  O  O24  1  0.03581592  0.17568291  0.97645048  1
  O  O25  1  0.96418408  0.82431709  0.02354952  1
  O  O26  1  0.26608163  0.90938157  0.47535027  1
  O  O27  1  0.87998528  0.61977961  0.73066293  1
  O  O28  1  0.74711335  0.17484270  0.15161056  1
  O  O29  1  0.73391837  0.09061843  0.52464973  1
  O  O30  1  0.18381069  0.61367054  0.56453958  1
  O  O31  1  0.81618931  0.38632946  0.43546042  1
  O  O32  1  0.25288665  0.82515730  0.84838944  1
  O  O33  1  0.35585921  0.43167532  0.08924107  1
  Ge  Ge34  1  0.57296692  0.02469319  0.17467727  1
  Ge  Ge35  1  0.89389867  0.14562802  0.64740509  1
  Ge  Ge36  1  0.10610133  0.85437198  0.35259491  1
  Ge  Ge37  1  0.77735997  0.68104654  0.04006341  1
  Ge  Ge38  1  0.22264003  0.31895346  0.95993659  1
  Ge  Ge39  1  0.70606100  0.49008055  0.77259564  1
  Ge  Ge40  1  0.29393900  0.50991945  0.22740436  1
  Ge  Ge41  1  0.64199996  0.22374315  0.44297510  1
  Ge  Ge42  1  0.35800004  0.77625685  0.55702490  1
  Ge  Ge43  1  0.42703308  0.97530681  0.82532273  1
  Cd  Cd44  1  0.05658494  0.09573987  0.15124241  1
  Cd  Cd45  1  0.72750008  0.25384429  0.98124219  1
  Cd  Cd46  1  0.27249992  0.74615571  0.01875781  1
  Cd  Cd47  1  0.81463573  0.46464122  0.26371247  1
  Cd  Cd48  1  0.18536427  0.53535878  0.73628753  1
  Cd  Cd49  1  0.86754567  0.68301007  0.55668261  1
  Cd  Cd50  1  0.13245433  0.31698993  0.44331739  1
  Cd  Cd51  1  0.94341506  0.90426013  0.84875759  1
