# generated using pymatgen
data_SrHBr
_symmetry_space_group_name_H-M   'P 1'
_cell_length_a   4.22589621
_cell_length_b   4.22589621
_cell_length_c   7.53346588
_cell_angle_alpha   90.00000000
_cell_angle_beta   90.00000000
_cell_angle_gamma   90.00000000
_symmetry_Int_Tables_number   1
_chemical_formula_structural   SrHBr
_chemical_formula_sum   'Sr2 H2 Br2'
_cell_volume   134.53413117
_cell_formula_units_Z   2
loop_
 _symmetry_equiv_pos_site_id
 _symmetry_equiv_pos_as_xyz
  1  'x, y, z'
loop_
 _atom_site_type_symbol
 _atom_site_label
 _atom_site_symmetry_multiplicity
 _atom_site_fract_x
 _atom_site_fract_y
 _atom_site_fract_z
 _atom_site_occupancy
  H  H0  1  0.50000000  0.50000000  0.00000000  1
  H  H1  1  0.00000000  0.00000000  0.00000000  1
  Br  Br2  1  0.00000000  0.50000000  0.65847477  1
  Br  Br3  1  0.50000000  0.00000000  0.34152523  1
  Sr  Sr4  1  0.50000000  0.00000000  0.81821848  1
  Sr  Sr5  1  0.00000000  0.50000000  0.18178152  1
