# generated using pymatgen
data_CaAl4Si2O11
_symmetry_space_group_name_H-M   'P 1'
_cell_length_a   5.47966030
_cell_length_b   5.47765743
_cell_length_c   12.83776053
_cell_angle_alpha   89.81730551
_cell_angle_beta   89.63490262
_cell_angle_gamma   59.98711468
_symmetry_Int_Tables_number   1
_chemical_formula_structural   CaAl4Si2O11
_chemical_formula_sum   'Ca2 Al8 Si4 O22'
_cell_volume   333.65926221
_cell_formula_units_Z   2
loop_
 _symmetry_equiv_pos_site_id
 _symmetry_equiv_pos_as_xyz
  1  'x, y, z'
loop_
 _atom_site_type_symbol
 _atom_site_label
 _atom_site_symmetry_multiplicity
 _atom_site_fract_x
 _atom_site_fract_y
 _atom_site_fract_z
 _atom_site_occupancy
  Ca  Ca0  1  0.33275740  0.33348869  0.75294083  1
  Ca  Ca1  1  0.66620382  0.66651368  0.25294220  1
  Al  Al2  1  0.00778763  0.99561053  0.64646747  1
  Al  Al3  1  0.99135911  0.00483331  0.35181091  1
  Al  Al4  1  0.00339818  0.00438888  0.14646911  1
  Al  Al5  1  0.99619208  0.99516756  0.85181031  1
  Al  Al6  1  0.66489468  0.66752160  0.72941108  1
  Al  Al7  1  0.33243921  0.33248469  0.22941182  1
  Al  Al8  1  0.00291422  0.49855940  0.49853640  1
  Al  Al9  1  0.50146793  0.50144223  0.99853667  1
  Si  Si10  1  0.49779601  0.49711972  0.49846524  1
  Si  Si11  1  0.49781519  0.00505834  0.49842155  1
  Si  Si12  1  0.99491987  0.50287739  0.99846718  1
  Si  Si13  1  0.50287050  0.99494403  0.99842441  1
  O  O14  1  0.83671370  0.35306750  0.07781878  1
  O  O15  1  0.35178997  0.83750314  0.07787601  1
  O  O16  1  0.82423010  0.82424741  0.07661799  1
  O  O17  1  0.16425638  0.64617419  0.92210973  1
  O  O18  1  0.64761737  0.16340181  0.92195292  1
  O  O19  1  0.17689322  0.17678546  0.92352161  1
  O  O20  1  0.18977817  0.64693555  0.57782076  1
  O  O21  1  0.64847976  0.17575114  0.57662034  1
  O  O22  1  0.18929092  0.16249318  0.57787669  1
  O  O23  1  0.81043711  0.35382227  0.42210942  1
  O  O24  1  0.35367931  0.82321615  0.42352389  1
  O  O25  1  0.81102253  0.83659984  0.42195260  1
  O  O26  1  0.84823947  0.30324245  0.74856472  1
  O  O27  1  0.30316671  0.84725331  0.75252425  1
  O  O28  1  0.84910671  0.84698360  0.74526354  1
  O  O29  1  0.15151217  0.69675495  0.24856371  1
  O  O30  1  0.69608467  0.15302701  0.24526170  1
  O  O31  1  0.15042194  0.15273005  0.25252619  1
  O  O32  1  0.65616175  0.67146743  0.57795022  1
  O  O33  1  0.34676427  0.32715124  0.42474078  1
  O  O34  1  0.32762260  0.32853286  0.07794741  1
  O  O35  1  0.67391533  0.67284940  0.92474156  1
