# generated using pymatgen
data_CuH2SO5
_symmetry_space_group_name_H-M   'P 1'
_cell_length_a   5.05667978
_cell_length_b   5.24511300
_cell_length_c   7.81662327
_cell_angle_alpha   108.98451679
_cell_angle_beta   108.00302227
_cell_angle_gamma   90.42179083
_symmetry_Int_Tables_number   1
_chemical_formula_structural   CuH2SO5
_chemical_formula_sum   'Cu2 H4 S2 O10'
_cell_volume   185.09721505
_cell_formula_units_Z   2
loop_
 _symmetry_equiv_pos_site_id
 _symmetry_equiv_pos_as_xyz
  1  'x, y, z'
loop_
 _atom_site_type_symbol
 _atom_site_label
 _atom_site_symmetry_multiplicity
 _atom_site_fract_x
 _atom_site_fract_y
 _atom_site_fract_z
 _atom_site_occupancy
  H  H0  1  0.82273931  0.40462012  0.77843198  1
  H  H1  1  0.17726069  0.59537988  0.22156802  1
  H  H2  1  0.02075261  0.50845682  0.68527467  1
  H  H3  1  0.97924739  0.49154318  0.31472533  1
  O  O4  1  0.74023189  0.83662692  0.09257565  1
  O  O5  1  0.25976811  0.16337308  0.90742435  1
  O  O6  1  0.29467101  0.84179447  0.15390951  1
  O  O7  1  0.70532899  0.15820553  0.84609049  1
  O  O8  1  0.66187773  0.23353511  0.32684186  1
  O  O9  1  0.33812227  0.76646489  0.67315814  1
  O  O10  1  0.71260363  0.80183434  0.38978629  1
  O  O11  1  0.28739637  0.19816566  0.61021371  1
  O  O12  1  0.14689058  0.45302931  0.27592874  1
  O  O13  1  0.85310942  0.54697069  0.72407126  1
  S  S14  1  0.39164546  0.07025330  0.75513597  1
  S  S15  1  0.60835454  0.92974670  0.24486403  1
  Cu  Cu16  1  0.50000000  0.50000000  0.50000000  1
  Cu  Cu17  1  0.00000000  0.00000000  0.00000000  1
