# generated using pymatgen
data_ZnH2(SeO4)2
_symmetry_space_group_name_H-M   'P 1'
_cell_length_a   5.16589667
_cell_length_b   7.51875368
_cell_length_c   8.78213233
_cell_angle_alpha   90.00000000
_cell_angle_beta   90.00000000
_cell_angle_gamma   97.59218468
_symmetry_Int_Tables_number   1
_chemical_formula_structural   ZnH2(SeO4)2
_chemical_formula_sum   'Zn2 H4 Se4 O16'
_cell_volume   338.11742382
_cell_formula_units_Z   2
loop_
 _symmetry_equiv_pos_site_id
 _symmetry_equiv_pos_as_xyz
  1  'x, y, z'
loop_
 _atom_site_type_symbol
 _atom_site_label
 _atom_site_symmetry_multiplicity
 _atom_site_fract_x
 _atom_site_fract_y
 _atom_site_fract_z
 _atom_site_occupancy
  H  H0  1  0.22231343  0.64660285  0.00935346  1
  H  H1  1  0.27768657  0.85339715  0.50935346  1
  H  H2  1  0.77768657  0.35339715  0.99064654  1
  H  H3  1  0.72231343  0.14660285  0.49064654  1
  O  O4  1  0.29598909  0.60019868  0.91203512  1
  O  O5  1  0.20401091  0.89980132  0.41203512  1
  O  O6  1  0.81000383  0.46655441  0.64432886  1
  O  O7  1  0.68999617  0.03344559  0.14432886  1
  O  O8  1  0.18999617  0.53344559  0.35567114  1
  O  O9  1  0.31000383  0.96655441  0.85567114  1
  O  O10  1  0.26751017  0.31107025  0.63671083  1
  O  O11  1  0.23248983  0.18892975  0.13671083  1
  O  O12  1  0.73248983  0.68892975  0.36328917  1
  O  O13  1  0.76751017  0.81107025  0.86328917  1
  O  O14  1  0.91231659  0.22893849  0.86643265  1
  O  O15  1  0.58768341  0.27106151  0.36643265  1
  O  O16  1  0.08768341  0.77106151  0.13356735  1
  O  O17  1  0.41231659  0.72893849  0.63356735  1
  O  O18  1  0.79598909  0.10019868  0.58796488  1
  O  O19  1  0.70401091  0.39980132  0.08796488  1
  Zn  Zn20  1  0.00000000  0.00000000  0.00000000  1
  Zn  Zn21  1  0.50000000  0.50000000  0.50000000  1
  Se  Se22  1  0.54483459  0.21223374  0.18376279  1
  Se  Se23  1  0.95516541  0.28776626  0.68376279  1
  Se  Se24  1  0.04483459  0.71223374  0.31623721  1
  Se  Se25  1  0.45516541  0.78776626  0.81623721  1
