# generated using pymatgen
data_ZrH3NF4
_symmetry_space_group_name_H-M   'P 1'
_cell_length_a   6.14674901
_cell_length_b   8.19149342
_cell_length_c   8.70000253
_cell_angle_alpha   106.97404893
_cell_angle_beta   103.99848077
_cell_angle_gamma   106.73398148
_symmetry_Int_Tables_number   1
_chemical_formula_structural   ZrH3NF4
_chemical_formula_sum   'Zr4 H12 N4 F16'
_cell_volume   374.96243913
_cell_formula_units_Z   4
loop_
 _symmetry_equiv_pos_site_id
 _symmetry_equiv_pos_as_xyz
  1  'x, y, z'
loop_
 _atom_site_type_symbol
 _atom_site_label
 _atom_site_symmetry_multiplicity
 _atom_site_fract_x
 _atom_site_fract_y
 _atom_site_fract_z
 _atom_site_occupancy
  H  H0  1  0.28103643  0.85656804  0.29900110  1
  H  H1  1  0.71896357  0.14343196  0.70099890  1
  H  H2  1  0.18889554  0.78627621  0.44106012  1
  H  H3  1  0.81110446  0.21372379  0.55893988  1
  H  H4  1  0.26927854  0.26444020  0.32027034  1
  H  H5  1  0.73072146  0.73555980  0.67972966  1
  H  H6  1  0.19575427  0.41776324  0.44531763  1
  H  H7  1  0.79818941  0.00981074  0.55898447  1
  H  H8  1  0.28215593  0.45192121  0.28660140  1
  H  H9  1  0.71784407  0.54807879  0.71339860  1
  H  H10  1  0.20181059  0.99018926  0.44101553  1
  H  H11  1  0.80424573  0.58223676  0.55468237  1
  N  N12  1  0.18353055  0.35459730  0.32149875  1
  N  N13  1  0.16072823  0.85609781  0.36247186  1
  N  N14  1  0.83927177  0.14390219  0.63752814  1
  N  N15  1  0.81646945  0.64540270  0.67850125  1
  F  F16  1  0.39617451  0.06676991  0.08891145  1
  F  F17  1  0.74252657  0.31675818  0.35652329  1
  F  F18  1  0.28524471  0.23468649  0.61209895  1
  F  F19  1  0.71475529  0.76531351  0.38790105  1
  F  F20  1  0.42965540  0.76588837  0.09655637  1
  F  F21  1  0.25747343  0.68324182  0.64347671  1
  F  F22  1  0.44423297  0.45907680  0.11150327  1
  F  F23  1  0.60382549  0.93323009  0.91108855  1
  F  F24  1  0.89271047  0.50309556  0.16793681  1
  F  F25  1  0.10728953  0.49690444  0.83206319  1
  F  F26  1  0.00905443  0.21743057  0.98034865  1
  F  F27  1  0.99094557  0.78256943  0.01965135  1
  F  F28  1  0.85703117  0.01009990  0.22317897  1
  F  F29  1  0.14296883  0.98990010  0.77682103  1
  F  F30  1  0.55576703  0.54092320  0.88849673  1
  F  F31  1  0.57034460  0.23411163  0.90344363  1
  Zr  Zr32  1  0.75691940  0.71244694  0.16026499  1
  Zr  Zr33  1  0.24308060  0.28755306  0.83973501  1
  Zr  Zr34  1  0.77656412  0.20792195  0.12905232  1
  Zr  Zr35  1  0.22343588  0.79207805  0.87094768  1
