# generated using pymatgen
data_H3SO4F
_symmetry_space_group_name_H-M   'P 1'
_cell_length_a   6.53908746
_cell_length_b   7.69772094
_cell_length_c   8.20396954
_cell_angle_alpha   90.00000000
_cell_angle_beta   90.00000000
_cell_angle_gamma   90.00000000
_symmetry_Int_Tables_number   1
_chemical_formula_structural   H3SO4F
_chemical_formula_sum   'H12 S4 O16 F4'
_cell_volume   412.95558889
_cell_formula_units_Z   4
loop_
 _symmetry_equiv_pos_site_id
 _symmetry_equiv_pos_as_xyz
  1  'x, y, z'
loop_
 _atom_site_type_symbol
 _atom_site_label
 _atom_site_symmetry_multiplicity
 _atom_site_fract_x
 _atom_site_fract_y
 _atom_site_fract_z
 _atom_site_occupancy
  H  H0  1  0.25000000  0.92007610  0.73160988  1
  H  H1  1  0.75000000  0.07992390  0.26839012  1
  H  H2  1  0.75000000  0.42007610  0.76839012  1
  H  H3  1  0.25000000  0.57992390  0.23160988  1
  H  H4  1  0.62014109  0.18718320  0.41501946  1
  H  H5  1  0.12014109  0.81281680  0.58498054  1
  H  H6  1  0.37985891  0.68718320  0.08498054  1
  H  H7  1  0.87985891  0.31281680  0.91501946  1
  H  H8  1  0.62014109  0.31281680  0.91501946  1
  H  H9  1  0.12014109  0.68718320  0.08498054  1
  H  H10  1  0.37985891  0.81281680  0.58498054  1
  H  H11  1  0.87985891  0.18718320  0.41501946  1
  O  O12  1  0.43586007  0.29598880  0.02838966  1
  O  O13  1  0.93586007  0.79598880  0.47161034  1
  O  O14  1  0.06413993  0.29598880  0.02838966  1
  O  O15  1  0.56413993  0.70401120  0.97161034  1
  O  O16  1  0.25000000  0.43938043  0.38848033  1
  O  O17  1  0.75000000  0.56061957  0.61151967  1
  O  O18  1  0.75000000  0.93938043  0.11151967  1
  O  O19  1  0.25000000  0.06061957  0.88848033  1
  O  O20  1  0.25000000  0.68095206  0.15523927  1
  O  O21  1  0.75000000  0.31904794  0.84476073  1
  O  O22  1  0.75000000  0.18095206  0.34476073  1
  O  O23  1  0.25000000  0.81904794  0.65523927  1
  O  O24  1  0.56413993  0.79598880  0.47161034  1
  O  O25  1  0.06413993  0.20401120  0.52838966  1
  O  O26  1  0.43586007  0.20401120  0.52838966  1
  O  O27  1  0.93586007  0.70401120  0.97161034  1
  F  F28  1  0.25000000  0.08275415  0.18062109  1
  F  F29  1  0.75000000  0.91724585  0.81937891  1
  F  F30  1  0.75000000  0.58275415  0.31937891  1
  F  F31  1  0.25000000  0.41724585  0.68062109  1
  S  S32  1  0.25000000  0.19260405  0.01335012  1
  S  S33  1  0.75000000  0.80739595  0.98664988  1
  S  S34  1  0.75000000  0.69260405  0.48664988  1
  S  S35  1  0.25000000  0.30739595  0.51335012  1
