# generated using pymatgen
data_ZnH2(SO4)2
_symmetry_space_group_name_H-M   'P 1'
_cell_length_a   4.97609216
_cell_length_b   7.49387458
_cell_length_c   8.37720624
_cell_angle_alpha   90.00000000
_cell_angle_beta   90.00000000
_cell_angle_gamma   99.09381615
_symmetry_Int_Tables_number   1
_chemical_formula_structural   ZnH2(SO4)2
_chemical_formula_sum   'Zn2 H4 S4 O16'
_cell_volume   308.46134174
_cell_formula_units_Z   2
loop_
 _symmetry_equiv_pos_site_id
 _symmetry_equiv_pos_as_xyz
  1  'x, y, z'
loop_
 _atom_site_type_symbol
 _atom_site_label
 _atom_site_symmetry_multiplicity
 _atom_site_fract_x
 _atom_site_fract_y
 _atom_site_fract_z
 _atom_site_occupancy
  H  H0  1  0.21335808  0.65684544  0.02057083  1
  H  H1  1  0.28664192  0.84315456  0.52057083  1
  H  H2  1  0.78664192  0.34315456  0.97942917  1
  H  H3  1  0.71335808  0.15684544  0.47942917  1
  O  O4  1  0.77555130  0.69157978  0.37699984  1
  O  O5  1  0.72444870  0.80842022  0.87699984  1
  O  O6  1  0.91815301  0.22117437  0.84538003  1
  O  O7  1  0.58184699  0.27882563  0.34538003  1
  O  O8  1  0.08184699  0.77882563  0.15461997  1
  O  O9  1  0.41815301  0.72117437  0.65461997  1
  O  O10  1  0.69596036  0.06273094  0.15042075  1
  O  O11  1  0.80403964  0.43726906  0.65042075  1
  O  O12  1  0.30403964  0.93726906  0.84957925  1
  O  O13  1  0.19596036  0.56273094  0.34957925  1
  O  O14  1  0.78367633  0.11398684  0.58361634  1
  O  O15  1  0.71632367  0.38601316  0.08361634  1
  O  O16  1  0.21632367  0.88601316  0.41638366  1
  O  O17  1  0.28367633  0.61398684  0.91638366  1
  O  O18  1  0.27555130  0.19157978  0.12300016  1
  O  O19  1  0.22444870  0.30842022  0.62300016  1
  S  S20  1  0.05901471  0.72029508  0.32350975  1
  S  S21  1  0.44098529  0.77970492  0.82350975  1
  S  S22  1  0.94098529  0.27970492  0.67649025  1
  S  S23  1  0.55901471  0.22029508  0.17649025  1
  Zn  Zn24  1  0.50000000  0.50000000  0.50000000  1
  Zn  Zn25  1  0.00000000  0.00000000  0.00000000  1
