# generated using pymatgen
data_GaP3(HO5)2
_symmetry_space_group_name_H-M   'P 1'
_cell_length_a   7.44596293
_cell_length_b   8.81575304
_cell_length_c   11.82968195
_cell_angle_alpha   90.00000000
_cell_angle_beta   102.70264928
_cell_angle_gamma   90.00000000
_symmetry_Int_Tables_number   1
_chemical_formula_structural   GaP3(HO5)2
_chemical_formula_sum   'Ga4 P12 H8 O40'
_cell_volume   757.51542455
_cell_formula_units_Z   4
loop_
 _symmetry_equiv_pos_site_id
 _symmetry_equiv_pos_as_xyz
  1  'x, y, z'
loop_
 _atom_site_type_symbol
 _atom_site_label
 _atom_site_symmetry_multiplicity
 _atom_site_fract_x
 _atom_site_fract_y
 _atom_site_fract_z
 _atom_site_occupancy
  H  H0  1  0.14588010  0.67942251  0.88595260  1
  H  H1  1  0.35411990  0.17942251  0.61404740  1
  H  H2  1  0.85411990  0.32057749  0.11404740  1
  H  H3  1  0.64588010  0.82057749  0.38595260  1
  H  H4  1  0.71734550  0.14193080  0.44562805  1
  H  H5  1  0.78265450  0.64193080  0.05437195  1
  H  H6  1  0.28265450  0.85806920  0.55437195  1
  H  H7  1  0.21734550  0.35806920  0.94562805  1
  O  O8  1  0.13799520  0.74362350  0.95376414  1
  O  O9  1  0.36200480  0.24362350  0.54623586  1
  O  O10  1  0.86200480  0.25637650  0.04623586  1
  O  O11  1  0.63799520  0.75637650  0.45376414  1
  O  O12  1  0.69020334  0.08390606  0.89683626  1
  O  O13  1  0.80979666  0.58390606  0.60316374  1
  O  O14  1  0.30979666  0.91609394  0.10316374  1
  O  O15  1  0.19020334  0.41609394  0.39683626  1
  O  O16  1  0.17791119  0.57872651  0.75339309  1
  O  O17  1  0.32208881  0.07872651  0.74660691  1
  O  O18  1  0.82208881  0.42127349  0.24660691  1
  O  O19  1  0.67791119  0.92127349  0.25339309  1
  O  O20  1  0.61768809  0.22127402  0.31540263  1
  O  O21  1  0.88231191  0.72127402  0.18459737  1
  O  O22  1  0.38231191  0.77872598  0.68459737  1
  O  O23  1  0.11768809  0.27872598  0.81540263  1
  O  O24  1  0.43718976  0.85582718  0.92168727  1
  O  O25  1  0.06281024  0.35582718  0.57831273  1
  O  O26  1  0.56281024  0.14417282  0.07831273  1
  O  O27  1  0.93718976  0.64417282  0.42168727  1
  O  O28  1  0.73219821  0.77586964  0.82898429  1
  O  O29  1  0.76780179  0.27586964  0.67101571  1
  O  O30  1  0.26780179  0.22413036  0.17101571  1
  O  O31  1  0.23219821  0.72413036  0.32898429  1
  O  O32  1  0.62958354  0.01010458  0.66402315  1
  O  O33  1  0.87041646  0.51010458  0.83597685  1
  O  O34  1  0.37041646  0.98989542  0.33597685  1
  O  O35  1  0.12958354  0.48989542  0.16402315  1
  O  O36  1  0.15699964  0.02588154  0.91070966  1
  O  O37  1  0.34300036  0.52588154  0.58929034  1
  O  O38  1  0.84300036  0.97411846  0.08929034  1
  O  O39  1  0.65699964  0.47411846  0.41070966  1
  O  O40  1  0.79749241  0.08411644  0.51023864  1
  O  O41  1  0.70250759  0.58411644  0.98976136  1
  O  O42  1  0.20250759  0.91588356  0.48976136  1
  O  O43  1  0.29749241  0.41588356  0.01023864  1
  O  O44  1  0.97703523  0.04137504  0.70609340  1
  O  O45  1  0.52296477  0.54137504  0.79390660  1
  O  O46  1  0.02296477  0.95862496  0.29390660  1
  O  O47  1  0.47703523  0.45862496  0.20609340  1
  P  P48  1  0.27296850  0.88135194  0.97549744  1
  P  P49  1  0.22703150  0.38135194  0.52450256  1
  P  P50  1  0.72703150  0.11864806  0.02450256  1
  P  P51  1  0.77296850  0.61864806  0.47549744  1
  P  P52  1  0.15097485  0.11272601  0.79221652  1
  P  P53  1  0.34902515  0.61272601  0.70778348  1
  P  P54  1  0.84902515  0.88727399  0.20778348  1
  P  P55  1  0.65097485  0.38727399  0.29221652  1
  P  P56  1  0.77983010  0.11080555  0.63758351  1
  P  P57  1  0.72016990  0.61080555  0.86241649  1
  P  P58  1  0.22016990  0.88919445  0.36241649  1
  P  P59  1  0.27983010  0.38919445  0.13758351  1
  Ga  Ga60  1  0.54408510  0.93347144  0.79454129  1
  Ga  Ga61  1  0.95591490  0.43347144  0.70545871  1
  Ga  Ga62  1  0.45591490  0.06652856  0.20545871  1
  Ga  Ga63  1  0.04408510  0.56652856  0.29454129  1
