# generated using pymatgen
data_MgH6(SO4)4
_symmetry_space_group_name_H-M   'P 1'
_cell_length_a   5.21175904
_cell_length_b   8.29597811
_cell_length_c   15.38558895
_cell_angle_alpha   90.00000000
_cell_angle_beta   90.00000000
_cell_angle_gamma   103.53280400
_symmetry_Int_Tables_number   1
_chemical_formula_structural   MgH6(SO4)4
_chemical_formula_sum   'Mg2 H12 S8 O32'
_cell_volume   646.75202345
_cell_formula_units_Z   2
loop_
 _symmetry_equiv_pos_site_id
 _symmetry_equiv_pos_as_xyz
  1  'x, y, z'
loop_
 _atom_site_type_symbol
 _atom_site_label
 _atom_site_symmetry_multiplicity
 _atom_site_fract_x
 _atom_site_fract_y
 _atom_site_fract_z
 _atom_site_occupancy
  H  H0  1  0.71196586  0.38533142  0.02380257  1
  H  H1  1  0.28803414  0.11466858  0.52380257  1
  H  H2  1  0.28803414  0.61466858  0.97619743  1
  H  H3  1  0.71196586  0.88533142  0.47619743  1
  H  H4  1  0.19322197  0.30207631  0.26532672  1
  H  H5  1  0.80677803  0.19792369  0.76532672  1
  H  H6  1  0.80677803  0.69792369  0.73467328  1
  H  H7  1  0.19322197  0.80207631  0.23467328  1
  H  H8  1  0.41592872  0.33495607  0.76414754  1
  H  H9  1  0.58407128  0.16504393  0.26414754  1
  H  H10  1  0.58407128  0.66504393  0.23585246  1
  H  H11  1  0.41592872  0.83495607  0.73585246  1
  O  O12  1  0.39219917  0.73642093  0.17913231  1
  O  O13  1  0.60780083  0.26357907  0.82086769  1
  O  O14  1  0.70232261  0.89655934  0.54191983  1
  O  O15  1  0.29767739  0.60344066  0.04191983  1
  O  O16  1  0.29767739  0.10344066  0.45808017  1
  O  O17  1  0.70232261  0.39655934  0.95808017  1
  O  O18  1  0.70243716  0.82172131  0.06032256  1
  O  O19  1  0.29756284  0.67827869  0.56032256  1
  O  O20  1  0.29756284  0.17827869  0.93967744  1
  O  O21  1  0.39219917  0.23642093  0.32086769  1
  O  O22  1  0.27631680  0.89542822  0.05900716  1
  O  O23  1  0.72368320  0.60457178  0.55900716  1
  O  O24  1  0.72368320  0.10457178  0.94099284  1
  O  O25  1  0.27631680  0.39542822  0.44099284  1
  O  O26  1  0.97807524  0.84014497  0.89107039  1
  O  O27  1  0.02192476  0.65985503  0.39107039  1
  O  O28  1  0.02192476  0.15985503  0.10892961  1
  O  O29  1  0.97807524  0.34014497  0.60892961  1
  O  O30  1  0.73420017  0.85694781  0.37427983  1
  O  O31  1  0.26579983  0.64305219  0.87427983  1
  O  O32  1  0.26579983  0.14305219  0.62572017  1
  O  O33  1  0.73420017  0.35694781  0.12572017  1
  O  O34  1  0.07707912  0.86136435  0.27135451  1
  O  O35  1  0.92292088  0.63863565  0.77135451  1
  O  O36  1  0.92292088  0.13863565  0.72864549  1
  O  O37  1  0.07707912  0.36136435  0.22864549  1
  O  O38  1  0.29903061  0.88392749  0.77752308  1
  O  O39  1  0.70096939  0.61607251  0.27752308  1
  O  O40  1  0.70096939  0.11607251  0.22247692  1
  O  O41  1  0.29903061  0.38392749  0.72247692  1
  O  O42  1  0.70243716  0.32172131  0.43967744  1
  O  O43  1  0.60780083  0.76357907  0.67913231  1
  Mg  Mg44  1  0.00000000  0.00000000  0.00000000  1
  Mg  Mg45  1  0.00000000  0.50000000  0.50000000  1
  S  S46  1  0.11695711  0.25019824  0.66575531  1
  S  S47  1  0.88304289  0.24980176  0.16575531  1
  S  S48  1  0.57564073  0.72570557  0.58470300  1
  S  S49  1  0.42435927  0.77429443  0.08470300  1
  S  S50  1  0.42435927  0.27429443  0.41529700  1
  S  S51  1  0.57564073  0.22570557  0.91529700  1
  S  S52  1  0.11695711  0.75019824  0.83424469  1
  S  S53  1  0.88304289  0.74980176  0.33424469  1
