# generated using pymatgen
data_BePH4NO4
_symmetry_space_group_name_H-M   'P 1'
_cell_length_a   4.98352718
_cell_length_b   8.70223882
_cell_length_c   8.77421201
_cell_angle_alpha   90.00000000
_cell_angle_beta   90.00000000
_cell_angle_gamma   90.00000000
_symmetry_Int_Tables_number   1
_chemical_formula_structural   BePH4NO4
_chemical_formula_sum   'Be4 P4 H16 N4 O16'
_cell_volume   380.51865492
_cell_formula_units_Z   4
loop_
 _symmetry_equiv_pos_site_id
 _symmetry_equiv_pos_as_xyz
  1  'x, y, z'
loop_
 _atom_site_type_symbol
 _atom_site_label
 _atom_site_symmetry_multiplicity
 _atom_site_fract_x
 _atom_site_fract_y
 _atom_site_fract_z
 _atom_site_occupancy
  H  H0  1  0.34620308  0.72021585  0.01243316  1
  H  H1  1  0.84620308  0.27978415  0.98756684  1
  H  H2  1  0.34620308  0.77978415  0.51243316  1
  H  H3  1  0.84620308  0.22021585  0.48756684  1
  H  H4  1  0.03254260  0.71070115  0.50803294  1
  H  H5  1  0.53254260  0.28929885  0.49196706  1
  H  H6  1  0.10392918  0.63487002  0.90143205  1
  H  H7  1  0.60392918  0.36512998  0.09856795  1
  H  H8  1  0.10392918  0.86512998  0.40143205  1
  H  H9  1  0.60392918  0.13487002  0.59856795  1
  H  H10  1  0.08982447  0.62427251  0.09878122  1
  H  H11  1  0.53254260  0.21070115  0.99196706  1
  H  H12  1  0.08982447  0.87572749  0.59878122  1
  H  H13  1  0.58982447  0.12427251  0.40121878  1
  H  H14  1  0.03254260  0.78929885  0.00803294  1
  H  H15  1  0.58982447  0.37572749  0.90121878  1
  Be  Be16  1  0.66105416  0.59329127  0.67415045  1
  Be  Be17  1  0.16105416  0.09329127  0.82584955  1
  Be  Be18  1  0.66105416  0.90670873  0.17415045  1
  Be  Be19  1  0.16105416  0.40670873  0.32584955  1
  N  N20  1  0.14647818  0.69038537  0.00431057  1
  N  N21  1  0.64647818  0.30961463  0.99568943  1
  N  N22  1  0.64647818  0.19038537  0.49568943  1
  N  N23  1  0.14647818  0.80961463  0.50431057  1
  O  O24  1  0.96205953  0.95659796  0.23312093  1
  O  O25  1  0.44706812  0.46397894  0.73645417  1
  O  O26  1  0.58349925  0.76335898  0.73675984  1
  O  O27  1  0.58349925  0.73664102  0.23675984  1
  O  O28  1  0.94706812  0.96397894  0.76354583  1
  O  O29  1  0.44706812  0.03602106  0.23645417  1
  O  O30  1  0.65471038  0.60937202  0.48918178  1
  O  O31  1  0.15471038  0.39062798  0.51081822  1
  O  O32  1  0.65471038  0.89062798  0.98918178  1
  O  O33  1  0.15471038  0.10937202  0.01081822  1
  O  O34  1  0.08349925  0.26335898  0.76324016  1
  O  O35  1  0.94706812  0.53602106  0.26354583  1
  O  O36  1  0.96205953  0.54340204  0.73312093  1
  O  O37  1  0.46205953  0.04340204  0.76687907  1
  O  O38  1  0.46205953  0.45659796  0.26687907  1
  O  O39  1  0.08349925  0.23664102  0.26324016  1
  P  P40  1  0.66093105  0.58571477  0.31549921  1
  P  P41  1  0.16093105  0.41428523  0.68450079  1
  P  P42  1  0.66093105  0.91428523  0.81549921  1
  P  P43  1  0.16093105  0.08571477  0.18450079  1
