# generated using pymatgen
data_MgH2(SeO4)2
_symmetry_space_group_name_H-M   'P 1'
_cell_length_a   5.21220251
_cell_length_b   7.61958530
_cell_length_c   8.69061880
_cell_angle_alpha   90.00000000
_cell_angle_beta   90.00000000
_cell_angle_gamma   98.49464276
_symmetry_Int_Tables_number   1
_chemical_formula_structural   MgH2(SeO4)2
_chemical_formula_sum   'Mg2 H4 Se4 O16'
_cell_volume   341.36000916
_cell_formula_units_Z   2
loop_
 _symmetry_equiv_pos_site_id
 _symmetry_equiv_pos_as_xyz
  1  'x, y, z'
loop_
 _atom_site_type_symbol
 _atom_site_label
 _atom_site_symmetry_multiplicity
 _atom_site_fract_x
 _atom_site_fract_y
 _atom_site_fract_z
 _atom_site_occupancy
  H  H0  1  0.21083210  0.65260847  0.01318183  1
  H  H1  1  0.28916790  0.84739153  0.51318183  1
  H  H2  1  0.78916790  0.34739153  0.98681817  1
  H  H3  1  0.71083210  0.15260847  0.48681817  1
  O  O4  1  0.28897748  0.60190661  0.91859637  1
  O  O5  1  0.21102252  0.89809339  0.41859637  1
  O  O6  1  0.80006375  0.45814645  0.64889055  1
  O  O7  1  0.69993625  0.04185355  0.14889055  1
  O  O8  1  0.19993625  0.54185355  0.35110945  1
  O  O9  1  0.30006375  0.95814645  0.85110945  1
  O  O10  1  0.25683004  0.31510071  0.63176079  1
  O  O11  1  0.24316996  0.18489929  0.13176079  1
  O  O12  1  0.74316996  0.68489929  0.36823921  1
  O  O13  1  0.75683004  0.81510071  0.86823921  1
  O  O14  1  0.91507078  0.22029228  0.86480247  1
  O  O15  1  0.58492922  0.27970772  0.36480247  1
  O  O16  1  0.08492922  0.77970772  0.13519753  1
  O  O17  1  0.41507078  0.72029228  0.63519753  1
  O  O18  1  0.78897748  0.10190661  0.58140363  1
  O  O19  1  0.71102252  0.39809339  0.08140363  1
  Mg  Mg20  1  0.00000000  0.00000000  0.00000000  1
  Mg  Mg21  1  0.50000000  0.50000000  0.50000000  1
  Se  Se22  1  0.55063853  0.21502899  0.18175750  1
  Se  Se23  1  0.94936147  0.28497101  0.68175750  1
  Se  Se24  1  0.05063853  0.71502899  0.31824250  1
  Se  Se25  1  0.44936147  0.78497101  0.81824250  1
