# generated using pymatgen
data_ZnBP2H4NO8
_symmetry_space_group_name_H-M   'P 1'
_cell_length_a   7.52078206
_cell_length_b   7.87831779
_cell_length_c   7.83192033
_cell_angle_alpha   60.63999003
_cell_angle_beta   64.69769900
_cell_angle_gamma   76.66195681
_symmetry_Int_Tables_number   1
_chemical_formula_structural   ZnBP2H4NO8
_chemical_formula_sum   'Zn2 B2 P4 H8 N2 O16'
_cell_volume   365.51361361
_cell_formula_units_Z   2
loop_
 _symmetry_equiv_pos_site_id
 _symmetry_equiv_pos_as_xyz
  1  'x, y, z'
loop_
 _atom_site_type_symbol
 _atom_site_label
 _atom_site_symmetry_multiplicity
 _atom_site_fract_x
 _atom_site_fract_y
 _atom_site_fract_z
 _atom_site_occupancy
  H  H0  1  0.60966742  0.25157123  0.51816649  1
  H  H1  1  0.39033258  0.74842877  0.48183351  1
  H  H2  1  0.14341755  0.77331879  0.56383750  1
  H  H3  1  0.85658245  0.22668121  0.43616250  1
  H  H4  1  0.26830337  0.85902358  0.64230180  1
  H  H5  1  0.74664974  0.38198120  0.26028616  1
  H  H6  1  0.73169663  0.14097642  0.35769820  1
  H  H7  1  0.25335026  0.61801880  0.73971384  1
  B  B8  1  0.30347794  0.00333269  0.91586557  1
  B  B9  1  0.69652206  0.99666731  0.08413443  1
  N  N10  1  0.26439173  0.74969935  0.60683226  1
  N  N11  1  0.73560827  0.25030065  0.39316774  1
  O  O12  1  0.84244760  0.03350979  0.87211709  1
  O  O13  1  0.98969422  0.66215126  0.22840546  1
  O  O14  1  0.73034883  0.60589066  0.98588280  1
  O  O15  1  0.41546915  0.17939660  0.82448130  1
  O  O16  1  0.58453085  0.82060340  0.17551870  1
  O  O17  1  0.15755240  0.96649021  0.12788291  1
  O  O18  1  0.01030578  0.33784874  0.77159454  1
  O  O19  1  0.26965117  0.39410934  0.01411720  1
  O  O20  1  0.05797869  0.21630043  0.50113766  1
  O  O21  1  0.94202131  0.78369957  0.49886234  1
  O  O22  1  0.21278939  0.03192207  0.76814762  1
  O  O23  1  0.78721061  0.96807793  0.23185238  1
  O  O24  1  0.39395711  0.54795011  0.27936295  1
  O  O25  1  0.60604289  0.45204989  0.72063705  1
  O  O26  1  0.44783759  0.83848698  0.91559485  1
  O  O27  1  0.55216241  0.16151302  0.08440515  1
  P  P28  1  0.45941918  0.29921824  0.91314406  1
  P  P29  1  0.97216697  0.83393890  0.27242592  1
  P  P30  1  0.02783303  0.16606110  0.72757408  1
  P  P31  1  0.54058082  0.70078176  0.08685594  1
  Zn  Zn32  1  0.19402755  0.45205515  0.25226243  1
  Zn  Zn33  1  0.80597245  0.54794485  0.74773757  1
