# generated using pymatgen
data_YH3(SO4)3
_symmetry_space_group_name_H-M   'P 1'
_cell_length_a   9.62295890
_cell_length_b   12.17667163
_cell_length_c   17.01644492
_cell_angle_alpha   90.00000000
_cell_angle_beta   90.00000000
_cell_angle_gamma   90.00000000
_symmetry_Int_Tables_number   1
_chemical_formula_structural   YH3(SO4)3
_chemical_formula_sum   'Y8 H24 S24 O96'
_cell_volume   1993.91232433
_cell_formula_units_Z   8
loop_
 _symmetry_equiv_pos_site_id
 _symmetry_equiv_pos_as_xyz
  1  'x, y, z'
loop_
 _atom_site_type_symbol
 _atom_site_label
 _atom_site_symmetry_multiplicity
 _atom_site_fract_x
 _atom_site_fract_y
 _atom_site_fract_z
 _atom_site_occupancy
  H  H0  1  0.10081867  0.75998724  0.92950515  1
  H  H1  1  0.60081867  0.24001276  0.57049485  1
  H  H2  1  0.39918133  0.25998724  0.07049485  1
  H  H3  1  0.89918133  0.74001276  0.42950515  1
  H  H4  1  0.89918133  0.24001276  0.07049485  1
  H  H5  1  0.39918133  0.75998724  0.42950515  1
  H  H6  1  0.60081867  0.74001276  0.92950515  1
  H  H7  1  0.10081867  0.25998724  0.57049485  1
  H  H8  1  0.61804140  0.42028279  0.00270691  1
  H  H9  1  0.11804140  0.57971721  0.49729309  1
  H  H10  1  0.88195860  0.92028279  0.99729309  1
  H  H11  1  0.38195860  0.07971721  0.50270691  1
  H  H12  1  0.38195860  0.57971721  0.99729309  1
  H  H13  1  0.88195860  0.42028279  0.50270691  1
  H  H14  1  0.11804140  0.07971721  0.00270691  1
  H  H15  1  0.61804140  0.92028279  0.49729309  1
  H  H16  1  0.87847847  0.42159640  0.94420149  1
  H  H17  1  0.37847847  0.57840360  0.55579851  1
  H  H18  1  0.62152153  0.92159640  0.05579851  1
  H  H19  1  0.12152153  0.07840360  0.44420149  1
  H  H20  1  0.12152153  0.57840360  0.05579851  1
  H  H21  1  0.62152153  0.42159640  0.44420149  1
  H  H22  1  0.37847847  0.07840360  0.94420149  1
  H  H23  1  0.87847847  0.92159640  0.55579851  1
  O  O24  1  0.03566112  0.66632341  0.79326878  1
  O  O25  1  0.53566112  0.33367659  0.70673122  1
  O  O26  1  0.46433888  0.16632341  0.20673122  1
  O  O27  1  0.96433888  0.83367659  0.29326878  1
  O  O28  1  0.96433888  0.33367659  0.20673122  1
  O  O29  1  0.46433888  0.66632341  0.29326878  1
  O  O30  1  0.53566112  0.83367659  0.79326878  1
  O  O31  1  0.03566112  0.16632341  0.70673122  1
  O  O32  1  0.76873914  0.75966833  0.80617545  1
  O  O33  1  0.26873914  0.24033167  0.69382455  1
  O  O34  1  0.73126086  0.25966833  0.19382455  1
  O  O35  1  0.23126086  0.74033167  0.30617545  1
  O  O36  1  0.23126086  0.24033167  0.19382455  1
  O  O37  1  0.73126086  0.75966833  0.30617545  1
  O  O38  1  0.26873914  0.74033167  0.80617545  1
  O  O39  1  0.76873914  0.25966833  0.69382455  1
  O  O40  1  0.14154286  0.68417364  0.92366715  1
  O  O41  1  0.64154286  0.31582636  0.57633285  1
  O  O42  1  0.35845714  0.18417364  0.07633285  1
  O  O43  1  0.85845714  0.81582636  0.42366715  1
  O  O44  1  0.85845714  0.31582636  0.07633285  1
  O  O45  1  0.35845714  0.68417364  0.42366715  1
  O  O46  1  0.64154286  0.81582636  0.92366715  1
  O  O47  1  0.14154286  0.18417364  0.57633285  1
  O  O48  1  0.22687157  0.54769743  0.83592274  1
  O  O49  1  0.72687157  0.45230257  0.66407726  1
  O  O50  1  0.27312843  0.04769743  0.16407726  1
  O  O51  1  0.77312843  0.95230257  0.33592274  1
  O  O52  1  0.77312843  0.45230257  0.16407726  1
  O  O53  1  0.27312843  0.54769743  0.33592274  1
  O  O54  1  0.72687157  0.95230257  0.83592274  1
  O  O55  1  0.22687157  0.04769743  0.66407726  1
  O  O56  1  0.69651968  0.54595332  0.83946610  1
  O  O57  1  0.19651968  0.45404668  0.66053390  1
  O  O58  1  0.80348032  0.04595332  0.16053390  1
  O  O59  1  0.30348032  0.95404668  0.33946610  1
  O  O60  1  0.30348032  0.45404668  0.16053390  1
  O  O61  1  0.80348032  0.54595332  0.33946610  1
  O  O62  1  0.19651968  0.95404668  0.83946610  1
  O  O63  1  0.69651968  0.04595332  0.66053390  1
  O  O64  1  0.98698762  0.55999423  0.63060509  1
  O  O65  1  0.48698762  0.44000577  0.86939491  1
  O  O66  1  0.51301238  0.05999423  0.36939491  1
  O  O67  1  0.01301238  0.94000577  0.13060509  1
  O  O68  1  0.01301238  0.44000577  0.36939491  1
  O  O69  1  0.51301238  0.55999423  0.13060509  1
  O  O70  1  0.48698762  0.94000577  0.63060509  1
  O  O71  1  0.98698762  0.05999423  0.86939491  1
  O  O72  1  0.03016988  0.38860408  0.56196750  1
  O  O73  1  0.53016988  0.61139592  0.93803250  1
  O  O74  1  0.46983012  0.88860408  0.43803250  1
  O  O75  1  0.96983012  0.11139592  0.06196750  1
  O  O76  1  0.96983012  0.61139592  0.43803250  1
  O  O77  1  0.46983012  0.38860408  0.06196750  1
  O  O78  1  0.53016988  0.11139592  0.56196750  1
  O  O79  1  0.03016988  0.88860408  0.93803250  1
  O  O80  1  0.68161341  0.45041051  0.96104868  1
  O  O81  1  0.18161341  0.54958949  0.53895132  1
  O  O82  1  0.81838659  0.95041051  0.03895132  1
  O  O83  1  0.31838659  0.04958949  0.46104868  1
  O  O84  1  0.31838659  0.54958949  0.03895132  1
  O  O85  1  0.81838659  0.45041051  0.46104868  1
  O  O86  1  0.18161341  0.04958949  0.96104868  1
  O  O87  1  0.68161341  0.95041051  0.53895132  1
  O  O88  1  0.13009885  0.33531915  0.83245760  1
  O  O89  1  0.63009885  0.66468085  0.66754240  1
  O  O90  1  0.36990115  0.83531915  0.16754240  1
  O  O91  1  0.86990115  0.16468085  0.33245760  1
  O  O92  1  0.86990115  0.66468085  0.16754240  1
  O  O93  1  0.36990115  0.33531915  0.33245760  1
  O  O94  1  0.63009885  0.16468085  0.83245760  1
  O  O95  1  0.13009885  0.83531915  0.66754240  1
  O  O96  1  0.93910882  0.44534194  0.78262086  1
  O  O97  1  0.43910882  0.55465806  0.71737914  1
  O  O98  1  0.56089118  0.94534194  0.21737914  1
  O  O99  1  0.06089118  0.05465806  0.28262086  1
  O  O100  1  0.06089118  0.55465806  0.21737914  1
  O  O101  1  0.56089118  0.44534194  0.28262086  1
  O  O102  1  0.43910882  0.05465806  0.78262086  1
  O  O103  1  0.93910882  0.94534194  0.71737914  1
  O  O104  1  0.97575130  0.41770261  0.92516074  1
  O  O105  1  0.47575130  0.58229739  0.57483926  1
  O  O106  1  0.52424870  0.91770261  0.07483926  1
  O  O107  1  0.02424870  0.08229739  0.42516074  1
  O  O108  1  0.02424870  0.58229739  0.07483926  1
  O  O109  1  0.52424870  0.41770261  0.42516074  1
  O  O110  1  0.47575130  0.08229739  0.92516074  1
  O  O111  1  0.97575130  0.91770261  0.57483926  1
  O  O112  1  0.89178713  0.26762037  0.84322164  1
  O  O113  1  0.39178713  0.73237963  0.65677836  1
  O  O114  1  0.60821287  0.76762037  0.15677836  1
  O  O115  1  0.10821287  0.23237963  0.34322164  1
  O  O116  1  0.10821287  0.73237963  0.15677836  1
  O  O117  1  0.60821287  0.26762037  0.34322164  1
  O  O118  1  0.39178713  0.23237963  0.84322164  1
  O  O119  1  0.89178713  0.76762037  0.65677836  1
  S  S120  1  0.16955965  0.65838657  0.83414196  1
  S  S121  1  0.66955965  0.34161343  0.66585804  1
  S  S122  1  0.33044035  0.15838657  0.16585804  1
  S  S123  1  0.83044035  0.84161343  0.33414196  1
  S  S124  1  0.83044035  0.34161343  0.16585804  1
  S  S125  1  0.33044035  0.65838657  0.33414196  1
  S  S126  1  0.66955965  0.84161343  0.83414196  1
  S  S127  1  0.16955965  0.15838657  0.66585804  1
  S  S128  1  0.09277486  0.48378803  0.60236433  1
  S  S129  1  0.59277486  0.51621197  0.89763567  1
  S  S130  1  0.40722514  0.98378803  0.39763567  1
  S  S131  1  0.90722514  0.01621197  0.10236433  1
  S  S132  1  0.90722514  0.51621197  0.39763567  1
  S  S133  1  0.40722514  0.48378803  0.10236433  1
  S  S134  1  0.59277486  0.01621197  0.60236433  1
  S  S135  1  0.09277486  0.98378803  0.89763567  1
  S  S136  1  0.98294831  0.36361477  0.84073381  1
  S  S137  1  0.48294831  0.63638523  0.65926619  1
  S  S138  1  0.51705169  0.86361477  0.15926619  1
  S  S139  1  0.01705169  0.13638523  0.34073381  1
  S  S140  1  0.01705169  0.63638523  0.15926619  1
  S  S141  1  0.51705169  0.36361477  0.34073381  1
  S  S142  1  0.48294831  0.13638523  0.84073381  1
  S  S143  1  0.98294831  0.86361477  0.65926619  1
  Y  Y144  1  0.83287696  0.60648930  0.73096963  1
  Y  Y145  1  0.33287696  0.39351070  0.76903037  1
  Y  Y146  1  0.66712304  0.10648930  0.26903037  1
  Y  Y147  1  0.16712304  0.89351070  0.23096963  1
  Y  Y148  1  0.16712304  0.39351070  0.26903037  1
  Y  Y149  1  0.66712304  0.60648930  0.23096963  1
  Y  Y150  1  0.33287696  0.89351070  0.73096963  1
  Y  Y151  1  0.83287696  0.10648930  0.76903037  1
