# generated using pymatgen
data_BaHClO
_symmetry_space_group_name_H-M   'P 1'
_cell_length_a   4.46309179
_cell_length_b   7.48101401
_cell_length_c   9.38150349
_cell_angle_alpha   90.00000000
_cell_angle_beta   90.00000000
_cell_angle_gamma   90.00000000
_symmetry_Int_Tables_number   1
_chemical_formula_structural   BaHClO
_chemical_formula_sum   'Ba4 H4 Cl4 O4'
_cell_volume   313.23388092
_cell_formula_units_Z   4
loop_
 _symmetry_equiv_pos_site_id
 _symmetry_equiv_pos_as_xyz
  1  'x, y, z'
loop_
 _atom_site_type_symbol
 _atom_site_label
 _atom_site_symmetry_multiplicity
 _atom_site_fract_x
 _atom_site_fract_y
 _atom_site_fract_z
 _atom_site_occupancy
  H  H0  1  0.75000000  0.78096143  0.56868108  1
  H  H1  1  0.25000000  0.21903857  0.43131892  1
  H  H2  1  0.25000000  0.71903857  0.06868108  1
  H  H3  1  0.75000000  0.28096143  0.93131892  1
  O  O4  1  0.75000000  0.65216802  0.55242733  1
  O  O5  1  0.25000000  0.84783198  0.05242733  1
  O  O6  1  0.75000000  0.15216802  0.94757267  1
  O  O7  1  0.25000000  0.34783198  0.44757267  1
  Cl  Cl8  1  0.75000000  0.52000751  0.16420313  1
  Cl  Cl9  1  0.25000000  0.47999249  0.83579687  1
  Cl  Cl10  1  0.25000000  0.97999249  0.66420313  1
  Cl  Cl11  1  0.75000000  0.02000751  0.33579687  1
  Ba  Ba12  1  0.25000000  0.69094385  0.38778649  1
  Ba  Ba13  1  0.75000000  0.30905615  0.61221351  1
  Ba  Ba14  1  0.25000000  0.19094385  0.11221351  1
  Ba  Ba15  1  0.75000000  0.80905615  0.88778649  1
