# generated using pymatgen
data_LiP(HO2)2
_symmetry_space_group_name_H-M   'P 1'
_cell_length_a   6.39377347
_cell_length_b   6.92610838
_cell_length_c   7.70195157
_cell_angle_alpha   90.00000000
_cell_angle_beta   90.00000000
_cell_angle_gamma   90.00000000
_symmetry_Int_Tables_number   1
_chemical_formula_structural   LiP(HO2)2
_chemical_formula_sum   'Li4 P4 H8 O16'
_cell_volume   341.07297694
_cell_formula_units_Z   4
loop_
 _symmetry_equiv_pos_site_id
 _symmetry_equiv_pos_as_xyz
  1  'x, y, z'
loop_
 _atom_site_type_symbol
 _atom_site_label
 _atom_site_symmetry_multiplicity
 _atom_site_fract_x
 _atom_site_fract_y
 _atom_site_fract_z
 _atom_site_occupancy
  H  H0  1  0.03767114  0.39102082  0.85997512  1
  H  H1  1  0.96232886  0.89102082  0.14002488  1
  H  H2  1  0.46232886  0.89102082  0.35997512  1
  H  H3  1  0.53767114  0.39102082  0.64002488  1
  H  H4  1  0.98841635  0.06458619  0.38767299  1
  H  H5  1  0.01158365  0.56458619  0.61232701  1
  H  H6  1  0.48841635  0.06458619  0.11232701  1
  H  H7  1  0.51158365  0.56458619  0.88767299  1
  Li  Li8  1  0.01308147  0.50454546  0.27280501  1
  Li  Li9  1  0.51308147  0.50454546  0.22719499  1
  Li  Li10  1  0.48691853  0.00454546  0.77280501  1
  Li  Li11  1  0.98691853  0.00454546  0.72719499  1
  O  O12  1  0.72727192  0.85438589  0.68438513  1
  O  O13  1  0.07685630  0.09905928  0.49176693  1
  O  O14  1  0.93126729  0.20092856  0.90740299  1
  O  O15  1  0.06873271  0.70092856  0.09259701  1
  O  O16  1  0.92314370  0.59905928  0.50823307  1
  O  O17  1  0.56873271  0.70092856  0.40740299  1
  O  O18  1  0.57685630  0.09905928  0.00823307  1
  O  O19  1  0.42314370  0.59905928  0.99176693  1
  O  O20  1  0.60588620  0.51290601  0.69380739  1
  O  O21  1  0.39411380  0.01290601  0.30619261  1
  O  O22  1  0.89411380  0.01290601  0.19380739  1
  O  O23  1  0.10588620  0.51290601  0.80619261  1
  O  O24  1  0.77272808  0.35438589  0.18438513  1
  O  O25  1  0.27272808  0.35438589  0.31561487  1
  O  O26  1  0.43126729  0.20092856  0.59259701  1
  O  O27  1  0.22727192  0.85438589  0.81561487  1
  P  P28  1  0.19867048  0.67813777  0.92893483  1
  P  P29  1  0.80132952  0.17813777  0.07106517  1
  P  P30  1  0.30132952  0.17813777  0.42893483  1
  P  P31  1  0.69867048  0.67813777  0.57106517  1
