# generated using pymatgen
data_NdH5(SeO4)2
_symmetry_space_group_name_H-M   'P 1'
_cell_length_a   6.85870471
_cell_length_b   7.18769104
_cell_length_c   16.43042636
_cell_angle_alpha   90.00000000
_cell_angle_beta   90.00000000
_cell_angle_gamma   90.00000000
_symmetry_Int_Tables_number   1
_chemical_formula_structural   NdH5(SeO4)2
_chemical_formula_sum   'Nd4 H20 Se8 O32'
_cell_volume   809.99127271
_cell_formula_units_Z   4
loop_
 _symmetry_equiv_pos_site_id
 _symmetry_equiv_pos_as_xyz
  1  'x, y, z'
loop_
 _atom_site_type_symbol
 _atom_site_label
 _atom_site_symmetry_multiplicity
 _atom_site_fract_x
 _atom_site_fract_y
 _atom_site_fract_z
 _atom_site_occupancy
  H  H0  1  0.05846328  0.24345698  0.60461865  1
  H  H1  1  0.55846328  0.25654302  0.39538135  1
  H  H2  1  0.94153672  0.74345698  0.89538135  1
  H  H3  1  0.44153672  0.75654302  0.10461865  1
  H  H4  1  0.17686603  0.41669349  0.57509767  1
  H  H5  1  0.67686603  0.08330651  0.42490233  1
  H  H6  1  0.82313397  0.91669349  0.92490233  1
  H  H7  1  0.32313397  0.58330651  0.07509767  1
  H  H8  1  0.40096597  0.77119549  0.96305980  1
  H  H9  1  0.90096597  0.72880451  0.03694020  1
  H  H10  1  0.59903403  0.27119549  0.53694020  1
  H  H11  1  0.09903403  0.22880451  0.46305980  1
  H  H12  1  0.48202446  0.92968364  0.90095831  1
  H  H13  1  0.98202446  0.57031636  0.09904169  1
  H  H14  1  0.51797554  0.42968364  0.59904169  1
  H  H15  1  0.01797554  0.07031636  0.40095831  1
  H  H16  1  0.70248247  0.17591229  0.04718924  1
  H  H17  1  0.20248247  0.32408771  0.95281076  1
  H  H18  1  0.29751753  0.67591229  0.45281076  1
  H  H19  1  0.79751753  0.82408771  0.54718924  1
  O  O20  1  0.09163629  0.31672412  0.55583447  1
  O  O21  1  0.59163629  0.18327588  0.44416553  1
  O  O22  1  0.90836371  0.81672412  0.94416553  1
  O  O23  1  0.40836371  0.68327588  0.05583447  1
  O  O24  1  0.39904057  0.81724453  0.90521506  1
  O  O25  1  0.89904057  0.68275547  0.09478494  1
  O  O26  1  0.60095943  0.31724453  0.59478494  1
  O  O27  1  0.10095943  0.18275547  0.40521506  1
  O  O28  1  0.57506531  0.21567236  0.02136230  1
  O  O29  1  0.07506531  0.28432764  0.97863770  1
  O  O30  1  0.42493469  0.71567236  0.47863770  1
  O  O31  1  0.92493469  0.78432764  0.52136230  1
  O  O32  1  0.63987988  0.11782229  0.86649469  1
  O  O33  1  0.13987988  0.38217771  0.13350531  1
  O  O34  1  0.36012012  0.61782229  0.63350531  1
  O  O35  1  0.86012012  0.88217771  0.36649469  1
  O  O36  1  0.40451597  0.40634700  0.90534924  1
  O  O37  1  0.90451597  0.09365300  0.09465076  1
  O  O38  1  0.59548403  0.90634700  0.59465076  1
  O  O39  1  0.09548403  0.59365300  0.40534924  1
  O  O40  1  0.68758778  0.44330661  0.76280843  1
  O  O41  1  0.18758778  0.05669339  0.23719157  1
  O  O42  1  0.31241222  0.94330661  0.73719157  1
  O  O43  1  0.81241222  0.55669339  0.26280843  1
  O  O44  1  0.02370071  0.62297873  0.80020173  1
  O  O45  1  0.52370071  0.87702127  0.19979827  1
  O  O46  1  0.97629929  0.12297873  0.69979827  1
  O  O47  1  0.47629929  0.37702127  0.30020173  1
  O  O48  1  0.68970483  0.79746988  0.76275772  1
  O  O49  1  0.18970483  0.70253012  0.23724228  1
  O  O50  1  0.31029517  0.29746988  0.73724228  1
  O  O51  1  0.81029517  0.20253012  0.26275772  1
  Se  Se52  1  0.63195491  0.31864109  0.92429574  1
  Se  Se53  1  0.13195491  0.18135891  0.07570426  1
  Se  Se54  1  0.36804509  0.81864109  0.57570426  1
  Se  Se55  1  0.86804509  0.68135891  0.42429574  1
  Se  Se56  1  0.84124031  0.62100960  0.72870000  1
  Se  Se57  1  0.34124031  0.87899040  0.27130000  1
  Se  Se58  1  0.15875969  0.12100960  0.77130000  1
  Se  Se59  1  0.65875969  0.37899040  0.22870000  1
  Nd  Nd60  1  0.37238742  0.61910510  0.78533175  1
  Nd  Nd61  1  0.87238742  0.88089490  0.21466825  1
  Nd  Nd62  1  0.62761258  0.11910510  0.71466825  1
  Nd  Nd63  1  0.12761258  0.38089490  0.28533175  1
