# generated using pymatgen
data_Cd2GaAg(SeS)2
_symmetry_space_group_name_H-M   'P 1'
_cell_length_a   4.16796585
_cell_length_b   6.90370641
_cell_length_c   7.34356407
_cell_angle_alpha   89.36511967
_cell_angle_beta   90.00000000
_cell_angle_gamma   90.00000000
_symmetry_Int_Tables_number   1
_chemical_formula_structural   Cd2GaAg(SeS)2
_chemical_formula_sum   'Cd2 Ga1 Ag1 Se2 S2'
_cell_volume   211.29377002
_cell_formula_units_Z   1
loop_
 _symmetry_equiv_pos_site_id
 _symmetry_equiv_pos_as_xyz
  1  'x, y, z'
loop_
 _atom_site_type_symbol
 _atom_site_label
 _atom_site_symmetry_multiplicity
 _atom_site_fract_x
 _atom_site_fract_y
 _atom_site_fract_z
 _atom_site_occupancy
  Cd  Cd0  1  0.50000000  0.04452266  0.17268706  1
  Cd  Cd1  1  0.50000000  0.51390480  0.84209580  1
  Ga  Ga2  1  0.00000000  0.02191585  0.66640527  1
  Ag  Ag3  1  0.00000000  0.50489029  0.31765151  1
  Se  Se4  1  0.00000000  0.37236865  0.65917948  1
  Se  Se5  1  0.00000000  0.88863237  0.35961779  1
  S  S6  1  0.50000000  0.40430978  0.16272262  1
  S  S7  1  0.50000000  0.90445559  0.81964048  1
