# generated using pymatgen
data_ZnH8C2N4(ClO)2
_symmetry_space_group_name_H-M   'P 1'
_cell_length_a   6.39496728
_cell_length_b   6.96046856
_cell_length_c   11.97671850
_cell_angle_alpha   88.61416652
_cell_angle_beta   76.08268408
_cell_angle_gamma   66.49748918
_symmetry_Int_Tables_number   1
_chemical_formula_structural   ZnH8C2N4(ClO)2
_chemical_formula_sum   'Zn2 H16 C4 N8 Cl4 O4'
_cell_volume   472.98703971
_cell_formula_units_Z   2
loop_
 _symmetry_equiv_pos_site_id
 _symmetry_equiv_pos_as_xyz
  1  'x, y, z'
loop_
 _atom_site_type_symbol
 _atom_site_label
 _atom_site_symmetry_multiplicity
 _atom_site_fract_x
 _atom_site_fract_y
 _atom_site_fract_z
 _atom_site_occupancy
  H  H0  1  0.76496798  0.98355869  0.40726159  1
  H  H1  1  0.23503202  0.01644131  0.59273841  1
  H  H2  1  0.73183112  0.24558550  0.42281020  1
  H  H3  1  0.26816888  0.75441450  0.57718980  1
  H  H4  1  0.06761098  0.31934965  0.35668702  1
  H  H5  1  0.93238902  0.68065035  0.64331298  1
  H  H6  1  0.33303335  0.12264841  0.28112876  1
  H  H7  1  0.66696665  0.87735159  0.71887124  1
  H  H8  1  0.16658519  0.65271495  0.04784384  1
  H  H9  1  0.01052558  0.33033239  0.81397261  1
  H  H10  1  0.68934434  0.94713336  0.92821569  1
  H  H11  1  0.31065566  0.05286664  0.07178431  1
  H  H12  1  0.99907016  0.82655536  0.90479762  1
  H  H13  1  0.98947442  0.66966761  0.18602739  1
  H  H14  1  0.00092984  0.17344464  0.09520238  1
  H  H15  1  0.83341481  0.34728505  0.95215616  1
  C  C16  1  0.06603230  0.02530489  0.34338161  1
  C  C17  1  0.19096337  0.19559033  0.93478807  1
  C  C18  1  0.80903663  0.80440967  0.06521193  1
  C  C19  1  0.93396770  0.97469511  0.65661839  1
  N  N20  1  0.83581927  0.09222052  0.39613297  1
  N  N21  1  0.16418073  0.90777948  0.60386703  1
  N  N22  1  0.16521708  0.13020374  0.04142974  1
  N  N23  1  0.83478292  0.86979626  0.95857026  1
  N  N24  1  0.83215688  0.83631668  0.66744045  1
  N  N25  1  0.16784312  0.16368332  0.33255955  1
  N  N26  1  0.99678013  0.31319458  0.89959572  1
  N  N27  1  0.00321987  0.68680542  0.10040428  1
  O  O28  1  0.18037301  0.83170187  0.30570887  1
  O  O29  1  0.39914214  0.14639914  0.86853926  1
  O  O30  1  0.60085786  0.85360086  0.13146074  1
  O  O31  1  0.81962699  0.16829813  0.69429113  1
  Cl  Cl32  1  0.57617851  0.36466307  0.15865851  1
  Cl  Cl33  1  0.29289191  0.35994052  0.60663246  1
  Cl  Cl34  1  0.70710809  0.64005948  0.39336754  1
  Cl  Cl35  1  0.42382149  0.63533693  0.84134149  1
  Zn  Zn36  1  0.52305913  0.66338045  0.25094872  1
  Zn  Zn37  1  0.47694087  0.33661955  0.74905128  1
