# generated using pymatgen
data_Rb4Mg3H10
_symmetry_space_group_name_H-M   'P 1'
_cell_length_a   6.04650670
_cell_length_b   7.69862587
_cell_length_c   13.56827317
_cell_angle_alpha   90.00000000
_cell_angle_beta   90.00000000
_cell_angle_gamma   113.12262999
_symmetry_Int_Tables_number   1
_chemical_formula_structural   Rb4Mg3H10
_chemical_formula_sum   'Rb8 Mg6 H20'
_cell_volume   580.86162089
_cell_formula_units_Z   2
loop_
 _symmetry_equiv_pos_site_id
 _symmetry_equiv_pos_as_xyz
  1  'x, y, z'
loop_
 _atom_site_type_symbol
 _atom_site_label
 _atom_site_symmetry_multiplicity
 _atom_site_fract_x
 _atom_site_fract_y
 _atom_site_fract_z
 _atom_site_occupancy
  H  H0  1  0.75610256  0.51220513  0.64808383  1
  H  H1  1  0.24389744  0.48779487  0.35191617  1
  H  H2  1  0.74389744  0.48779487  0.14808383  1
  H  H3  1  0.25610256  0.51220513  0.85191617  1
  H  H4  1  0.97262898  0.94525795  0.85625602  1
  H  H5  1  0.02737102  0.05474205  0.14374398  1
  H  H6  1  0.52737102  0.05474205  0.35625602  1
  H  H7  1  0.47262898  0.94525795  0.64374398  1
  H  H8  1  0.36078671  0.22157341  0.75000000  1
  H  H9  1  0.13921329  0.77842659  0.25000000  1
  H  H10  1  0.63921329  0.77842659  0.25000000  1
  H  H11  1  0.86078671  0.22157341  0.75000000  1
  H  H12  1  0.18750194  0.80271077  0.46045169  1
  H  H13  1  0.38479117  0.19728923  0.53954831  1
  H  H14  1  0.88479117  0.19728923  0.96045169  1
  H  H15  1  0.68750194  0.80271077  0.03954831  1
  H  H16  1  0.61520883  0.80271077  0.46045169  1
  H  H17  1  0.81249806  0.19728923  0.53954831  1
  H  H18  1  0.11520883  0.80271077  0.03954831  1
  H  H19  1  0.31249806  0.19728923  0.96045169  1
  Mg  Mg20  1  0.50000000  0.00000000  0.50000000  1
  Mg  Mg21  1  0.00000000  0.00000000  0.00000000  1
  Mg  Mg22  1  0.62226760  0.24453521  0.65663731  1
  Mg  Mg23  1  0.37773240  0.75546479  0.34336269  1
  Mg  Mg24  1  0.87773240  0.75546479  0.15663731  1
  Mg  Mg25  1  0.12226760  0.24453521  0.84336269  1
  Rb  Rb26  1  0.95907339  0.91814678  0.63940782  1
  Rb  Rb27  1  0.04092661  0.08185322  0.36059218  1
  Rb  Rb28  1  0.54092661  0.08185322  0.13940782  1
  Rb  Rb29  1  0.45907339  0.91814678  0.86059218  1
  Rb  Rb30  1  0.75715078  0.51430157  0.89474546  1
  Rb  Rb31  1  0.24284922  0.48569843  0.10525454  1
  Rb  Rb32  1  0.74284922  0.48569843  0.39474546  1
  Rb  Rb33  1  0.25715078  0.51430157  0.60525454  1
