# generated using pymatgen
data_BeH8(NF2)2
_symmetry_space_group_name_H-M   'P 1'
_cell_length_a   5.98728686
_cell_length_b   10.77168571
_cell_length_c   15.29826697
_cell_angle_alpha   90.00000000
_cell_angle_beta   90.00000000
_cell_angle_gamma   90.00000000
_symmetry_Int_Tables_number   1
_chemical_formula_structural   BeH8(NF2)2
_chemical_formula_sum   'Be8 H64 N16 F32'
_cell_volume   986.63376776
_cell_formula_units_Z   8
loop_
 _symmetry_equiv_pos_site_id
 _symmetry_equiv_pos_as_xyz
  1  'x, y, z'
loop_
 _atom_site_type_symbol
 _atom_site_label
 _atom_site_symmetry_multiplicity
 _atom_site_fract_x
 _atom_site_fract_y
 _atom_site_fract_z
 _atom_site_occupancy
  H  H0  1  0.85194219  0.18115717  0.69998410  1
  H  H1  1  0.14805781  0.68115717  0.30001590  1
  H  H2  1  0.64805781  0.18115717  0.19998410  1
  H  H3  1  0.35194219  0.68115717  0.80001590  1
  H  H4  1  0.57916856  0.17289951  0.66576331  1
  H  H5  1  0.42083144  0.67289951  0.33423669  1
  H  H6  1  0.92083144  0.17289951  0.16576331  1
  H  H7  1  0.07916856  0.67289951  0.83423669  1
  H  H8  1  0.78361576  0.14710236  0.59308325  1
  H  H9  1  0.21638424  0.64710236  0.40691675  1
  H  H10  1  0.71638424  0.14710236  0.09308325  1
  H  H11  1  0.28361576  0.64710236  0.90691675  1
  H  H12  1  0.74050764  0.29108458  0.63325876  1
  H  H13  1  0.25949236  0.79108458  0.36674124  1
  H  H14  1  0.75949236  0.29108458  0.13325876  1
  H  H15  1  0.24050764  0.79108458  0.86674124  1
  H  H16  1  0.90176715  0.92548351  0.78133897  1
  H  H17  1  0.09823285  0.42548351  0.21866103  1
  H  H18  1  0.59823285  0.92548351  0.28133897  1
  H  H19  1  0.40176715  0.42548351  0.71866103  1
  H  H20  1  0.63200569  0.97581928  0.79338713  1
  H  H21  1  0.36799431  0.47581928  0.20661287  1
  H  H22  1  0.86799431  0.97581928  0.29338713  1
  H  H23  1  0.13200569  0.47581928  0.70661287  1
  H  H24  1  0.70686522  0.82899725  0.82111583  1
  H  H25  1  0.29313478  0.32899725  0.17888417  1
  H  H26  1  0.79313478  0.82899725  0.32111583  1
  H  H27  1  0.20686522  0.32899725  0.67888417  1
  H  H28  1  0.70187693  0.87150954  0.71413780  1
  H  H29  1  0.78135241  0.67777538  0.06487217  1
  H  H30  1  0.29812307  0.37150954  0.28586220  1
  H  H31  1  0.20187693  0.37150954  0.78586220  1
  H  H32  1  0.90199444  0.31976176  0.91334289  1
  H  H33  1  0.09800556  0.81976176  0.08665711  1
  H  H34  1  0.59800556  0.31976176  0.41334289  1
  H  H35  1  0.40199444  0.81976176  0.58665711  1
  H  H36  1  0.63126534  0.32195706  0.95084629  1
  H  H37  1  0.36873466  0.82195706  0.04915371  1
  H  H38  1  0.86873466  0.32195706  0.45084629  1
  H  H39  1  0.13126534  0.82195706  0.54915371  1
  H  H40  1  0.69745124  0.35526356  0.84326430  1
  H  H41  1  0.30254876  0.85526356  0.15673570  1
  H  H42  1  0.80254876  0.35526356  0.34326430  1
  H  H43  1  0.19745124  0.85526356  0.65673570  1
  H  H44  1  0.71850896  0.20944073  0.88193114  1
  H  H45  1  0.28149104  0.70944073  0.11806886  1
  H  H46  1  0.78149104  0.20944073  0.38193114  1
  H  H47  1  0.21850896  0.70944073  0.61806886  1
  H  H48  1  0.85785529  0.52756950  0.04480985  1
  H  H49  1  0.14214471  0.02756950  0.95519015  1
  H  H50  1  0.64214471  0.52756950  0.54480985  1
  H  H51  1  0.35785529  0.02756950  0.45519015  1
  H  H52  1  0.58725029  0.57502091  0.03286037  1
  H  H53  1  0.41274971  0.07502091  0.96713963  1
  H  H54  1  0.91274971  0.57502091  0.53286037  1
  H  H55  1  0.08725029  0.07502091  0.46713963  1
  H  H56  1  0.27876443  0.12205576  0.53930879  1
  H  H57  1  0.72123557  0.62205576  0.46069121  1
  H  H58  1  0.22123557  0.12205576  0.03930879  1
  H  H59  1  0.77876443  0.62205576  0.96069121  1
  H  H60  1  0.28135241  0.17777538  0.43512783  1
  H  H61  1  0.71864759  0.67777538  0.56487217  1
  H  H62  1  0.21864759  0.17777538  0.93512783  1
  H  H63  1  0.79812307  0.87150954  0.21413780  1
  Be  Be64  1  0.25935755  0.41818490  0.50056616  1
  Be  Be65  1  0.25630849  0.08016775  0.24970503  1
  Be  Be66  1  0.75630849  0.58016775  0.25029497  1
  Be  Be67  1  0.24369151  0.08016775  0.74970503  1
  Be  Be68  1  0.75935755  0.91818490  0.99943384  1
  Be  Be69  1  0.24064245  0.41818490  0.00056616  1
  Be  Be70  1  0.74064245  0.91818490  0.49943384  1
  Be  Be71  1  0.74369151  0.58016775  0.75029497  1
  N  N72  1  0.75332930  0.60088061  0.02630420  1
  N  N73  1  0.26394195  0.80141734  0.10184688  1
  N  N74  1  0.76394195  0.30141734  0.39815312  1
  N  N75  1  0.23439705  0.40018045  0.72235643  1
  N  N76  1  0.73605805  0.30141734  0.89815312  1
  N  N77  1  0.24667070  0.10088061  0.97369580  1
  N  N78  1  0.74667070  0.60088061  0.52630420  1
  N  N79  1  0.25332930  0.10088061  0.47369580  1
  N  N80  1  0.76560295  0.90018045  0.27764357  1
  N  N81  1  0.26560295  0.40018045  0.22235643  1
  N  N82  1  0.73439705  0.90018045  0.77764357  1
  N  N83  1  0.24079364  0.69835613  0.85132101  1
  N  N84  1  0.75920636  0.19835613  0.14867899  1
  N  N85  1  0.25920636  0.69835613  0.35132101  1
  N  N86  1  0.23605805  0.80141734  0.60184688  1
  N  N87  1  0.74079364  0.19835613  0.64867899  1
  F  F88  1  0.46128924  0.10222497  0.80448381  1
  F  F89  1  0.31194596  0.93687274  0.24973092  1
  F  F90  1  0.81194596  0.43687274  0.25026908  1
  F  F91  1  0.18805404  0.93687274  0.74973092  1
  F  F92  1  0.68805404  0.43687274  0.75026908  1
  F  F93  1  0.20576914  0.12772772  0.15390766  1
  F  F94  1  0.70576914  0.62772772  0.34609234  1
  F  F95  1  0.29423086  0.12772772  0.65390766  1
  F  F96  1  0.97582191  0.89804990  0.94423101  1
  F  F97  1  0.02417809  0.39804990  0.05576899  1
  F  F98  1  0.52417809  0.89804990  0.44423101  1
  F  F99  1  0.47582191  0.39804990  0.55576899  1
  F  F100  1  0.54991771  0.84938494  0.96257276  1
  F  F101  1  0.45008229  0.34938494  0.03742724  1
  F  F102  1  0.95008229  0.84938494  0.46257276  1
  F  F103  1  0.04991771  0.34938494  0.53742724  1
  F  F104  1  0.70375541  0.06123610  1.00186957  1
  F  F105  1  0.29624459  0.56123610  -0.00186957  1
  F  F106  1  0.79624459  0.06123610  0.50186957  1
  F  F107  1  0.20375541  0.56123610  0.49813043  1
  F  F108  1  0.80887475  0.86421992  0.09406287  1
  F  F109  1  0.19112525  0.36421992  0.90593713  1
  F  F110  1  0.69112525  0.86421992  0.59406287  1
  F  F111  1  0.30887475  0.36421992  0.40593713  1
  F  F112  1  0.53871076  0.60222497  0.19551619  1
  F  F113  1  0.03871076  0.10222497  0.30448381  1
  F  F114  1  0.96128924  0.60222497  0.69551619  1
  F  F115  1  0.03486766  0.15099867  0.78424020  1
  F  F116  1  0.96513234  0.65099867  0.21575980  1
  F  F117  1  0.46513234  0.15099867  0.28424020  1
  F  F118  1  0.53486766  0.65099867  0.71575980  1
  F  F119  1  0.79423086  0.62772772  0.84609234  1
