# generated using pymatgen
data_Rb2MgH8(CO5)2
_symmetry_space_group_name_H-M   'P 1'
_cell_length_a   6.52221020
_cell_length_b   7.16279049
_cell_length_c   11.35715302
_cell_angle_alpha   99.80185276
_cell_angle_beta   90.00000000
_cell_angle_gamma   90.00000000
_symmetry_Int_Tables_number   1
_chemical_formula_structural   Rb2MgH8(CO5)2
_chemical_formula_sum   'Rb4 Mg2 H16 C4 O20'
_cell_volume   522.82955500
_cell_formula_units_Z   2
loop_
 _symmetry_equiv_pos_site_id
 _symmetry_equiv_pos_as_xyz
  1  'x, y, z'
loop_
 _atom_site_type_symbol
 _atom_site_label
 _atom_site_symmetry_multiplicity
 _atom_site_fract_x
 _atom_site_fract_y
 _atom_site_fract_z
 _atom_site_occupancy
  H  H0  1  0.32027127  0.79233744  0.08552216  1
  H  H1  1  0.82027127  0.70766256  0.41447784  1
  H  H2  1  0.67972873  0.20766256  0.91447784  1
  H  H3  1  0.17972873  0.29233744  0.58552216  1
  H  H4  1  0.11531248  0.69593242  0.12212516  1
  H  H5  1  0.61531248  0.80406758  0.37787484  1
  H  H6  1  0.34487156  0.83501354  0.63494326  1
  H  H7  1  0.84487156  0.66498646  0.86505674  1
  H  H8  1  0.65512844  0.16498646  0.36505674  1
  H  H9  1  0.38468752  0.19593242  0.62212516  1
  H  H10  1  0.29358672  0.22181183  0.02249013  1
  H  H11  1  0.79358672  0.27818817  0.47750987  1
  H  H12  1  0.70641328  0.77818817  0.97750987  1
  H  H13  1  0.20641328  0.72181183  0.52249013  1
  H  H14  1  0.88468752  0.30406758  0.87787484  1
  H  H15  1  0.15512844  0.33501354  0.13494326  1
  C  C16  1  0.34886059  0.07195430  0.82515323  1
  C  C17  1  0.15113941  0.57195430  0.32515323  1
  C  C18  1  0.65113941  0.92804570  0.17484677  1
  C  C19  1  0.84886059  0.42804570  0.67484677  1
  O  O20  1  0.83156905  0.21657288  0.93042332  1
  O  O21  1  0.42572165  0.21075347  0.90262276  1
  O  O22  1  0.30060241  0.70626878  0.59160554  1
  O  O23  1  0.80060241  0.79373122  0.90839446  1
  O  O24  1  0.69939759  0.29373122  0.40839446  1
  O  O25  1  0.19939759  0.20626878  0.09160554  1
  O  O26  1  0.33156905  0.28342712  0.56957668  1
  O  O27  1  0.92572165  0.28924653  0.59737724  1
  O  O28  1  0.66843095  0.71657288  0.43042332  1
  O  O29  1  0.16843095  0.78342712  0.06957668  1
  O  O30  1  0.19765011  0.97211052  0.85456989  1
  O  O31  1  0.69765011  0.52788948  0.64543011  1
  O  O32  1  0.80234989  0.02788948  0.14543011  1
  O  O33  1  0.30234989  0.47211052  0.35456989  1
  O  O34  1  0.92600140  0.46541327  0.78206235  1
  O  O35  1  0.57399860  0.96541327  0.28206235  1
  O  O36  1  0.07427835  0.71075347  0.40262276  1
  O  O37  1  0.42600140  0.03458673  0.71793765  1
  O  O38  1  0.57427835  0.78924653  0.09737724  1
  O  O39  1  0.07399860  0.53458673  0.21793765  1
  Mg  Mg40  1  0.00000000  0.00000000  0.00000000  1
  Mg  Mg41  1  0.50000000  0.50000000  0.50000000  1
  Rb  Rb42  1  0.35203456  0.57642147  0.82413796  1
  Rb  Rb43  1  0.85203456  0.92357853  0.67586204  1
  Rb  Rb44  1  0.64796544  0.42357853  0.17586204  1
  Rb  Rb45  1  0.14796544  0.07642147  0.32413796  1
