# generated using pymatgen
data_Be3P2(H2O5)2
_symmetry_space_group_name_H-M   'P 1'
_cell_length_a   4.62384189
_cell_length_b   8.40993274
_cell_length_c   9.64632004
_cell_angle_alpha   94.63840297
_cell_angle_beta   90.00000000
_cell_angle_gamma   105.95627059
_symmetry_Int_Tables_number   1
_chemical_formula_structural   Be3P2(H2O5)2
_chemical_formula_sum   'Be6 P4 H8 O20'
_cell_volume   359.37853610
_cell_formula_units_Z   2
loop_
 _symmetry_equiv_pos_site_id
 _symmetry_equiv_pos_as_xyz
  1  'x, y, z'
loop_
 _atom_site_type_symbol
 _atom_site_label
 _atom_site_symmetry_multiplicity
 _atom_site_fract_x
 _atom_site_fract_y
 _atom_site_fract_z
 _atom_site_occupancy
  H  H0  1  0.53115835  0.86762124  0.31139297  1
  H  H1  1  0.58248744  0.81721080  0.90422610  1
  H  H2  1  0.76527663  0.18278920  0.59577390  1
  H  H3  1  0.41751256  0.18278920  0.09577390  1
  H  H4  1  0.23472337  0.81721080  0.40422610  1
  H  H5  1  0.33646290  0.86762124  0.81139297  1
  H  H6  1  0.46884165  0.13237876  0.68860703  1
  H  H7  1  0.66353710  0.13237876  0.18860703  1
  Be  Be8  1  0.79776803  0.50464036  0.34244120  1
  Be  Be9  1  0.29312767  0.49535964  0.15755880  1
  Be  Be10  1  0.20223197  0.49535964  0.65755880  1
  Be  Be11  1  0.70687233  0.50464036  0.84244120  1
  Be  Be12  1  0.18842057  0.00000000  0.25000000  1
  Be  Be13  1  0.81157943  0.00000000  0.75000000  1
  O  O14  1  0.18733024  0.64640439  0.10843202  1
  O  O15  1  0.45907415  0.64640439  0.60843202  1
  O  O16  1  0.81266976  0.35359561  0.89156798  1
  O  O17  1  0.54092585  0.35359561  0.39156798  1
  O  O18  1  0.24869956  0.33497540  0.04379354  1
  O  O19  1  0.53845140  0.90772735  0.85432802  1
  O  O20  1  0.75130044  0.66502460  0.95620646  1
  O  O21  1  0.08627584  0.33497540  0.54379354  1
  O  O22  1  0.33720876  0.43671365  0.80092879  1
  O  O23  1  0.90049511  0.56328635  0.69907121  1
  O  O24  1  0.66279124  0.56328635  0.19907121  1
  O  O25  1  0.09950489  0.43671365  0.30092879  1
  O  O26  1  0.91372416  0.66502460  0.45620646  1
  O  O27  1  0.63072405  0.09227265  0.64567198  1
  O  O28  1  0.46154860  0.09227265  0.14567198  1
  O  O29  1  0.36927595  0.90772735  0.35432802  1
  O  O30  1  0.91368791  0.86612656  0.16780998  1
  O  O31  1  0.95243865  0.86612656  0.66780998  1
  O  O32  1  0.08631209  0.13387344  0.83219002  1
  O  O33  1  0.04756135  0.13387344  0.33219002  1
  P  P34  1  0.88652484  0.68880831  0.10530341  1
  P  P35  1  0.80228347  0.68880831  0.60530341  1
  P  P36  1  0.11347516  0.31119169  0.89469659  1
  P  P37  1  0.19771653  0.31119169  0.39469659  1
