# generated using pymatgen
data_Ce3SnO8
_symmetry_space_group_name_H-M   'P 1'
_cell_length_a   3.81045682
_cell_length_b   3.81045682
_cell_length_c   12.70972485
_cell_angle_alpha   90.00000000
_cell_angle_beta   81.37868316
_cell_angle_gamma   120.00000000
_symmetry_Int_Tables_number   1
_chemical_formula_structural   Ce3SnO8
_chemical_formula_sum   'Ce3 Sn1 O8'
_cell_volume   157.40386888
_cell_formula_units_Z   1
loop_
 _symmetry_equiv_pos_site_id
 _symmetry_equiv_pos_as_xyz
  1  'x, y, z'
loop_
 _atom_site_type_symbol
 _atom_site_label
 _atom_site_symmetry_multiplicity
 _atom_site_fract_x
 _atom_site_fract_y
 _atom_site_fract_z
 _atom_site_occupancy
  Ce  Ce0  1  0.50421564  0.25210782  0.24367654  1
  Ce  Ce1  1  0.00000000  0.50000000  0.50000000  1
  Ce  Ce2  1  0.49578436  0.74789218  0.75632346  1
  Sn  Sn3  1  0.00000000  -0.00000000  0.00000000  1
  O  O4  1  0.62367971  0.81183986  0.56448043  1
  O  O5  1  0.11717317  0.05858658  0.82424025  1
  O  O6  1  0.63127951  0.31563975  0.05308074  1
  O  O7  1  0.12793284  0.56396642  0.30810074  1
  O  O8  1  0.87206716  0.43603358  0.69189926  1
  O  O9  1  0.36872049  0.68436025  0.94691926  1
  O  O10  1  0.88282683  0.94141342  0.17575975  1
  O  O11  1  0.37632029  0.18816014  0.43551957  1
