# generated using pymatgen
data_AlBP2H5NO9
_symmetry_space_group_name_H-M   'P 1'
_cell_length_a   8.48483335
_cell_length_b   9.39488427
_cell_length_c   9.55394478
_cell_angle_alpha   104.66502515
_cell_angle_beta   90.00000000
_cell_angle_gamma   90.00000000
_symmetry_Int_Tables_number   1
_chemical_formula_structural   AlBP2H5NO9
_chemical_formula_sum   'Al4 B4 P8 H20 N4 O36'
_cell_volume   736.77291093
_cell_formula_units_Z   4
loop_
 _symmetry_equiv_pos_site_id
 _symmetry_equiv_pos_as_xyz
  1  'x, y, z'
loop_
 _atom_site_type_symbol
 _atom_site_label
 _atom_site_symmetry_multiplicity
 _atom_site_fract_x
 _atom_site_fract_y
 _atom_site_fract_z
 _atom_site_occupancy
  H  H0  1  0.65661152  0.22400214  0.39404417  1
  H  H1  1  0.15661152  0.77599786  0.10595583  1
  H  H2  1  0.34338848  0.77599786  0.60595583  1
  H  H3  1  0.84338848  0.22400214  0.89404417  1
  H  H4  1  0.55473198  0.35650709  0.34501877  1
  H  H5  1  0.05473198  0.64349291  0.15498123  1
  H  H6  1  0.44526802  0.64349291  0.65498123  1
  H  H7  1  0.94526802  0.35650709  0.84501877  1
  H  H8  1  0.51259362  0.31470158  0.50389252  1
  H  H9  1  0.01259362  0.68529842  0.99610748  1
  H  H10  1  0.48740638  0.68529842  0.49610748  1
  H  H11  1  0.98740638  0.31470158  0.00389252  1
  H  H12  1  0.31508365  0.59874206  0.51632993  1
  H  H13  1  0.81508365  0.40125794  0.98367007  1
  H  H14  1  0.56547885  0.11424295  0.00372166  1
  H  H15  1  0.06547885  0.88575705  0.49627834  1
  H  H16  1  0.43452115  0.88575705  0.99627834  1
  H  H17  1  0.93452115  0.11424295  0.50372166  1
  H  H18  1  0.68491635  0.40125794  0.48367007  1
  H  H19  1  0.18491635  0.59874206  0.01632993  1
  B  B20  1  0.94860820  0.16467094  0.30318412  1
  B  B21  1  0.55139180  0.16467094  0.80318412  1
  B  B22  1  0.05139180  0.83532906  0.69681588  1
  B  B23  1  0.44860820  0.83532906  0.19681588  1
  N  N24  1  0.89788066  0.32424208  0.93355224  1
  N  N25  1  0.60211934  0.32424208  0.43355224  1
  N  N26  1  0.10211934  0.67575792  0.06644776  1
  N  N27  1  0.39788066  0.67575792  0.56644776  1
  O  O28  1  0.69797083  0.08291864  0.75899615  1
  O  O29  1  0.57165494  0.30795360  0.77050644  1
  O  O30  1  0.92834506  0.30795360  0.27050644  1
  O  O31  1  0.42834506  0.69204640  0.22949356  1
  O  O32  1  0.21774095  0.15793717  0.93452679  1
  O  O33  1  0.71774095  0.84206283  0.56547321  1
  O  O34  1  0.78225905  0.84206283  0.06547321  1
  O  O35  1  0.28225905  0.15793717  0.43452679  1
  O  O36  1  0.13382192  0.15705957  0.67927296  1
  O  O37  1  0.63382192  0.84294043  0.82072704  1
  O  O38  1  0.48574673  0.42348813  0.19572081  1
  O  O39  1  0.36617808  0.15705957  0.17927296  1
  O  O40  1  0.19797083  0.91708136  0.74100385  1
  O  O41  1  0.07165494  0.69204640  0.72949356  1
  O  O42  1  0.80202917  0.08291864  0.25899615  1
  O  O43  1  0.30202917  0.91708136  0.24100385  1
  O  O44  1  0.41500804  0.08250848  0.72746424  1
  O  O45  1  0.91500804  0.91749152  0.77253576  1
  O  O46  1  0.98574673  0.57651187  0.30427919  1
  O  O47  1  0.08499196  0.08250848  0.22746424  1
  O  O48  1  0.96640556  0.19556316  0.46402618  1
  O  O49  1  0.46640556  0.80443684  0.03597382  1
  O  O50  1  0.03359444  0.80443684  0.53597382  1
  O  O51  1  0.53359444  0.19556316  0.96402618  1
  O  O52  1  0.84390691  0.57741135  0.56597439  1
  O  O53  1  0.66737111  0.60773762  0.34101515  1
  O  O54  1  0.16737111  0.39226238  0.15898485  1
  O  O55  1  0.33262889  0.39226238  0.65898485  1
  O  O56  1  0.51425327  0.57651187  0.80427919  1
  O  O57  1  0.01425327  0.42348813  0.69572081  1
  O  O58  1  0.83262889  0.60773762  0.84101515  1
  O  O59  1  0.65609309  0.57741135  0.06597439  1
  O  O60  1  0.15609309  0.42258865  0.43402561  1
  O  O61  1  0.34390691  0.42258865  0.93402561  1
  O  O62  1  0.58499196  0.91749152  0.27253576  1
  O  O63  1  0.86617808  0.84294043  0.32072704  1
  Al  Al64  1  0.34528771  0.29681494  0.06664747  1
  Al  Al65  1  0.84528771  0.70318506  0.43335253  1
  Al  Al66  1  0.65471229  0.70318506  0.93335253  1
  Al  Al67  1  0.15471229  0.29681494  0.56664747  1
  P  P68  1  0.73730019  0.91362807  0.72627364  1
  P  P69  1  0.76269981  0.91362807  0.22627364  1
  P  P70  1  0.26269981  0.08637193  0.27372636  1
  P  P71  1  0.23730019  0.08637193  0.77372636  1
  P  P72  1  0.56451479  0.57276661  0.20397154  1
  P  P73  1  0.06451479  0.42723339  0.29602846  1
  P  P74  1  0.43548521  0.42723339  0.79602846  1
  P  P75  1  0.93548521  0.57276661  0.70397154  1
