# generated using pymatgen
data_Na3H6Rh
_symmetry_space_group_name_H-M   'P 1'
_cell_length_a   5.23909855
_cell_length_b   9.37873097
_cell_length_c   9.60292620
_cell_angle_alpha   90.00000000
_cell_angle_beta   90.00000000
_cell_angle_gamma   90.00000000
_symmetry_Int_Tables_number   1
_chemical_formula_structural   Na3H6Rh
_chemical_formula_sum   'Na12 H24 Rh4'
_cell_volume   471.85030197
_cell_formula_units_Z   4
loop_
 _symmetry_equiv_pos_site_id
 _symmetry_equiv_pos_as_xyz
  1  'x, y, z'
loop_
 _atom_site_type_symbol
 _atom_site_label
 _atom_site_symmetry_multiplicity
 _atom_site_fract_x
 _atom_site_fract_y
 _atom_site_fract_z
 _atom_site_occupancy
  H  H0  1  0.25000000  0.81321716  0.74869958  1
  H  H1  1  0.75000000  0.18678284  0.25130042  1
  H  H2  1  0.25000000  0.31321716  0.75130042  1
  H  H3  1  0.75000000  0.68678284  0.24869958  1
  H  H4  1  0.25000000  0.62599892  0.45419629  1
  H  H5  1  0.75000000  0.37400108  0.54580371  1
  H  H6  1  0.25000000  0.12599892  0.04580371  1
  H  H7  1  0.75000000  0.87400108  0.95419629  1
  H  H8  1  0.53056097  0.38966794  0.33742306  1
  H  H9  1  0.03056097  0.61033206  0.66257694  1
  H  H10  1  0.96943903  0.88966794  0.16257694  1
  H  H11  1  0.46943903  0.11033206  0.83742306  1
  H  H12  1  0.46943903  0.61033206  0.66257694  1
  H  H13  1  0.96943903  0.38966794  0.33742306  1
  H  H14  1  0.03056097  0.11033206  0.83742306  1
  H  H15  1  0.53056097  0.88966794  0.16257694  1
  H  H16  1  0.52148359  0.66985415  0.03499942  1
  H  H17  1  0.02148359  0.33014585  0.96500058  1
  H  H18  1  0.97851641  0.16985415  0.46500058  1
  H  H19  1  0.47851641  0.83014585  0.53499942  1
  H  H20  1  0.47851641  0.33014585  0.96500058  1
  H  H21  1  0.97851641  0.66985415  0.03499942  1
  H  H22  1  0.02148359  0.83014585  0.53499942  1
  H  H23  1  0.52148359  0.16985415  0.46500058  1
  Na  Na24  1  0.25000000  0.72079001  0.24973692  1
  Na  Na25  1  0.75000000  0.27920999  0.75026308  1
  Na  Na26  1  0.25000000  0.22079001  0.25026308  1
  Na  Na27  1  0.75000000  0.77920999  0.74973692  1
  Na  Na28  1  0.25000000  0.89810840  0.96679306  1
  Na  Na29  1  0.75000000  0.10189160  0.03320694  1
  Na  Na30  1  0.25000000  0.39810840  0.53320694  1
  Na  Na31  1  0.75000000  0.60189160  0.46679306  1
  Na  Na32  1  0.25000000  0.54456628  0.87230432  1
  Na  Na33  1  0.75000000  0.45543372  0.12769568  1
  Na  Na34  1  0.25000000  0.04456628  0.62769568  1
  Na  Na35  1  0.75000000  0.95543372  0.37230432  1
  Rh  Rh36  1  0.25000000  0.72223901  0.59945354  1
  Rh  Rh37  1  0.75000000  0.27776099  0.40054646  1
  Rh  Rh38  1  0.25000000  0.22223901  0.90054646  1
  Rh  Rh39  1  0.75000000  0.77776099  0.09945354  1
