# generated using pymatgen
data_ScH3NCl3
_symmetry_space_group_name_H-M   'P 1'
_cell_length_a   7.15717366
_cell_length_b   9.33844386
_cell_length_c   9.44410564
_cell_angle_alpha   72.37691167
_cell_angle_beta   77.28216526
_cell_angle_gamma   80.12740546
_symmetry_Int_Tables_number   1
_chemical_formula_structural   ScH3NCl3
_chemical_formula_sum   'Sc4 H12 N4 Cl12'
_cell_volume   583.09044908
_cell_formula_units_Z   4
loop_
 _symmetry_equiv_pos_site_id
 _symmetry_equiv_pos_as_xyz
  1  'x, y, z'
loop_
 _atom_site_type_symbol
 _atom_site_label
 _atom_site_symmetry_multiplicity
 _atom_site_fract_x
 _atom_site_fract_y
 _atom_site_fract_z
 _atom_site_occupancy
  H  H0  1  0.29925489  0.41559450  0.51417206  1
  H  H1  1  0.70074511  0.58440550  0.48582794  1
  H  H2  1  0.19351986  0.27916966  0.49993752  1
  H  H3  1  0.80648014  0.72083034  0.50006248  1
  H  H4  1  0.27264425  0.26143806  0.65593264  1
  H  H5  1  0.72735575  0.73856194  0.34406736  1
  H  H6  1  0.57171630  0.23641142  0.00764336  1
  H  H7  1  0.42828370  0.76358858  0.99235664  1
  H  H8  1  0.72915160  0.24626184  0.85042418  1
  H  H9  1  0.27084840  0.75373816  0.14957582  1
  H  H10  1  0.73928636  0.09398027  0.99429438  1
  H  H11  1  0.26071364  0.90601973  0.00570562  1
  N  N12  1  0.30558179  0.29967485  0.53991061  1
  N  N13  1  0.28559716  0.78969024  0.03371324  1
  N  N14  1  0.71440284  0.21030976  0.96628676  1
  N  N15  1  0.69441821  0.70032515  0.46008939  1
  Cl  Cl16  1  0.90606542  0.09027993  0.29673474  1
  Cl  Cl17  1  0.41468325  0.04697881  0.33953008  1
  Cl  Cl18  1  0.19598024  0.18145798  0.93594051  1
  Cl  Cl19  1  0.80401976  0.81854202  0.06405949  1
  Cl  Cl20  1  0.75984357  0.30774943  0.57471128  1
  Cl  Cl21  1  0.24015643  0.69225057  0.42528872  1
  Cl  Cl22  1  0.89612197  0.54233846  0.84580881  1
  Cl  Cl23  1  0.10387803  0.45766154  0.15419119  1
  Cl  Cl24  1  0.39564062  0.59115046  0.78691180  1
  Cl  Cl25  1  0.09393458  0.90972007  0.70326526  1
  Cl  Cl26  1  0.60435938  0.40884954  0.21308820  1
  Cl  Cl27  1  0.58531675  0.95302119  0.66046992  1
  Sc  Sc28  1  0.91720242  0.30580976  0.06076926  1
  Sc  Sc29  1  0.08279758  0.69419024  0.93923074  1
  Sc  Sc30  1  0.59997207  0.19174209  0.44789130  1
  Sc  Sc31  1  0.40002793  0.80825791  0.55210870  1
