# generated using pymatgen
data_Na5Al3H14
_symmetry_space_group_name_H-M   'P 1'
_cell_length_a   6.76132385
_cell_length_b   6.76132385
_cell_length_c   10.31234784
_cell_angle_alpha   90.00000000
_cell_angle_beta   90.00000000
_cell_angle_gamma   90.00000000
_symmetry_Int_Tables_number   1
_chemical_formula_structural   Na5Al3H14
_chemical_formula_sum   'Na10 Al6 H28'
_cell_volume   471.43413979
_cell_formula_units_Z   2
loop_
 _symmetry_equiv_pos_site_id
 _symmetry_equiv_pos_as_xyz
  1  'x, y, z'
loop_
 _atom_site_type_symbol
 _atom_site_label
 _atom_site_symmetry_multiplicity
 _atom_site_fract_x
 _atom_site_fract_y
 _atom_site_fract_z
 _atom_site_occupancy
  H  H0  1  0.54200991  0.82063315  0.11773238  1
  H  H1  1  0.45799009  0.17936685  0.11773238  1
  H  H2  1  0.32063315  0.04200991  0.38226762  1
  H  H3  1  0.82063315  0.45799009  0.11773238  1
  H  H4  1  0.17936685  0.54200991  0.11773238  1
  H  H5  1  0.95799009  0.32063315  0.38226762  1
  H  H6  1  0.04200991  0.67936685  0.38226762  1
  H  H7  1  0.67936685  0.95799009  0.38226762  1
  H  H8  1  0.45799009  0.17936685  0.88226762  1
  H  H9  1  0.54200991  0.82063315  0.88226762  1
  H  H10  1  0.67936685  0.95799009  0.61773238  1
  H  H11  1  0.17936685  0.54200991  0.88226762  1
  H  H12  1  0.82063315  0.45799009  0.88226762  1
  H  H13  1  0.04200991  0.67936685  0.61773238  1
  H  H14  1  0.95799009  0.32063315  0.61773238  1
  H  H15  1  0.32063315  0.04200991  0.61773238  1
  H  H16  1  0.00000000  0.00000000  0.16981032  1
  H  H17  1  0.50000000  0.50000000  0.33018968  1
  H  H18  1  0.00000000  0.00000000  0.83018968  1
  H  H19  1  0.50000000  0.50000000  0.66981032  1
  H  H20  1  0.75226517  0.07303411  0.00000000  1
  H  H21  1  0.92696589  0.75226517  0.00000000  1
  H  H22  1  0.07303411  0.24773483  0.00000000  1
  H  H23  1  0.25226517  0.42696589  0.50000000  1
  H  H24  1  0.74773483  0.57303411  0.50000000  1
  H  H25  1  0.24773483  0.92696589  0.00000000  1
  H  H26  1  0.57303411  0.25226517  0.50000000  1
  H  H27  1  0.42696589  0.74773483  0.50000000  1
  Na  Na28  1  0.00000000  0.00000000  0.50000000  1
  Na  Na29  1  0.50000000  0.50000000  0.00000000  1
  Na  Na30  1  0.28504227  0.78504227  0.25000000  1
  Na  Na31  1  0.21495773  0.28504227  0.25000000  1
  Na  Na32  1  0.78504227  0.71495773  0.25000000  1
  Na  Na33  1  0.71495773  0.21495773  0.25000000  1
  Na  Na34  1  0.28504227  0.78504227  0.75000000  1
  Na  Na35  1  0.21495773  0.28504227  0.75000000  1
  Na  Na36  1  0.78504227  0.71495773  0.75000000  1
  Na  Na37  1  0.71495773  0.21495773  0.75000000  1
  Al  Al38  1  0.00000000  0.00000000  0.00000000  1
  Al  Al39  1  0.50000000  0.50000000  0.50000000  1
  Al  Al40  1  0.00000000  0.50000000  0.00000000  1
  Al  Al41  1  0.50000000  0.00000000  0.00000000  1
  Al  Al42  1  0.50000000  0.00000000  0.50000000  1
  Al  Al43  1  0.00000000  0.50000000  0.50000000  1
