# generated using pymatgen
data_RbGaBP2HO9
_symmetry_space_group_name_H-M   'P 1'
_cell_length_a   8.53571638
_cell_length_b   9.46794475
_cell_length_c   9.68863299
_cell_angle_alpha   103.26012603
_cell_angle_beta   90.00000000
_cell_angle_gamma   90.00000000
_symmetry_Int_Tables_number   1
_chemical_formula_structural   RbGaBP2HO9
_chemical_formula_sum   'Rb4 Ga4 B4 P8 H4 O36'
_cell_volume   762.11797267
_cell_formula_units_Z   4
loop_
 _symmetry_equiv_pos_site_id
 _symmetry_equiv_pos_as_xyz
  1  'x, y, z'
loop_
 _atom_site_type_symbol
 _atom_site_label
 _atom_site_symmetry_multiplicity
 _atom_site_fract_x
 _atom_site_fract_y
 _atom_site_fract_z
 _atom_site_occupancy
  H  H0  1  0.56561205  0.89403429  0.00157112  1
  H  H1  1  0.06561205  0.10596571  0.49842888  1
  H  H2  1  0.43438795  0.10596571  0.99842888  1
  H  H3  1  0.93438795  0.89403429  0.50157112  1
  B  B4  1  0.55093577  0.83634953  0.19699056  1
  B  B5  1  0.05093577  0.16365047  0.30300944  1
  B  B6  1  0.44906423  0.16365047  0.80300944  1
  B  B7  1  0.94906423  0.83634953  0.69699056  1
  O  O8  1  0.33800588  0.58076121  0.07667963  1
  O  O9  1  0.83800588  0.41923879  0.42332037  1
  O  O10  1  0.66199412  0.41923879  0.92332037  1
  O  O11  1  0.16199412  0.58076121  0.57667963  1
  O  O12  1  0.12994771  0.84605571  0.31441513  1
  O  O13  1  0.62994771  0.15394429  0.18558487  1
  O  O14  1  0.15863253  0.60008356  0.84659390  1
  O  O15  1  0.87005229  0.15394429  0.68558487  1
  O  O16  1  0.95674390  0.80881801  0.53858498  1
  O  O17  1  0.45674390  0.19118199  0.96141502  1
  O  O18  1  0.04325610  0.19118199  0.46141502  1
  O  O19  1  0.54325610  0.80881801  0.03858498  1
  O  O20  1  0.92999726  0.69305811  0.72949838  1
  O  O21  1  0.42999726  0.30694189  0.77050162  1
  O  O22  1  0.07000274  0.30694189  0.27050162  1
  O  O23  1  0.57000274  0.69305811  0.22949838  1
  O  O24  1  0.30550106  0.08293887  0.75085419  1
  O  O25  1  0.80550106  0.91706113  0.74914581  1
  O  O26  1  0.69449894  0.91706113  0.24914581  1
  O  O27  1  0.19449894  0.08293887  0.25085419  1
  O  O28  1  0.28705199  0.85041261  0.56260713  1
  O  O29  1  0.78705199  0.14958739  0.93739287  1
  O  O30  1  0.71294801  0.14958739  0.43739287  1
  O  O31  1  0.21294801  0.85041261  0.06260713  1
  O  O32  1  0.01538421  0.57506119  0.30380440  1
  O  O33  1  0.51538421  0.42493881  0.19619560  1
  O  O34  1  0.98461579  0.42493881  0.69619560  1
  O  O35  1  0.48461579  0.57506119  0.80380440  1
  O  O36  1  0.08849188  0.91582938  0.76530060  1
  O  O37  1  0.58849188  0.08417062  0.73469940  1
  O  O38  1  0.91150812  0.08417062  0.23469940  1
  O  O39  1  0.41150812  0.91582938  0.26530060  1
  O  O40  1  0.34136747  0.60008356  0.34659390  1
  O  O41  1  0.84136747  0.39991644  0.15340610  1
  O  O42  1  0.65863253  0.39991644  0.65340610  1
  O  O43  1  0.37005229  0.84605571  0.81441513  1
  P  P44  1  0.43630873  0.57245351  0.20741311  1
  P  P45  1  0.06369127  0.57245351  0.70741311  1
  P  P46  1  0.56369127  0.42754649  0.79258689  1
  P  P47  1  0.93630873  0.42754649  0.29258689  1
  P  P48  1  0.23484181  0.91637713  0.22083903  1
  P  P49  1  0.26515819  0.91637713  0.72083903  1
  P  P50  1  0.76515819  0.08362287  0.77916097  1
  P  P51  1  0.73484181  0.08362287  0.27916097  1
  Ga  Ga52  1  0.84343220  0.29810151  0.56653253  1
  Ga  Ga53  1  0.15656780  0.70189849  0.43346747  1
  Ga  Ga54  1  0.65656780  0.29810151  0.06653253  1
  Ga  Ga55  1  0.34343220  0.70189849  0.93346747  1
  Rb  Rb56  1  0.89292511  0.69176711  0.06274213  1
  Rb  Rb57  1  0.39292511  0.30823289  0.43725787  1
  Rb  Rb58  1  0.10707489  0.30823289  0.93725787  1
  Rb  Rb59  1  0.60707489  0.69176711  0.56274213  1
