# generated using pymatgen
data_MnSn(BO3)2
_symmetry_space_group_name_H-M   'P 1'
_cell_length_a   5.89318410
_cell_length_b   5.89318409
_cell_length_c   5.89318410
_cell_angle_alpha   48.44577888
_cell_angle_beta   48.44577890
_cell_angle_gamma   48.44577891
_symmetry_Int_Tables_number   1
_chemical_formula_structural   MnSn(BO3)2
_chemical_formula_sum   'Mn1 Sn1 B2 O6'
_cell_volume   105.10479822
_cell_formula_units_Z   1
loop_
 _symmetry_equiv_pos_site_id
 _symmetry_equiv_pos_as_xyz
  1  'x, y, z'
loop_
 _atom_site_type_symbol
 _atom_site_label
 _atom_site_symmetry_multiplicity
 _atom_site_fract_x
 _atom_site_fract_y
 _atom_site_fract_z
 _atom_site_occupancy
  B  B0  1  0.75540887  0.75540906  0.75540891  1
  B  B1  1  0.24459205  0.24459102  0.24459109  1
  O  O2  1  0.04671890  0.74188371  0.47366916  1
  O  O3  1  0.74188250  0.47366896  0.04672017  1
  O  O4  1  0.52633015  0.95327997  0.25811725  1
  O  O5  1  0.47366849  0.04672011  0.74188255  1
  O  O6  1  0.95328201  0.25811637  0.52632914  1
  O  O7  1  0.25811614  0.52633112  0.95328133  1
  Mn  Mn8  1  0.00000000  0.00000000  0.00000000  1
  Sn  Sn9  1  0.50000046  0.50000004  0.49999915  1
