# generated using pymatgen
data_CrClO
_symmetry_space_group_name_H-M   'P 1'
_cell_length_a   3.24979776
_cell_length_b   3.93935304
_cell_length_c   8.02321056
_cell_angle_alpha   90.00000000
_cell_angle_beta   90.00000000
_cell_angle_gamma   90.00000000
_symmetry_Int_Tables_number   1
_chemical_formula_structural   CrClO
_chemical_formula_sum   'Cr2 Cl2 O2'
_cell_volume   102.71394941
_cell_formula_units_Z   2
loop_
 _symmetry_equiv_pos_site_id
 _symmetry_equiv_pos_as_xyz
  1  'x, y, z'
loop_
 _atom_site_type_symbol
 _atom_site_label
 _atom_site_symmetry_multiplicity
 _atom_site_fract_x
 _atom_site_fract_y
 _atom_site_fract_z
 _atom_site_occupancy
  O  O0  1  0.75000127  0.25000018  0.94826308  1
  O  O1  1  0.24999939  0.75000053  0.05173758  1
  Cl  Cl2  1  0.24999939  0.75000053  0.67883935  1
  Cl  Cl3  1  0.75000127  0.25000018  0.32116131  1
  Cr  Cr4  1  0.24999939  0.25000018  0.10729586  1
  Cr  Cr5  1  0.75000127  0.75000053  0.89270480  1
