# generated using pymatgen
data_Na3FePCO7
_symmetry_space_group_name_H-M   'P 1'
_cell_length_a   5.24513360
_cell_length_b   6.68076641
_cell_length_c   9.06087357
_cell_angle_alpha   90.00000000
_cell_angle_beta   89.21664436
_cell_angle_gamma   90.00000000
_symmetry_Int_Tables_number   1
_chemical_formula_structural   Na3FePCO7
_chemical_formula_sum   'Na6 Fe2 P2 C2 O14'
_cell_volume   317.47703863
_cell_formula_units_Z   2
loop_
 _symmetry_equiv_pos_site_id
 _symmetry_equiv_pos_as_xyz
  1  'x, y, z'
loop_
 _atom_site_type_symbol
 _atom_site_label
 _atom_site_symmetry_multiplicity
 _atom_site_fract_x
 _atom_site_fract_y
 _atom_site_fract_z
 _atom_site_occupancy
  C  C0  1  0.27205857  0.25000016  0.94092213  1
  C  C1  1  0.72794226  0.75000047  0.05907865  1
  O  O2  1  0.22146258  0.56344738  0.68163189  1
  O  O3  1  0.16170652  0.75000047  0.43592147  1
  O  O4  1  0.22146258  0.93655356  0.68163189  1
  O  O5  1  0.77853827  0.43655325  0.31836779  1
  O  O6  1  0.77853827  0.06344707  0.31836779  1
  O  O7  1  0.83829434  0.25000016  0.56407822  1
  O  O8  1  0.71394066  0.75000047  0.91651748  1
  O  O9  1  0.28605828  0.25000016  0.08348221  1
  O  O10  1  0.59206999  0.75000047  0.56141840  1
  O  O11  1  0.40792892  0.25000016  0.43858239  1
  O  O12  1  0.05066485  0.25000016  0.87694126  1
  O  O13  1  0.52147252  0.75000047  0.14108441  1
  O  O14  1  0.47852832  0.25000016  0.85891637  1
  O  O15  1  0.94933598  0.75000047  0.12305953  1
  Na  Na16  1  0.74978842  0.99731849  0.73527868  1
  Na  Na17  1  0.25021241  0.00268214  0.26472210  1
  Na  Na18  1  0.76402499  0.25000016  0.08190021  1
  Na  Na19  1  0.23597392  0.75000047  0.91810057  1
  Na  Na20  1  0.25021241  0.49731818  0.26472210  1
  Na  Na21  1  0.74978842  0.50268245  0.73527868  1
  P  P22  1  0.70303816  0.25000016  0.41361301  1
  P  P23  1  0.29696269  0.75000047  0.58638667  1
  Fe  Fe24  1  0.77961300  0.75000047  0.35254388  1
  Fe  Fe25  1  0.22038594  0.25000016  0.64745580  1
