# generated using pymatgen
data_Sr4Mn3(ClO4)2
_symmetry_space_group_name_H-M   'P 1'
_cell_length_a   3.91953766
_cell_length_b   3.91953766
_cell_length_c   16.67171145
_cell_angle_alpha   96.75075874
_cell_angle_beta   96.75075871
_cell_angle_gamma   89.99999998
_symmetry_Int_Tables_number   1
_chemical_formula_structural   Sr4Mn3(ClO4)2
_chemical_formula_sum   'Sr4 Mn3 Cl2 O8'
_cell_volume   252.55981166
_cell_formula_units_Z   1
loop_
 _symmetry_equiv_pos_site_id
 _symmetry_equiv_pos_as_xyz
  1  'x, y, z'
loop_
 _atom_site_type_symbol
 _atom_site_label
 _atom_site_symmetry_multiplicity
 _atom_site_fract_x
 _atom_site_fract_y
 _atom_site_fract_z
 _atom_site_occupancy
  O  O0  1  0.12881970  0.62881954  0.25764106  1
  O  O1  1  0.37118054  0.87117897  0.74235902  1
  O  O2  1  0.99999919  0.49999914  0.99999981  1
  O  O3  1  0.50000089  1.00000000  0.99999988  1
  O  O4  1  0.62882140  0.12882040  0.25764113  1
  O  O5  1  0.05988051  0.05988291  0.11976370  1
  O  O6  1  0.87117966  0.37117983  0.74235902  1
  O  O7  1  0.94011889  0.94011904  0.88023645  1
  Cl  Cl8  1  0.21450246  0.21450355  0.42900529  1
  Cl  Cl9  1  0.78549694  0.78549840  0.57099487  1
  Mn  Mn10  1  0.00000000  0.00000000  0.00000000  1
  Mn  Mn11  1  0.88035417  0.88035369  0.76070669  1
  Mn  Mn12  1  0.11964777  0.11964568  0.23929346  1
  Sr  Sr13  1  0.67802914  0.67802758  0.35605634  1
  Sr  Sr14  1  0.32197280  0.32197179  0.64394381  1
  Sr  Sr15  1  0.55708267  0.55708144  0.11416516  1
  Sr  Sr16  1  0.44291669  0.44291793  0.88583432  1
