# generated using pymatgen
data_Ca8(YbSe4)3
_symmetry_space_group_name_H-M   'P 1'
_cell_length_a   5.94096300
_cell_length_b   5.94096300
_cell_length_c   17.86001042
_cell_angle_alpha   90.00000000
_cell_angle_beta   90.00000000
_cell_angle_gamma   90.00000000
_symmetry_Int_Tables_number   1
_chemical_formula_structural   Ca8(YbSe4)3
_chemical_formula_sum   'Ca8 Yb3 Se12'
_cell_volume   630.36980660
_cell_formula_units_Z   1
loop_
 _symmetry_equiv_pos_site_id
 _symmetry_equiv_pos_as_xyz
  1  'x, y, z'
loop_
 _atom_site_type_symbol
 _atom_site_label
 _atom_site_symmetry_multiplicity
 _atom_site_fract_x
 _atom_site_fract_y
 _atom_site_fract_z
 _atom_site_occupancy
  Ca  Ca0  1  0.00000000  0.00000000  0.33262054  1
  Ca  Ca1  1  0.00000000  0.50000000  0.50000136  1
  Ca  Ca2  1  0.00000000  0.00000000  0.66737946  1
  Ca  Ca3  1  0.00000000  0.50000000  0.83430654  1
  Ca  Ca4  1  0.50000000  -0.00000000  0.16569346  1
  Ca  Ca5  1  0.50000000  0.50000000  0.33293674  1
  Ca  Ca6  1  0.50000000  -0.00000000  0.49999864  1
  Ca  Ca7  1  0.50000000  0.50000000  0.66706326  1
  Yb  Yb8  1  0.00000000  0.50000000  0.16583532  1
  Yb  Yb9  1  0.50000000  0.50000000  -0.00000000  1
  Yb  Yb10  1  0.50000000  0.00000000  0.83416468  1
  Se  Se11  1  0.50000000  0.50000000  0.16662027  1
  Se  Se12  1  0.50000000  0.00000000  0.33370277  1
  Se  Se13  1  0.00000000  -0.00000000  0.16632050  1
  Se  Se14  1  0.50000000  0.50000000  0.50000000  1
  Se  Se15  1  0.50000000  0.00000000  0.66675281  1
  Se  Se16  1  0.00000000  0.50000000  0.33324719  1
  Se  Se17  1  0.00000000  0.00000000  0.50000000  1
  Se  Se18  1  0.50000000  0.50000000  0.83337973  1
  Se  Se19  1  0.50000000  0.00000000  0.99962703  1
  Se  Se20  1  0.00000000  0.50000000  0.66629723  1
  Se  Se21  1  -0.00000000  0.00000000  0.83367950  1
  Se  Se22  1  0.00000000  0.50000000  0.00037297  1
