# generated using pymatgen
data_Co7(AsO6)2
_symmetry_space_group_name_H-M   'P 1'
_cell_length_a   5.91170370
_cell_length_b   8.59864184
_cell_length_c   10.52008744
_cell_angle_alpha   114.12177184
_cell_angle_beta   106.31823569
_cell_angle_gamma   89.99999998
_symmetry_Int_Tables_number   1
_chemical_formula_structural   Co7(AsO6)2
_chemical_formula_sum   'Co14 As4 O24'
_cell_volume   464.36378375
_cell_formula_units_Z   2
loop_
 _symmetry_equiv_pos_site_id
 _symmetry_equiv_pos_as_xyz
  1  'x, y, z'
loop_
 _atom_site_type_symbol
 _atom_site_label
 _atom_site_symmetry_multiplicity
 _atom_site_fract_x
 _atom_site_fract_y
 _atom_site_fract_z
 _atom_site_occupancy
  O  O0  1  0.20602997  0.42882359  0.85075624  1
  O  O1  1  0.35527319  0.57117616  0.14924362  1
  O  O2  1  0.29397150  0.07806830  0.14924465  1
  O  O3  1  0.14472659  0.92193276  0.85075635  1
  O  O4  1  0.79397098  0.57117616  0.14924442  1
  O  O5  1  0.64472598  0.42882359  0.85075581  1
  O  O6  1  0.70602967  0.92193276  0.85075647  1
  O  O7  1  0.85527281  0.07806830  0.14924449  1
  O  O8  1  0.00737478  0.74246572  0.50000029  1
  O  O9  1  0.50737578  0.25753533  0.50000025  1
  O  O10  1  0.49262540  0.74246573  0.49999991  1
  O  O11  1  0.99262462  0.25753534  0.49999960  1
  O  O12  1  0.67167605  0.40666928  0.34335117  1
  O  O13  1  0.32832490  0.59333047  0.65664853  1
  O  O14  1  0.82832486  0.56331729  0.65664855  1
  O  O15  1  0.17167608  0.43668247  0.34335116  1
  O  O16  1  0.49158272  0.27302125  0.98316668  1
  O  O17  1  0.50841645  0.72697850  0.01683369  1
  O  O18  1  0.83086449  0.04967248  0.66172784  1
  O  O19  1  0.16913668  0.95032858  0.33827233  1
  O  O20  1  0.66913622  0.88794497  0.33827302  1
  O  O21  1  0.00841704  0.78985454  0.01683312  1
  O  O22  1  0.99158390  0.21014521  0.98316658  1
  O  O23  1  0.33086318  0.11205609  0.66172782  1
  Co  Co24  1  0.66448513  0.64436231  0.32896922  1
  Co  Co25  1  0.33551581  0.35563744  0.67103143  1
  Co  Co26  1  0.83551478  0.81539364  0.67103045  1
  Co  Co27  1  0.16448439  0.18460612  0.32896897  1
  Co  Co28  1  0.33846886  0.83846874  0.17693814  1
  Co  Co29  1  0.16153076  0.16153101  0.82306240  1
  Co  Co30  1  0.66153031  0.16153101  0.82306224  1
  Co  Co31  1  0.83846841  0.83846874  0.17693798  1
  Co  Co32  1  0.49999997  0.99999993  0.49999955  1
  Co  Co33  1  0.07235007  0.44485384  0.14469988  1
  Co  Co34  1  0.42764969  0.80015452  0.85529959  1
  Co  Co35  1  0.57234948  0.19984524  0.14469983  1
  Co  Co36  1  0.92765087  0.55514592  0.85529983  1
  Co  Co37  1  0.00000043  0.99999993  0.49999970  1
  As  As38  1  0.00000000  0.00000000  0.00000000  1
  As  As39  1  0.50000016  0.50000060  0.00000038  1
  As  As40  1  0.74999985  0.37181532  0.49999983  1
  As  As41  1  0.24999933  0.62818444  0.49999960  1
