# generated using pymatgen
data_TlMoPO6
_symmetry_space_group_name_H-M   'P 1'
_cell_length_a   8.48052973
_cell_length_b   8.48052972
_cell_length_c   9.74391858
_cell_angle_alpha   111.98890254
_cell_angle_beta   111.98890249
_cell_angle_gamma   98.02385008
_symmetry_Int_Tables_number   1
_chemical_formula_structural   TlMoPO6
_chemical_formula_sum   'Tl4 Mo4 P4 O24'
_cell_volume   569.73885266
_cell_formula_units_Z   4
loop_
 _symmetry_equiv_pos_site_id
 _symmetry_equiv_pos_as_xyz
  1  'x, y, z'
loop_
 _atom_site_type_symbol
 _atom_site_label
 _atom_site_symmetry_multiplicity
 _atom_site_fract_x
 _atom_site_fract_y
 _atom_site_fract_z
 _atom_site_occupancy
  O  O0  1  0.60194927  0.68433685  0.40897970  1
  O  O1  1  0.27535734  0.69297011  0.09102005  1
  O  O2  1  0.31566303  0.39804960  0.09102028  1
  O  O3  1  0.30703005  0.72464259  0.40898037  1
  O  O4  1  0.39804980  0.31566307  0.59102042  1
  O  O5  1  0.72464300  0.30702982  0.90898048  1
  O  O6  1  0.68433731  0.60195033  0.90898025  1
  O  O7  1  0.69297029  0.27535734  0.59102016  1
  O  O8  1  0.66846619  0.53133251  0.13288931  1
  O  O9  1  0.39844297  0.03557663  0.36711130  1
  O  O10  1  0.46866867  0.33153490  0.36711180  1
  O  O11  1  0.96442386  0.60155725  0.13288932  1
  O  O12  1  0.91042481  0.05283522  0.60194415  1
  O  O13  1  0.45089106  0.80848033  0.89805618  1
  O  O14  1  0.94716422  0.08957570  0.89805633  1
  O  O15  1  0.19151987  0.54910796  0.60194407  1
  O  O16  1  0.08957553  0.94716471  0.39805638  1
  O  O17  1  0.54910800  0.19151959  0.10194394  1
  O  O18  1  0.33153459  0.46866876  0.86711179  1
  O  O19  1  0.80848046  0.45089196  0.39805646  1
  O  O20  1  0.03557648  0.39844267  0.86711121  1
  O  O21  1  0.53133167  0.66846503  0.63288873  1
  O  O22  1  0.60155737  0.96442330  0.63288923  1
  O  O23  1  0.05283485  0.91042422  0.10194378  1
  P  P24  1  0.50672699  0.75672691  0.51345456  1
  P  P25  1  0.24327307  0.49327297  0.98654592  1
  P  P26  1  0.49327335  0.24327302  0.48654597  1
  P  P27  1  0.75672727  0.50672696  0.01345461  1
  Mo  Mo28  1  0.59253764  0.40746240  0.25000020  1
  Mo  Mo29  1  0.15746178  0.84253785  0.25000007  1
  Mo  Mo30  1  0.84253728  0.15746207  0.75000004  1
  Mo  Mo31  1  0.40746143  0.59253752  0.74999991  1
  Tl  Tl32  1  0.08082672  0.33082675  0.25000025  1
  Tl  Tl33  1  0.66917271  0.91917349  0.25000003  1
  Tl  Tl34  1  0.91917362  0.66917317  0.75000028  1
  Tl  Tl35  1  0.33082636  0.08082643  0.75000009  1
