# generated using pymatgen
data_RbMoAsO6
_symmetry_space_group_name_H-M   'P 1'
_cell_length_a   8.67038623
_cell_length_b   8.67038622
_cell_length_c   10.04162214
_cell_angle_alpha   111.77155799
_cell_angle_beta   111.77155797
_cell_angle_gamma   98.09802823
_symmetry_Int_Tables_number   1
_chemical_formula_structural   RbMoAsO6
_chemical_formula_sum   'Rb4 Mo4 As4 O24'
_cell_volume   616.17012598
_cell_formula_units_Z   4
loop_
 _symmetry_equiv_pos_site_id
 _symmetry_equiv_pos_as_xyz
  1  'x, y, z'
loop_
 _atom_site_type_symbol
 _atom_site_label
 _atom_site_symmetry_multiplicity
 _atom_site_fract_x
 _atom_site_fract_y
 _atom_site_fract_z
 _atom_site_occupancy
  O  O0  1  0.04858794  0.90971503  0.10535918  1
  O  O1  1  0.80435579  0.44322940  0.39464063  1
  O  O2  1  0.09028482  0.95141126  0.39463980  1
  O  O3  1  0.55677115  0.19564521  0.10535915  1
  O  O4  1  0.95141200  0.09028580  0.89464085  1
  O  O5  1  0.19564539  0.55677145  0.60535981  1
  O  O6  1  0.90971470  0.04858826  0.60535968  1
  O  O7  1  0.44322879  0.80435562  0.89464088  1
  O  O8  1  0.97961053  0.60410424  0.14188682  1
  O  O9  1  0.46221790  0.33772388  0.35811324  1
  O  O10  1  0.39589523  0.02038980  0.35811340  1
  O  O11  1  0.66227652  0.53778213  0.14188718  1
  O  O12  1  0.68199488  0.61378864  0.90223530  1
  O  O13  1  0.71155400  0.27975896  0.59776404  1
  O  O14  1  0.38621075  0.31800504  0.59776477  1
  O  O15  1  0.72024040  0.28844586  0.90223500  1
  O  O16  1  0.31800463  0.38621088  0.09776418  1
  O  O17  1  0.28844677  0.72024057  0.40223584  1
  O  O18  1  0.02038899  0.39589529  0.85811266  1
  O  O19  1  0.27975911  0.71155366  0.09776448  1
  O  O20  1  0.33772300  0.46221739  0.85811330  1
  O  O21  1  0.60410470  0.97961104  0.64188663  1
  O  O22  1  0.53778162  0.66227564  0.64188624  1
  O  O23  1  0.61378877  0.68199448  0.40223571  1
  As  As24  1  0.50477629  0.75477644  0.50955222  1
  As  As25  1  0.24522433  0.49522390  0.99044838  1
  As  As26  1  0.75477644  0.50477563  0.00955250  1
  As  As27  1  0.49522365  0.24522439  0.49044782  1
  Rb  Rb28  1  0.07572501  0.32572513  0.24999988  1
  Rb  Rb29  1  0.92427492  0.67427571  0.75000015  1
  Rb  Rb30  1  0.32572489  0.07572485  0.75000026  1
  Rb  Rb31  1  0.67427462  0.92427467  0.24999922  1
  Mo  Mo32  1  0.15444869  0.84555161  0.24999974  1
  Mo  Mo33  1  0.59555095  0.40444818  0.24999937  1
  Mo  Mo34  1  0.84555125  0.15444922  0.75000029  1
  Mo  Mo35  1  0.40444857  0.59555134  0.75000011  1
