# generated using pymatgen
data_MnPH2O5
_symmetry_space_group_name_H-M   'P 1'
_cell_length_a   5.17919237
_cell_length_b   5.17919237
_cell_length_c   7.54037981
_cell_angle_alpha   104.18727985
_cell_angle_beta   104.18727981
_cell_angle_gamma   96.61414604
_symmetry_Int_Tables_number   1
_chemical_formula_structural   MnPH2O5
_chemical_formula_sum   'Mn2 P2 H4 O10'
_cell_volume   186.77956086
_cell_formula_units_Z   2
loop_
 _symmetry_equiv_pos_site_id
 _symmetry_equiv_pos_as_xyz
  1  'x, y, z'
loop_
 _atom_site_type_symbol
 _atom_site_label
 _atom_site_symmetry_multiplicity
 _atom_site_fract_x
 _atom_site_fract_y
 _atom_site_fract_z
 _atom_site_occupancy
  H  H0  1  0.88303175  0.93487446  0.29456504  1
  H  H1  1  0.06512554  0.11696825  0.20543496  1
  H  H2  1  0.11696825  0.06512554  0.70543496  1
  H  H3  1  0.93487446  0.88303175  0.79456504  1
  O  O4  1  0.34788184  0.72694587  0.09906765  1
  O  O5  1  0.27305413  0.65211816  0.40093235  1
  O  O6  1  0.65211816  0.27305413  0.90093235  1
  O  O7  1  0.72694587  0.34788184  0.59906765  1
  O  O8  1  0.73866393  0.65746737  0.34311857  1
  O  O9  1  0.34253263  0.26133607  0.15688143  1
  O  O10  1  0.26133607  0.34253263  0.65688143  1
  O  O11  1  0.65746737  0.73866393  0.84311857  1
  O  O12  1  0.10143258  0.89856742  0.75000000  1
  O  O13  1  0.89856742  0.10143258  0.25000000  1
  P  P14  1  0.42601370  0.57398630  0.25000000  1
  P  P15  1  0.57398630  0.42601370  0.75000000  1
  Mn  Mn16  1  0.00000000  0.50000000  0.50000000  1
  Mn  Mn17  1  0.50000000  0.00000000  0.00000000  1
