# generated using pymatgen
data_K3TlF6
_symmetry_space_group_name_H-M   'P 1'
_cell_length_a   13.11316305
_cell_length_b   13.11316265
_cell_length_c   13.11316198
_cell_angle_alpha   59.99999949
_cell_angle_beta   60.00000051
_cell_angle_gamma   60.00000183
_symmetry_Int_Tables_number   1
_chemical_formula_structural   K3TlF6
_chemical_formula_sum   'K24 Tl8 F48'
_cell_volume   1594.43692447
_cell_formula_units_Z   8
loop_
 _symmetry_equiv_pos_site_id
 _symmetry_equiv_pos_as_xyz
  1  'x, y, z'
loop_
 _atom_site_type_symbol
 _atom_site_label
 _atom_site_symmetry_multiplicity
 _atom_site_fract_x
 _atom_site_fract_y
 _atom_site_fract_z
 _atom_site_occupancy
  K  K0  1  0.12500000  0.12500000  0.12500000  1
  K  K1  1  0.87500000  0.87500000  0.87500000  1
  K  K2  1  0.62500000  0.62500000  0.62500000  1
  K  K3  1  0.37500000  0.37500000  0.37500000  1
  K  K4  1  0.25030513  0.25030513  0.25030513  1
  K  K5  1  0.74908362  0.25030513  0.25030513  1
  K  K6  1  0.25030513  0.74908362  0.25030513  1
  K  K7  1  0.25030513  0.25030513  0.74908362  1
  K  K8  1  0.74969487  0.74969487  0.74969487  1
  K  K9  1  0.25091638  0.74969487  0.74969487  1
  K  K10  1  0.74969487  0.25091638  0.74969487  1
  K  K11  1  0.74969487  0.74969487  0.25091638  1
  K  K12  1  0.87550547  0.37449453  0.37449453  1
  K  K13  1  0.37449453  0.87550547  0.37449453  1
  K  K14  1  0.37449453  0.37449453  0.87550547  1
  K  K15  1  0.87550547  0.87550547  0.37449453  1
  K  K16  1  0.87550547  0.37449453  0.87550547  1
  K  K17  1  0.37449453  0.87550547  0.87550547  1
  K  K18  1  0.12449453  0.62550547  0.62550547  1
  K  K19  1  0.62550547  0.12449453  0.62550547  1
  K  K20  1  0.62550547  0.62550547  0.12449453  1
  K  K21  1  0.12449453  0.12449453  0.62550547  1
  K  K22  1  0.12449453  0.62550547  0.12449453  1
  K  K23  1  0.62550547  0.12449453  0.12449453  1
  Tl  Tl24  1  0.00000000  0.00000000  0.00000000  1
  Tl  Tl25  1  0.50000000  0.00000000  0.00000000  1
  Tl  Tl26  1  0.00000000  0.50000000  0.00000000  1
  Tl  Tl27  1  0.00000000  0.00000000  0.50000000  1
  Tl  Tl28  1  0.50000000  0.50000000  0.50000000  1
  Tl  Tl29  1  0.00000000  0.50000000  0.50000000  1
  Tl  Tl30  1  0.50000000  0.00000000  0.50000000  1
  Tl  Tl31  1  0.50000000  0.50000000  0.00000000  1
  F  F32  1  0.89276477  0.06559145  0.16204919  1
  F  F33  1  0.16204919  0.89276477  0.06559145  1
  F  F34  1  0.06559145  0.16204919  0.89276477  1
  F  F35  1  0.37959458  0.89276477  0.16204919  1
  F  F36  1  0.06559145  0.37959458  0.16204919  1
  F  F37  1  0.37959458  0.06559145  0.89276477  1
  F  F38  1  0.16204919  0.06559145  0.37959458  1
  F  F39  1  0.89276477  0.16204919  0.37959458  1
  F  F40  1  0.89276477  0.37959458  0.06559145  1
  F  F41  1  0.16204919  0.37959458  0.89276477  1
  F  F42  1  0.37959458  0.16204919  0.06559145  1
  F  F43  1  0.06559145  0.89276477  0.37959458  1
  F  F44  1  0.10723523  0.93440855  0.83795081  1
  F  F45  1  0.83795081  0.10723523  0.93440855  1
  F  F46  1  0.93440855  0.83795081  0.10723523  1
  F  F47  1  0.62040542  0.10723523  0.83795081  1
  F  F48  1  0.93440855  0.62040542  0.83795081  1
  F  F49  1  0.62040542  0.93440855  0.10723523  1
  F  F50  1  0.83795081  0.93440855  0.62040542  1
  F  F51  1  0.10723523  0.83795081  0.62040542  1
  F  F52  1  0.10723523  0.62040542  0.93440855  1
  F  F53  1  0.83795081  0.62040542  0.10723523  1
  F  F54  1  0.62040542  0.83795081  0.93440855  1
  F  F55  1  0.93440855  0.10723523  0.62040542  1
  F  F56  1  0.39344697  0.56395222  0.66311064  1
  F  F57  1  0.66311064  0.39344697  0.56395222  1
  F  F58  1  0.56395222  0.66311064  0.39344697  1
  F  F59  1  0.87949117  0.39344697  0.66311064  1
  F  F60  1  0.56395222  0.87949117  0.66311064  1
  F  F61  1  0.87949117  0.56395222  0.39344697  1
  F  F62  1  0.66311064  0.56395222  0.87949117  1
  F  F63  1  0.39344697  0.66311064  0.87949117  1
  F  F64  1  0.39344697  0.87949117  0.56395222  1
  F  F65  1  0.66311064  0.87949117  0.39344697  1
  F  F66  1  0.87949117  0.66311064  0.56395222  1
  F  F67  1  0.56395222  0.39344697  0.87949117  1
  F  F68  1  0.60655303  0.43604778  0.33688936  1
  F  F69  1  0.33688936  0.60655303  0.43604778  1
  F  F70  1  0.43604778  0.33688936  0.60655303  1
  F  F71  1  0.12050883  0.60655303  0.33688936  1
  F  F72  1  0.43604778  0.12050883  0.33688936  1
  F  F73  1  0.12050883  0.43604778  0.60655303  1
  F  F74  1  0.33688936  0.43604778  0.12050883  1
  F  F75  1  0.60655303  0.33688936  0.12050883  1
  F  F76  1  0.60655303  0.12050883  0.43604778  1
  F  F77  1  0.33688936  0.12050883  0.60655303  1
  F  F78  1  0.12050883  0.33688936  0.43604778  1
  F  F79  1  0.43604778  0.60655303  0.12050883  1
