# generated using pymatgen
data_Zr3N4
_symmetry_space_group_name_H-M   'P 1'
_cell_length_a   3.30168681
_cell_length_b   9.90464898
_cell_length_c   10.90065386
_cell_angle_alpha   90.00000000
_cell_angle_beta   90.00000000
_cell_angle_gamma   90.00000000
_symmetry_Int_Tables_number   1
_chemical_formula_structural   Zr3N4
_chemical_formula_sum   'Zr12 N16'
_cell_volume   356.47371552
_cell_formula_units_Z   4
loop_
 _symmetry_equiv_pos_site_id
 _symmetry_equiv_pos_as_xyz
  1  'x, y, z'
loop_
 _atom_site_type_symbol
 _atom_site_label
 _atom_site_symmetry_multiplicity
 _atom_site_fract_x
 _atom_site_fract_y
 _atom_site_fract_z
 _atom_site_occupancy
  N  N0  1  0.25000000  0.89715346  0.47129678  1
  N  N1  1  0.75000000  0.10284654  0.52870322  1
  N  N2  1  0.25000000  0.39715346  0.02870322  1
  N  N3  1  0.75000000  0.60284654  0.97129678  1
  N  N4  1  0.25000000  0.50626987  0.27453767  1
  N  N5  1  0.75000000  0.49373013  0.72546233  1
  N  N6  1  0.25000000  0.00626987  0.22546233  1
  N  N7  1  0.75000000  0.99373013  0.77453767  1
  N  N8  1  0.25000000  0.35685302  0.51799896  1
  N  N9  1  0.75000000  0.64314698  0.48200104  1
  N  N10  1  0.25000000  0.85685302  0.98200104  1
  N  N11  1  0.75000000  0.14314698  0.01799896  1
  N  N12  1  0.75000000  0.23694033  0.28535878  1
  N  N13  1  0.25000000  0.76305967  0.71464122  1
  N  N14  1  0.75000000  0.73694033  0.21464122  1
  N  N15  1  0.25000000  0.26305967  0.78535878  1
  Zr  Zr16  1  0.25000000  0.22946212  0.14685742  1
  Zr  Zr17  1  0.75000000  0.77053788  0.85314258  1
  Zr  Zr18  1  0.25000000  0.72946212  0.35314258  1
  Zr  Zr19  1  0.75000000  0.27053788  0.64685742  1
  Zr  Zr20  1  0.25000000  0.10714349  0.40656967  1
  Zr  Zr21  1  0.75000000  0.89285651  0.59343033  1
  Zr  Zr22  1  0.25000000  0.60714349  0.09343033  1
  Zr  Zr23  1  0.75000000  0.39285651  0.90656967  1
  Zr  Zr24  1  0.25000000  0.06967565  0.87539224  1
  Zr  Zr25  1  0.75000000  0.93032435  0.12460776  1
  Zr  Zr26  1  0.25000000  0.56967565  0.62460776  1
  Zr  Zr27  1  0.75000000  0.43032435  0.37539224  1
