# generated using pymatgen
data_As(S2F3)2
_symmetry_space_group_name_H-M   'P 1'
_cell_length_a   13.69459372
_cell_length_b   15.46688046
_cell_length_c   16.65527734
_cell_angle_alpha   107.92047662
_cell_angle_beta   90.00000000
_cell_angle_gamma   90.00000000
_symmetry_Int_Tables_number   1
_chemical_formula_structural   As(S2F3)2
_chemical_formula_sum   'As16 S64 F96'
_cell_volume   3356.64542531
_cell_formula_units_Z   16
loop_
 _symmetry_equiv_pos_site_id
 _symmetry_equiv_pos_as_xyz
  1  'x, y, z'
loop_
 _atom_site_type_symbol
 _atom_site_label
 _atom_site_symmetry_multiplicity
 _atom_site_fract_x
 _atom_site_fract_y
 _atom_site_fract_z
 _atom_site_occupancy
  F  F0  1  0.96233465  0.39041891  0.53007491  1
  F  F1  1  0.46233465  0.60958109  0.96992509  1
  F  F2  1  0.03766535  0.60958109  0.46992509  1
  F  F3  1  0.53766535  0.39041891  0.03007491  1
  F  F4  1  0.86577570  0.25040536  0.52705029  1
  F  F5  1  0.36577570  0.74959464  0.97294971  1
  F  F6  1  0.13422430  0.74959464  0.47294971  1
  F  F7  1  0.63422430  0.25040536  0.02705029  1
  F  F8  1  0.88411407  0.37885251  0.66302295  1
  F  F9  1  0.38411407  0.62114749  0.83697705  1
  F  F10  1  0.11588593  0.62114749  0.33697705  1
  F  F11  1  0.61588593  0.37885251  0.16302295  1
  F  F12  1  0.04726009  0.24010361  0.51210278  1
  F  F13  1  0.54726009  0.75989639  0.98789722  1
  F  F14  1  0.95273991  0.75989639  0.48789722  1
  F  F15  1  0.45273991  0.24010361  0.01210278  1
  F  F16  1  0.06733251  0.36904603  0.64627886  1
  F  F17  1  0.56733251  0.63095397  0.85372114  1
  F  F18  1  0.93266749  0.63095397  0.35372114  1
  F  F19  1  0.43266749  0.36904603  0.14627886  1
  F  F20  1  0.96841545  0.23174453  0.64537461  1
  F  F21  1  0.46841545  0.76825547  0.85462539  1
  F  F22  1  0.03158455  0.76825547  0.35462539  1
  F  F23  1  0.53158455  0.23174453  0.14537461  1
  F  F24  1  0.94747777  0.99014856  0.14578071  1
  F  F25  1  0.44747777  0.00985144  0.35421929  1
  F  F26  1  0.05252223  0.00985144  0.85421929  1
  F  F27  1  0.55252223  0.99014856  0.64578071  1
  F  F28  1  0.84219296  0.04044348  0.27618429  1
  F  F29  1  0.34219296  0.95955652  0.22381571  1
  F  F30  1  0.15780704  0.95955652  0.72381571  1
  F  F31  1  0.65780704  0.04044348  0.77618429  1
  F  F32  1  0.08306261  0.95162705  0.23112940  1
  F  F33  1  0.58306261  0.04837295  0.26887060  1
  F  F34  1  0.91693739  0.04837295  0.76887060  1
  F  F35  1  0.41693739  0.95162705  0.73112940  1
  F  F36  1  0.91488538  0.88393291  0.23006515  1
  F  F37  1  0.41488538  0.11606709  0.26993485  1
  F  F38  1  0.08511462  0.11606709  0.76993485  1
  F  F39  1  0.58511462  0.88393291  0.73006515  1
  F  F40  1  0.00933332  0.10777803  0.27612530  1
  F  F41  1  0.50933332  0.89222197  0.22387470  1
  F  F42  1  0.99066668  0.89222197  0.72387470  1
  F  F43  1  0.49066668  0.10777803  0.77612530  1
  F  F44  1  0.97786304  0.00088937  0.36061196  1
  F  F45  1  0.47786304  0.99911063  0.13938804  1
  F  F46  1  0.02213696  0.99911063  0.63938804  1
  F  F47  1  0.52213696  0.00088937  0.86061196  1
  F  F48  1  0.99824389  0.15934611  0.06775891  1
  F  F49  1  0.49824389  0.84065389  0.43224109  1
  F  F50  1  0.00175611  0.84065389  0.93224109  1
  F  F51  1  0.50175611  0.15934611  0.56775891  1
  F  F52  1  0.84006299  0.23954207  0.11981257  1
  F  F53  1  0.34006299  0.76045793  0.38018743  1
  F  F54  1  0.15993701  0.76045793  0.88018743  1
  F  F55  1  0.65993701  0.23954207  0.61981257  1
  F  F56  1  0.89053798  0.20737552  0.96777984  1
  F  F57  1  0.39053798  0.79262448  0.53222016  1
  F  F58  1  0.10946202  0.79262448  0.03222016  1
  F  F59  1  0.60946202  0.20737552  0.46777984  1
  F  F60  1  0.99927511  0.32065924  0.16601163  1
  F  F61  1  0.49927511  0.67934076  0.33398837  1
  F  F62  1  0.00072489  0.67934076  0.83398837  1
  F  F63  1  0.50072489  0.32065924  0.66601163  1
  F  F64  1  0.05044928  0.28767360  0.01485552  1
  F  F65  1  0.55044928  0.71232640  0.48514448  1
  F  F66  1  0.94955072  0.71232640  0.98514448  1
  F  F67  1  0.44955072  0.28767360  0.51485552  1
  F  F68  1  0.89232432  0.36768168  0.06445087  1
  F  F69  1  0.39232432  0.63231832  0.43554913  1
  F  F70  1  0.10767568  0.63231832  0.93554913  1
  F  F71  1  0.60767568  0.36768168  0.56445087  1
  F  F72  1  0.78865249  0.74707028  0.66096142  1
  F  F73  1  0.28865249  0.25292972  0.83903858  1
  F  F74  1  0.21134751  0.25292972  0.33903858  1
  F  F75  1  0.71134751  0.74707028  0.16096142  1
  F  F76  1  0.89944506  0.61195662  0.63064082  1
  F  F77  1  0.39944506  0.38804338  0.86935918  1
  F  F78  1  0.10055494  0.38804338  0.36935918  1
  F  F79  1  0.60055494  0.61195662  0.13064082  1
  F  F80  1  0.77371043  0.63719600  0.74534525  1
  F  F81  1  0.27371043  0.36280400  0.75465475  1
  F  F82  1  0.22628957  0.36280400  0.25465475  1
  F  F83  1  0.72628957  0.63719600  0.24534525  1
  F  F84  1  0.76806398  0.61755506  0.52571669  1
  F  F85  1  0.26806398  0.38244494  0.97428331  1
  F  F86  1  0.23193602  0.38244494  0.47428331  1
  F  F87  1  0.73193602  0.61755506  0.02571669  1
  F  F88  1  0.64321694  0.64485335  0.64118342  1
  F  F89  1  0.14321694  0.35514665  0.85881658  1
  F  F90  1  0.35678306  0.35514665  0.35881658  1
  F  F91  1  0.85678306  0.64485335  0.14118342  1
  F  F92  1  0.75318875  0.50914428  0.61072003  1
  F  F93  1  0.25318875  0.49085572  0.88927997  1
  F  F94  1  0.24681125  0.49085572  0.38927997  1
  F  F95  1  0.74681125  0.50914428  0.11072003  1
  S  S96  1  0.82255053  0.83198613  0.36305220  1
  S  S97  1  0.32255053  0.16801387  0.13694780  1
  S  S98  1  0.17744947  0.16801387  0.63694780  1
  S  S99  1  0.67744947  0.83198613  0.86305220  1
  S  S100  1  0.69764552  0.88335304  0.32606753  1
  S  S101  1  0.19764552  0.11664696  0.17393247  1
  S  S102  1  0.30235448  0.11664696  0.67393247  1
  S  S103  1  0.80235448  0.88335304  0.82606753  1
  S  S104  1  0.65583773  0.98320358  0.43285076  1
  S  S105  1  0.15583773  0.01679642  0.06714924  1
  S  S106  1  0.34416227  0.01679642  0.56714924  1
  S  S107  1  0.84416227  0.98320358  0.93285076  1
  S  S108  1  0.78111670  0.05496831  0.47671455  1
  S  S109  1  0.28111670  0.94503169  0.02328545  1
  S  S110  1  0.21888330  0.94503169  0.52328545  1
  S  S111  1  0.71888330  0.05496831  0.97671455  1
  S  S112  1  0.77341862  0.05623911  0.59991138  1
  S  S113  1  0.27341862  0.94376089  0.90008862  1
  S  S114  1  0.22658138  0.94376089  0.40008862  1
  S  S115  1  0.72658138  0.05623911  0.09991138  1
  S  S116  1  0.82508608  0.92591507  0.57861164  1
  S  S117  1  0.32508608  0.07408493  0.92138836  1
  S  S118  1  0.17491392  0.07408493  0.42138836  1
  S  S119  1  0.67491392  0.92591507  0.07861164  1
  S  S120  1  0.69896354  0.85570537  0.53374163  1
  S  S121  1  0.19896354  0.14429463  0.96625837  1
  S  S122  1  0.30103646  0.14429463  0.46625837  1
  S  S123  1  0.80103646  0.85570537  0.03374163  1
  S  S124  1  0.73980175  0.76093834  0.42363608  1
  S  S125  1  0.23980175  0.23906166  0.07636392  1
  S  S126  1  0.26019825  0.23906166  0.57636392  1
  S  S127  1  0.76019825  0.76093834  0.92363608  1
  S  S128  1  0.86389269  0.45654726  0.93212913  1
  S  S129  1  0.36389269  0.54345274  0.56787087  1
  S  S130  1  0.13610731  0.54345274  0.06787087  1
  S  S131  1  0.63610731  0.45654726  0.43212913  1
  S  S132  1  0.93205507  0.34674687  0.84726572  1
  S  S133  1  0.43205507  0.65325313  0.65273428  1
  S  S134  1  0.06794493  0.65325313  0.15273428  1
  S  S135  1  0.56794493  0.34674687  0.34726572  1
  S  S136  1  0.81508845  0.27334167  0.78641517  1
  S  S137  1  0.31508845  0.72665833  0.71358483  1
  S  S138  1  0.18491155  0.72665833  0.21358483  1
  S  S139  1  0.68491155  0.27334167  0.28641517  1
  S  S140  1  0.72324456  0.26693702  0.88204994  1
  S  S141  1  0.22324456  0.73306298  0.61795006  1
  S  S142  1  0.27675544  0.73306298  0.11795006  1
  S  S143  1  0.77675544  0.26693702  0.38204994  1
  S  S144  1  0.59457031  0.29506819  0.83207534  1
  S  S145  1  0.09457031  0.70493181  0.66792466  1
  S  S146  1  0.40542969  0.70493181  0.16792466  1
  S  S147  1  0.90542969  0.29506819  0.33207534  1
  S  S148  1  0.62032371  0.43352140  0.87237055  1
  S  S149  1  0.12032371  0.56647860  0.62762945  1
  S  S150  1  0.37967629  0.56647860  0.12762945  1
  S  S151  1  0.87967629  0.43352140  0.37237055  1
  S  S152  1  0.71450437  0.44013560  0.77919382  1
  S  S153  1  0.21450437  0.55986440  0.72080618  1
  S  S154  1  0.28549563  0.55986440  0.22080618  1
  S  S155  1  0.78549563  0.44013560  0.27919382  1
  S  S156  1  0.83021955  0.51690605  0.84164298  1
  S  S157  1  0.33021955  0.48309395  0.65835702  1
  S  S158  1  0.16978045  0.48309395  0.15835702  1
  S  S159  1  0.66978045  0.51690605  0.34164298  1
  As  As160  1  0.96602067  0.31133654  0.58687337  1
  As  As161  1  0.46602067  0.68866346  0.91312663  1
  As  As162  1  0.03397933  0.68866346  0.41312663  1
  As  As163  1  0.53397933  0.31133654  0.08687337  1
  As  As164  1  0.96264569  0.99560867  0.25313336  1
  As  As165  1  0.46264569  0.00439133  0.24686664  1
  As  As166  1  0.03735431  0.00439133  0.74686664  1
  As  As167  1  0.53735431  0.99560867  0.75313336  1
  As  As168  1  0.94454283  0.26405062  0.06737032  1
  As  As169  1  0.44454283  0.73594938  0.43262968  1
  As  As170  1  0.05545717  0.73594938  0.93262968  1
  As  As171  1  0.55545717  0.26405062  0.56737032  1
  As  As172  1  0.77138000  0.62722728  0.63529068  1
  As  As173  1  0.27138000  0.37277272  0.86470932  1
  As  As174  1  0.22862000  0.37277272  0.36470932  1
  As  As175  1  0.72862000  0.62722728  0.13529068  1
