# generated using pymatgen
data_PaCl4
_symmetry_space_group_name_H-M   'P 1'
_cell_length_a   7.11413579
_cell_length_b   7.11413580
_cell_length_c   7.11413579
_cell_angle_alpha   107.25207232
_cell_angle_beta   107.25207240
_cell_angle_gamma   114.00696960
_symmetry_Int_Tables_number   1
_chemical_formula_structural   PaCl4
_chemical_formula_sum   'Pa2 Cl8'
_cell_volume   275.85549828
_cell_formula_units_Z   2
loop_
 _symmetry_equiv_pos_site_id
 _symmetry_equiv_pos_as_xyz
  1  'x, y, z'
loop_
 _atom_site_type_symbol
 _atom_site_label
 _atom_site_symmetry_multiplicity
 _atom_site_fract_x
 _atom_site_fract_y
 _atom_site_fract_z
 _atom_site_occupancy
  Cl  Cl0  1  0.19348510  0.25529836  0.56181327  1
  Cl  Cl1  1  0.63167183  0.19348510  0.43818673  1
  Cl  Cl2  1  0.36832817  0.80651490  0.56181327  1
  Cl  Cl3  1  0.80651490  0.74470164  0.43818673  1
  Cl  Cl4  1  0.80651490  0.36832817  0.06181327  1
  Cl  Cl5  1  0.74470164  0.80651490  0.93818673  1
  Cl  Cl6  1  0.19348510  0.63167183  0.93818673  1
  Cl  Cl7  1  0.25529836  0.19348510  0.06181327  1
  Pa  Pa8  1  0.87500000  0.12500000  0.75000000  1
  Pa  Pa9  1  0.12500000  0.87500000  0.25000000  1
