# generated using pymatgen
data_K3InF6
_symmetry_space_group_name_H-M   'P 1'
_cell_length_a   12.91963543
_cell_length_b   12.91963477
_cell_length_c   12.91963518
_cell_angle_alpha   59.99999894
_cell_angle_beta   60.00000064
_cell_angle_gamma   59.99999873
_symmetry_Int_Tables_number   1
_chemical_formula_structural   K3InF6
_chemical_formula_sum   'K24 In8 F48'
_cell_volume   1524.88025913
_cell_formula_units_Z   8
loop_
 _symmetry_equiv_pos_site_id
 _symmetry_equiv_pos_as_xyz
  1  'x, y, z'
loop_
 _atom_site_type_symbol
 _atom_site_label
 _atom_site_symmetry_multiplicity
 _atom_site_fract_x
 _atom_site_fract_y
 _atom_site_fract_z
 _atom_site_occupancy
  K  K0  1  0.12500000  0.12500000  0.12500000  1
  K  K1  1  0.87500000  0.87500000  0.87500000  1
  K  K2  1  0.62500000  0.62500000  0.62500000  1
  K  K3  1  0.37500000  0.37500000  0.37500000  1
  K  K4  1  0.24888998  0.24888998  0.24888998  1
  K  K5  1  0.75332906  0.24888998  0.24888998  1
  K  K6  1  0.24888998  0.75332906  0.24888998  1
  K  K7  1  0.24888998  0.24888998  0.75332906  1
  K  K8  1  0.75111002  0.75111002  0.75111002  1
  K  K9  1  0.24667094  0.75111002  0.75111002  1
  K  K10  1  0.75111002  0.24667094  0.75111002  1
  K  K11  1  0.75111002  0.75111002  0.24667094  1
  K  K12  1  0.87285661  0.37714339  0.37714339  1
  K  K13  1  0.37714339  0.87285661  0.37714339  1
  K  K14  1  0.37714339  0.37714339  0.87285661  1
  K  K15  1  0.87285661  0.87285661  0.37714339  1
  K  K16  1  0.87285661  0.37714339  0.87285661  1
  K  K17  1  0.37714339  0.87285661  0.87285661  1
  K  K18  1  0.12714339  0.62285661  0.62285661  1
  K  K19  1  0.62285661  0.12714339  0.62285661  1
  K  K20  1  0.62285661  0.62285661  0.12714339  1
  K  K21  1  0.12714339  0.12714339  0.62285661  1
  K  K22  1  0.12714339  0.62285661  0.12714339  1
  K  K23  1  0.62285661  0.12714339  0.12714339  1
  In  In24  1  0.00000000  0.00000000  0.00000000  1
  In  In25  1  0.50000000  0.00000000  0.00000000  1
  In  In26  1  0.00000000  0.50000000  0.00000000  1
  In  In27  1  0.00000000  0.00000000  0.50000000  1
  In  In28  1  0.50000000  0.50000000  0.50000000  1
  In  In29  1  0.00000000  0.50000000  0.50000000  1
  In  In30  1  0.50000000  0.00000000  0.50000000  1
  In  In31  1  0.50000000  0.50000000  0.00000000  1
  F  F32  1  0.89572555  0.06238468  0.15871717  1
  F  F33  1  0.15871717  0.89572555  0.06238468  1
  F  F34  1  0.06238468  0.15871717  0.89572555  1
  F  F35  1  0.38317360  0.89572555  0.15871717  1
  F  F36  1  0.06238468  0.38317360  0.15871717  1
  F  F37  1  0.38317360  0.06238468  0.89572555  1
  F  F38  1  0.15871717  0.06238468  0.38317360  1
  F  F39  1  0.89572555  0.15871717  0.38317360  1
  F  F40  1  0.89572555  0.38317360  0.06238468  1
  F  F41  1  0.15871717  0.38317360  0.89572555  1
  F  F42  1  0.38317360  0.15871717  0.06238468  1
  F  F43  1  0.06238468  0.89572555  0.38317360  1
  F  F44  1  0.10427445  0.93761532  0.84128283  1
  F  F45  1  0.84128283  0.10427445  0.93761532  1
  F  F46  1  0.93761532  0.84128283  0.10427445  1
  F  F47  1  0.61682640  0.10427445  0.84128283  1
  F  F48  1  0.93761532  0.61682640  0.84128283  1
  F  F49  1  0.61682640  0.93761532  0.10427445  1
  F  F50  1  0.84128283  0.93761532  0.61682640  1
  F  F51  1  0.10427445  0.84128283  0.61682640  1
  F  F52  1  0.10427445  0.61682640  0.93761532  1
  F  F53  1  0.84128283  0.61682640  0.10427445  1
  F  F54  1  0.61682640  0.84128283  0.93761532  1
  F  F55  1  0.93761532  0.10427445  0.61682640  1
  F  F56  1  0.39357584  0.56883241  0.65447506  1
  F  F57  1  0.65447506  0.39357584  0.56883241  1
  F  F58  1  0.56883241  0.65447506  0.39357584  1
  F  F59  1  0.88311768  0.39357584  0.65447506  1
  F  F60  1  0.56883241  0.88311768  0.65447506  1
  F  F61  1  0.88311768  0.56883241  0.39357584  1
  F  F62  1  0.65447506  0.56883241  0.88311768  1
  F  F63  1  0.39357584  0.65447506  0.88311768  1
  F  F64  1  0.39357584  0.88311768  0.56883241  1
  F  F65  1  0.65447506  0.88311768  0.39357584  1
  F  F66  1  0.88311768  0.65447506  0.56883241  1
  F  F67  1  0.56883241  0.39357584  0.88311768  1
  F  F68  1  0.60642516  0.43116759  0.34552494  1
  F  F69  1  0.34552494  0.60642516  0.43116759  1
  F  F70  1  0.43116759  0.34552494  0.60642516  1
  F  F71  1  0.11688232  0.60642516  0.34552494  1
  F  F72  1  0.43116759  0.11688232  0.34552494  1
  F  F73  1  0.11688232  0.43116759  0.60642516  1
  F  F74  1  0.34552494  0.43116759  0.11688232  1
  F  F75  1  0.60642516  0.34552494  0.11688232  1
  F  F76  1  0.60642516  0.11688232  0.43116759  1
  F  F77  1  0.34552494  0.11688232  0.60642516  1
  F  F78  1  0.11688232  0.34552494  0.43116759  1
  F  F79  1  0.43116759  0.60642516  0.11688232  1
