# generated using pymatgen
data_CaLa4Ti3RuO15
_symmetry_space_group_name_H-M   'P 1'
_cell_length_a   5.55121351
_cell_length_b   5.55155814
_cell_length_c   11.11709558
_cell_angle_alpha   90.00629882
_cell_angle_beta   90.00068357
_cell_angle_gamma   120.00195722
_symmetry_Int_Tables_number   1
_chemical_formula_structural   CaLa4Ti3RuO15
_chemical_formula_sum   'Ca1 La4 Ti3 Ru1 O15'
_cell_volume   296.69909763
_cell_formula_units_Z   1
loop_
 _symmetry_equiv_pos_site_id
 _symmetry_equiv_pos_as_xyz
  1  'x, y, z'
loop_
 _atom_site_type_symbol
 _atom_site_label
 _atom_site_symmetry_multiplicity
 _atom_site_fract_x
 _atom_site_fract_y
 _atom_site_fract_z
 _atom_site_occupancy
  Ca  Ca0  1  0.00003242  0.00001444  0.00150368  1
  La  La1  1  0.33335790  0.66667369  0.42433436  1
  La  La2  1  0.66664191  0.33331141  0.57478583  1
  La  La3  1  0.33332915  0.66668249  0.78042311  1
  La  La4  1  0.66666807  0.33333327  0.21868233  1
  Ti  Ti5  1  0.99999277  0.99999770  0.31936990  1
  Ti  Ti6  1  -0.00001553  0.00000065  0.68077288  1
  Ti  Ti7  1  0.33334697  0.66666980  0.10309630  1
  Ru  Ru8  1  0.66667304  0.33333755  0.89926095  1
  O  O9  1  0.66582202  0.83291149  0.20328888  1
  O  O10  1  0.16707511  0.83291698  0.20328524  1
  O  O11  1  0.16708545  0.33417018  0.20328680  1
  O  O12  1  0.33156619  0.16579745  0.79562197  1
  O  O13  1  0.83425111  0.16572652  0.79562584  1
  O  O14  1  0.83424154  0.66850103  0.79563700  1
  O  O15  1  0.49887572  0.50113022  0.00140914  1
  O  O16  1  0.49889111  0.99774951  0.00140402  1
  O  O17  1  0.00218771  0.50109441  0.00142126  1
  O  O18  1  0.65377179  0.82688500  0.60171572  1
  O  O19  1  0.17315497  0.82689564  0.60171312  1
  O  O20  1  0.17314558  0.34624253  0.60171822  1
  O  O21  1  0.34679668  0.17339739  0.39720834  1
  O  O22  1  0.82654747  0.17337920  0.39722056  1
  O  O23  1  0.82656083  0.65318145  0.39721452  1
