# generated using pymatgen
data_Ge19(PBr)4
_symmetry_space_group_name_H-M   'P 1'
_cell_length_a   10.57329292
_cell_length_b   10.57329292
_cell_length_c   10.57329292
_cell_angle_alpha   90.00000000
_cell_angle_beta   90.00000000
_cell_angle_gamma   90.00000000
_symmetry_Int_Tables_number   1
_chemical_formula_structural   Ge19(PBr)4
_chemical_formula_sum   'Ge38 P8 Br8'
_cell_volume   1182.03624035
_cell_formula_units_Z   2
loop_
 _symmetry_equiv_pos_site_id
 _symmetry_equiv_pos_as_xyz
  1  'x, y, z'
loop_
 _atom_site_type_symbol
 _atom_site_label
 _atom_site_symmetry_multiplicity
 _atom_site_fract_x
 _atom_site_fract_y
 _atom_site_fract_z
 _atom_site_occupancy
  P  P0  1  0.81545661  0.81545661  0.81545661  1
  P  P1  1  0.68454339  0.31545661  0.68454339  1
  P  P2  1  0.68454339  0.68454339  0.31545661  1
  P  P3  1  0.31545661  0.68454339  0.68454339  1
  P  P4  1  0.18454339  0.18454339  0.81545661  1
  P  P5  1  0.81545661  0.18454339  0.18454339  1
  P  P6  1  0.18454339  0.81545661  0.18454339  1
  P  P7  1  0.31545661  0.31545661  0.31545661  1
  Ge  Ge8  1  0.99772876  0.11847634  0.30679659  1
  Ge  Ge9  1  0.50227124  0.80679659  0.38152366  1
  Ge  Ge10  1  0.50227124  0.19320341  0.61847634  1
  Ge  Ge11  1  0.19320341  0.38152366  0.49772876  1
  Ge  Ge12  1  0.80679659  0.38152366  0.50227124  1
  Ge  Ge13  1  0.61847634  0.50227124  0.19320341  1
  Ge  Ge14  1  0.38152366  0.49772876  0.19320341  1
  Ge  Ge15  1  0.30679659  0.99772876  0.11847634  1
  Ge  Ge16  1  0.11847634  0.30679659  0.99772876  1
  Ge  Ge17  1  0.88152366  0.69320341  0.99772876  1
  Ge  Ge18  1  0.30679659  0.00227124  0.88152366  1
  Ge  Ge19  1  0.88152366  0.30679659  0.00227124  1
  Ge  Ge20  1  0.69320341  0.00227124  0.11847634  1
  Ge  Ge21  1  0.69320341  0.99772876  0.88152366  1
  Ge  Ge22  1  0.11847634  0.69320341  0.00227124  1
  Ge  Ge23  1  0.99772876  0.88152366  0.69320341  1
  Ge  Ge24  1  0.00227124  0.11847634  0.69320341  1
  Ge  Ge25  1  0.00227124  0.88152366  0.30679659  1
  Ge  Ge26  1  0.38152366  0.50227124  0.80679659  1
  Ge  Ge27  1  0.61847634  0.49772876  0.80679659  1
  Ge  Ge28  1  0.19320341  0.61847634  0.50227124  1
  Ge  Ge29  1  0.80679659  0.61847634  0.49772876  1
  Ge  Ge30  1  0.49772876  0.19320341  0.38152366  1
  Ge  Ge31  1  0.49772876  0.80679659  0.61847634  1
  Ge  Ge32  1  0.18477145  0.18477145  0.18477145  1
  Ge  Ge33  1  0.31522855  0.68477145  0.31522855  1
  Ge  Ge34  1  0.31522855  0.31522855  0.68477145  1
  Ge  Ge35  1  0.68477145  0.31522855  0.31522855  1
  Ge  Ge36  1  0.81522855  0.81522855  0.18477145  1
  Ge  Ge37  1  0.18477145  0.81522855  0.81522855  1
  Ge  Ge38  1  0.81522855  0.18477145  0.81522855  1
  Ge  Ge39  1  0.68477145  0.68477145  0.68477145  1
  Ge  Ge40  1  0.00000000  0.25000000  0.50000000  1
  Ge  Ge41  1  0.50000000  0.00000000  0.25000000  1
  Ge  Ge42  1  0.50000000  0.00000000  0.75000000  1
  Ge  Ge43  1  0.75000000  0.50000000  0.00000000  1
  Ge  Ge44  1  0.25000000  0.50000000  0.00000000  1
  Ge  Ge45  1  0.00000000  0.75000000  0.50000000  1
  Br  Br46  1  0.00000000  0.50000000  0.25000000  1
  Br  Br47  1  0.50000000  0.75000000  0.00000000  1
  Br  Br48  1  0.50000000  0.25000000  0.00000000  1
  Br  Br49  1  0.25000000  0.00000000  0.50000000  1
  Br  Br50  1  0.75000000  0.00000000  0.50000000  1
  Br  Br51  1  0.00000000  0.50000000  0.75000000  1
  Br  Br52  1  0.00000000  0.00000000  0.00000000  1
  Br  Br53  1  0.50000000  0.50000000  0.50000000  1
