# generated using pymatgen
data_Tl6SI4
_symmetry_space_group_name_H-M   'P 1'
_cell_length_a   9.48968167
_cell_length_b   9.48968167
_cell_length_c   9.93696465
_cell_angle_alpha   90.00000000
_cell_angle_beta   90.00000000
_cell_angle_gamma   90.00000000
_symmetry_Int_Tables_number   1
_chemical_formula_structural   Tl6SI4
_chemical_formula_sum   'Tl12 S2 I8'
_cell_volume   894.86399290
_cell_formula_units_Z   2
loop_
 _symmetry_equiv_pos_site_id
 _symmetry_equiv_pos_as_xyz
  1  'x, y, z'
loop_
 _atom_site_type_symbol
 _atom_site_label
 _atom_site_symmetry_multiplicity
 _atom_site_fract_x
 _atom_site_fract_y
 _atom_site_fract_z
 _atom_site_occupancy
  S  S0  1  0.00000000  0.00000000  0.50000000  1
  S  S1  1  0.50000000  0.50000000  0.00000000  1
  I  I2  1  0.16720214  0.33279786  0.75000000  1
  I  I3  1  0.66720214  0.16720214  0.75000000  1
  I  I4  1  0.33279786  0.83279786  0.75000000  1
  I  I5  1  0.83279786  0.66720214  0.75000000  1
  I  I6  1  0.83279786  0.66720214  0.25000000  1
  I  I7  1  0.33279786  0.83279786  0.25000000  1
  I  I8  1  0.66720214  0.16720214  0.25000000  1
  I  I9  1  0.16720214  0.33279786  0.25000000  1
  Tl  Tl10  1  0.69875188  0.89813582  0.50000000  1
  Tl  Tl11  1  0.30124812  0.10186418  0.50000000  1
  Tl  Tl12  1  0.60186418  0.80124812  0.00000000  1
  Tl  Tl13  1  0.10186418  0.69875188  0.50000000  1
  Tl  Tl14  1  0.89813582  0.30124812  0.50000000  1
  Tl  Tl15  1  0.19875188  0.60186418  0.00000000  1
  Tl  Tl16  1  0.80124812  0.39813582  0.00000000  1
  Tl  Tl17  1  0.39813582  0.19875188  0.00000000  1
  Tl  Tl18  1  0.00000000  0.00000000  0.79248634  1
  Tl  Tl19  1  0.50000000  0.50000000  0.70751366  1
  Tl  Tl20  1  0.00000000  0.00000000  0.20751366  1
  Tl  Tl21  1  0.50000000  0.50000000  0.29248634  1
