# generated using pymatgen
data_SmBr3
_symmetry_space_group_name_H-M   'P 1'
_cell_length_a   4.05208184
_cell_length_b   7.43823010
_cell_length_c   9.24235639
_cell_angle_alpha   90.00000000
_cell_angle_beta   90.00000000
_cell_angle_gamma   105.80606645
_symmetry_Int_Tables_number   1
_chemical_formula_structural   SmBr3
_chemical_formula_sum   'Sm2 Br6'
_cell_volume   268.03467922
_cell_formula_units_Z   2
loop_
 _symmetry_equiv_pos_site_id
 _symmetry_equiv_pos_as_xyz
  1  'x, y, z'
loop_
 _atom_site_type_symbol
 _atom_site_label
 _atom_site_symmetry_multiplicity
 _atom_site_fract_x
 _atom_site_fract_y
 _atom_site_fract_z
 _atom_site_occupancy
  Br  Br0  1  0.34310958  0.68621915  0.43192562  1
  Br  Br1  1  0.65689042  0.31378085  0.56807438  1
  Br  Br2  1  0.90189257  0.80378513  0.75000000  1
  Br  Br3  1  0.09810743  0.19621487  0.25000000  1
  Br  Br4  1  0.34310958  0.68621915  0.06807438  1
  Br  Br5  1  0.65689042  0.31378085  0.93192562  1
  Sm  Sm6  1  0.74136363  0.48272725  0.25000000  1
  Sm  Sm7  1  0.25863637  0.51727275  0.75000000  1
