# generated using pymatgen
data_Zr3(Cu2Si3)2
_symmetry_space_group_name_H-M   'P 1'
_cell_length_a   3.73784716
_cell_length_b   3.73784716
_cell_length_c   14.40049616
_cell_angle_alpha   97.45698864
_cell_angle_beta   97.45698864
_cell_angle_gamma   90.00000000
_symmetry_Int_Tables_number   1
_chemical_formula_structural   Zr3(Cu2Si3)2
_chemical_formula_sum   'Zr3 Cu4 Si6'
_cell_volume   197.77869998
_cell_formula_units_Z   1
loop_
 _symmetry_equiv_pos_site_id
 _symmetry_equiv_pos_as_xyz
  1  'x, y, z'
loop_
 _atom_site_type_symbol
 _atom_site_label
 _atom_site_symmetry_multiplicity
 _atom_site_fract_x
 _atom_site_fract_y
 _atom_site_fract_z
 _atom_site_occupancy
  Zr  Zr0  1  0.00000000  0.00000000  0.00000000  1
  Zr  Zr1  1  0.67495238  0.67495238  0.34990475  1
  Zr  Zr2  1  0.32504762  0.32504762  0.65009525  1
  Cu  Cu3  1  0.40983594  0.90983594  0.81967187  1
  Cu  Cu4  1  0.90983594  0.40983594  0.81967187  1
  Cu  Cu5  1  0.59016406  0.09016406  0.18032813  1
  Cu  Cu6  1  0.09016406  0.59016406  0.18032813  1
  Si  Si7  1  0.25000000  0.75000000  0.50000000  1
  Si  Si8  1  0.75000000  0.25000000  0.50000000  1
  Si  Si9  1  0.54065948  0.54065948  0.08131896  1
  Si  Si10  1  0.45934052  0.45934052  0.91868104  1
  Si  Si11  1  0.14582141  0.14582141  0.29164281  1
  Si  Si12  1  0.85417859  0.85417859  0.70835719  1
