# generated using pymatgen
data_NdBr3
_symmetry_space_group_name_H-M   'P 1'
_cell_length_a   4.12568478
_cell_length_b   7.47985586
_cell_length_c   9.28026143
_cell_angle_alpha   90.00000000
_cell_angle_beta   90.00000000
_cell_angle_gamma   106.00888291
_symmetry_Int_Tables_number   1
_chemical_formula_structural   NdBr3
_chemical_formula_sum   'Nd2 Br6'
_cell_volume   275.27819182
_cell_formula_units_Z   2
loop_
 _symmetry_equiv_pos_site_id
 _symmetry_equiv_pos_as_xyz
  1  'x, y, z'
loop_
 _atom_site_type_symbol
 _atom_site_label
 _atom_site_symmetry_multiplicity
 _atom_site_fract_x
 _atom_site_fract_y
 _atom_site_fract_z
 _atom_site_occupancy
  Br  Br0  1  0.34326573  0.68653146  0.43263228  1
  Br  Br1  1  0.65673427  0.31346854  0.56736772  1
  Br  Br2  1  0.90261067  0.80522134  0.75000000  1
  Br  Br3  1  0.09738933  0.19477866  0.25000000  1
  Br  Br4  1  0.34326573  0.68653146  0.06736772  1
  Br  Br5  1  0.65673427  0.31346854  0.93263228  1
  Nd  Nd6  1  0.74093883  0.48187767  0.25000000  1
  Nd  Nd7  1  0.25906117  0.51812233  0.75000000  1
