# generated using pymatgen
data_Fe5GeP
_symmetry_space_group_name_H-M   'P 1'
_cell_length_a   6.76670911
_cell_length_b   6.72814800
_cell_length_c   12.45872828
_cell_angle_alpha   89.74109759
_cell_angle_beta   90.51485912
_cell_angle_gamma   120.18977153
_symmetry_Int_Tables_number   1
_chemical_formula_structural   Fe5GeP
_chemical_formula_sum   'Fe30 Ge6 P6'
_cell_volume   490.25969353
_cell_formula_units_Z   6
loop_
 _symmetry_equiv_pos_site_id
 _symmetry_equiv_pos_as_xyz
  1  'x, y, z'
loop_
 _atom_site_type_symbol
 _atom_site_label
 _atom_site_symmetry_multiplicity
 _atom_site_fract_x
 _atom_site_fract_y
 _atom_site_fract_z
 _atom_site_occupancy
  Fe  Fe0  1  0.99740657  1.00000000  0.55012734  1
  Fe  Fe1  1  0.01193616  1.00000000  0.04727337  1
  Fe  Fe2  1  0.36406180  1.00000000  0.28555086  1
  Fe  Fe3  1  0.63286797  0.63913459  0.28033912  1
  Fe  Fe4  1  0.99373339  0.36086541  0.28033912  1
  Fe  Fe5  1  0.63321984  0.00000000  0.79155407  1
  Fe  Fe6  1  0.38233884  0.37842199  0.79587290  1
  Fe  Fe7  1  0.00391685  0.62157801  0.79587290  1
  Fe  Fe8  1  0.67975956  0.00000000  0.17418464  1
  Fe  Fe9  1  0.31924348  0.33030615  0.16941570  1
  Fe  Fe10  1  0.98893733  0.66969385  0.16941570  1
  Fe  Fe11  1  0.32873748  1.00000000  0.67979120  1
  Fe  Fe12  1  0.67508672  0.67298965  0.67971431  1
  Fe  Fe13  1  0.00209707  0.32701035  0.67971431  1
  Fe  Fe14  1  0.71916786  0.00000000  0.38267666  1
  Fe  Fe15  1  0.27924165  0.28294347  0.38235296  1
  Fe  Fe16  1  0.99629818  0.71705653  0.38235296  1
  Fe  Fe17  1  0.28183666  0.00000000  0.89145355  1
  Fe  Fe18  1  0.73878352  0.73784982  0.88456200  1
  Fe  Fe19  1  0.00093370  0.26215018  0.88456200  1
  Fe  Fe20  1  0.66287964  0.33106755  0.39248384  1
  Fe  Fe21  1  0.33181209  0.66893245  0.39248384  1
  Fe  Fe22  1  0.32343543  0.65479888  0.91358445  1
  Fe  Fe23  1  0.66863656  0.34520112  0.91358445  1
  Fe  Fe24  1  0.35758706  0.00000000  0.08927042  1
  Fe  Fe25  1  0.63547461  0.61847798  0.06913059  1
  Fe  Fe26  1  0.01699664  0.38152202  0.06913059  1
  Fe  Fe27  1  0.64871430  1.00000000  0.58961014  1
  Fe  Fe28  1  0.34680062  0.34974974  0.59190588  1
  Fe  Fe29  1  0.99705088  0.65025026  0.59190588  1
  Ge  Ge30  1  0.00361564  1.00000000  0.24777329  1
  Ge  Ge31  1  0.00649897  1.00000000  0.74952368  1
  Ge  Ge32  1  0.33912830  0.00000000  0.48580621  1
  Ge  Ge33  1  0.65437370  0.65384240  0.48352255  1
  Ge  Ge34  1  0.00053130  0.34615760  0.48352255  1
  Ge  Ge35  1  0.66422801  1.00000000  0.98538823  1
  P  P36  1  0.32798631  0.33396202  0.98251115  1
  P  P37  1  0.99402429  0.66603798  0.98251115  1
  P  P38  1  0.66188365  0.33675629  0.20793678  1
  P  P39  1  0.32512735  0.66324371  0.20793678  1
  P  P40  1  0.33590051  0.66819098  0.72367593  1
  P  P41  1  0.66770953  0.33180902  0.72367593  1
