# generated using pymatgen
data_Er(PO3)3
_symmetry_space_group_name_H-M   'P 1'
_cell_length_a   7.07072867
_cell_length_b   9.77455585
_cell_length_c   11.08716216
_cell_angle_alpha   90.00000000
_cell_angle_beta   92.10376744
_cell_angle_gamma   90.00000000
_symmetry_Int_Tables_number   1
_chemical_formula_structural   Er(PO3)3
_chemical_formula_sum   'Er4 P12 O36'
_cell_volume   765.75313468
_cell_formula_units_Z   4
loop_
 _symmetry_equiv_pos_site_id
 _symmetry_equiv_pos_as_xyz
  1  'x, y, z'
loop_
 _atom_site_type_symbol
 _atom_site_label
 _atom_site_symmetry_multiplicity
 _atom_site_fract_x
 _atom_site_fract_y
 _atom_site_fract_z
 _atom_site_occupancy
  Er  Er0  1  0.34940359  0.50000000  0.92567953  1
  Er  Er1  1  0.48481022  0.50000000  0.44401384  1
  Er  Er2  1  0.86298513  0.00000000  0.48335521  1
  Er  Er3  1  0.99640551  0.00000000  0.00194415  1
  P  P4  1  0.86018931  0.50000000  0.83905513  1
  P  P5  1  0.84642170  0.78496618  0.74821068  1
  P  P6  1  0.84642170  0.21503382  0.74821068  1
  P  P7  1  0.44088232  0.73899960  0.69458502  1
  P  P8  1  0.44088232  0.26100040  0.69458502  1
  P  P9  1  0.35240760  0.00000000  0.56428969  1
  P  P10  1  0.90594014  0.76141090  0.23245244  1
  P  P11  1  0.90594014  0.23858910  0.23245244  1
  P  P12  1  0.99491112  0.50000000  0.36035625  1
  P  P13  1  0.49917748  0.71530662  0.17962862  1
  P  P14  1  0.49917748  0.28469338  0.17962862  1
  P  P15  1  0.48473246  0.00000000  0.09006401  1
  O  O16  1  0.66670831  0.50000000  0.89055237  1
  O  O17  1  0.03117285  0.50000000  0.92383208  1
  O  O18  1  0.87758365  0.62260276  0.74254626  1
  O  O19  1  0.87758365  0.37739724  0.74254626  1
  O  O20  1  0.94306809  0.84378578  0.85914252  1
  O  O21  1  0.94306809  0.15621422  0.85914252  1
  O  O22  1  0.89289720  0.84073263  0.62715384  1
  O  O23  1  0.89289720  0.15926737  0.62715384  1
  O  O24  1  0.62259790  0.80136383  0.76784624  1
  O  O25  1  0.62259790  0.19863617  0.76784624  1
  O  O26  1  0.32575487  0.66377457  0.78410167  1
  O  O27  1  0.32575487  0.33622543  0.78410167  1
  O  O28  1  0.50129025  0.66296028  0.58463225  1
  O  O29  1  0.50129025  0.33703972  0.58463225  1
  O  O30  1  0.32635998  0.87438382  0.65708364  1
  O  O31  1  0.32635998  0.12561618  0.65708364  1
  O  O32  1  0.67904521  0.00000000  0.03976399  1
  O  O33  1  0.31473038  0.00000000  0.00448446  1
  O  O34  1  0.40285296  0.34348178  0.06851728  1
  O  O35  1  0.40285296  0.65651822  0.06851728  1
  O  O36  1  0.72303518  0.29946812  0.15950311  1
  O  O37  1  0.72303518  0.70053188  0.15950311  1
  O  O38  1  0.45360698  0.34129960  0.30048348  1
  O  O39  1  0.45360698  0.65870040  0.30048348  1
  O  O40  1  0.46604204  0.12262998  0.18647325  1
  O  O41  1  0.46604204  0.87737002  0.18647325  1
  O  O42  1  0.02056913  0.16271413  0.14318985  1
  O  O43  1  0.02056913  0.83728587  0.14318985  1
  O  O44  1  0.02081459  0.37459971  0.26738102  1
  O  O45  1  0.02081459  0.62540029  0.26738102  1
  O  O46  1  0.84761769  0.16394785  0.34362169  1
  O  O47  1  0.84761769  0.83605215  0.34362169  1
  O  O48  1  0.16465990  0.50000000  0.44549262  1
  O  O49  1  0.79941219  0.50000000  0.40880154  1
  O  O50  1  0.18231962  0.00000000  0.47944578  1
  O  O51  1  0.54748326  0.00000000  0.51526463  1
