# generated using pymatgen
data_HgBrO3
_symmetry_space_group_name_H-M   'P 1'
_cell_length_a   4.72800369
_cell_length_b   9.07243897
_cell_length_c   9.88205155
_cell_angle_alpha   105.69170509
_cell_angle_beta   103.84061311
_cell_angle_gamma   90.00000001
_symmetry_Int_Tables_number   1
_chemical_formula_structural   HgBrO3
_chemical_formula_sum   'Hg4 Br4 O12'
_cell_volume   395.28895021
_cell_formula_units_Z   4
loop_
 _symmetry_equiv_pos_site_id
 _symmetry_equiv_pos_as_xyz
  1  'x, y, z'
loop_
 _atom_site_type_symbol
 _atom_site_label
 _atom_site_symmetry_multiplicity
 _atom_site_fract_x
 _atom_site_fract_y
 _atom_site_fract_z
 _atom_site_occupancy
  O  O0  1  0.33547201  0.19824049  0.82025362  1
  O  O1  1  0.51521838  0.30175951  0.17974638  1
  O  O2  1  0.66452799  0.80175951  0.17974638  1
  O  O3  1  0.48478162  0.69824049  0.82025362  1
  O  O4  1  0.54129801  0.32644006  0.64558260  1
  O  O5  1  0.89571541  0.17355994  0.35441740  1
  O  O6  1  0.45870199  0.67355994  0.35441740  1
  O  O7  1  0.10428459  0.82644006  0.64558260  1
  O  O8  1  0.98002207  0.54151443  0.65702410  1
  O  O9  1  0.32299797  0.95848557  0.34297590  1
  O  O10  1  0.01997793  0.45848557  0.34297590  1
  O  O11  1  0.67700203  0.04151443  0.65702410  1
  Br  Br12  1  0.39085343  0.16317233  0.65344637  1
  Br  Br13  1  0.73740706  0.33682767  0.34655363  1
  Br  Br14  1  0.60914657  0.83682767  0.34655363  1
  Br  Br15  1  0.26259294  0.66317233  0.65344637  1
  Hg  Hg16  1  0.96318923  0.51236598  0.86950366  1
  Hg  Hg17  1  0.09368557  0.98763402  0.13049634  1
  Hg  Hg18  1  0.03681077  0.48763402  0.13049634  1
  Hg  Hg19  1  0.90631443  0.01236598  0.86950366  1
