# generated using pymatgen
data_B2H5
_symmetry_space_group_name_H-M   'P 1'
_cell_length_a   6.00153410
_cell_length_b   8.99810365
_cell_length_c   10.36017863
_cell_angle_alpha   90.00000000
_cell_angle_beta   90.00000000
_cell_angle_gamma   105.97266483
_symmetry_Int_Tables_number   1
_chemical_formula_structural   B2H5
_chemical_formula_sum   'B16 H40'
_cell_volume   537.87518571
_cell_formula_units_Z   8
loop_
 _symmetry_equiv_pos_site_id
 _symmetry_equiv_pos_as_xyz
  1  'x, y, z'
loop_
 _atom_site_type_symbol
 _atom_site_label
 _atom_site_symmetry_multiplicity
 _atom_site_fract_x
 _atom_site_fract_y
 _atom_site_fract_z
 _atom_site_occupancy
  H  H0  1  0.53255614  0.73874091  0.99211250  1
  H  H1  1  0.96744386  0.76125909  0.49211250  1
  H  H2  1  0.46744386  0.26125909  0.00788750  1
  H  H3  1  0.03255614  0.23874091  0.50788750  1
  H  H4  1  0.22843414  0.62458811  0.04819159  1
  H  H5  1  0.27156586  0.87541189  0.54819159  1
  H  H6  1  0.77156586  0.37541189  0.95180841  1
  H  H7  1  0.72843414  0.12458811  0.45180841  1
  H  H8  1  0.30048043  0.86182004  0.04607553  1
  H  H9  1  0.19951957  0.63817996  0.54607553  1
  H  H10  1  0.69951957  0.13817996  0.95392447  1
  H  H11  1  0.80048043  0.36182004  0.45392447  1
  H  H12  1  0.30077481  0.72910683  0.21091793  1
  H  H13  1  0.19922519  0.77089317  0.71091793  1
  H  H14  1  0.69922519  0.27089317  0.78908207  1
  H  H15  1  0.80077481  0.22910683  0.28908207  1
  H  H16  1  0.31708049  0.39231925  0.43235525  1
  H  H17  1  0.18291951  0.10768075  0.93235525  1
  H  H18  1  0.68291951  0.60768075  0.56764475  1
  H  H19  1  0.81708049  0.89231925  0.06764475  1
  H  H20  1  0.24359680  0.15828763  0.42627428  1
  H  H21  1  0.25640320  0.34171237  0.92627428  1
  H  H22  1  0.75640320  0.84171237  0.57372572  1
  H  H23  1  0.74359680  0.65828763  0.07372572  1
  H  H24  1  0.34982178  0.14177651  0.23700152  1
  H  H25  1  0.15017822  0.35822349  0.73700152  1
  H  H26  1  0.65017822  0.85822349  0.76299848  1
  H  H27  1  0.84982178  0.64177651  0.26299848  1
  H  H28  1  0.06602237  0.99115278  0.32068224  1
  H  H29  1  0.43397763  0.50884722  0.82068224  1
  H  H30  1  0.93397763  0.00884722  0.67931776  1
  H  H31  1  0.56602237  0.49115278  0.17931776  1
  H  H32  1  0.00842775  0.14565540  0.20747005  1
  H  H33  1  0.49157225  0.35434460  0.70747005  1
  H  H34  1  0.99157225  0.85434460  0.79252995  1
  H  H35  1  0.50842775  0.64565540  0.29252995  1
  H  H36  1  0.07614125  0.38000951  0.20289234  1
  H  H37  1  0.42385875  0.11999049  0.70289234  1
  H  H38  1  0.92385875  0.61999049  0.79710766  1
  H  H39  1  0.57614125  0.88000951  0.29710766  1
  B  B40  1  0.35457778  0.74871223  0.07798647  1
  B  B41  1  0.14542222  0.75128777  0.57798647  1
  B  B42  1  0.64542222  0.25128777  0.92201353  1
  B  B43  1  0.85457778  0.24871223  0.42201353  1
  B  B44  1  0.51847116  0.76880046  0.22972844  1
  B  B45  1  0.98152884  0.73119954  0.72972844  1
  B  B46  1  0.48152884  0.23119954  0.77027156  1
  B  B47  1  0.01847116  0.26880046  0.27027156  1
  B  B48  1  0.67342977  0.62218432  0.20300869  1
  B  B49  1  0.82657023  0.87781568  0.70300869  1
  B  B50  1  0.32657023  0.37781568  0.79699131  1
  B  B51  1  0.17342977  0.12218432  0.29699131  1
  B  B52  1  0.66849182  0.77626145  0.08811090  1
  B  B53  1  0.83150818  0.72373855  0.58811090  1
  B  B54  1  0.33150818  0.22373855  0.91188910  1
  B  B55  1  0.16849182  0.27626145  0.41188910  1
