# generated using pymatgen
data_Tl2Sn2S3
_symmetry_space_group_name_H-M   'P 1'
_cell_length_a   7.19098151
_cell_length_b   8.30940662
_cell_length_c   8.32711933
_cell_angle_alpha   119.92966068
_cell_angle_beta   103.83426034
_cell_angle_gamma   90.00000000
_symmetry_Int_Tables_number   1
_chemical_formula_structural   Tl2Sn2S3
_chemical_formula_sum   'Tl4 Sn4 S6'
_cell_volume   414.47401205
_cell_formula_units_Z   2
loop_
 _symmetry_equiv_pos_site_id
 _symmetry_equiv_pos_as_xyz
  1  'x, y, z'
loop_
 _atom_site_type_symbol
 _atom_site_label
 _atom_site_symmetry_multiplicity
 _atom_site_fract_x
 _atom_site_fract_y
 _atom_site_fract_z
 _atom_site_occupancy
  S  S0  1  0.68882977  0.64434817  0.45354755  1
  S  S1  1  0.81117023  0.19080063  0.54645245  1
  S  S2  1  0.31117023  0.35565183  0.54645245  1
  S  S3  1  0.18882977  0.80919937  0.45354755  1
  S  S4  1  0.75000000  0.58925146  0.00000000  1
  S  S5  1  0.25000000  0.41074854  0.00000000  1
  Sn  Sn6  1  0.46025427  0.74130688  0.23902427  1
  Sn  Sn7  1  0.03974573  0.50228260  0.76097573  1
  Sn  Sn8  1  0.53974573  0.25869312  0.76097573  1
  Sn  Sn9  1  0.96025427  0.49771740  0.23902427  1
  Tl  Tl10  1  0.52348796  0.23663136  0.24488432  1
  Tl  Tl11  1  0.97651204  0.99174704  0.75511568  1
  Tl  Tl12  1  0.47651204  0.76336864  0.75511568  1
  Tl  Tl13  1  0.02348796  0.00825296  0.24488432  1
