# generated using pymatgen
data_IF7
_symmetry_space_group_name_H-M   'P 1'
_cell_length_a   5.58370298
_cell_length_b   5.58370288
_cell_length_c   9.78797399
_cell_angle_alpha   90.00000000
_cell_angle_beta   90.00000000
_cell_angle_gamma   104.61604476
_symmetry_Int_Tables_number   1
_chemical_formula_structural   IF7
_chemical_formula_sum   'I2 F14'
_cell_volume   295.29124748
_cell_formula_units_Z   2
loop_
 _symmetry_equiv_pos_site_id
 _symmetry_equiv_pos_as_xyz
  1  'x, y, z'
loop_
 _atom_site_type_symbol
 _atom_site_label
 _atom_site_symmetry_multiplicity
 _atom_site_fract_x
 _atom_site_fract_y
 _atom_site_fract_z
 _atom_site_occupancy
  I  I0  1  0.63403077  0.63403077  -0.00000000  1
  I  I1  1  0.13403077  0.13403077  0.50000000  1
  F  F2  1  0.82007506  0.61607452  0.83939535  1
  F  F3  1  0.82219696  0.99547656  0.41629482  1
  F  F4  1  0.32219696  0.49547656  0.08370518  1
  F  F5  1  0.30973473  0.96143549  0.39540073  1
  F  F6  1  0.96143549  0.30973473  0.60459927  1
  F  F7  1  0.46143549  0.80973473  0.89540073  1
  F  F8  1  0.80973473  0.46143549  0.10459927  1
  F  F9  1  0.11607452  0.32007506  0.33939535  1
  F  F10  1  0.91277591  0.91277591  -0.00000000  1
  F  F11  1  0.49547656  0.32219696  0.91629482  1
  F  F12  1  0.41277591  0.41277591  0.50000000  1
  F  F13  1  0.32007506  0.11607452  0.66060465  1
  F  F14  1  0.61607452  0.82007506  0.16060465  1
  F  F15  1  0.99547656  0.82219696  0.58370518  1
