# generated using pymatgen
data_As2(SO4)3
_symmetry_space_group_name_H-M   'P 1'
_cell_length_a   5.47216796
_cell_length_b   9.59521909
_cell_length_c   19.85222938
_cell_angle_alpha   92.31032893
_cell_angle_beta   90.00000000
_cell_angle_gamma   90.00000000
_symmetry_Int_Tables_number   1
_chemical_formula_structural   As2(SO4)3
_chemical_formula_sum   'As8 S12 O48'
_cell_volume   1041.52676890
_cell_formula_units_Z   4
loop_
 _symmetry_equiv_pos_site_id
 _symmetry_equiv_pos_as_xyz
  1  'x, y, z'
loop_
 _atom_site_type_symbol
 _atom_site_label
 _atom_site_symmetry_multiplicity
 _atom_site_fract_x
 _atom_site_fract_y
 _atom_site_fract_z
 _atom_site_occupancy
  O  O0  1  0.91502470  0.96991637  0.28329095  1
  O  O1  1  0.41502470  0.03008363  0.21670905  1
  O  O2  1  0.08497530  0.03008363  0.71670905  1
  O  O3  1  0.58497530  0.96991637  0.78329095  1
  O  O4  1  0.60731950  0.92745603  0.37316054  1
  O  O5  1  0.10731950  0.07254397  0.12683946  1
  O  O6  1  0.39268050  0.07254397  0.62683946  1
  O  O7  1  0.89268050  0.92745603  0.87316054  1
  O  O8  1  0.03735611  0.98107596  0.40148392  1
  O  O9  1  0.53735611  0.01892404  0.09851608  1
  O  O10  1  0.96264389  0.01892404  0.59851608  1
  O  O11  1  0.46264389  0.98107596  0.90148392  1
  O  O12  1  0.92845842  0.75730954  0.34864780  1
  O  O13  1  0.42845842  0.24269046  0.15135220  1
  O  O14  1  0.07154158  0.24269046  0.65135220  1
  O  O15  1  0.57154158  0.75730954  0.84864780  1
  O  O16  1  0.11016680  0.34153876  0.26873515  1
  O  O17  1  0.66291892  0.34325264  0.29266802  1
  O  O18  1  0.33708108  0.65674736  0.70733198  1
  O  O19  1  0.83708108  0.34325264  0.79266802  1
  O  O20  1  0.72700123  0.64070237  0.96419460  1
  O  O21  1  0.22700123  0.35929763  0.53580540  1
  O  O22  1  0.27299877  0.35929763  0.03580540  1
  O  O23  1  0.77299877  0.64070237  0.46419460  1
  O  O24  1  0.81109896  0.84234303  0.03862776  1
  O  O25  1  0.31109896  0.15765697  0.46137224  1
  O  O26  1  0.18890104  0.15765697  0.96137224  1
  O  O27  1  0.68890104  0.84234303  0.53862776  1
  O  O28  1  0.14932857  0.72556640  0.97725950  1
  O  O29  1  0.64932857  0.27443360  0.52274050  1
  O  O30  1  0.85067143  0.27443360  0.02274050  1
  O  O31  1  0.35067143  0.72556640  0.47725950  1
  O  O32  1  0.93674183  0.61063897  0.07163984  1
  O  O33  1  0.43674183  0.38936103  0.42836016  1
  O  O34  1  0.06325817  0.38936103  0.92836016  1
  O  O35  1  0.56325817  0.61063897  0.57163984  1
  O  O36  1  0.55357319  0.49651884  0.85826930  1
  O  O37  1  0.05357319  0.50348116  0.64173070  1
  O  O38  1  0.44642681  0.50348116  0.14173070  1
  O  O39  1  0.94642681  0.49651884  0.35826930  1
  O  O40  1  0.54907657  0.24642149  0.87281144  1
  O  O41  1  0.04907657  0.75357851  0.62718856  1
  O  O42  1  0.45092343  0.75357851  0.12718856  1
  O  O43  1  0.95092343  0.24642149  0.37281144  1
  O  O44  1  0.38983320  0.34153876  0.76873515  1
  O  O45  1  0.88983320  0.65846124  0.73126485  1
  O  O46  1  0.61016680  0.65846124  0.23126485  1
  O  O47  1  0.16291892  0.65674736  0.20733198  1
  S  S48  1  0.85421404  0.91418196  0.34745662  1
  S  S49  1  0.35421404  0.08581804  0.15254338  1
  S  S50  1  0.14578596  0.08581804  0.65254338  1
  S  S51  1  0.64578596  0.91418196  0.84745662  1
  S  S52  1  0.91019467  0.35389370  0.31598368  1
  S  S53  1  0.41019467  0.64610630  0.18401632  1
  S  S54  1  0.08980533  0.64610630  0.68401632  1
  S  S55  1  0.58980533  0.35389370  0.81598368  1
  S  S56  1  0.56924209  0.69880427  0.51425839  1
  S  S57  1  0.06924209  0.30119573  0.98574161  1
  S  S58  1  0.43075791  0.30119573  0.48574161  1
  S  S59  1  0.93075791  0.69880427  0.01425839  1
  As  As60  1  0.72973621  0.87346361  0.12953574  1
  As  As61  1  0.22973621  0.12653639  0.37046426  1
  As  As62  1  0.27026379  0.12653639  0.87046426  1
  As  As63  1  0.77026379  0.87346361  0.62953574  1
  As  As64  1  0.69231892  0.62232297  0.37188696  1
  As  As65  1  0.19231892  0.37767703  0.12811304  1
  As  As66  1  0.30768108  0.37767703  0.62811304  1
  As  As67  1  0.80768108  0.62232297  0.87188696  1
