# generated using pymatgen
data_Ca2SiO4
_symmetry_space_group_name_H-M   'P 1'
_cell_length_a   5.76252911
_cell_length_b   5.76252906
_cell_length_c   6.88255254
_cell_angle_alpha   93.38626161
_cell_angle_beta   93.38626167
_cell_angle_gamma   55.74738058
_symmetry_Int_Tables_number   1
_chemical_formula_structural   Ca2SiO4
_chemical_formula_sum   'Ca4 Si2 O8'
_cell_volume   188.48665039
_cell_formula_units_Z   2
loop_
 _symmetry_equiv_pos_site_id
 _symmetry_equiv_pos_as_xyz
  1  'x, y, z'
loop_
 _atom_site_type_symbol
 _atom_site_label
 _atom_site_symmetry_multiplicity
 _atom_site_fract_x
 _atom_site_fract_y
 _atom_site_fract_z
 _atom_site_occupancy
  Ca  Ca0  1  0.62953303  0.72408607  0.67912082  1
  Ca  Ca1  1  0.27591393  0.37046697  0.32087918  1
  Ca  Ca2  1  0.97347345  0.02652655  0.50000000  1
  Ca  Ca3  1  0.04873448  0.95126552  1.00000000  1
  Si  Si4  1  0.65694385  0.67486943  0.20610530  1
  Si  Si5  1  0.32513057  0.34305615  0.79389470  1
  O  O6  1  0.39226581  0.78528640  0.35159452  1
  O  O7  1  0.89260072  0.33817207  0.25128529  1
  O  O8  1  0.79859604  0.85008999  0.28198309  1
  O  O9  1  0.66182793  0.10739928  0.74871471  1
  O  O10  1  0.21471360  0.60773419  0.64840548  1
  O  O11  1  0.14991001  0.20140396  0.71801691  1
  O  O12  1  0.53763018  0.74277359  0.98356128  1
  O  O13  1  0.25722641  0.46236982  0.01643872  1
