# generated using pymatgen
data_Ca3Al2Ge3
_symmetry_space_group_name_H-M   'P 1'
_cell_length_a   4.36935705
_cell_length_b   11.43867321
_cell_length_c   14.84085922
_cell_angle_alpha   90.00000000
_cell_angle_beta   90.00000000
_cell_angle_gamma   90.00000000
_symmetry_Int_Tables_number   1
_chemical_formula_structural   Ca3Al2Ge3
_chemical_formula_sum   'Ca12 Al8 Ge12'
_cell_volume   741.74091141
_cell_formula_units_Z   4
loop_
 _symmetry_equiv_pos_site_id
 _symmetry_equiv_pos_as_xyz
  1  'x, y, z'
loop_
 _atom_site_type_symbol
 _atom_site_label
 _atom_site_symmetry_multiplicity
 _atom_site_fract_x
 _atom_site_fract_y
 _atom_site_fract_z
 _atom_site_occupancy
  Al  Al0  1  0.75000000  0.35700897  0.20896418  1
  Al  Al1  1  0.25000000  0.64299103  0.79103582  1
  Al  Al2  1  0.75000000  0.85700897  0.29103582  1
  Al  Al3  1  0.25000000  0.14299103  0.70896418  1
  Al  Al4  1  0.25000000  0.18353185  0.41194812  1
  Al  Al5  1  0.75000000  0.81646815  0.58805188  1
  Al  Al6  1  0.25000000  0.68353185  0.08805188  1
  Al  Al7  1  0.75000000  0.31646815  0.91194812  1
  Ca  Ca8  1  0.25000000  0.39447915  0.06605302  1
  Ca  Ca9  1  0.75000000  0.60552085  0.93394698  1
  Ca  Ca10  1  0.25000000  0.89447915  0.43394698  1
  Ca  Ca11  1  0.75000000  0.10552085  0.56605302  1
  Ca  Ca12  1  0.25000000  0.10506527  0.93756908  1
  Ca  Ca13  1  0.75000000  0.89493473  0.06243092  1
  Ca  Ca14  1  0.25000000  0.60506527  0.56243092  1
  Ca  Ca15  1  0.75000000  0.39493473  0.43756908  1
  Ca  Ca16  1  0.75000000  0.87747586  0.79683523  1
  Ca  Ca17  1  0.25000000  0.12252414  0.20316477  1
  Ca  Ca18  1  0.75000000  0.37747586  0.70316477  1
  Ca  Ca19  1  0.25000000  0.62252414  0.29683523  1
  Ge  Ge20  1  0.25000000  0.42875452  0.86104865  1
  Ge  Ge21  1  0.75000000  0.57124548  0.13895135  1
  Ge  Ge22  1  0.25000000  0.92875452  0.63895135  1
  Ge  Ge23  1  0.75000000  0.07124548  0.36104865  1
  Ge  Ge24  1  0.25000000  0.35977891  0.29974029  1
  Ge  Ge25  1  0.75000000  0.64022109  0.70025971  1
  Ge  Ge26  1  0.25000000  0.85977891  0.20025971  1
  Ge  Ge27  1  0.75000000  0.14022109  0.79974029  1
  Ge  Ge28  1  0.25000000  0.80101156  0.93382096  1
  Ge  Ge29  1  0.75000000  0.19898844  0.06617904  1
  Ge  Ge30  1  0.25000000  0.30101156  0.56617904  1
  Ge  Ge31  1  0.75000000  0.69898844  0.43382096  1
