# generated using pymatgen
data_Np(OF)2
_symmetry_space_group_name_H-M   'P 1'
_cell_length_a   6.06463971
_cell_length_b   6.06463989
_cell_length_c   6.06463986
_cell_angle_alpha   40.77188921
_cell_angle_beta   40.77188741
_cell_angle_gamma   40.77188961
_symmetry_Int_Tables_number   1
_chemical_formula_structural   Np(OF)2
_chemical_formula_sum   'Np1 O2 F2'
_cell_volume   85.84087240
_cell_formula_units_Z   1
loop_
 _symmetry_equiv_pos_site_id
 _symmetry_equiv_pos_as_xyz
  1  'x, y, z'
loop_
 _atom_site_type_symbol
 _atom_site_label
 _atom_site_symmetry_multiplicity
 _atom_site_fract_x
 _atom_site_fract_y
 _atom_site_fract_z
 _atom_site_occupancy
  Np  Np0  1  0.00000000  0.00000000  0.00000000  1
  O  O1  1  0.89360971  0.89360971  0.89360971  1
  O  O2  1  0.10639029  0.10639029  0.10639029  1
  F  F3  1  0.33362423  0.33362423  0.33362423  1
  F  F4  1  0.66637577  0.66637577  0.66637577  1
