# generated using pymatgen
data_NbCrSe5
_symmetry_space_group_name_H-M   'P 1'
_cell_length_a   3.54995878
_cell_length_b   9.50287965
_cell_length_c   10.51093133
_cell_angle_alpha   116.15648288
_cell_angle_beta   90.00000000
_cell_angle_gamma   90.00000000
_symmetry_Int_Tables_number   1
_chemical_formula_structural   NbCrSe5
_chemical_formula_sum   'Nb2 Cr2 Se10'
_cell_volume   318.27271493
_cell_formula_units_Z   2
loop_
 _symmetry_equiv_pos_site_id
 _symmetry_equiv_pos_as_xyz
  1  'x, y, z'
loop_
 _atom_site_type_symbol
 _atom_site_label
 _atom_site_symmetry_multiplicity
 _atom_site_fract_x
 _atom_site_fract_y
 _atom_site_fract_z
 _atom_site_occupancy
  Cr  Cr0  1  0.25000000  0.56920342  0.89550424  1
  Cr  Cr1  1  0.75000000  0.43079658  0.10449576  1
  Se  Se2  1  0.75000000  0.48264260  0.36532952  1
  Se  Se3  1  0.25000000  0.63581115  0.15075568  1
  Se  Se4  1  0.25000000  0.51735740  0.63467048  1
  Se  Se5  1  0.75000000  0.16979531  0.49562838  1
  Se  Se6  1  0.25000000  0.83020469  0.50437162  1
  Se  Se7  1  0.25000000  0.96096918  0.75771923  1
  Se  Se8  1  0.25000000  0.23382467  0.08832233  1
  Se  Se9  1  0.75000000  0.03903082  0.24228077  1
  Se  Se10  1  0.75000000  0.76617533  0.91167767  1
  Se  Se11  1  0.75000000  0.36418885  0.84924432  1
  Nb  Nb12  1  0.75000000  0.72770015  0.63644766  1
  Nb  Nb13  1  0.25000000  0.27229985  0.36355234  1
