# generated using pymatgen
data_Be(H2N)2
_symmetry_space_group_name_H-M   'P 1'
_cell_length_a   10.33451037
_cell_length_b   10.33451038
_cell_length_c   10.93201674
_cell_angle_alpha   118.20786406
_cell_angle_beta   118.20786409
_cell_angle_gamma   90.00000003
_symmetry_Int_Tables_number   1
_chemical_formula_structural   Be(H2N)2
_chemical_formula_sum   'Be16 H64 N32'
_cell_volume   868.37360788
_cell_formula_units_Z   16
loop_
 _symmetry_equiv_pos_site_id
 _symmetry_equiv_pos_as_xyz
  1  'x, y, z'
loop_
 _atom_site_type_symbol
 _atom_site_label
 _atom_site_symmetry_multiplicity
 _atom_site_fract_x
 _atom_site_fract_y
 _atom_site_fract_z
 _atom_site_occupancy
  H  H0  1  0.01234756  0.25720050  0.42125198  1
  H  H1  1  0.83594853  0.09109559  0.07874802  1
  H  H2  1  0.24279950  0.48765244  0.07874802  1
  H  H3  1  0.09109559  0.24279950  0.57874802  1
  H  H4  1  0.48765244  0.83594853  0.57874802  1
  H  H5  1  0.66405147  0.01234756  0.92125198  1
  H  H6  1  0.25720050  0.40890441  0.92125198  1
  H  H7  1  0.40890441  0.66405147  0.42125198  1
  H  H8  1  0.98765244  0.74279950  0.57874802  1
  H  H9  1  0.16405147  0.90890441  0.92125198  1
  H  H10  1  0.75720050  0.51234756  0.92125198  1
  H  H11  1  0.90890441  0.75720050  0.42125198  1
  H  H12  1  0.51234756  0.16405147  0.42125198  1
  H  H13  1  0.33594853  0.98765244  0.07874802  1
  H  H14  1  0.74279950  0.59109559  0.07874802  1
  H  H15  1  0.59109559  0.33594853  0.57874802  1
  H  H16  1  0.85363961  0.49724459  0.57433568  1
  H  H17  1  0.92290891  0.77930393  0.92566432  1
  H  H18  1  0.00275541  0.64636039  0.92566432  1
  H  H19  1  0.77930393  0.00275541  0.42566432  1
  H  H20  1  0.64636039  0.92290891  0.42566432  1
  H  H21  1  0.57709109  0.85363961  0.07433568  1
  H  H22  1  0.49724459  0.72069607  0.07433568  1
  H  H23  1  0.72069607  0.57709109  0.57433568  1
  H  H24  1  0.14636039  0.50275541  0.42566432  1
  H  H25  1  0.07709109  0.22069607  0.07433568  1
  H  H26  1  0.99724459  0.35363961  0.07433568  1
  H  H27  1  0.59052914  0.08277685  0.17173735  1
  H  H28  1  0.22069607  0.99724459  0.57433568  1
  H  H29  1  0.42290891  0.14636039  0.92566432  1
  H  H30  1  0.50275541  0.27930393  0.92566432  1
  H  H31  1  0.27930393  0.42290891  0.42566432  1
  H  H32  1  0.76925864  0.16735417  0.31245936  1
  H  H33  1  0.85489481  0.95679928  0.18754064  1
  H  H34  1  0.33264583  0.73074136  0.18754064  1
  H  H35  1  0.95679928  0.33264583  0.68754064  1
  H  H36  1  0.73074136  0.85489481  0.68754064  1
  H  H37  1  0.64510519  0.76925864  0.81245936  1
  H  H38  1  0.16735417  0.54320072  0.81245936  1
  H  H39  1  0.54320072  0.64510519  0.31245936  1
  H  H40  1  0.23074136  0.83264583  0.68754064  1
  H  H41  1  0.14510519  0.04320072  0.81245936  1
  H  H42  1  0.66735417  0.26925864  0.81245936  1
  H  H43  1  0.04320072  0.66735417  0.31245936  1
  H  H44  1  0.26925864  0.14510519  0.31245936  1
  H  H45  1  0.35489481  0.23074136  0.18754064  1
  H  H46  1  0.83264583  0.45679928  0.18754064  1
  H  H47  1  0.45679928  0.35489481  0.68754064  1
  H  H48  1  0.41879179  0.41103950  0.82826265  1
  H  H49  1  0.91722315  0.41879179  0.32826265  1
  H  H50  1  0.41103950  0.40947086  0.32826265  1
  H  H51  1  0.09052914  0.08896050  0.17173735  1
  H  H52  1  0.08120821  0.58277685  0.17173735  1
  H  H53  1  0.58277685  0.09052914  0.67173735  1
  H  H54  1  0.08896050  0.08120821  0.67173735  1
  H  H55  1  0.40947086  0.91722315  0.82826265  1
  H  H56  1  0.58120821  0.58896050  0.17173735  1
  H  H57  1  0.08277685  0.58120821  0.67173735  1
  H  H58  1  0.58896050  0.59052914  0.67173735  1
  H  H59  1  0.90947086  0.91103950  0.82826265  1
  H  H60  1  0.91879179  0.41722315  0.82826265  1
  H  H61  1  0.41722315  0.90947086  0.32826265  1
  H  H62  1  0.91103950  0.91879179  0.32826265  1
  H  H63  1  0.35363961  0.07709109  0.57433568  1
  Be  Be64  1  0.43796187  0.37945103  0.12262920  1
  Be  Be65  1  0.24317817  0.43796187  0.62262920  1
  Be  Be66  1  0.37945103  0.68466734  0.62262920  1
  Be  Be67  1  0.81533266  0.12054897  0.87737080  1
  Be  Be68  1  0.06203813  0.25682183  0.87737080  1
  Be  Be69  1  0.25682183  0.81533266  0.37737080  1
  Be  Be70  1  0.12054897  0.06203813  0.37737080  1
  Be  Be71  1  0.68466734  0.24317817  0.12262920  1
  Be  Be72  1  0.56203813  0.62054897  0.87737080  1
  Be  Be73  1  0.75682183  0.56203813  0.37737080  1
  Be  Be74  1  0.62054897  0.31533266  0.37737080  1
  Be  Be75  1  0.18466734  0.87945103  0.12262920  1
  Be  Be76  1  0.93796187  0.74317817  0.12262920  1
  Be  Be77  1  0.74317817  0.18466734  0.62262920  1
  Be  Be78  1  0.87945103  0.93796187  0.62262920  1
  Be  Be79  1  0.31533266  0.75682183  0.87737080  1
  N  N80  1  0.67109632  0.18716519  0.24509782  1
  N  N81  1  0.94206737  0.92599850  0.25490218  1
  N  N82  1  0.31283481  0.82890368  0.25490218  1
  N  N83  1  0.92599850  0.31283481  0.75490218  1
  N  N84  1  0.82890368  0.94206737  0.75490218  1
  N  N85  1  0.55793263  0.67109632  0.74509782  1
  N  N86  1  0.18716519  0.57400150  0.74509782  1
  N  N87  1  0.57400150  0.55793263  0.24509782  1
  N  N88  1  0.32890368  0.81283481  0.75490218  1
  N  N89  1  0.05793263  0.07400150  0.74509782  1
  N  N90  1  0.68716519  0.17109632  0.74509782  1
  N  N91  1  0.07400150  0.68716519  0.24509782  1
  N  N92  1  0.17109632  0.05793263  0.24509782  1
  N  N93  1  0.44206737  0.32890368  0.25490218  1
  N  N94  1  0.81283481  0.42599850  0.25490218  1
  N  N95  1  0.42599850  0.44206737  0.75490218  1
  N  N96  1  0.25207856  0.50207856  0.50415711  1
  N  N97  1  0.50207856  0.25207856  0.00415711  1
  N  N98  1  0.24792144  0.99792144  0.49584289  1
  N  N99  1  0.99792144  0.24792144  0.99584289  1
  N  N100  1  0.74792144  0.49792144  0.49584289  1
  N  N101  1  0.49792144  0.74792144  0.99584289  1
  N  N102  1  0.75207856  0.00207856  0.50415711  1
  N  N103  1  0.00207856  0.75207856  0.00415711  1
  N  N104  1  0.61410968  0.25000000  0.50000000  1
  N  N105  1  0.75000000  0.61410968  0.00000000  1
  N  N106  1  0.25000000  0.88589032  0.00000000  1
  N  N107  1  0.88589032  0.75000000  0.50000000  1
  N  N108  1  0.38589032  0.75000000  0.50000000  1
  N  N109  1  0.25000000  0.38589032  0.00000000  1
  N  N110  1  0.75000000  0.11410968  0.00000000  1
  N  N111  1  0.11410968  0.25000000  0.50000000  1
