# generated using pymatgen
data_TcP4
_symmetry_space_group_name_H-M   'P 1'
_cell_length_a   6.27680713
_cell_length_b   9.27181399
_cell_length_c   10.91379271
_cell_angle_alpha   90.00000000
_cell_angle_beta   90.00000000
_cell_angle_gamma   90.00000000
_symmetry_Int_Tables_number   1
_chemical_formula_structural   TcP4
_chemical_formula_sum   'Tc8 P32'
_cell_volume   635.15423065
_cell_formula_units_Z   8
loop_
 _symmetry_equiv_pos_site_id
 _symmetry_equiv_pos_as_xyz
  1  'x, y, z'
loop_
 _atom_site_type_symbol
 _atom_site_label
 _atom_site_symmetry_multiplicity
 _atom_site_fract_x
 _atom_site_fract_y
 _atom_site_fract_z
 _atom_site_occupancy
  P  P0  1  0.99947892  0.20830381  0.43102451  1
  P  P1  1  0.49947892  0.29169619  0.56897549  1
  P  P2  1  0.00052108  0.70830381  0.06897549  1
  P  P3  1  0.50052108  0.79169619  0.93102451  1
  P  P4  1  0.00052108  0.79169619  0.56897549  1
  P  P5  1  0.50052108  0.70830381  0.43102451  1
  P  P6  1  0.99947892  0.29169619  0.93102451  1
  P  P7  1  0.49947892  0.20830381  0.06897549  1
  P  P8  1  0.05951984  0.28145996  0.23581557  1
  P  P9  1  0.55951984  0.21854004  0.76418443  1
  P  P10  1  0.94048016  0.78145996  0.26418443  1
  P  P11  1  0.44048016  0.71854004  0.73581557  1
  P  P12  1  0.94048016  0.71854004  0.76418443  1
  P  P13  1  0.44048016  0.78145996  0.23581557  1
  P  P14  1  0.05951984  0.21854004  0.73581557  1
  P  P15  1  0.55951984  0.28145996  0.26418443  1
  P  P16  1  0.19022444  0.94668403  0.23829181  1
  P  P17  1  0.69022444  0.55331597  0.76170819  1
  P  P18  1  0.80977556  0.44668403  0.26170819  1
  P  P19  1  0.30977556  0.05331597  0.73829181  1
  P  P20  1  0.80977556  0.05331597  0.76170819  1
  P  P21  1  0.30977556  0.44668403  0.23829181  1
  P  P22  1  0.19022444  0.55331597  0.73829181  1
  P  P23  1  0.69022444  0.94668403  0.26170819  1
  P  P24  1  0.75639801  0.04357528  0.08124908  1
  P  P25  1  0.25639801  0.45642472  0.91875092  1
  P  P26  1  0.24360199  0.54357528  0.41875092  1
  P  P27  1  0.74360199  0.95642472  0.58124908  1
  P  P28  1  0.24360199  0.95642472  0.91875092  1
  P  P29  1  0.74360199  0.54357528  0.08124908  1
  P  P30  1  0.75639801  0.45642472  0.58124908  1
  P  P31  1  0.25639801  0.04357528  0.41875092  1
  Tc  Tc32  1  0.62120733  0.10926249  0.42458959  1
  Tc  Tc33  1  0.12120733  0.39073751  0.57541041  1
  Tc  Tc34  1  0.37879267  0.60926249  0.07541041  1
  Tc  Tc35  1  0.87879267  0.89073751  0.92458959  1
  Tc  Tc36  1  0.37879267  0.89073751  0.57541041  1
  Tc  Tc37  1  0.87879267  0.60926249  0.42458959  1
  Tc  Tc38  1  0.62120733  0.39073751  0.92458959  1
  Tc  Tc39  1  0.12120733  0.10926249  0.07541041  1
