# generated using pymatgen
data_CdH9C3SBrCl2O
_symmetry_space_group_name_H-M   'P 1'
_cell_length_a   6.94987784
_cell_length_b   10.76487033
_cell_length_c   13.92599424
_cell_angle_alpha   90.00000000
_cell_angle_beta   90.00000000
_cell_angle_gamma   90.00000000
_symmetry_Int_Tables_number   1
_chemical_formula_structural   CdH9C3SBrCl2O
_chemical_formula_sum   'Cd4 H36 C12 S4 Br4 Cl8 O4'
_cell_volume   1041.86676617
_cell_formula_units_Z   4
loop_
 _symmetry_equiv_pos_site_id
 _symmetry_equiv_pos_as_xyz
  1  'x, y, z'
loop_
 _atom_site_type_symbol
 _atom_site_label
 _atom_site_symmetry_multiplicity
 _atom_site_fract_x
 _atom_site_fract_y
 _atom_site_fract_z
 _atom_site_occupancy
  Cd  Cd0  1  0.89836286  0.25033602  0.24991984  1
  Cd  Cd1  1  0.39836286  0.24966398  0.25008016  1
  Cd  Cd2  1  0.10163714  0.75033602  0.75008016  1
  Cd  Cd3  1  0.60163714  0.74966398  0.74991984  1
  H  H4  1  0.99091098  0.11996337  0.86043682  1
  H  H5  1  0.49091098  0.38003663  0.63956318  1
  H  H6  1  0.00908902  0.61996337  0.13956318  1
  H  H7  1  0.50908902  0.88003663  0.36043682  1
  H  H8  1  0.00912863  0.88005298  0.13935976  1
  H  H9  1  0.50912863  0.61994702  0.36064024  1
  H  H10  1  0.99087137  0.38005298  0.86064024  1
  H  H11  1  0.49087137  0.11994702  0.63935976  1
  H  H12  1  0.87245449  0.12538015  0.97722133  1
  H  H13  1  0.37245449  0.37461985  0.52277867  1
  H  H14  1  0.12754551  0.62538015  0.02277867  1
  H  H15  1  0.62754551  0.87461985  0.47722133  1
  H  H16  1  0.12734306  0.87472768  0.02274955  1
  H  H17  1  0.62734306  0.62527232  0.47725045  1
  H  H18  1  0.87265694  0.37472768  0.97725045  1
  H  H19  1  0.37265694  0.12527232  0.52274955  1
  H  H20  1  0.55166536  0.24958341  0.00714414  1
  H  H21  1  0.05166536  0.25041659  0.49285586  1
  H  H22  1  0.44833464  0.74958341  0.99285586  1
  H  H23  1  0.94833464  0.75041659  0.50714414  1
  H  H24  1  0.43105918  0.16528955  0.91142305  1
  H  H25  1  0.93105918  0.33471045  0.58857695  1
  H  H26  1  0.56894082  0.66528955  0.08857695  1
  H  H27  1  0.06894082  0.83471045  0.41142305  1
  H  H28  1  0.56915101  0.83388481  0.08868389  1
  H  H29  1  0.06915101  0.66611519  0.41131611  1
  H  H30  1  0.43084899  0.33388481  0.91131611  1
  H  H31  1  0.93084899  0.16611519  0.58868389  1
  H  H32  1  0.76844009  0.03693172  0.87872249  1
  H  H33  1  0.26844009  0.46306828  0.62127751  1
  H  H34  1  0.23155991  0.53693172  0.12127751  1
  H  H35  1  0.73155991  0.96306828  0.37872249  1
  H  H36  1  0.23198149  0.96297398  0.12144167  1
  H  H37  1  0.73198149  0.53702602  0.37855833  1
  H  H38  1  0.76801851  0.46297398  0.87855833  1
  H  H39  1  0.26801851  0.03702602  0.62144167  1
  C  C40  1  0.85305922  0.11894589  0.89885211  1
  C  C41  1  0.35305922  0.38105411  0.60114789  1
  C  C42  1  0.14694078  0.61894589  0.10114789  1
  C  C43  1  0.64694078  0.88105411  0.39885211  1
  C  C44  1  0.14719696  0.88110341  0.10107088  1
  C  C45  1  0.64719696  0.61889659  0.39892912  1
  C  C46  1  0.85280304  0.38110341  0.89892912  1
  C  C47  1  0.35280304  0.11889659  0.60107088  1
  C  C48  1  0.51055323  0.24957122  0.93057938  1
  C  C49  1  0.01055323  0.25042878  0.56942062  1
  C  C50  1  0.48944677  0.74957122  0.06942062  1
  C  C51  1  0.98944677  0.75042878  0.43057938  1
  S  S52  1  0.72180071  0.24997132  0.86079926  1
  S  S53  1  0.22180071  0.25002868  0.63920074  1
  S  S54  1  0.27819929  0.74997132  0.13920074  1
  S  S55  1  0.77819929  0.75002868  0.36079926  1
  Br  Br56  1  0.14843827  0.42802746  0.33523295  1
  Br  Br57  1  0.64843827  0.07197254  0.16476705  1
  Br  Br58  1  0.85156173  0.92802746  0.66476705  1
  Br  Br59  1  0.35156173  0.57197254  0.83523295  1
  Cl  Cl60  1  0.85247680  0.58836351  0.67088227  1
  Cl  Cl61  1  0.35247680  0.91163649  0.82911773  1
  Cl  Cl62  1  0.14752320  0.08836351  0.32911773  1
  Cl  Cl63  1  0.64752320  0.41163649  0.17088227  1
  Cl  Cl64  1  0.14655299  0.25187164  0.10485541  1
  Cl  Cl65  1  0.64655299  0.24812836  0.39514459  1
  Cl  Cl66  1  0.85344701  0.75187164  0.89514459  1
  Cl  Cl67  1  0.35344701  0.74812836  0.60485541  1
  O  O68  1  0.68367184  0.25031694  0.75812147  1
  O  O69  1  0.18367184  0.24968306  0.74187853  1
  O  O70  1  0.31632816  0.75031694  0.24187853  1
  O  O71  1  0.81632816  0.74968306  0.25812147  1
