# generated using pymatgen
data_Li8Nb2O9
_symmetry_space_group_name_H-M   'P 1'
_cell_length_a   5.93666503
_cell_length_b   8.92077776
_cell_length_c   15.37796797
_cell_angle_alpha   85.64219223
_cell_angle_beta   79.15486877
_cell_angle_gamma   70.43151900
_symmetry_Int_Tables_number   1
_chemical_formula_structural   Li8Nb2O9
_chemical_formula_sum   'Li32 Nb8 O36'
_cell_volume   753.59340110
_cell_formula_units_Z   4
loop_
 _symmetry_equiv_pos_site_id
 _symmetry_equiv_pos_as_xyz
  1  'x, y, z'
loop_
 _atom_site_type_symbol
 _atom_site_label
 _atom_site_symmetry_multiplicity
 _atom_site_fract_x
 _atom_site_fract_y
 _atom_site_fract_z
 _atom_site_occupancy
  Li  Li0  1  0.50348227  0.09196276  0.64399482  1
  Li  Li1  1  0.49651773  0.90803724  0.35600518  1
  Li  Li2  1  0.86598821  0.15858968  0.85089350  1
  Li  Li3  1  0.13401179  0.84141032  0.14910650  1
  Li  Li4  1  0.20673587  0.66039388  0.65996855  1
  Li  Li5  1  0.79326413  0.33960612  0.34003145  1
  Li  Li6  1  0.15209182  0.59097515  0.84577677  1
  Li  Li7  1  0.84790818  0.40902485  0.15422323  1
  Li  Li8  1  0.33398238  0.87576706  0.73781375  1
  Li  Li9  1  0.66601762  0.12423294  0.26218625  1
  Li  Li10  1  0.79280920  0.87650361  0.73849318  1
  Li  Li11  1  0.20719080  0.12349639  0.26150682  1
  Li  Li12  1  0.57342227  0.37535778  0.76051131  1
  Li  Li13  1  0.42657773  0.62464222  0.23948869  1
  Li  Li14  1  0.02949811  0.37707324  0.76273554  1
  Li  Li15  1  0.97050189  0.62292676  0.23726446  1
  Li  Li16  1  0.68783598  0.87802987  0.96174638  1
  Li  Li17  1  0.31216402  0.12197013  0.03825362  1
  Li  Li18  1  0.20773917  0.87869610  0.97574001  1
  Li  Li19  1  0.79226083  0.12130390  0.02425999  1
  Li  Li20  1  0.45649672  0.37204024  0.94598098  1
  Li  Li21  1  0.54350328  0.62795976  0.05401902  1
  Li  Li22  1  0.95425926  0.36979455  0.96208585  1
  Li  Li23  1  0.04574074  0.63020545  0.03791415  1
  Li  Li24  1  0.42052781  0.87293756  0.53962786  1
  Li  Li25  1  0.57947219  0.12706244  0.46037214  1
  Li  Li26  1  0.91298074  0.87334379  0.54979984  1
  Li  Li27  1  0.08701926  0.12665621  0.45020016  1
  Li  Li28  1  0.68445100  0.37710485  0.52298070  1
  Li  Li29  1  0.31554900  0.62289515  0.47701930  1
  Li  Li30  1  0.14513098  0.37425849  0.54292115  1
  Li  Li31  1  0.85486902  0.62574151  0.45707885  1
  O  O32  1  0.90679523  0.10555693  0.34415807  1
  O  O33  1  0.25639740  0.60374663  0.14284175  1
  O  O34  1  0.74360260  0.39625337  0.85715825  1
  O  O35  1  0.17386341  0.36315958  0.05473999  1
  O  O36  1  0.82613659  0.63684042  0.94526001  1
  O  O37  1  0.66864662  0.35749211  0.05926889  1
  O  O38  1  0.33135338  0.64250789  0.94073111  1
  O  O39  1  0.37914989  0.14442126  0.35712486  1
  O  O40  1  0.18228660  0.12369300  0.75071647  1
  O  O41  1  0.81771340  0.87630700  0.24928353  1
  O  O42  1  0.68065270  0.12749690  0.74701501  1
  O  O43  1  0.31934730  0.87250310  0.25298499  1
  O  O44  1  0.86115546  0.37311298  0.65664863  1
  O  O45  1  0.13884454  0.62688702  0.34335137  1
  O  O46  1  0.51790276  0.87637494  0.84288296  1
  O  O47  1  0.48209724  0.12362506  0.15711704  1
  O  O48  1  0.91558784  0.62640041  0.75234166  1
  O  O49  1  0.08441216  0.37359959  0.24765834  1
  O  O50  1  0.44962607  0.62505812  0.74912951  1
  O  O51  1  0.55037393  0.37494188  0.25087049  1
  O  O52  1  0.78529821  0.13587112  0.55615207  1
  O  O53  1  0.21470179  0.86412888  0.44384793  1
  O  O54  1  0.45353219  0.38669577  0.44407470  1
  O  O55  1  0.73493812  0.86562541  0.44025332  1
  O  O56  1  0.09320477  0.89444307  0.65584193  1
  O  O57  1  0.62085011  0.85557874  0.64287514  1
  O  O58  1  0.10707390  0.11445139  0.94097715  1
  O  O59  1  0.89292610  0.88554861  0.05902285  1
  O  O60  1  0.58942916  0.11539290  0.93621553  1
  O  O61  1  0.41057084  0.88460710  0.06378447  1
  O  O62  1  0.27167747  0.35674984  0.84373525  1
  O  O63  1  0.72832253  0.64325016  0.15626475  1
  O  O64  1  0.03414322  0.61189991  0.56335919  1
  O  O65  1  0.96585678  0.38810009  0.43664081  1
  O  O66  1  0.54646781  0.61330423  0.55592530  1
  O  O67  1  0.26506188  0.13437459  0.55974668  1
  Nb  Nb68  1  0.98321728  0.12382828  0.64465043  1
  Nb  Nb69  1  0.37043739  0.37270440  0.13882654  1
  Nb  Nb70  1  0.62956261  0.62729560  0.86117346  1
  Nb  Nb71  1  0.26719548  0.37517967  0.35654686  1
  Nb  Nb72  1  0.73280452  0.62482033  0.64345314  1
  Nb  Nb73  1  0.62161946  0.87336961  0.15001165  1
  Nb  Nb74  1  0.37838054  0.12663039  0.84998835  1
  Nb  Nb75  1  0.01678272  0.87617172  0.35534957  1
