# generated using pymatgen
data_TcP3
_symmetry_space_group_name_H-M   'P 1'
_cell_length_a   3.11688887
_cell_length_b   5.17276819
_cell_length_c   15.44266071
_cell_angle_alpha   90.00000000
_cell_angle_beta   90.00000000
_cell_angle_gamma   90.00000000
_symmetry_Int_Tables_number   1
_chemical_formula_structural   TcP3
_chemical_formula_sum   'Tc4 P12'
_cell_volume   248.98114764
_cell_formula_units_Z   4
loop_
 _symmetry_equiv_pos_site_id
 _symmetry_equiv_pos_as_xyz
  1  'x, y, z'
loop_
 _atom_site_type_symbol
 _atom_site_label
 _atom_site_symmetry_multiplicity
 _atom_site_fract_x
 _atom_site_fract_y
 _atom_site_fract_z
 _atom_site_occupancy
  P  P0  1  0.25000000  0.52232849  0.79281046  1
  P  P1  1  0.75000000  0.47767151  0.20718954  1
  P  P2  1  0.75000000  0.02232849  0.70718954  1
  P  P3  1  0.25000000  0.97767151  0.29281046  1
  P  P4  1  0.25000000  0.35307729  0.01279853  1
  P  P5  1  0.75000000  0.64692271  0.98720147  1
  P  P6  1  0.75000000  0.85307729  0.48720147  1
  P  P7  1  0.25000000  0.14692271  0.51279853  1
  P  P8  1  0.25000000  0.31968608  0.38145181  1
  P  P9  1  0.75000000  0.68031392  0.61854819  1
  P  P10  1  0.75000000  0.81968608  0.11854819  1
  P  P11  1  0.25000000  0.18031392  0.88145181  1
  Tc  Tc12  1  0.25000000  0.35050008  0.65048556  1
  Tc  Tc13  1  0.75000000  0.64949992  0.34951444  1
  Tc  Tc14  1  0.75000000  0.85050008  0.84951444  1
  Tc  Tc15  1  0.25000000  0.14949992  0.15048556  1
