# generated using pymatgen
data_NbTeBr3
_symmetry_space_group_name_H-M   'P 1'
_cell_length_a   7.03928112
_cell_length_b   7.61631354
_cell_length_c   12.81756568
_cell_angle_alpha   90.00000000
_cell_angle_beta   98.02091873
_cell_angle_gamma   90.00000000
_symmetry_Int_Tables_number   1
_chemical_formula_structural   NbTeBr3
_chemical_formula_sum   'Nb4 Te4 Br12'
_cell_volume   680.47024145
_cell_formula_units_Z   4
loop_
 _symmetry_equiv_pos_site_id
 _symmetry_equiv_pos_as_xyz
  1  'x, y, z'
loop_
 _atom_site_type_symbol
 _atom_site_label
 _atom_site_symmetry_multiplicity
 _atom_site_fract_x
 _atom_site_fract_y
 _atom_site_fract_z
 _atom_site_occupancy
  Br  Br0  1  0.14409021  0.33048459  0.04276974  1
  Br  Br1  1  0.85590979  0.33048459  0.45723026  1
  Br  Br2  1  0.85590979  0.66951541  0.95723026  1
  Br  Br3  1  0.14409021  0.66951541  0.54276974  1
  Br  Br4  1  0.64844881  0.23143768  0.93131532  1
  Br  Br5  1  0.35155119  0.23143768  0.56868468  1
  Br  Br6  1  0.35155119  0.76856232  0.06868468  1
  Br  Br7  1  0.64844881  0.76856232  0.43131532  1
  Br  Br8  1  0.76101748  0.54990150  0.69696300  1
  Br  Br9  1  0.23898252  0.54990150  0.80303700  1
  Br  Br10  1  0.23898252  0.45009850  0.30303700  1
  Br  Br11  1  0.76101748  0.45009850  0.19696300  1
  Nb  Nb12  1  0.93135061  0.63800092  0.35171667  1
  Nb  Nb13  1  0.06864939  0.63800092  0.14828333  1
  Nb  Nb14  1  0.06864939  0.36199908  0.64828333  1
  Nb  Nb15  1  0.93135061  0.36199908  0.85171667  1
  Te  Te16  1  0.17817912  0.90759920  0.30525770  1
  Te  Te17  1  0.82182088  0.90759920  0.19474230  1
  Te  Te18  1  0.82182088  0.09240080  0.69474230  1
  Te  Te19  1  0.17817912  0.09240080  0.80525770  1
