# generated using pymatgen
data_SbS8Cl3
_symmetry_space_group_name_H-M   'P 1'
_cell_length_a   8.58307901
_cell_length_b   9.45025531
_cell_length_c   11.53331421
_cell_angle_alpha   97.09518707
_cell_angle_beta   107.93698415
_cell_angle_gamma   109.02226366
_symmetry_Int_Tables_number   1
_chemical_formula_structural   SbS8Cl3
_chemical_formula_sum   'Sb2 S16 Cl6'
_cell_volume   814.93573129
_cell_formula_units_Z   2
loop_
 _symmetry_equiv_pos_site_id
 _symmetry_equiv_pos_as_xyz
  1  'x, y, z'
loop_
 _atom_site_type_symbol
 _atom_site_label
 _atom_site_symmetry_multiplicity
 _atom_site_fract_x
 _atom_site_fract_y
 _atom_site_fract_z
 _atom_site_occupancy
  S  S0  1  0.85414098  0.50749808  0.81569624  1
  S  S1  1  0.14585902  0.49250192  0.18430376  1
  S  S2  1  0.72647389  0.42526544  0.62381021  1
  S  S3  1  0.27352611  0.57473456  0.37618979  1
  S  S4  1  0.73392541  0.21139330  0.57069683  1
  S  S5  1  0.26607459  0.78860670  0.42930317  1
  S  S6  1  0.94071691  0.23594040  0.50885663  1
  S  S7  1  0.05928309  0.76405960  0.49114337  1
  S  S8  1  0.88676476  0.34462524  0.14337226  1
  S  S9  1  0.11323524  0.65537476  0.85662774  1
  S  S10  1  0.72200327  0.46423616  0.10007230  1
  S  S11  1  0.27799673  0.53576384  0.89992770  1
  S  S12  1  0.67322905  0.53231989  0.25738999  1
  S  S13  1  0.32677095  0.46768011  0.74261001  1
  S  S14  1  0.84305611  0.75897297  0.34662948  1
  S  S15  1  0.15694389  0.24102703  0.65337052  1
  Cl  Cl16  1  0.50294790  0.04225064  0.79012248  1
  Cl  Cl17  1  0.49705210  0.95774936  0.20987752  1
  Cl  Cl18  1  0.77473453  0.90238327  -0.00140156  1
  Cl  Cl19  1  0.22526547  0.09761673  1.00140156  1
  Cl  Cl20  1  0.75246157  0.85436523  0.68337128  1
  Cl  Cl21  1  0.24753843  0.14563477  0.31662872  1
  Sb  Sb22  1  0.80188262  0.05986019  0.85029423  1
  Sb  Sb23  1  0.19811738  0.94013981  0.14970577  1
