# generated using pymatgen
data_AlP2I9
_symmetry_space_group_name_H-M   'P 1'
_cell_length_a   11.48292008
_cell_length_b   18.82112604
_cell_length_c   21.60612130
_cell_angle_alpha   90.00000000
_cell_angle_beta   90.00000000
_cell_angle_gamma   90.00000000
_symmetry_Int_Tables_number   1
_chemical_formula_structural   AlP2I9
_chemical_formula_sum   'Al8 P16 I72'
_cell_volume   4669.54704492
_cell_formula_units_Z   8
loop_
 _symmetry_equiv_pos_site_id
 _symmetry_equiv_pos_as_xyz
  1  'x, y, z'
loop_
 _atom_site_type_symbol
 _atom_site_label
 _atom_site_symmetry_multiplicity
 _atom_site_fract_x
 _atom_site_fract_y
 _atom_site_fract_z
 _atom_site_occupancy
  Al  Al0  1  0.86992183  0.22108251  0.37988134  1
  Al  Al1  1  0.36992183  0.27891749  0.62011866  1
  Al  Al2  1  0.13007817  0.72108251  0.12011866  1
  Al  Al3  1  0.63007817  0.77891749  0.87988134  1
  Al  Al4  1  0.13007817  0.77891749  0.62011866  1
  Al  Al5  1  0.63007817  0.72108251  0.37988134  1
  Al  Al6  1  0.86992183  0.27891749  0.87988134  1
  Al  Al7  1  0.36992183  0.22108251  0.12011866  1
  P  P8  1  0.80507228  0.99518870  0.13324752  1
  P  P9  1  0.30507228  0.50481130  0.86675248  1
  P  P10  1  0.19492772  0.49518870  0.36675248  1
  P  P11  1  0.69492772  0.00481130  0.63324752  1
  P  P12  1  0.19492772  0.00481130  0.86675248  1
  P  P13  1  0.69492772  0.49518870  0.13324752  1
  P  P14  1  0.80507228  0.50481130  0.63324752  1
  P  P15  1  0.30507228  0.99518870  0.36675248  1
  P  P16  1  0.66981179  0.92417217  0.08709367  1
  P  P17  1  0.16981179  0.57582783  0.91290633  1
  P  P18  1  0.33018821  0.42417217  0.41290633  1
  P  P19  1  0.83018821  0.07582783  0.58709367  1
  P  P20  1  0.33018821  0.07582783  0.91290633  1
  P  P21  1  0.83018821  0.42417217  0.08709367  1
  P  P22  1  0.66981179  0.57582783  0.58709367  1
  P  P23  1  0.16981179  0.92417217  0.41290633  1
  I  I24  1  0.97489794  0.22483496  0.48388233  1
  I  I25  1  0.72577608  0.38617927  0.88117040  1
  I  I26  1  0.77422392  0.61382073  0.38117040  1
  I  I27  1  0.27422392  0.88617927  0.61882960  1
  I  I28  1  0.77422392  0.88617927  0.88117040  1
  I  I29  1  0.27422392  0.61382073  0.11882960  1
  I  I30  1  0.22577608  0.38617927  0.61882960  1
  I  I31  1  0.72577608  0.11382073  0.38117040  1
  I  I32  1  1.00028813  1.00262544  0.39895588  1
  I  I33  1  0.50028813  0.49737456  0.60104412  1
  I  I34  1  -0.00028813  0.50262544  0.10104412  1
  I  I35  1  0.49971187  -0.00262544  0.89895588  1
  I  I36  1  -0.00028813  -0.00262544  0.60104412  1
  I  I37  1  0.49971187  0.50262544  0.39895588  1
  I  I38  1  1.00028813  0.49737456  0.89895588  1
  I  I39  1  0.50028813  1.00262544  0.10104412  1
  I  I40  1  0.15024070  0.83715333  0.32902382  1
  I  I41  1  0.65024070  0.66284667  0.67097618  1
  I  I42  1  0.84975930  0.33715333  0.17097618  1
  I  I43  1  0.34975930  0.16284667  0.82902382  1
  I  I44  1  0.84975930  0.16284667  0.67097618  1
  I  I45  1  0.34975930  0.33715333  0.32902382  1
  I  I46  1  0.15024070  0.66284667  0.82902382  1
  I  I47  1  0.65024070  0.83715333  0.17097618  1
  I  I48  1  0.22577608  0.11382073  0.11882960  1
  I  I49  1  0.98908360  0.57296278  0.63268217  1
  I  I50  1  0.51091640  0.42703722  0.13268217  1
  I  I51  1  0.01091640  0.07296278  0.86731783  1
  I  I52  1  0.51091640  0.07296278  0.63268217  1
  I  I53  1  0.01091640  0.42703722  0.36731783  1
  I  I54  1  0.48908360  0.57296278  0.86731783  1
  I  I55  1  0.98908360  0.92703722  0.13268217  1
  I  I56  1  0.26283145  0.04154516  0.26265335  1
  I  I57  1  0.76283145  0.45845484  0.73734665  1
  I  I58  1  0.73716855  0.54154516  0.23734665  1
  I  I59  1  0.23716855  0.95845484  0.76265335  1
  I  I60  1  0.73716855  0.95845484  0.73734665  1
  I  I61  1  0.23716855  0.54154516  0.26265335  1
  I  I62  1  0.26283145  0.45845484  0.76265335  1
  I  I63  1  0.76283145  0.04154516  0.23734665  1
  I  I64  1  0.32700550  0.09481283  0.43782794  1
  I  I65  1  0.82700550  0.40518717  0.56217206  1
  I  I66  1  0.67299450  0.59481283  0.06217206  1
  I  I67  1  0.17299450  0.90518717  0.93782794  1
  I  I68  1  0.67299450  0.90518717  0.56217206  1
  I  I69  1  0.17299450  0.59481283  0.43782794  1
  I  I70  1  0.32700550  0.40518717  0.93782794  1
  I  I71  1  0.82700550  0.09481283  0.06217206  1
  I  I72  1  0.48908360  0.92703722  0.36731783  1
  I  I73  1  0.47489794  0.27516504  0.51611767  1
  I  I74  1  0.02510206  0.72483496  0.01611767  1
  I  I75  1  0.52510206  0.77516504  0.98388233  1
  I  I76  1  0.02510206  0.77516504  0.51611767  1
  I  I77  1  0.52510206  0.72483496  0.48388233  1
  I  I78  1  0.97489794  0.27516504  0.98388233  1
  I  I79  1  0.47489794  0.22483496  0.01611767  1
  I  I80  1  1.00220657  0.20947944  0.28621872  1
  I  I81  1  0.50220657  0.29052056  0.71378128  1
  I  I82  1  -0.00220657  0.70947944  0.21378128  1
  I  I83  1  0.49779343  0.79052056  0.78621872  1
  I  I84  1  -0.00220657  0.79052056  0.71378128  1
  I  I85  1  0.49779343  0.70947944  0.28621872  1
  I  I86  1  1.00220657  0.29052056  0.78621872  1
  I  I87  1  0.50220657  0.20947944  0.21378128  1
  I  I88  1  0.75290007  0.33795351  0.36942645  1
  I  I89  1  0.25290007  0.16204649  0.63057355  1
  I  I90  1  0.24709993  0.83795351  0.13057355  1
  I  I91  1  0.74709993  0.66204649  0.86942645  1
  I  I92  1  0.24709993  0.66204649  0.63057355  1
  I  I93  1  0.74709993  0.83795351  0.36942645  1
  I  I94  1  0.75290007  0.16204649  0.86942645  1
  I  I95  1  0.25290007  0.33795351  0.13057355  1
