# generated using pymatgen
data_KTlBr4
_symmetry_space_group_name_H-M   'P 1'
_cell_length_a   8.14915056
_cell_length_b   10.84226597
_cell_length_c   10.89050013
_cell_angle_alpha   90.00000000
_cell_angle_beta   90.00000000
_cell_angle_gamma   90.00000000
_symmetry_Int_Tables_number   1
_chemical_formula_structural   KTlBr4
_chemical_formula_sum   'K4 Tl4 Br16'
_cell_volume   962.23294657
_cell_formula_units_Z   4
loop_
 _symmetry_equiv_pos_site_id
 _symmetry_equiv_pos_as_xyz
  1  'x, y, z'
loop_
 _atom_site_type_symbol
 _atom_site_label
 _atom_site_symmetry_multiplicity
 _atom_site_fract_x
 _atom_site_fract_y
 _atom_site_fract_z
 _atom_site_occupancy
  K  K0  1  0.18095377  0.25000000  0.75000000  1
  K  K1  1  0.31904623  0.75000000  0.75000000  1
  K  K2  1  0.81904623  0.75000000  0.25000000  1
  K  K3  1  0.68095377  0.25000000  0.25000000  1
  Br  Br4  1  0.35099901  0.18970101  0.04743595  1
  Br  Br5  1  0.35099901  0.31029899  0.45256405  1
  Br  Br6  1  0.14900099  0.68970101  0.45256405  1
  Br  Br7  1  0.14900099  0.81029899  0.04743595  1
  Br  Br8  1  0.64900099  0.81029899  0.95256405  1
  Br  Br9  1  0.64900099  0.68970101  0.54743595  1
  Br  Br10  1  0.85099901  0.31029899  0.54743595  1
  Br  Br11  1  0.85099901  0.18970101  0.95256405  1
  Br  Br12  1  0.99315759  0.04078432  0.31863551  1
  Br  Br13  1  0.99315759  0.45921568  0.18136449  1
  Br  Br14  1  0.50684241  0.54078432  0.18136449  1
  Br  Br15  1  0.50684241  0.95921568  0.31863551  1
  Br  Br16  1  0.00684241  0.95921568  0.68136449  1
  Br  Br17  1  0.00684241  0.54078432  0.81863551  1
  Br  Br18  1  0.49315759  0.45921568  0.81863551  1
  Br  Br19  1  0.49315759  0.04078432  0.68136449  1
  Tl  Tl20  1  0.75000000  0.50000000  0.67692606  1
  Tl  Tl21  1  0.75000000  0.00000000  0.82307394  1
  Tl  Tl22  1  0.25000000  0.50000000  0.32307394  1
  Tl  Tl23  1  0.25000000  0.00000000  0.17692606  1
