# generated using pymatgen
data_Bi14WO24
_symmetry_space_group_name_H-M   'P 1'
_cell_length_a   8.76125949
_cell_length_b   8.76125949
_cell_length_c   10.58012522
_cell_angle_alpha   65.54091834
_cell_angle_beta   65.54091834
_cell_angle_gamma   90.00000000
_symmetry_Int_Tables_number   1
_chemical_formula_structural   Bi14WO24
_chemical_formula_sum   'Bi14 W1 O24'
_cell_volume   658.34210558
_cell_formula_units_Z   1
loop_
 _symmetry_equiv_pos_site_id
 _symmetry_equiv_pos_as_xyz
  1  'x, y, z'
loop_
 _atom_site_type_symbol
 _atom_site_label
 _atom_site_symmetry_multiplicity
 _atom_site_fract_x
 _atom_site_fract_y
 _atom_site_fract_z
 _atom_site_occupancy
  Bi  Bi0  1  0.34048690  0.34048690  0.31902619  1
  Bi  Bi1  1  0.65951310  0.65951310  0.68097381  1
  Bi  Bi2  1  0.79672752  0.43644420  0.00000000  1
  Bi  Bi3  1  0.20327248  0.56355580  -0.00000000  1
  Bi  Bi4  1  0.43644420  0.20327248  -0.00000000  1
  Bi  Bi5  1  0.56355580  0.79672752  0.00000000  1
  Bi  Bi6  1  0.12985356  0.71949374  0.33302865  1
  Bi  Bi7  1  0.53711779  0.94747761  0.33302865  1
  Bi  Bi8  1  0.71949374  0.53711779  0.33302865  1
  Bi  Bi9  1  0.94747761  0.12985356  0.33302865  1
  Bi  Bi10  1  0.87014644  0.28050626  0.66697135  1
  Bi  Bi11  1  0.46288221  0.05252239  0.66697135  1
  Bi  Bi12  1  0.28050626  0.46288221  0.66697135  1
  Bi  Bi13  1  0.05252239  0.87014644  0.66697135  1
  W  W14  1  0.00000000  0.00000000  0.00000000  1
  O  O15  1  0.61533793  0.11533793  0.76932414  1
  O  O16  1  0.11533793  0.61533793  0.76932414  1
  O  O17  1  0.38466207  0.88466207  0.23067586  1
  O  O18  1  0.88466207  0.38466207  0.23067586  1
  O  O19  1  0.17389439  0.50134132  0.49435795  1
  O  O20  1  0.33174766  0.00430073  0.49435795  1
  O  O21  1  0.50134132  0.33174766  0.49435795  1
  O  O22  1  0.00430073  0.17389439  0.49435795  1
  O  O23  1  0.82610561  0.49865868  0.50564205  1
  O  O24  1  0.66825234  0.99569927  0.50564205  1
  O  O25  1  0.49865868  0.66825234  0.50564205  1
  O  O26  1  0.99569927  0.82610561  0.50564205  1
  O  O27  1  0.76348406  0.71205142  0.83675403  1
  O  O28  1  0.39976191  0.45119455  0.83675403  1
  O  O29  1  0.71205142  0.39976191  0.83675403  1
  O  O30  1  0.45119455  0.76348406  0.83675403  1
  O  O31  1  0.23651594  0.28794858  0.16324597  1
  O  O32  1  0.60023809  0.54880545  0.16324597  1
  O  O33  1  0.28794858  0.60023809  0.16324597  1
  O  O34  1  0.54880545  0.23651594  0.16324597  1
  O  O35  1  0.97430281  0.21572423  0.00000000  1
  O  O36  1  0.02569719  0.78427577  -0.00000000  1
  O  O37  1  0.21572423  0.02569719  0.00000000  1
  O  O38  1  0.78427577  0.97430281  -0.00000000  1
