# generated using pymatgen
data_Hf(BH4)4
_symmetry_space_group_name_H-M   'P 1'
_cell_length_a   6.00892023
_cell_length_b   6.00892023
_cell_length_c   6.00892023
_cell_angle_alpha   90.00000000
_cell_angle_beta   90.00000000
_cell_angle_gamma   90.00000000
_symmetry_Int_Tables_number   1
_chemical_formula_structural   Hf(BH4)4
_chemical_formula_sum   'Hf1 B4 H16'
_cell_volume   216.96481782
_cell_formula_units_Z   1
loop_
 _symmetry_equiv_pos_site_id
 _symmetry_equiv_pos_as_xyz
  1  'x, y, z'
loop_
 _atom_site_type_symbol
 _atom_site_label
 _atom_site_symmetry_multiplicity
 _atom_site_fract_x
 _atom_site_fract_y
 _atom_site_fract_z
 _atom_site_occupancy
  H  H0  1  0.74982842  0.74982842  0.01630346  1
  H  H1  1  0.25017158  0.98369654  0.74982842  1
  H  H2  1  0.98369654  0.25017158  0.74982842  1
  H  H3  1  0.25017158  0.01630346  0.25017158  1
  H  H4  1  0.01630346  0.25017158  0.25017158  1
  H  H5  1  0.33451783  0.33451783  0.33451783  1
  H  H6  1  0.66548217  0.33451783  0.66548217  1
  H  H7  1  0.66548217  0.66548217  0.33451783  1
  H  H8  1  0.33451783  0.66548217  0.66548217  1
  H  H9  1  0.25017158  0.25017158  0.01630346  1
  H  H10  1  0.74982842  0.01630346  0.74982842  1
  H  H11  1  0.74982842  0.98369654  0.25017158  1
  H  H12  1  0.98369654  0.74982842  0.25017158  1
  H  H13  1  0.01630346  0.74982842  0.74982842  1
  H  H14  1  0.25017158  0.74982842  0.98369654  1
  H  H15  1  0.74982842  0.25017158  0.98369654  1
  B  B16  1  0.21984050  0.78015950  0.78015950  1
  B  B17  1  0.78015950  0.78015950  0.21984050  1
  B  B18  1  0.78015950  0.21984050  0.78015950  1
  B  B19  1  0.21984050  0.21984050  0.21984050  1
  Hf  Hf20  1  0.00000000  0.00000000  0.00000000  1
