# generated using pymatgen
data_Mo2SBr2
_symmetry_space_group_name_H-M   'P 1'
_cell_length_a   6.71078991
_cell_length_b   9.88353363
_cell_length_c   12.06592884
_cell_angle_alpha   90.00000000
_cell_angle_beta   90.00000000
_cell_angle_gamma   109.84601545
_symmetry_Int_Tables_number   1
_chemical_formula_structural   Mo2SBr2
_chemical_formula_sum   'Mo12 S6 Br12'
_cell_volume   752.75822233
_cell_formula_units_Z   6
loop_
 _symmetry_equiv_pos_site_id
 _symmetry_equiv_pos_as_xyz
  1  'x, y, z'
loop_
 _atom_site_type_symbol
 _atom_site_label
 _atom_site_symmetry_multiplicity
 _atom_site_fract_x
 _atom_site_fract_y
 _atom_site_fract_z
 _atom_site_occupancy
  S  S0  1  0.38091064  0.00000000  0.37193598  1
  S  S1  1  0.38091064  0.00000000  0.12806402  1
  S  S2  1  0.61908936  0.00000000  0.87193598  1
  S  S3  1  0.61908936  0.00000000  0.62806402  1
  S  S4  1  0.91161919  0.00000000  0.25000000  1
  S  S5  1  0.08838081  0.00000000  0.75000000  1
  Br  Br6  1  0.63112472  0.65705244  0.75000000  1
  Br  Br7  1  0.97407229  0.34294756  0.75000000  1
  Br  Br8  1  0.36887528  0.34294756  0.25000000  1
  Br  Br9  1  0.02592771  0.65705244  0.25000000  1
  Br  Br10  1  0.39505694  0.28424973  0.93654596  1
  Br  Br11  1  0.11080721  0.71575027  0.56345404  1
  Br  Br12  1  0.11080721  0.71575027  0.93654596  1
  Br  Br13  1  0.39505694  0.28424973  0.56345404  1
  Br  Br14  1  0.88919279  0.28424973  0.43654596  1
  Br  Br15  1  0.60494306  0.71575027  0.06345404  1
  Br  Br16  1  0.88919279  0.28424973  0.06345404  1
  Br  Br17  1  0.60494306  0.71575027  0.43654596  1
  Mo  Mo18  1  0.74429172  0.00000000  0.06151884  1
  Mo  Mo19  1  0.74429172  0.00000000  0.43848116  1
  Mo  Mo20  1  0.25570828  0.00000000  0.56151884  1
  Mo  Mo21  1  0.25570828  0.00000000  0.93848116  1
  Mo  Mo22  1  0.15571845  0.14337716  0.10183540  1
  Mo  Mo23  1  0.01234130  0.85662284  0.39816460  1
  Mo  Mo24  1  0.84428155  0.85662284  0.60183540  1
  Mo  Mo25  1  0.98765870  0.14337716  0.89816460  1
  Mo  Mo26  1  0.84428155  0.85662284  0.89816460  1
  Mo  Mo27  1  0.98765870  0.14337716  0.60183540  1
  Mo  Mo28  1  0.15571845  0.14337716  0.39816460  1
  Mo  Mo29  1  0.01234130  0.85662284  0.10183540  1
