# generated using pymatgen
data_Sb2F7
_symmetry_space_group_name_H-M   'P 1'
_cell_length_a   4.91639023
_cell_length_b   11.04127519
_cell_length_c   11.06527009
_cell_angle_alpha   90.00000000
_cell_angle_beta   90.00000000
_cell_angle_gamma   95.46989567
_symmetry_Int_Tables_number   1
_chemical_formula_structural   Sb2F7
_chemical_formula_sum   'Sb8 F28'
_cell_volume   597.92331671
_cell_formula_units_Z   4
loop_
 _symmetry_equiv_pos_site_id
 _symmetry_equiv_pos_as_xyz
  1  'x, y, z'
loop_
 _atom_site_type_symbol
 _atom_site_label
 _atom_site_symmetry_multiplicity
 _atom_site_fract_x
 _atom_site_fract_y
 _atom_site_fract_z
 _atom_site_occupancy
  F  F0  1  0.64420672  0.45101940  0.12731803  1
  F  F1  1  0.35579328  0.54898060  0.62731803  1
  F  F2  1  0.35579328  0.54898060  0.87268197  1
  F  F3  1  0.64420672  0.45101940  0.37268197  1
  F  F4  1  0.81803758  0.94516895  0.75000000  1
  F  F5  1  0.18196242  0.05483105  0.25000000  1
  F  F6  1  0.76956499  0.05069182  0.08990345  1
  F  F7  1  0.23043501  0.94930818  0.58990345  1
  F  F8  1  0.68076768  0.22261196  0.25000000  1
  F  F9  1  0.31923232  0.77738804  0.75000000  1
  F  F10  1  0.17972632  0.37999741  0.25000000  1
  F  F11  1  0.82027368  0.62000259  0.75000000  1
  F  F12  1  0.41136667  0.21377533  0.48100781  1
  F  F13  1  0.58863333  0.78622467  0.98100781  1
  F  F14  1  0.58863333  0.78622467  0.51899219  1
  F  F15  1  0.41136667  0.21377533  0.01899219  1
  F  F16  1  0.68609229  0.66708562  0.25000000  1
  F  F17  1  0.31390771  0.33291438  0.75000000  1
  F  F18  1  0.22429321  0.59295166  0.12546188  1
  F  F19  1  0.77570679  0.40704834  0.62546188  1
  F  F20  1  0.77570679  0.40704834  0.87453812  1
  F  F21  1  0.22429321  0.59295166  0.37453812  1
  F  F22  1  0.13484172  0.84388545  0.12504659  1
  F  F23  1  0.86515828  0.15611455  0.62504659  1
  F  F24  1  0.86515828  0.15611455  0.87495341  1
  F  F25  1  0.13484172  0.84388545  0.37495341  1
  F  F26  1  0.76956499  0.05069182  0.41009655  1
  F  F27  1  0.23043501  0.94930818  0.91009655  1
  Sb  Sb28  1  0.10553886  0.07687532  0.75000000  1
  Sb  Sb29  1  0.89446114  0.92312468  0.25000000  1
  Sb  Sb30  1  0.79569518  0.23169030  0.06109922  1
  Sb  Sb31  1  0.20430482  0.76830970  0.56109922  1
  Sb  Sb32  1  0.20430482  0.76830970  0.93890078  1
  Sb  Sb33  1  0.79569518  0.23169030  0.43890078  1
  Sb  Sb34  1  0.56690714  0.47617754  0.75000000  1
  Sb  Sb35  1  0.43309286  0.52382246  0.25000000  1
