# generated using pymatgen
data_Cu2P7
_symmetry_space_group_name_H-M   'P 1'
_cell_length_a   7.28972345
_cell_length_b   7.32894142
_cell_length_c   14.59308850
_cell_angle_alpha   76.22242126
_cell_angle_beta   75.53631654
_cell_angle_gamma   60.17685598
_symmetry_Int_Tables_number   1
_chemical_formula_structural   Cu2P7
_chemical_formula_sum   'Cu8 P28'
_cell_volume   648.90678403
_cell_formula_units_Z   4
loop_
 _symmetry_equiv_pos_site_id
 _symmetry_equiv_pos_as_xyz
  1  'x, y, z'
loop_
 _atom_site_type_symbol
 _atom_site_label
 _atom_site_symmetry_multiplicity
 _atom_site_fract_x
 _atom_site_fract_y
 _atom_site_fract_z
 _atom_site_occupancy
  P  P0  1  0.95880480  0.22063625  0.37722252  1
  P  P1  1  0.55666358  0.77936375  0.62277748  1
  P  P2  1  0.04119520  0.77936375  0.62277748  1
  P  P3  1  0.44333642  0.22063625  0.37722252  1
  P  P4  1  0.97094433  0.36530005  0.22354541  1
  P  P5  1  0.55978978  0.63469995  0.77645459  1
  P  P6  1  0.02905567  0.63469995  0.77645459  1
  P  P7  1  0.44021022  0.36530005  0.22354541  1
  P  P8  1  0.77599471  0.04128518  0.40672541  1
  P  P9  1  0.22400529  0.95871482  0.59327459  1
  P  P10  1  0.89468757  0.41409639  0.79652846  1
  P  P11  1  0.10531243  0.58590361  0.20347154  1
  P  P12  1  0.65333812  0.64993650  0.04338727  1
  P  P13  1  0.34666188  0.35006350  0.95661273  1
  P  P14  1  0.52809018  0.29886871  0.64495093  1
  P  P15  1  0.47190982  0.70113129  0.35504907  1
  P  P16  1  0.64260509  0.16581275  0.01886767  1
  P  P17  1  0.82728551  0.83418725  0.98113233  1
  P  P18  1  0.35739491  0.83418725  0.98113233  1
  P  P19  1  0.17271449  0.16581275  0.01886767  1
  P  P20  1  0.27232741  0.54128294  0.42157481  1
  P  P21  1  0.23518516  0.45871706  0.57842519  1
  P  P22  1  0.72767259  0.45871706  0.57842519  1
  P  P23  1  0.76481484  0.54128294  0.42157481  1
  P  P24  1  0.53805940  0.06662285  0.17045373  1
  P  P25  1  0.77513598  0.93337715  0.82954627  1
  P  P26  1  0.46194060  0.93337715  0.82954627  1
  P  P27  1  0.22486402  0.06662285  0.17045373  1
  Cu  Cu28  1  0.28130019  0.01021793  0.42718169  1
  Cu  Cu29  1  0.71869981  0.98978207  0.57281831  1
  Cu  Cu30  1  0.38333031  0.43935766  0.79398173  1
  Cu  Cu31  1  0.61666969  0.56064234  0.20601827  1
  Cu  Cu32  1  0.15651392  0.65423891  0.03273326  1
  Cu  Cu33  1  0.84348608  0.34576109  0.96726674  1
  Cu  Cu34  1  0.03412353  0.28549259  0.64626035  1
  Cu  Cu35  1  0.96587647  0.71450741  0.35373965  1
