# generated using pymatgen
data_P4Se3I2
_symmetry_space_group_name_H-M   'P 1'
_cell_length_a   12.38891223
_cell_length_b   12.38891223
_cell_length_c   12.38891223
_cell_angle_alpha   94.06071026
_cell_angle_beta   117.68390275
_cell_angle_gamma   117.68390277
_symmetry_Int_Tables_number   1
_chemical_formula_structural   P4Se3I2
_chemical_formula_sum   'P16 Se12 I8'
_cell_volume   1387.87324981
_cell_formula_units_Z   4
loop_
 _symmetry_equiv_pos_site_id
 _symmetry_equiv_pos_as_xyz
  1  'x, y, z'
loop_
 _atom_site_type_symbol
 _atom_site_label
 _atom_site_symmetry_multiplicity
 _atom_site_fract_x
 _atom_site_fract_y
 _atom_site_fract_z
 _atom_site_occupancy
  P  P0  1  0.36538753  0.89480821  0.52392416  1
  P  P1  1  0.52866315  0.01255485  0.73569744  1
  P  P2  1  0.47133685  0.20703429  0.48389170  1
  P  P3  1  0.02866315  0.48569744  0.26255485  1
  P  P4  1  0.72314259  0.51610830  0.98744515  1
  P  P5  1  0.27685741  0.26430256  0.79296571  1
  P  P6  1  0.22314259  0.73744515  0.76610830  1
  P  P7  1  0.77685741  0.54296571  0.51430256  1
  P  P8  1  0.97133685  0.23389170  0.45703429  1
  P  P9  1  0.63461247  0.15853662  0.52942068  1
  P  P10  1  0.13461247  0.27942068  0.40853662  1
  P  P11  1  0.37088405  0.47607584  0.84146338  1
  P  P12  1  0.86538753  0.27392416  0.14480821  1
  P  P13  1  0.62911595  0.47057932  0.10519179  1
  P  P14  1  0.87088405  0.59146338  0.72607584  1
  P  P15  1  0.12911595  0.85519179  0.72057932  1
  Se  Se16  1  0.00000000  0.18783336  0.18783336  1
  Se  Se17  1  0.29200738  0.03528768  0.49157158  1
  Se  Se18  1  0.50000000  0.56216664  0.06216664  1
  Se  Se19  1  0.20799262  0.49328030  0.44956420  1
  Se  Se20  1  0.54371610  0.50842842  0.80043580  1
  Se  Se21  1  0.45628390  0.25671970  0.96471232  1
  Se  Se22  1  0.04371610  0.55043580  0.75842842  1
  Se  Se23  1  0.95628390  0.71471232  0.50671970  1
  Se  Se24  1  0.79200738  0.24157158  0.28528768  1
  Se  Se25  1  0.50000000  0.93783336  0.43783336  1
  Se  Se26  1  0.00000000  0.81216664  0.81216664  1
  Se  Se27  1  0.70799262  0.19956420  0.74328030  1
  I  I28  1  0.86085658  0.99421232  0.40732075  1
  I  I29  1  0.58689158  0.59267925  0.45353583  1
  I  I30  1  0.41310842  0.86664426  0.00578768  1
  I  I31  1  0.08689158  0.20353583  0.84267925  1
  I  I32  1  0.91310842  0.75578768  0.11664426  1
  I  I33  1  0.13914342  0.54646417  0.13335574  1
  I  I34  1  0.36085658  0.15732075  0.24421232  1
  I  I35  1  0.63914342  0.88335574  0.79646417  1
