# generated using pymatgen
data_La6NbGa11O28
_symmetry_space_group_name_H-M   'P 1'
_cell_length_a   8.48186770
_cell_length_b   9.69833685
_cell_length_c   9.71315358
_cell_angle_alpha   64.77334531
_cell_angle_beta   65.34075794
_cell_angle_gamma   64.23367659
_symmetry_Int_Tables_number   1
_chemical_formula_structural   La6NbGa11O28
_chemical_formula_sum   'La6 Nb1 Ga11 O28'
_cell_volume   623.99692263
_cell_formula_units_Z   1
loop_
 _symmetry_equiv_pos_site_id
 _symmetry_equiv_pos_as_xyz
  1  'x, y, z'
loop_
 _atom_site_type_symbol
 _atom_site_label
 _atom_site_symmetry_multiplicity
 _atom_site_fract_x
 _atom_site_fract_y
 _atom_site_fract_z
 _atom_site_occupancy
  La  La0  1  0.43526752  0.01404248  0.99509305  1
  La  La1  1  0.41008806  0.50742964  0.51588937  1
  La  La2  1  0.57033194  0.71628337  0.72918349  1
  La  La3  1  0.54070854  0.20724873  0.23852370  1
  La  La4  1  0.00030809  0.28307326  0.29092469  1
  La  La5  1  0.00371113  0.80167729  0.79071815  1
  Nb  Nb6  1  0.99343455  0.01792895  0.01439922  1
  Ga  Ga7  1  0.75189825  0.27967646  0.75100257  1
  Ga  Ga8  1  0.74789150  0.74313478  0.23424173  1
  Ga  Ga9  1  0.27330041  0.09820248  0.61886807  1
  Ga  Ga10  1  0.24486850  0.62748338  0.15598240  1
  Ga  Ga11  1  0.39513419  0.90731004  0.41575637  1
  Ga  Ga12  1  0.32164675  0.44816908  0.91371006  1
  Ga  Ga13  1  0.65111527  0.07778873  0.60839735  1
  Ga  Ga14  1  0.63769248  0.60653492  0.11398421  1
  Ga  Ga15  1  0.92900802  0.83179779  0.40234588  1
  Ga  Ga16  1  0.06144728  0.36942723  0.79827358  1
  Ga  Ga17  1  0.00448245  0.48447023  0.48821863  1
  O  O18  1  0.20922078  0.32105205  0.59738039  1
  O  O19  1  0.21364627  0.85424133  0.09040214  1
  O  O20  1  0.79828350  0.69861065  0.42379132  1
  O  O21  1  0.76985019  0.20242490  0.96675684  1
  O  O22  1  0.87112811  0.02330527  0.24301204  1
  O  O23  1  0.85963190  0.48706955  0.72268186  1
  O  O24  1  0.13883486  0.65269129  0.41059968  1
  O  O25  1  0.10907108  0.18650751  0.96497653  1
  O  O26  1  0.55892891  0.96178565  0.21209333  1
  O  O27  1  0.53267463  0.44952606  0.74053559  1
  O  O28  1  0.43567343  0.02397210  0.75115489  1
  O  O29  1  0.48825252  0.49240861  0.16634721  1
  O  O30  1  0.20767767  0.10193536  0.43544728  1
  O  O31  1  0.15673943  0.51153212  0.79426000  1
  O  O32  1  0.85055351  0.88707465  0.58571322  1
  O  O33  1  0.85202962  0.54519575  0.16331574  1
  O  O34  1  0.87910300  0.33805959  0.53402867  1
  O  O35  1  0.90612889  0.84272034  0.04873684  1
  O  O36  1  0.08861344  0.01686408  0.78626346  1
  O  O37  1  0.14267825  0.45953054  0.27971103  1
  O  O38  1  0.51081404  0.97536803  0.50155150  1
  O  O39  1  0.28319253  0.64045627  0.93967444  1
  O  O40  1  0.69723859  0.09750598  0.77456782  1
  O  O41  1  0.51728119  0.69942766  0.28805581  1
  O  O42  1  0.63612527  0.25759757  0.43340432  1
  O  O43  1  0.66485569  0.75300163  0.91702223  1
  O  O44  1  0.32077357  0.75246580  0.59352114  1
  O  O45  1  0.32866422  0.25969082  0.07318215  1
