# generated using pymatgen
data_KAs2F7
_symmetry_space_group_name_H-M   'P 1'
_cell_length_a   7.46776702
_cell_length_b   8.96745749
_cell_length_c   11.11905414
_cell_angle_alpha   110.52274615
_cell_angle_beta   90.00000000
_cell_angle_gamma   90.00000000
_symmetry_Int_Tables_number   1
_chemical_formula_structural   KAs2F7
_chemical_formula_sum   'K4 As8 F28'
_cell_volume   697.35040250
_cell_formula_units_Z   4
loop_
 _symmetry_equiv_pos_site_id
 _symmetry_equiv_pos_as_xyz
  1  'x, y, z'
loop_
 _atom_site_type_symbol
 _atom_site_label
 _atom_site_symmetry_multiplicity
 _atom_site_fract_x
 _atom_site_fract_y
 _atom_site_fract_z
 _atom_site_occupancy
  F  F0  1  0.99417412  0.69637226  0.36633366  1
  F  F1  1  0.49417412  0.80362774  0.63366634  1
  F  F2  1  0.00582588  0.30362774  0.63366634  1
  F  F3  1  0.50582588  0.19637226  0.36633366  1
  F  F4  1  0.87406316  0.45153072  0.17711007  1
  F  F5  1  0.37406316  0.04846928  0.82288993  1
  F  F6  1  0.12593684  0.54846928  0.82288993  1
  F  F7  1  0.62593684  0.95153072  0.17711007  1
  F  F8  1  0.99518477  0.70648126  0.13296163  1
  F  F9  1  0.49518477  0.79351874  0.86703837  1
  F  F10  1  0.00481523  0.29351874  0.86703837  1
  F  F11  1  0.50481523  0.20648126  0.13296163  1
  F  F12  1  0.93964406  0.06643180  0.39019555  1
  F  F13  1  0.43964406  0.43356820  0.60980445  1
  F  F14  1  0.06035594  0.93356820  0.60980445  1
  F  F15  1  0.56035594  0.56643180  0.39019555  1
  F  F16  1  0.12128987  0.30551826  0.37126238  1
  F  F17  1  0.62128987  0.19448174  0.62873762  1
  F  F18  1  0.87871013  0.69448174  0.62873762  1
  F  F19  1  0.37871013  0.80551826  0.37126238  1
  F  F20  1  0.20225568  0.01793415  0.23596987  1
  F  F21  1  0.70225568  0.48206585  0.76403013  1
  F  F22  1  0.79774432  0.98206585  0.76403013  1
  F  F23  1  0.29774432  0.51793415  0.23596987  1
  F  F24  1  0.82030096  0.09959301  0.06626197  1
  F  F25  1  0.32030096  0.40040699  0.93373803  1
  F  F26  1  0.17969904  0.90040699  0.93373803  1
  F  F27  1  0.67969904  0.59959301  0.06626197  1
  K  K28  1  0.34520647  0.72351400  0.07805343  1
  K  K29  1  0.84520647  0.77648600  0.92194657  1
  K  K30  1  0.65479353  0.27648600  0.92194657  1
  K  K31  1  0.15479353  0.22351400  0.07805343  1
  As  As32  1  0.81928054  0.65992409  0.22562808  1
  As  As33  1  0.31928054  0.84007591  0.77437192  1
  As  As34  1  0.18071946  0.34007591  0.77437192  1
  As  As35  1  0.68071946  0.15992409  0.22562808  1
  As  As36  1  0.32965021  0.62873506  0.40363875  1
  As  As37  1  0.82965021  0.87126494  0.59636125  1
  As  As38  1  0.67034979  0.37126494  0.59636125  1
  As  As39  1  0.17034979  0.12873506  0.40363875  1
