# generated using pymatgen
data_Ba3Te4O11
_symmetry_space_group_name_H-M   'P 1'
_cell_length_a   8.15054849
_cell_length_b   9.61008759
_cell_length_c   10.25161261
_cell_angle_alpha   97.97682586
_cell_angle_beta   111.40976454
_cell_angle_gamma   102.67517310
_symmetry_Int_Tables_number   1
_chemical_formula_structural   Ba3Te4O11
_chemical_formula_sum   'Ba6 Te8 O22'
_cell_volume   707.86222422
_cell_formula_units_Z   2
loop_
 _symmetry_equiv_pos_site_id
 _symmetry_equiv_pos_as_xyz
  1  'x, y, z'
loop_
 _atom_site_type_symbol
 _atom_site_label
 _atom_site_symmetry_multiplicity
 _atom_site_fract_x
 _atom_site_fract_y
 _atom_site_fract_z
 _atom_site_occupancy
  O  O0  1  0.84975907  0.72568257  0.58484453  1
  O  O1  1  0.15024093  0.27431743  0.41515547  1
  O  O2  1  0.20252433  0.75759561  0.80206547  1
  O  O3  1  0.79747567  0.24240439  0.19793453  1
  O  O4  1  0.99602059  0.94363184  0.84932512  1
  O  O5  1  0.00397941  0.05636816  0.15067488  1
  O  O6  1  0.60058629  0.68763856  0.90014224  1
  O  O7  1  0.39941371  0.31236144  0.09985776  1
  O  O8  1  0.59648868  0.89980556  0.12365632  1
  O  O9  1  0.40351132  0.10019444  0.87634368  1
  O  O10  1  0.74111843  0.64796681  0.18899109  1
  O  O11  1  0.25888157  0.35203319  0.81100891  1
  O  O12  1  0.06841728  0.59882082  0.37108049  1
  O  O13  1  0.93158272  0.40117918  0.62891951  1
  O  O14  1  0.48211255  0.21348182  0.37220240  1
  O  O15  1  0.51788745  0.78651818  0.62779760  1
  O  O16  1  0.53594256  0.39342817  0.64341428  1
  O  O17  1  0.46405744  0.60657183  0.35658572  1
  O  O18  1  0.66728025  0.13442138  0.63817938  1
  O  O19  1  0.33271975  0.86557862  0.36182062  1
  O  O20  1  0.93878425  0.32703030  0.89289635  1
  O  O21  1  0.06121575  0.67296970  0.10710365  1
  Te  Te22  1  0.44075596  0.19594425  0.53759023  1
  Te  Te23  1  0.55924404  0.80405575  0.46240977  1
  Te  Te24  1  0.94612913  0.24334999  0.71879526  1
  Te  Te25  1  0.05387087  0.75665001  0.28120474  1
  Te  Te26  1  0.46512555  0.30600909  0.94115331  1
  Te  Te27  1  0.53487445  0.69399091  0.05884669  1
  Te  Te28  1  0.07406054  0.87922992  0.70452719  1
  Te  Te29  1  0.92593946  0.12077008  0.29547281  1
  Ba  Ba30  1  0.31076293  0.01546205  0.11463263  1
  Ba  Ba31  1  0.68923707  0.98453795  0.88536737  1
  Ba  Ba32  1  0.14459133  0.40710889  0.17768480  1
  Ba  Ba33  1  0.85540867  0.59289111  0.82231520  1
  Ba  Ba34  1  0.71915641  0.45796555  0.37033008  1
  Ba  Ba35  1  0.28084359  0.54203445  0.62966992  1
