# generated using pymatgen
data_Fe2MoP12
_symmetry_space_group_name_H-M   'P 1'
_cell_length_a   5.68667250
_cell_length_b   11.13436134
_cell_length_c   13.76985573
_cell_angle_alpha   90.00000000
_cell_angle_beta   90.00000000
_cell_angle_gamma   90.00000000
_symmetry_Int_Tables_number   1
_chemical_formula_structural   Fe2MoP12
_chemical_formula_sum   'Fe8 Mo4 P48'
_cell_volume   871.87237803
_cell_formula_units_Z   4
loop_
 _symmetry_equiv_pos_site_id
 _symmetry_equiv_pos_as_xyz
  1  'x, y, z'
loop_
 _atom_site_type_symbol
 _atom_site_label
 _atom_site_symmetry_multiplicity
 _atom_site_fract_x
 _atom_site_fract_y
 _atom_site_fract_z
 _atom_site_occupancy
  P  P0  1  0.96717290  0.49980343  0.20274399  1
  P  P1  1  0.96717290  0.00019657  0.79725601  1
  P  P2  1  0.53282710  0.99980343  0.29725601  1
  P  P3  1  0.53282710  0.50019657  0.70274399  1
  P  P4  1  0.03282710  0.50019657  0.79725601  1
  P  P5  1  0.03282710  0.99980343  0.20274399  1
  P  P6  1  0.46717290  0.00019657  0.70274399  1
  P  P7  1  0.46717290  0.49980343  0.29725601  1
  P  P8  1  0.73480755  0.43903579  0.40838564  1
  P  P9  1  0.73480755  0.06096421  0.59161436  1
  P  P10  1  0.76519245  0.93903579  0.09161436  1
  P  P11  1  0.76519245  0.56096421  0.90838564  1
  P  P12  1  0.98408368  0.19576537  0.16798960  1
  P  P13  1  0.98408368  0.30423463  0.83201040  1
  P  P14  1  0.51591632  0.69576537  0.33201040  1
  P  P15  1  0.51591632  0.80423463  0.66798960  1
  P  P16  1  0.01591632  0.80423463  0.83201040  1
  P  P17  1  0.01591632  0.69576537  0.16798960  1
  P  P18  1  0.48408368  0.30423463  0.66798960  1
  P  P19  1  0.48408368  0.19576537  0.33201040  1
  P  P20  1  0.11865824  0.27086901  0.31058795  1
  P  P21  1  0.11865824  0.22913099  0.68941205  1
  P  P22  1  0.38134176  0.77086901  0.18941205  1
  P  P23  1  0.38134176  0.72913099  0.81058795  1
  P  P24  1  0.88134176  0.72913099  0.68941205  1
  P  P25  1  0.88134176  0.77086901  0.31058795  1
  P  P26  1  0.61865824  0.22913099  0.81058795  1
  P  P27  1  0.61865824  0.27086901  0.18941205  1
  P  P28  1  0.25590071  0.39845491  0.49157646  1
  P  P29  1  0.25590071  0.10154509  0.50842354  1
  P  P30  1  0.24409929  0.89845491  0.00842354  1
  P  P31  1  0.24409929  0.60154509  0.99157646  1
  P  P32  1  0.74409929  0.60154509  0.50842354  1
  P  P33  1  0.74409929  0.89845491  0.49157646  1
  P  P34  1  0.75590071  0.10154509  0.99157646  1
  P  P35  1  0.75590071  0.39845491  0.00842354  1
  P  P36  1  0.43795108  0.14420825  0.08687953  1
  P  P37  1  0.43795108  0.35579175  0.91312047  1
  P  P38  1  0.06204892  0.64420825  0.41312047  1
  P  P39  1  0.06204892  0.85579175  0.58687953  1
  P  P40  1  0.56204892  0.85579175  0.91312047  1
  P  P41  1  0.56204892  0.64420825  0.08687953  1
  P  P42  1  0.93795108  0.35579175  0.58687953  1
  P  P43  1  0.93795108  0.14420825  0.41312047  1
  P  P44  1  0.23480755  0.43903579  0.09161436  1
  P  P45  1  0.23480755  0.06096421  0.90838564  1
  P  P46  1  0.26519245  0.93903579  0.40838564  1
  P  P47  1  0.26519245  0.56096421  0.59161436  1
  Fe  Fe48  1  0.60342911  0.45884754  0.15026750  1
  Fe  Fe49  1  0.60342911  0.04115246  0.84973250  1
  Fe  Fe50  1  0.89657089  0.95884754  0.34973250  1
  Fe  Fe51  1  0.89657089  0.54115246  0.65026750  1
  Fe  Fe52  1  0.39657089  0.54115246  0.84973250  1
  Fe  Fe53  1  0.39657089  0.95884754  0.15026750  1
  Fe  Fe54  1  0.10342911  0.04115246  0.65026750  1
  Fe  Fe55  1  0.10342911  0.45884754  0.34973250  1
  Mo  Mo56  1  0.60092139  0.25000000  0.50000000  1
  Mo  Mo57  1  0.89907861  0.75000000  0.00000000  1
  Mo  Mo58  1  0.39907861  0.75000000  0.50000000  1
  Mo  Mo59  1  0.10092139  0.25000000  0.00000000  1
