# generated using pymatgen
data_In2(TeO3)3
_symmetry_space_group_name_H-M   'P 1'
_cell_length_a   5.54664963
_cell_length_b   8.22281023
_cell_length_c   18.57989867
_cell_angle_alpha   90.00000000
_cell_angle_beta   90.00000000
_cell_angle_gamma   90.00000000
_symmetry_Int_Tables_number   1
_chemical_formula_structural   In2(TeO3)3
_chemical_formula_sum   'In8 Te12 O36'
_cell_volume   847.41147764
_cell_formula_units_Z   4
loop_
 _symmetry_equiv_pos_site_id
 _symmetry_equiv_pos_as_xyz
  1  'x, y, z'
loop_
 _atom_site_type_symbol
 _atom_site_label
 _atom_site_symmetry_multiplicity
 _atom_site_fract_x
 _atom_site_fract_y
 _atom_site_fract_z
 _atom_site_occupancy
  In  In0  1  0.70716578  0.68547405  0.06339138  1
  In  In1  1  0.79283422  0.18547405  0.43660862  1
  In  In2  1  0.20716578  0.81452595  0.93660862  1
  In  In3  1  0.29283422  0.31452595  0.93660862  1
  In  In4  1  0.70716578  0.68547405  0.43660862  1
  In  In5  1  0.29283422  0.31452595  0.56339138  1
  In  In6  1  0.20716578  0.81452595  0.56339138  1
  In  In7  1  0.79283422  0.18547405  0.06339138  1
  Te  Te8  1  0.73055569  0.15761439  0.25000000  1
  Te  Te9  1  0.81374097  0.13796429  0.86920919  1
  Te  Te10  1  0.18625903  0.86203571  0.13079081  1
  Te  Te11  1  0.23055569  0.34238561  0.75000000  1
  Te  Te12  1  0.68625903  0.63796429  0.86920919  1
  Te  Te13  1  0.68625903  0.63796429  0.63079081  1
  Te  Te14  1  0.31374097  0.36203571  0.36920919  1
  Te  Te15  1  0.18625903  0.86203571  0.36920919  1
  Te  Te16  1  0.31374097  0.36203571  0.13079081  1
  Te  Te17  1  0.81374097  0.13796429  0.63079081  1
  Te  Te18  1  0.26944431  0.84238561  0.75000000  1
  Te  Te19  1  0.76944431  0.65761439  0.25000000  1
  O  O20  1  0.45983224  0.14959060  0.12614320  1
  O  O21  1  0.37472507  0.82020003  0.04151257  1
  O  O22  1  0.04016776  0.64959060  0.37385680  1
  O  O23  1  0.04016776  0.64959060  0.12614320  1
  O  O24  1  0.37472507  0.82020003  0.45848743  1
  O  O25  1  0.04793908  0.78709797  0.67324322  1
  O  O26  1  0.94751501  0.85958681  0.25000000  1
  O  O27  1  0.45983224  0.14959060  0.37385680  1
  O  O28  1  0.54016776  0.85040940  0.62614320  1
  O  O29  1  0.95983224  0.35040940  0.62614320  1
  O  O30  1  0.59092453  0.43273558  0.42754554  1
  O  O31  1  0.40907547  0.56726442  0.57245446  1
  O  O32  1  0.45206092  0.28709797  0.67324322  1
  O  O33  1  0.59092453  0.43273558  0.07245446  1
  O  O34  1  0.05248499  0.14041319  0.75000000  1
  O  O35  1  0.54016776  0.85040940  0.87385680  1
  O  O36  1  0.09092453  0.06726442  0.57245446  1
  O  O37  1  0.62527493  0.17979997  0.95848743  1
  O  O38  1  0.44751501  0.64041319  0.75000000  1
  O  O39  1  0.62527493  0.17979997  0.54151257  1
  O  O40  1  0.12527493  0.32020003  0.04151257  1
  O  O41  1  0.09092453  0.06726442  0.92754554  1
  O  O42  1  0.87472507  0.67979997  0.95848743  1
  O  O43  1  0.45206092  0.28709797  0.82675678  1
  O  O44  1  0.40907547  0.56726442  0.92754554  1
  O  O45  1  0.54793908  0.71290203  0.32675678  1
  O  O46  1  0.95983224  0.35040940  0.87385680  1
  O  O47  1  0.04793908  0.78709797  0.82675678  1
  O  O48  1  0.95206092  0.21290203  0.32675678  1
  O  O49  1  0.55248499  0.35958681  0.25000000  1
  O  O50  1  0.12527493  0.32020003  0.45848743  1
  O  O51  1  0.95206092  0.21290203  0.17324322  1
  O  O52  1  0.90907547  0.93273558  0.07245446  1
  O  O53  1  0.87472507  0.67979997  0.54151257  1
  O  O54  1  0.90907547  0.93273558  0.42754554  1
  O  O55  1  0.54793908  0.71290203  0.17324322  1
