# generated using pymatgen
data_BaBiBrO2
_symmetry_space_group_name_H-M   'P 1'
_cell_length_a   4.11777296
_cell_length_b   4.11777296
_cell_length_c   7.58739720
_cell_angle_alpha   74.25502538
_cell_angle_beta   74.25502538
_cell_angle_gamma   90.00000000
_symmetry_Int_Tables_number   1
_chemical_formula_structural   BaBiBrO2
_chemical_formula_sum   'Ba1 Bi1 Br1 O2'
_cell_volume   118.80202571
_cell_formula_units_Z   1
loop_
 _symmetry_equiv_pos_site_id
 _symmetry_equiv_pos_as_xyz
  1  'x, y, z'
loop_
 _atom_site_type_symbol
 _atom_site_label
 _atom_site_symmetry_multiplicity
 _atom_site_fract_x
 _atom_site_fract_y
 _atom_site_fract_z
 _atom_site_occupancy
  Ba  Ba0  1  0.14450014  0.14450014  0.71099972  1
  Bi  Bi1  1  0.82765001  0.82765001  0.34469998  1
  Br  Br2  1  0.50865531  0.50865531  0.98268938  1
  O  O3  1  0.75959727  0.25959727  0.48080546  1
  O  O4  1  0.25959727  0.75959727  0.48080546  1
