# generated using pymatgen
data_K3NO3
_symmetry_space_group_name_H-M   'P 1'
_cell_length_a   7.32225217
_cell_length_b   7.32225217
_cell_length_c   7.38697245
_cell_angle_alpha   119.71059571
_cell_angle_beta   119.71059566
_cell_angle_gamma   90.00000006
_symmetry_Int_Tables_number   1
_chemical_formula_structural   K3NO3
_chemical_formula_sum   'K6 N2 O6'
_cell_volume   282.48574717
_cell_formula_units_Z   2
loop_
 _symmetry_equiv_pos_site_id
 _symmetry_equiv_pos_as_xyz
  1  'x, y, z'
loop_
 _atom_site_type_symbol
 _atom_site_label
 _atom_site_symmetry_multiplicity
 _atom_site_fract_x
 _atom_site_fract_y
 _atom_site_fract_z
 _atom_site_occupancy
  N  N0  1  0.28696323  0.78696323  0.57392646  1
  N  N1  1  0.78696323  0.28696323  0.57392646  1
  O  O2  1  0.82602284  0.11694054  0.44296337  1
  O  O3  1  0.61694054  0.32602284  0.44296337  1
  O  O4  1  0.49990188  0.49990188  0.99980376  1
  O  O5  1  0.99990188  0.99990188  0.99980376  1
  O  O6  1  0.32602284  0.82602284  0.44296337  1
  O  O7  1  0.11694054  0.61694054  0.44296337  1
  K  K8  1  0.70286055  0.20286055  0.02234435  1
  K  K9  1  0.81948380  0.70286055  0.02234435  1
  K  K10  1  0.20286055  0.31948380  0.02234435  1
  K  K11  1  0.31948380  0.81948380  0.02234435  1
  K  K12  1  0.75382717  0.75382717  0.50765433  1
  K  K13  1  0.25382717  0.25382717  0.50765433  1
