# generated using pymatgen
data_H8NF5
_symmetry_space_group_name_H-M   'P 1'
_cell_length_a   6.37459826
_cell_length_b   6.37459825
_cell_length_c   8.22093567
_cell_angle_alpha   112.81178253
_cell_angle_beta   112.81178249
_cell_angle_gamma   90.00000005
_symmetry_Int_Tables_number   1
_chemical_formula_structural   H8NF5
_chemical_formula_sum   'H16 N2 F10'
_cell_volume   279.37028496
_cell_formula_units_Z   2
loop_
 _symmetry_equiv_pos_site_id
 _symmetry_equiv_pos_as_xyz
  1  'x, y, z'
loop_
 _atom_site_type_symbol
 _atom_site_label
 _atom_site_symmetry_multiplicity
 _atom_site_fract_x
 _atom_site_fract_y
 _atom_site_fract_z
 _atom_site_occupancy
  H  H0  1  0.92815058  0.67447583  0.66431462  1
  H  H1  1  0.98983879  0.42815058  0.16431462  1
  H  H2  1  0.17447583  0.23616404  0.16431462  1
  H  H3  1  0.73616404  0.48983879  0.66431462  1
  H  H4  1  0.07184942  0.32552417  0.33568538  1
  H  H5  1  0.01016121  0.57184942  0.83568538  1
  H  H6  1  0.82552417  0.76383596  0.83568538  1
  H  H7  1  0.26383596  0.51016121  0.33568538  1
  H  H8  1  0.43788050  0.20847455  0.62833862  1
  H  H9  1  0.41986407  0.93788050  0.12833862  1
  H  H10  1  0.70847455  0.69045813  0.12833862  1
  H  H11  1  0.19045813  0.91986407  0.62833862  1
  H  H12  1  0.80954187  0.08013593  0.37166138  1
  H  H13  1  0.29152545  0.30954187  0.87166138  1
  H  H14  1  0.58013593  0.06211950  0.87166138  1
  H  H15  1  0.56211950  0.79152545  0.37166138  1
  N  N16  1  0.87500000  0.62500000  0.75000000  1
  N  N17  1  0.12500000  0.37500000  0.25000000  1
  F  F18  1  0.47989298  0.26678232  0.54796515  1
  F  F19  1  0.28118283  0.97989298  0.04796515  1
  F  F20  1  0.76678232  0.56807217  0.04796515  1
  F  F21  1  0.06807217  0.78118283  0.54796515  1
  F  F22  1  0.52010702  0.73321768  0.45203485  1
  F  F23  1  0.71881717  0.02010702  0.95203485  1
  F  F24  1  0.23321768  0.43192783  0.95203485  1
  F  F25  1  0.93192783  0.21881717  0.45203485  1
  F  F26  1  0.37500000  0.12500000  0.75000000  1
  F  F27  1  0.62500000  0.87500000  0.25000000  1
