# generated using pymatgen
data_Na2S5
_symmetry_space_group_name_H-M   'P 1'
_cell_length_a   5.91704265
_cell_length_b   7.80636446
_cell_length_c   14.75681763
_cell_angle_alpha   90.00000000
_cell_angle_beta   90.00000000
_cell_angle_gamma   90.00000000
_symmetry_Int_Tables_number   1
_chemical_formula_structural   Na2S5
_chemical_formula_sum   'Na8 S20'
_cell_volume   681.62613427
_cell_formula_units_Z   4
loop_
 _symmetry_equiv_pos_site_id
 _symmetry_equiv_pos_as_xyz
  1  'x, y, z'
loop_
 _atom_site_type_symbol
 _atom_site_label
 _atom_site_symmetry_multiplicity
 _atom_site_fract_x
 _atom_site_fract_y
 _atom_site_fract_z
 _atom_site_occupancy
  Na  Na0  1  0.19854220  0.94654145  0.75000000  1
  Na  Na1  1  0.69854220  0.55345855  0.25000000  1
  Na  Na2  1  0.30145780  0.44654145  0.75000000  1
  Na  Na3  1  0.80145780  0.05345855  0.25000000  1
  Na  Na4  1  0.00000000  0.00000000  0.50000000  1
  Na  Na5  1  0.50000000  0.50000000  0.50000000  1
  Na  Na6  1  0.50000000  0.50000000  0.00000000  1
  Na  Na7  1  0.00000000  0.00000000  0.00000000  1
  S  S8  1  0.10765168  0.45508668  0.13518521  1
  S  S9  1  0.60765168  0.04491332  0.86481479  1
  S  S10  1  0.39234832  0.95508668  0.36481479  1
  S  S11  1  0.89234832  0.54491332  0.63518521  1
  S  S12  1  0.89234832  0.54491332  0.86481479  1
  S  S13  1  0.39234832  0.95508668  0.13518521  1
  S  S14  1  0.60765168  0.04491332  0.63518521  1
  S  S15  1  0.10765168  0.45508668  0.36481479  1
  S  S16  1  0.26625561  0.35678911  0.25000000  1
  S  S17  1  0.76625561  0.14321089  0.75000000  1
  S  S18  1  0.23374439  0.85678911  0.25000000  1
  S  S19  1  0.73374439  0.64321089  0.75000000  1
  S  S20  1  0.83781665  0.29748329  0.39713783  1
  S  S21  1  0.33781665  0.20251671  0.60286217  1
  S  S22  1  0.66218335  0.79748329  0.10286217  1
  S  S23  1  0.16218335  0.70251671  0.89713783  1
  S  S24  1  0.16218335  0.70251671  0.60286217  1
  S  S25  1  0.66218335  0.79748329  0.39713783  1
  S  S26  1  0.33781665  0.20251671  0.89713783  1
  S  S27  1  0.83781665  0.29748329  0.10286217  1
