# generated using pymatgen
data_SbAsO3
_symmetry_space_group_name_H-M   'P 1'
_cell_length_a   4.65862579
_cell_length_b   5.65935450
_cell_length_c   13.65246334
_cell_angle_alpha   90.00000000
_cell_angle_beta   90.00000000
_cell_angle_gamma   95.62584737
_symmetry_Int_Tables_number   1
_chemical_formula_structural   SbAsO3
_chemical_formula_sum   'Sb4 As4 O12'
_cell_volume   358.21091384
_cell_formula_units_Z   4
loop_
 _symmetry_equiv_pos_site_id
 _symmetry_equiv_pos_as_xyz
  1  'x, y, z'
loop_
 _atom_site_type_symbol
 _atom_site_label
 _atom_site_symmetry_multiplicity
 _atom_site_fract_x
 _atom_site_fract_y
 _atom_site_fract_z
 _atom_site_occupancy
  O  O0  1  0.39275009  0.54108650  0.64144383  1
  O  O1  1  0.10724991  0.95891350  0.14144383  1
  O  O2  1  0.60724991  0.45891350  0.35855617  1
  O  O3  1  0.89275009  0.04108650  0.85855617  1
  O  O4  1  0.34892400  0.83401987  0.90131306  1
  O  O5  1  0.15107600  0.66598013  0.40131306  1
  O  O6  1  0.65107600  0.16598013  0.09868694  1
  O  O7  1  0.84892400  0.33401987  0.59868694  1
  O  O8  1  0.93057913  0.57056276  0.78946158  1
  O  O9  1  0.56942087  0.92943724  0.28946158  1
  O  O10  1  0.06942087  0.42943724  0.21053842  1
  O  O11  1  0.43057913  0.07056276  0.71053842  1
  As  As12  1  0.96388110  0.74604866  0.90081966  1
  As  As13  1  0.53611890  0.75395134  0.40081966  1
  As  As14  1  0.03611890  0.25395134  0.09918034  1
  As  As15  1  0.46388110  0.24604866  0.59918034  1
  Sb  Sb16  1  0.99692820  0.66181111  0.64804251  1
  Sb  Sb17  1  0.50307180  0.83818889  0.14804251  1
  Sb  Sb18  1  0.00307180  0.33818889  0.35195749  1
  Sb  Sb19  1  0.49692820  0.16181111  0.85195749  1
