# generated using pymatgen
data_K2GeTe4
_symmetry_space_group_name_H-M   'P 1'
_cell_length_a   8.80307857
_cell_length_b   10.21814871
_cell_length_c   12.87482590
_cell_angle_alpha   105.05896229
_cell_angle_beta   90.00000000
_cell_angle_gamma   90.00000000
_symmetry_Int_Tables_number   1
_chemical_formula_structural   K2GeTe4
_chemical_formula_sum   'K8 Ge4 Te16'
_cell_volume   1118.33505936
_cell_formula_units_Z   4
loop_
 _symmetry_equiv_pos_site_id
 _symmetry_equiv_pos_as_xyz
  1  'x, y, z'
loop_
 _atom_site_type_symbol
 _atom_site_label
 _atom_site_symmetry_multiplicity
 _atom_site_fract_x
 _atom_site_fract_y
 _atom_site_fract_z
 _atom_site_occupancy
  K  K0  1  0.07414719  0.80414953  0.65899297  1
  K  K1  1  0.57414719  0.69585047  0.34100703  1
  K  K2  1  0.92585281  0.19585047  0.34100703  1
  K  K3  1  0.42585281  0.30414953  0.65899297  1
  K  K4  1  0.43796293  0.78611274  0.95526007  1
  K  K5  1  0.93796293  0.71388726  0.04473993  1
  K  K6  1  0.56203707  0.21388726  0.04473993  1
  K  K7  1  0.06203707  0.28611274  0.95526007  1
  Ge  Ge8  1  0.36134146  0.04000533  0.25804679  1
  Ge  Ge9  1  0.86134146  0.45999467  0.74195321  1
  Ge  Ge10  1  0.63865854  0.95999467  0.74195321  1
  Ge  Ge11  1  0.13865854  0.54000533  0.25804679  1
  Te  Te12  1  0.27635405  0.95551119  0.43024066  1
  Te  Te13  1  0.77635405  0.54448881  0.56975934  1
  Te  Te14  1  0.72364595  0.04448881  0.56975934  1
  Te  Te15  1  0.22364595  0.45551119  0.43024066  1
  Te  Te16  1  0.65856832  0.47278366  0.88539905  1
  Te  Te17  1  0.15856832  0.02721634  0.11460095  1
  Te  Te18  1  0.34143168  0.52721634  0.11460095  1
  Te  Te19  1  0.84143168  0.97278366  0.88539905  1
  Te  Te20  1  0.63671079  0.96449165  0.20274894  1
  Te  Te21  1  0.13671079  0.53550835  0.79725106  1
  Te  Te22  1  0.36328921  0.03550835  0.79725106  1
  Te  Te23  1  0.86328921  0.46449165  0.20274894  1
  Te  Te24  1  0.46682620  0.28550856  0.35363251  1
  Te  Te25  1  0.96682620  0.21449144  0.64636749  1
  Te  Te26  1  0.53317380  0.71449144  0.64636749  1
  Te  Te27  1  0.03317380  0.78550856  0.35363251  1
