# generated using pymatgen
data_H11NF8
_symmetry_space_group_name_H-M   'P 1'
_cell_length_a   6.91579105
_cell_length_b   7.69297119
_cell_length_c   14.61477034
_cell_angle_alpha   90.00000000
_cell_angle_beta   102.98747943
_cell_angle_gamma   90.00000000
_symmetry_Int_Tables_number   1
_chemical_formula_structural   H11NF8
_chemical_formula_sum   'H44 N4 F32'
_cell_volume   757.65901827
_cell_formula_units_Z   4
loop_
 _symmetry_equiv_pos_site_id
 _symmetry_equiv_pos_as_xyz
  1  'x, y, z'
loop_
 _atom_site_type_symbol
 _atom_site_label
 _atom_site_symmetry_multiplicity
 _atom_site_fract_x
 _atom_site_fract_y
 _atom_site_fract_z
 _atom_site_occupancy
  H  H0  1  0.89337719  0.48466957  0.84733531  1
  H  H1  1  0.60662281  0.98466957  0.65266469  1
  H  H2  1  0.10662281  0.51533043  0.15266469  1
  H  H3  1  0.39337719  0.01533043  0.34733531  1
  H  H4  1  0.02464446  0.61737637  0.79279784  1
  H  H5  1  0.47535554  0.11737637  0.70720216  1
  H  H6  1  0.97535554  0.38262363  0.20720216  1
  H  H7  1  0.52464446  0.88262363  0.29279784  1
  H  H8  1  0.79681539  0.67569489  0.80417538  1
  H  H9  1  0.70318461  0.17569489  0.69582462  1
  H  H10  1  0.20318461  0.32430511  0.19582462  1
  H  H11  1  0.29681539  0.82430511  0.30417538  1
  H  H12  1  0.98973166  0.66919456  0.89998645  1
  H  H13  1  0.51026834  0.16919456  0.60001355  1
  H  H14  1  0.01026834  0.33080544  0.10001355  1
  H  H15  1  0.48973166  0.83080544  0.39998645  1
  H  H16  1  0.51524529  0.60244747  0.15036880  1
  H  H17  1  0.98475471  0.10244747  0.34963120  1
  H  H18  1  0.48475471  0.39755253  0.84963120  1
  H  H19  1  0.27073672  0.99438772  0.83146552  1
  H  H20  1  0.01524529  0.89755253  0.65036880  1
  H  H21  1  0.85634023  0.17057090  0.46180850  1
  H  H22  1  0.35634023  0.32942910  0.96180850  1
  H  H23  1  0.14365977  0.82942910  0.53819150  1
  H  H24  1  0.88158414  0.18256339  0.94665723  1
  H  H25  1  0.61841586  0.68256339  0.55334277  1
  H  H26  1  0.11841586  0.81743661  0.05334277  1
  H  H27  1  0.38158414  0.31743661  0.44665723  1
  H  H28  1  0.73070763  0.92647995  0.93818709  1
  H  H29  1  0.76929237  0.42647995  0.56181291  1
  H  H30  1  0.26929237  0.07352005  0.06181291  1
  H  H31  1  0.23070763  0.57352005  0.43818709  1
  H  H32  1  0.42983144  0.83062379  0.92688095  1
  H  H33  1  0.07016856  0.33062379  0.57311905  1
  H  H34  1  0.57016856  0.16937621  0.07311905  1
  H  H35  1  0.92983144  0.66937621  0.42688095  1
  H  H36  1  0.57150195  0.30273747  0.26576775  1
  H  H37  1  0.92849805  0.80273747  0.23423225  1
  H  H38  1  0.42849805  0.69726253  0.73423225  1
  H  H39  1  0.07150195  0.19726253  0.76576775  1
  H  H40  1  0.77073672  0.50561228  0.33146552  1
  H  H41  1  0.72926328  0.00561228  0.16853448  1
  H  H42  1  0.22926328  0.49438772  0.66853448  1
  H  H43  1  0.64365977  0.67057090  0.03819150  1
  N  N44  1  0.92636826  0.61233879  0.83614853  1
  N  N45  1  0.57363174  0.11233879  0.66385147  1
  N  N46  1  0.07363174  0.38766121  0.16385147  1
  N  N47  1  0.42636826  0.88766121  0.33614853  1
  F  F48  1  0.42263782  0.61582672  0.19119969  1
  F  F49  1  0.07736218  0.11582672  0.30880031  1
  F  F50  1  0.57736218  0.38417328  0.80880031  1
  F  F51  1  0.92263782  0.88417328  0.69119969  1
  F  F52  1  0.65798161  0.57581737  0.08584554  1
  F  F53  1  0.84201839  0.07581737  0.41415446  1
  F  F54  1  0.34201839  0.42418263  0.91415446  1
  F  F55  1  0.15798161  0.92418263  0.58584554  1
  F  F56  1  0.93772193  0.29559376  0.96931802  1
  F  F57  1  0.56227807  0.79559376  0.53068198  1
  F  F58  1  0.06227807  0.70440624  0.03068198  1
  F  F59  1  0.43772193  0.20440624  0.46931802  1
  F  F60  1  0.81146423  0.00702590  0.90744902  1
  F  F61  1  0.68853577  0.50702590  0.59255098  1
  F  F62  1  0.18853577  0.99297410  0.09255098  1
  F  F63  1  0.31146423  0.49297410  0.40744902  1
  F  F64  1  0.60817128  0.80843882  0.97126422  1
  F  F65  1  0.89182872  0.30843882  0.52873578  1
  F  F66  1  0.39182872  0.19156118  0.02873578  1
  F  F67  1  0.10817128  0.69156118  0.47126422  1
  F  F68  1  0.28214085  0.85638938  0.89033002  1
  F  F69  1  0.21785915  0.35638938  0.60966998  1
  F  F70  1  0.71785915  0.14361062  0.10966998  1
  F  F71  1  0.78214085  0.64361062  0.39033002  1
  F  F72  1  0.26597779  0.09919662  0.78842445  1
  F  F73  1  0.23402221  0.59919662  0.71157555  1
  F  F74  1  0.73402221  0.90080338  0.21157555  1
  F  F75  1  0.76597779  0.40080338  0.28842445  1
  F  F76  1  0.95259900  0.26997824  0.74994445  1
  F  F77  1  0.54740100  0.76997824  0.75005555  1
  F  F78  1  0.04740100  0.73002176  0.25005555  1
  F  F79  1  0.45259900  0.23002176  0.24994445  1
