# generated using pymatgen
data_In5Cl9
_symmetry_space_group_name_H-M   'P 1'
_cell_length_a   9.47732264
_cell_length_b   9.47732264
_cell_length_c   9.47732264
_cell_angle_alpha   82.57390435
_cell_angle_beta   82.57390435
_cell_angle_gamma   82.57390435
_symmetry_Int_Tables_number   1
_chemical_formula_structural   In5Cl9
_chemical_formula_sum   'In10 Cl18'
_cell_volume   831.52921742
_cell_formula_units_Z   2
loop_
 _symmetry_equiv_pos_site_id
 _symmetry_equiv_pos_as_xyz
  1  'x, y, z'
loop_
 _atom_site_type_symbol
 _atom_site_label
 _atom_site_symmetry_multiplicity
 _atom_site_fract_x
 _atom_site_fract_y
 _atom_site_fract_z
 _atom_site_occupancy
  Cl  Cl0  1  0.42014029  0.58406129  0.77127652  1
  Cl  Cl1  1  0.58406129  0.77127652  0.42014029  1
  Cl  Cl2  1  0.77127652  0.42014029  0.58406129  1
  Cl  Cl3  1  0.72872348  0.91593871  0.07985971  1
  Cl  Cl4  1  0.91593871  0.07985971  0.72872348  1
  Cl  Cl5  1  0.07985971  0.72872348  0.91593871  1
  Cl  Cl6  1  0.57985971  0.41593871  0.22872348  1
  Cl  Cl7  1  0.41593871  0.22872348  0.57985971  1
  Cl  Cl8  1  0.22872348  0.57985971  0.41593871  1
  Cl  Cl9  1  0.27127652  0.08406129  0.92014029  1
  Cl  Cl10  1  0.25000000  0.40693101  0.09306899  1
  Cl  Cl11  1  0.09306899  0.25000000  0.40693101  1
  Cl  Cl12  1  0.40693101  0.09306899  0.25000000  1
  Cl  Cl13  1  0.75000000  0.59306899  0.90693101  1
  Cl  Cl14  1  0.90693101  0.75000000  0.59306899  1
  Cl  Cl15  1  0.59306899  0.90693101  0.75000000  1
  Cl  Cl16  1  0.92014029  0.27127652  0.08406129  1
  Cl  Cl17  1  0.08406129  0.92014029  0.27127652  1
  In  In18  1  0.15172797  0.15172797  0.15172797  1
  In  In19  1  0.34827203  0.34827203  0.34827203  1
  In  In20  1  0.84827203  0.84827203  0.84827203  1
  In  In21  1  0.65172797  0.65172797  0.65172797  1
  In  In22  1  0.58011110  0.25000000  0.91988890  1
  In  In23  1  0.25000000  0.91988890  0.58011110  1
  In  In24  1  0.91988890  0.58011110  0.25000000  1
  In  In25  1  0.41988890  0.75000000  0.08011110  1
  In  In26  1  0.75000000  0.08011110  0.41988890  1
  In  In27  1  0.08011110  0.41988890  0.75000000  1
