# generated using pymatgen
data_Na4Ge2Te5
_symmetry_space_group_name_H-M   'P 1'
_cell_length_a   8.00726126
_cell_length_b   9.75630963
_cell_length_c   10.85001404
_cell_angle_alpha   68.22135705
_cell_angle_beta   70.78509553
_cell_angle_gamma   67.70701648
_symmetry_Int_Tables_number   1
_chemical_formula_structural   Na4Ge2Te5
_chemical_formula_sum   'Na8 Ge4 Te10'
_cell_volume   710.56857276
_cell_formula_units_Z   2
loop_
 _symmetry_equiv_pos_site_id
 _symmetry_equiv_pos_as_xyz
  1  'x, y, z'
loop_
 _atom_site_type_symbol
 _atom_site_label
 _atom_site_symmetry_multiplicity
 _atom_site_fract_x
 _atom_site_fract_y
 _atom_site_fract_z
 _atom_site_occupancy
  Na  Na0  1  0.26731315  0.44141715  0.42731600  1
  Na  Na1  1  0.73268685  0.55858285  0.57268400  1
  Na  Na2  1  0.87322623  0.36747907  0.19018179  1
  Na  Na3  1  0.12677377  0.63252093  0.80981821  1
  Na  Na4  1  0.67846592  0.04828114  0.58579797  1
  Na  Na5  1  0.32153408  0.95171886  0.41420203  1
  Na  Na6  1  0.46290059  0.73689135  0.01834412  1
  Na  Na7  1  0.53709941  0.26310865  0.98165588  1
  Ge  Ge8  1  0.89542436  0.76261062  0.14478698  1
  Ge  Ge9  1  0.10457564  0.23738938  0.85521302  1
  Ge  Ge10  1  0.91468956  0.94020726  0.25362398  1
  Ge  Ge11  1  0.08531044  0.05979274  0.74637602  1
  Te  Te12  1  0.80900392  0.47049352  0.87224597  1
  Te  Te13  1  0.19099608  0.52950648  0.12775403  1
  Te  Te14  1  0.39592945  0.84252363  0.71959309  1
  Te  Te15  1  0.60407055  0.15747637  0.28040691  1
  Te  Te16  1  0.98742114  0.23154880  0.51956013  1
  Te  Te17  1  0.01257886  0.76845120  0.48043987  1
  Te  Te18  1  0.39557543  0.32848700  0.71466546  1
  Te  Te19  1  0.60442457  0.67151300  0.28533454  1
  Te  Te20  1  0.80499018  0.94283071  0.90632998  1
  Te  Te21  1  0.19500982  0.05716929  0.09367002  1
