# generated using pymatgen
data_P2Pb3S8
_symmetry_space_group_name_H-M   'P 1'
_cell_length_a   11.19321314
_cell_length_b   11.19321314
_cell_length_c   11.19321314
_cell_angle_alpha   90.00000000
_cell_angle_beta   90.00000000
_cell_angle_gamma   90.00000000
_symmetry_Int_Tables_number   1
_chemical_formula_structural   P2Pb3S8
_chemical_formula_sum   'P8 Pb12 S32'
_cell_volume   1402.37551620
_cell_formula_units_Z   4
loop_
 _symmetry_equiv_pos_site_id
 _symmetry_equiv_pos_as_xyz
  1  'x, y, z'
loop_
 _atom_site_type_symbol
 _atom_site_label
 _atom_site_symmetry_multiplicity
 _atom_site_fract_x
 _atom_site_fract_y
 _atom_site_fract_z
 _atom_site_occupancy
  P  P0  1  0.15280604  0.34719396  0.65280604  1
  P  P1  1  0.34719396  0.65280604  0.15280604  1
  P  P2  1  0.65280604  0.15280604  0.34719396  1
  P  P3  1  0.84719396  0.84719396  0.84719396  1
  P  P4  1  0.42585673  0.07414327  0.92585673  1
  P  P5  1  0.07414327  0.92585673  0.42585673  1
  P  P6  1  0.92585673  0.42585673  0.07414327  1
  P  P7  1  0.57414327  0.57414327  0.57414327  1
  S  S8  1  0.44473384  0.72878699  0.29046024  1
  S  S9  1  0.05526616  0.27121301  0.79046024  1
  S  S10  1  0.27121301  0.79046024  0.05526616  1
  S  S11  1  0.79046024  0.05526616  0.27121301  1
  S  S12  1  0.77121301  0.70953976  0.94473384  1
  S  S13  1  0.94473384  0.77121301  0.70953976  1
  S  S14  1  0.22878699  0.20953976  0.55526616  1
  S  S15  1  0.72878699  0.29046024  0.44473384  1
  S  S16  1  0.55526616  0.22878699  0.20953976  1
  S  S17  1  0.29046024  0.44473384  0.72878699  1
  S  S18  1  0.20953976  0.55526616  0.22878699  1
  S  S19  1  0.70953976  0.94473384  0.77121301  1
  S  S20  1  0.46617547  0.46617547  0.46617547  1
  S  S21  1  0.03382453  0.53382453  0.96617547  1
  S  S22  1  0.96617547  0.03382453  0.53382453  1
  S  S23  1  0.53382453  0.96617547  0.03382453  1
  S  S24  1  0.95194235  0.95194235  0.95194235  1
  S  S25  1  0.54805765  0.04805765  0.45194235  1
  S  S26  1  0.45194235  0.54805765  0.04805765  1
  S  S27  1  0.04805765  0.45194235  0.54805765  1
  S  S28  1  0.09244493  0.00430095  0.26123956  1
  S  S29  1  0.26123956  0.09244493  0.00430095  1
  S  S30  1  0.00430095  0.26123956  0.09244493  1
  S  S31  1  0.49569905  0.73876044  0.59244493  1
  S  S32  1  0.76123956  0.40755507  0.99569905  1
  S  S33  1  0.99569905  0.76123956  0.40755507  1
  S  S34  1  0.23876044  0.90755507  0.50430095  1
  S  S35  1  0.73876044  0.59244493  0.49569905  1
  S  S36  1  0.50430095  0.23876044  0.90755507  1
  S  S37  1  0.59244493  0.49569905  0.73876044  1
  S  S38  1  0.90755507  0.50430095  0.23876044  1
  S  S39  1  0.40755507  0.99569905  0.76123956  1
  Pb  Pb40  1  0.03121132  0.73612744  0.14108345  1
  Pb  Pb41  1  0.53121132  0.76387256  0.85891655  1
  Pb  Pb42  1  0.96878868  0.23612744  0.35891655  1
  Pb  Pb43  1  0.76387256  0.85891655  0.53121132  1
  Pb  Pb44  1  0.35891655  0.96878868  0.23612744  1
  Pb  Pb45  1  0.85891655  0.53121132  0.76387256  1
  Pb  Pb46  1  0.73612744  0.14108345  0.03121132  1
  Pb  Pb47  1  0.14108345  0.03121132  0.73612744  1
  Pb  Pb48  1  0.23612744  0.35891655  0.96878868  1
  Pb  Pb49  1  0.26387256  0.64108345  0.46878868  1
  Pb  Pb50  1  0.64108345  0.46878868  0.26387256  1
  Pb  Pb51  1  0.46878868  0.26387256  0.64108345  1
