# generated using pymatgen
data_K4Be3O5
_symmetry_space_group_name_H-M   'P 1'
_cell_length_a   6.37735092
_cell_length_b   6.37735092
_cell_length_c   10.28215850
_cell_angle_alpha   101.19731252
_cell_angle_beta   102.06691149
_cell_angle_gamma   110.47847212
_symmetry_Int_Tables_number   1
_chemical_formula_structural   K4Be3O5
_chemical_formula_sum   'K8 Be6 O10'
_cell_volume   366.42427235
_cell_formula_units_Z   2
loop_
 _symmetry_equiv_pos_site_id
 _symmetry_equiv_pos_as_xyz
  1  'x, y, z'
loop_
 _atom_site_type_symbol
 _atom_site_label
 _atom_site_symmetry_multiplicity
 _atom_site_fract_x
 _atom_site_fract_y
 _atom_site_fract_z
 _atom_site_occupancy
  Be  Be0  1  0.06072133  0.31072133  0.75000000  1
  Be  Be1  1  0.93927867  0.68927867  0.25000000  1
  Be  Be2  1  0.51868068  0.26868068  0.25000000  1
  Be  Be3  1  0.48131932  0.73131932  0.75000000  1
  Be  Be4  1  0.22967739  0.97967739  0.25000000  1
  Be  Be5  1  0.77032261  0.02032261  0.75000000  1
  O  O6  1  0.72856063  0.47856063  0.25000000  1
  O  O7  1  0.27143937  0.52143937  0.75000000  1
  O  O8  1  0.99552233  0.77288167  0.12271868  1
  O  O9  1  0.15016299  0.87280365  0.37728132  1
  O  O10  1  0.00447767  0.22711833  0.87728132  1
  O  O11  1  0.84983701  0.12719635  0.62271868  1
  O  O12  1  0.49650906  0.01199510  0.23060408  1
  O  O13  1  0.28139102  0.26590498  0.26939592  1
  O  O14  1  0.50349094  0.98800490  0.76939592  1
  O  O15  1  0.71860898  0.73409502  0.73060408  1
  K  K16  1  0.03759722  0.77722109  0.59501358  1
  K  K17  1  0.68220752  0.44258364  0.90498642  1
  K  K18  1  0.96240278  0.22277891  0.40498642  1
  K  K19  1  0.31779248  0.55741636  0.09501358  1
  K  K20  1  0.17734380  0.91113554  0.92438222  1
  K  K21  1  0.48675332  0.25296157  0.57561778  1
  K  K22  1  0.82265620  0.08886446  0.07561778  1
  K  K23  1  0.51324668  0.74703843  0.42438222  1
