# generated using pymatgen
data_BaNb2O6
_symmetry_space_group_name_H-M   'P 1'
_cell_length_a   4.01042916
_cell_length_b   6.14093136
_cell_length_c   10.67622784
_cell_angle_alpha   90.00000000
_cell_angle_beta   90.34433529
_cell_angle_gamma   90.00000000
_symmetry_Int_Tables_number   1
_chemical_formula_structural   BaNb2O6
_chemical_formula_sum   'Ba2 Nb4 O12'
_cell_volume   262.92693771
_cell_formula_units_Z   2
loop_
 _symmetry_equiv_pos_site_id
 _symmetry_equiv_pos_as_xyz
  1  'x, y, z'
loop_
 _atom_site_type_symbol
 _atom_site_label
 _atom_site_symmetry_multiplicity
 _atom_site_fract_x
 _atom_site_fract_y
 _atom_site_fract_z
 _atom_site_occupancy
  O  O0  1  0.00211896  0.41483893  0.15032890  1
  O  O1  1  0.99788104  0.91483893  0.34967110  1
  O  O2  1  0.99788104  0.58516107  0.84967110  1
  O  O3  1  0.00211896  0.08516107  0.65032890  1
  O  O4  1  0.49780671  0.11692068  0.19718443  1
  O  O5  1  0.50219329  0.61692068  0.30281557  1
  O  O6  1  0.49647974  0.19922651  0.46281099  1
  O  O7  1  0.50352026  0.69922651  0.03718901  1
  O  O8  1  0.50352026  0.80077349  0.53718901  1
  O  O9  1  0.49647974  0.30077349  0.96281099  1
  O  O10  1  0.49780671  0.38307932  0.69718443  1
  O  O11  1  0.50219329  0.88307932  0.80281557  1
  Nb  Nb12  1  0.53304400  0.45513510  0.15016133  1
  Nb  Nb13  1  0.46695600  0.95513510  0.34983867  1
  Nb  Nb14  1  0.46695600  0.54486490  0.84983867  1
  Nb  Nb15  1  0.53304400  0.04486490  0.65016133  1
  Ba  Ba16  1  0.00000000  0.00000000  0.00000000  1
  Ba  Ba17  1  0.00000000  0.50000000  0.50000000  1
