# generated using pymatgen
data_As(BrF2)3
_symmetry_space_group_name_H-M   'P 1'
_cell_length_a   5.78724240
_cell_length_b   7.87574438
_cell_length_c   9.95886956
_cell_angle_alpha   88.02712526
_cell_angle_beta   82.19539164
_cell_angle_gamma   82.50773718
_symmetry_Int_Tables_number   1
_chemical_formula_structural   As(BrF2)3
_chemical_formula_sum   'As2 Br6 F12'
_cell_volume   445.80510588
_cell_formula_units_Z   2
loop_
 _symmetry_equiv_pos_site_id
 _symmetry_equiv_pos_as_xyz
  1  'x, y, z'
loop_
 _atom_site_type_symbol
 _atom_site_label
 _atom_site_symmetry_multiplicity
 _atom_site_fract_x
 _atom_site_fract_y
 _atom_site_fract_z
 _atom_site_occupancy
  F  F0  1  0.34483925  0.20777929  0.09813605  1
  F  F1  1  0.65516075  0.79222071  0.90186395  1
  F  F2  1  0.36142053  0.29659077  0.33761664  1
  F  F3  1  0.63857947  0.70340923  0.66238336  1
  F  F4  1  0.59979687  0.43095147  0.14219289  1
  F  F5  1  0.40020313  0.56904853  0.85780711  1
  F  F6  1  0.54389578  1.00158468  0.25997878  1
  F  F7  1  0.45610422  -0.00158468  0.74002122  1
  F  F8  1  0.19940495  0.77542625  0.69742576  1
  F  F9  1  0.80059505  0.22457375  0.30257424  1
  F  F10  1  0.21496691  0.86214692  0.93287814  1
  F  F11  1  0.78503309  0.13785308  0.06712186  1
  As  As12  1  0.43404651  0.78531864  0.79882903  1
  As  As13  1  0.56595349  0.21468136  0.20117097  1
  Br  Br14  1  0.09087942  0.38892121  0.81998871  1
  Br  Br15  1  0.90912058  0.61107879  0.18001129  1
  Br  Br16  1  0.82206155  0.20545078  0.78266420  1
  Br  Br17  1  0.17793845  0.79454922  0.21733580  1
  Br  Br18  1  0.19679013  0.77187842  0.45006882  1
  Br  Br19  1  0.80320987  0.22812158  0.54993118  1
