# generated using pymatgen
data_Ba(SbS2)2
_symmetry_space_group_name_H-M   'P 1'
_cell_length_a   8.38088722
_cell_length_b   9.05291885
_cell_length_c   20.88952442
_cell_angle_alpha   100.32012245
_cell_angle_beta   90.00000000
_cell_angle_gamma   90.00000000
_symmetry_Int_Tables_number   1
_chemical_formula_structural   Ba(SbS2)2
_chemical_formula_sum   'Ba8 Sb16 S32'
_cell_volume   1559.27884364
_cell_formula_units_Z   8
loop_
 _symmetry_equiv_pos_site_id
 _symmetry_equiv_pos_as_xyz
  1  'x, y, z'
loop_
 _atom_site_type_symbol
 _atom_site_label
 _atom_site_symmetry_multiplicity
 _atom_site_fract_x
 _atom_site_fract_y
 _atom_site_fract_z
 _atom_site_occupancy
  S  S0  1  0.84811137  0.34489470  0.53619482  1
  S  S1  1  0.34811137  0.65510530  0.96380518  1
  S  S2  1  0.15188863  0.65510530  0.46380518  1
  S  S3  1  0.65188863  0.34489470  0.03619482  1
  S  S4  1  0.16441116  0.50251695  0.65055695  1
  S  S5  1  0.66441116  0.49748305  0.84944305  1
  S  S6  1  0.83558884  0.49748305  0.34944305  1
  S  S7  1  0.33558884  0.50251695  0.15055695  1
  S  S8  1  0.32890024  0.25871154  0.77317392  1
  S  S9  1  0.82890024  0.74128846  0.72682608  1
  S  S10  1  0.67109976  0.74128846  0.22682608  1
  S  S11  1  0.17109976  0.25871154  0.27317392  1
  S  S12  1  0.65662365  0.07384476  0.84750836  1
  S  S13  1  0.15662365  0.92615524  0.65249164  1
  S  S14  1  0.34337635  0.92615524  0.15249164  1
  S  S15  1  0.84337635  0.07384476  0.34750836  1
  S  S16  1  0.34621213  0.76651083  0.78255204  1
  S  S17  1  0.84621213  0.23348917  0.71744796  1
  S  S18  1  0.65378787  0.23348917  0.21744796  1
  S  S19  1  0.15378787  0.76651083  0.28255204  1
  S  S20  1  0.50501019  0.36858906  0.42707482  1
  S  S21  1  0.00501019  0.63141094  0.07292518  1
  S  S22  1  0.49498981  0.63141094  0.57292518  1
  S  S23  1  0.99498981  0.36858906  0.92707482  1
  S  S24  1  0.71096391  0.96598524  0.06477449  1
  S  S25  1  0.21096391  0.03401476  0.43522551  1
  S  S26  1  0.28903609  0.03401476  0.93522551  1
  S  S27  1  0.78903609  0.96598524  0.56477449  1
  S  S28  1  0.94558829  0.77658325  0.91514632  1
  S  S29  1  0.44558829  0.22341675  0.58485368  1
  S  S30  1  0.05441171  0.22341675  0.08485368  1
  S  S31  1  0.55441171  0.77658325  0.41514632  1
  Sb  Sb32  1  -0.00768741  0.15712057  0.61499658  1
  Sb  Sb33  1  0.49231259  0.84287943  0.88500342  1
  Sb  Sb34  1  1.00768741  0.84287943  0.38500342  1
  Sb  Sb35  1  0.50768741  0.15712057  0.11499658  1
  Sb  Sb36  1  0.69943070  0.57334517  0.46893758  1
  Sb  Sb37  1  0.19943070  0.42665483  0.03106242  1
  Sb  Sb38  1  0.30056930  0.42665483  0.53106242  1
  Sb  Sb39  1  0.80056930  0.57334517  0.96893758  1
  Sb  Sb40  1  0.65591717  0.14703289  0.49780457  1
  Sb  Sb41  1  0.15591717  0.85296711  0.00219543  1
  Sb  Sb42  1  0.34408283  0.85296711  0.50219543  1
  Sb  Sb43  1  0.84408283  0.14703289  0.99780457  1
  Sb  Sb44  1  0.98157910  0.70180974  0.62328252  1
  Sb  Sb45  1  0.48157910  0.29819026  0.87671748  1
  Sb  Sb46  1  0.01842090  0.29819026  0.37671748  1
  Sb  Sb47  1  0.51842090  0.70180974  0.12328252  1
  Ba  Ba48  1  0.94829593  0.48308395  0.20256653  1
  Ba  Ba49  1  0.44829593  0.51691605  0.29743347  1
  Ba  Ba50  1  0.05170407  0.51691605  0.79743347  1
  Ba  Ba51  1  0.55170407  0.48308395  0.70256653  1
  Ba  Ba52  1  0.54590646  0.98211005  0.69495130  1
  Ba  Ba53  1  0.04590646  0.01788995  0.80504870  1
  Ba  Ba54  1  0.45409354  0.01788995  0.30504870  1
  Ba  Ba55  1  0.95409354  0.98211005  0.19495130  1
