# generated using pymatgen
data_NaGdCl4
_symmetry_space_group_name_H-M   'P 1'
_cell_length_a   6.77811215
_cell_length_b   6.83814009
_cell_length_c   7.09124285
_cell_angle_alpha   89.29666033
_cell_angle_beta   87.71426292
_cell_angle_gamma   78.10570156
_symmetry_Int_Tables_number   1
_chemical_formula_structural   NaGdCl4
_chemical_formula_sum   'Na2 Gd2 Cl8'
_cell_volume   321.36132458
_cell_formula_units_Z   2
loop_
 _symmetry_equiv_pos_site_id
 _symmetry_equiv_pos_as_xyz
  1  'x, y, z'
loop_
 _atom_site_type_symbol
 _atom_site_label
 _atom_site_symmetry_multiplicity
 _atom_site_fract_x
 _atom_site_fract_y
 _atom_site_fract_z
 _atom_site_occupancy
  Na  Na0  1  0.76710638  0.80513130  0.46565268  1
  Na  Na1  1  0.23289362  0.19486870  0.53434732  1
  Cl  Cl2  1  0.60838878  0.20404605  0.36507895  1
  Cl  Cl3  1  0.95647850  0.49699073  0.75679013  1
  Cl  Cl4  1  0.56437067  0.68547628  0.11991404  1
  Cl  Cl5  1  0.39161122  0.79595395  0.63492105  1
  Cl  Cl6  1  0.43562933  0.31452372  0.88008596  1
  Cl  Cl7  1  0.90606862  0.99821992  0.79220485  1
  Cl  Cl8  1  0.09393138  0.00178008  0.20779515  1
  Cl  Cl9  1  0.04352150  0.50300927  0.24320987  1
  Gd  Gd10  1  0.78923068  0.30041203  0.05410245  1
  Gd  Gd11  1  0.21076932  0.69958797  0.94589755  1
