# generated using pymatgen
data_Ca(AuF6)2
_symmetry_space_group_name_H-M   'P 1'
_cell_length_a   5.73252034
_cell_length_b   5.73252034
_cell_length_c   7.73908183
_cell_angle_alpha   90.00000000
_cell_angle_beta   90.00000000
_cell_angle_gamma   90.00000000
_symmetry_Int_Tables_number   1
_chemical_formula_structural   Ca(AuF6)2
_chemical_formula_sum   'Ca1 Au2 F12'
_cell_volume   254.32007762
_cell_formula_units_Z   1
loop_
 _symmetry_equiv_pos_site_id
 _symmetry_equiv_pos_as_xyz
  1  'x, y, z'
loop_
 _atom_site_type_symbol
 _atom_site_label
 _atom_site_symmetry_multiplicity
 _atom_site_fract_x
 _atom_site_fract_y
 _atom_site_fract_z
 _atom_site_occupancy
  F  F0  1  0.50000000  0.00000000  1.01210689  1
  F  F1  1  0.00000000  0.50000000  -0.01210689  1
  F  F2  1  0.50000000  0.00000000  0.50956745  1
  F  F3  1  0.22245271  0.75730248  0.22664159  1
  F  F4  1  0.75730248  0.77754729  0.77335841  1
  F  F5  1  0.24269752  0.22245271  0.77335841  1
  F  F6  1  0.77754729  0.24269752  0.22664159  1
  F  F7  1  0.22245271  0.24269752  0.22664159  1
  F  F8  1  0.24269752  0.77754729  0.77335841  1
  F  F9  1  0.75730248  0.22245271  0.77335841  1
  F  F10  1  0.77754729  0.75730248  0.22664159  1
  F  F11  1  0.00000000  0.50000000  0.49043255  1
  Ca  Ca12  1  0.00000000  0.00000000  0.00000000  1
  Au  Au13  1  0.00000000  0.50000000  0.24145044  1
  Au  Au14  1  0.50000000  0.00000000  0.75854956  1
