# generated using pymatgen
data_Hg2IO
_symmetry_space_group_name_H-M   'P 1'
_cell_length_a   7.03816835
_cell_length_b   7.17852613
_cell_length_c   9.65992028
_cell_angle_alpha   111.81200625
_cell_angle_beta   99.85220062
_cell_angle_gamma   90.00000003
_symmetry_Int_Tables_number   1
_chemical_formula_structural   Hg2IO
_chemical_formula_sum   'Hg8 I4 O4'
_cell_volume   445.35188883
_cell_formula_units_Z   4
loop_
 _symmetry_equiv_pos_site_id
 _symmetry_equiv_pos_as_xyz
  1  'x, y, z'
loop_
 _atom_site_type_symbol
 _atom_site_label
 _atom_site_symmetry_multiplicity
 _atom_site_fract_x
 _atom_site_fract_y
 _atom_site_fract_z
 _atom_site_occupancy
  O  O0  1  0.65847661  0.65935845  0.60594818  1
  O  O1  1  0.84152339  0.05341027  0.39405182  1
  O  O2  1  0.34152339  0.34064155  0.39405182  1
  O  O3  1  0.15847661  0.94658973  0.60594818  1
  I  I4  1  0.82441035  0.44980789  0.23221605  1
  I  I5  1  0.67558965  0.21759184  0.76778395  1
  I  I6  1  0.17558965  0.55019211  0.76778395  1
  I  I7  1  0.32441035  0.78240816  0.23221605  1
  Hg  Hg8  1  0.71264273  0.34174773  0.49026592  1
  Hg  Hg9  1  0.78735727  0.85148181  0.50973408  1
  Hg  Hg10  1  0.28735727  0.65825227  0.50973408  1
  Hg  Hg11  1  0.21264273  0.14851819  0.49026592  1
  Hg  Hg12  1  0.72234762  0.75811077  0.85163653  1
  Hg  Hg13  1  0.77765238  0.90647424  0.14836347  1
  Hg  Hg14  1  0.27765238  0.24188923  0.14836347  1
  Hg  Hg15  1  0.22234762  0.09352576  0.85163653  1
