# generated using pymatgen
data_Ba2As2S5
_symmetry_space_group_name_H-M   'P 1'
_cell_length_a   9.39745868
_cell_length_b   12.10791697
_cell_length_c   17.71633974
_cell_angle_alpha   90.00000000
_cell_angle_beta   90.00000000
_cell_angle_gamma   90.00000000
_symmetry_Int_Tables_number   1
_chemical_formula_structural   Ba2As2S5
_chemical_formula_sum   'Ba16 As16 S40'
_cell_volume   2015.82979010
_cell_formula_units_Z   8
loop_
 _symmetry_equiv_pos_site_id
 _symmetry_equiv_pos_as_xyz
  1  'x, y, z'
loop_
 _atom_site_type_symbol
 _atom_site_label
 _atom_site_symmetry_multiplicity
 _atom_site_fract_x
 _atom_site_fract_y
 _atom_site_fract_z
 _atom_site_occupancy
  S  S0  1  0.20218412  0.47598563  0.42555012  1
  S  S1  1  0.79781588  0.97598563  0.57444988  1
  S  S2  1  0.79781588  0.47598563  0.92555012  1
  S  S3  1  0.20218412  0.97598563  0.07444988  1
  S  S4  1  0.95309567  0.20779107  0.03973073  1
  S  S5  1  0.04690433  0.70779107  0.96026927  1
  S  S6  1  0.04690433  0.20779107  0.53973073  1
  S  S7  1  0.95309567  0.70779107  0.46026927  1
  S  S8  1  0.94660066  0.59959587  0.28905207  1
  S  S9  1  0.05339934  0.09959587  0.71094793  1
  S  S10  1  0.05339934  0.59959587  0.78905207  1
  S  S11  1  0.94660066  0.09959587  0.21094793  1
  S  S12  1  0.23827522  0.15681093  0.88393480  1
  S  S13  1  0.76172478  0.65681093  0.11606520  1
  S  S14  1  0.76172478  0.15681093  0.38393480  1
  S  S15  1  0.23827522  0.65681093  0.61606520  1
  S  S16  1  0.24281646  0.38456985  0.19752861  1
  S  S17  1  0.23420006  0.65712644  0.13276701  1
  S  S18  1  0.75718354  0.88456985  0.80247139  1
  S  S19  1  0.24281646  0.88456985  0.30247139  1
  S  S20  1  0.51633280  0.24266361  0.00080528  1
  S  S21  1  0.48366720  0.74266361  0.99919472  1
  S  S22  1  0.48366720  0.24266361  0.50080528  1
  S  S23  1  0.51633280  0.74266361  0.49919472  1
  S  S24  1  0.75693496  0.35195199  0.18008925  1
  S  S25  1  0.24306504  0.85195199  0.81991075  1
  S  S26  1  0.24306504  0.35195199  0.68008925  1
  S  S27  1  0.75693496  0.85195199  0.31991075  1
  S  S28  1  0.25028572  0.42660060  0.94902981  1
  S  S29  1  0.74971428  0.92660060  0.05097019  1
  S  S30  1  0.74971428  0.42660060  0.44902981  1
  S  S31  1  0.25028572  0.92660060  0.55097019  1
  S  S32  1  0.50559614  0.07277734  0.24588640  1
  S  S33  1  0.49440386  0.57277734  0.75411360  1
  S  S34  1  0.49440386  0.07277734  0.74588640  1
  S  S35  1  0.50559614  0.57277734  0.25411360  1
  S  S36  1  0.23420006  0.15712644  0.36723299  1
  S  S37  1  0.76579994  0.65712644  0.63276701  1
  S  S38  1  0.76579994  0.15712644  0.86723299  1
  S  S39  1  0.75718354  0.38456985  0.69752861  1
  As  As40  1  0.27874842  0.75100029  0.50697615  1
  As  As41  1  0.72125158  0.25100029  0.49302385  1
  As  As42  1  0.72125158  0.75100029  0.00697615  1
  As  As43  1  0.27874842  0.25100029  0.99302385  1
  As  As44  1  0.27002123  0.56199135  0.24043763  1
  As  As45  1  0.72997877  0.06199135  0.75956237  1
  As  As46  1  0.72997877  0.56199135  0.74043763  1
  As  As47  1  0.27002123  0.06199135  0.25956237  1
  As  As48  1  0.77437008  0.68102006  0.36991875  1
  As  As49  1  0.22562992  0.18102006  0.63008125  1
  As  As50  1  0.22562992  0.68102006  0.86991875  1
  As  As51  1  0.77437008  0.18102006  0.13008125  1
  As  As52  1  0.13809961  0.13948932  0.12531235  1
  As  As53  1  0.86190039  0.63948932  0.87468765  1
  As  As54  1  0.86190039  0.13948932  0.62531235  1
  As  As55  1  0.13809961  0.63948932  0.37468765  1
  Ba  Ba56  1  0.00399665  0.97961329  0.42809020  1
  Ba  Ba57  1  0.99600335  0.47961329  0.57190980  1
  Ba  Ba58  1  0.99600335  0.97961329  0.92809020  1
  Ba  Ba59  1  0.00399665  0.47961329  0.07190980  1
  Ba  Ba60  1  0.50021368  0.82309102  0.17621392  1
  Ba  Ba61  1  0.49978632  0.32309102  0.82378608  1
  Ba  Ba62  1  0.49978632  0.82309102  0.67621392  1
  Ba  Ba63  1  0.50021368  0.32309102  0.32378608  1
  Ba  Ba64  1  0.98632565  0.83206570  0.17877952  1
  Ba  Ba65  1  0.01367435  0.33206570  0.82122048  1
  Ba  Ba66  1  0.01367435  0.83206570  0.67877952  1
  Ba  Ba67  1  0.98632565  0.33206570  0.32122048  1
  Ba  Ba68  1  0.50302580  0.99045565  0.42323590  1
  Ba  Ba69  1  0.49697420  0.49045565  0.57676410  1
  Ba  Ba70  1  0.49697420  0.99045565  0.92323590  1
  Ba  Ba71  1  0.50302580  0.49045565  0.07676410  1
