# generated using pymatgen
data_BaInO3
_symmetry_space_group_name_H-M   'P 1'
_cell_length_a   4.28183951
_cell_length_b   4.28183951
_cell_length_c   8.64993242
_cell_angle_alpha   90.00000000
_cell_angle_beta   90.00000000
_cell_angle_gamma   90.68375700
_symmetry_Int_Tables_number   1
_chemical_formula_structural   BaInO3
_chemical_formula_sum   'Ba2 In2 O6'
_cell_volume   158.57786263
_cell_formula_units_Z   2
loop_
 _symmetry_equiv_pos_site_id
 _symmetry_equiv_pos_as_xyz
  1  'x, y, z'
loop_
 _atom_site_type_symbol
 _atom_site_label
 _atom_site_symmetry_multiplicity
 _atom_site_fract_x
 _atom_site_fract_y
 _atom_site_fract_z
 _atom_site_occupancy
  Ba  Ba0  1  0.99864586  0.00135414  0.73444424  1
  Ba  Ba1  1  0.99864586  0.00135414  0.26555576  1
  In  In2  1  0.49571240  0.50428760  0.50000000  1
  In  In3  1  0.52393769  0.47606231  0.00000000  1
  O  O4  1  0.48670559  0.51329441  0.75337650  1
  O  O5  1  0.48670559  0.51329441  0.24662350  1
  O  O6  1  0.50588721  0.00433384  0.50000000  1
  O  O7  1  0.99566616  0.49411279  0.50000000  1
  O  O8  1  0.02317739  0.37088375  0.00000000  1
  O  O9  1  0.62911625  0.97682261  0.00000000  1
