# generated using pymatgen
data_AlSi3O8
_symmetry_space_group_name_H-M   'P 1'
_cell_length_a   4.97342587
_cell_length_b   8.72820087
_cell_length_c   8.90444116
_cell_angle_alpha   90.00000000
_cell_angle_beta   90.00000000
_cell_angle_gamma   89.81970211
_symmetry_Int_Tables_number   1
_chemical_formula_structural   AlSi3O8
_chemical_formula_sum   'Al2 Si6 O16'
_cell_volume   386.53150666
_cell_formula_units_Z   2
loop_
 _symmetry_equiv_pos_site_id
 _symmetry_equiv_pos_as_xyz
  1  'x, y, z'
loop_
 _atom_site_type_symbol
 _atom_site_label
 _atom_site_symmetry_multiplicity
 _atom_site_fract_x
 _atom_site_fract_y
 _atom_site_fract_z
 _atom_site_occupancy
  Al  Al0  1  0.64291340  0.31899467  0.32787501  1
  Al  Al1  1  0.85708660  0.18100533  0.82787501  1
  Si  Si2  1  0.88944126  0.80840208  0.82840587  1
  Si  Si3  1  0.61055874  0.69159792  0.32840587  1
  Si  Si4  1  0.39682897  0.68783271  0.65559687  1
  Si  Si5  1  0.10317103  0.81216729  0.15559687  1
  Si  Si6  1  0.36490834  0.32683864  0.65242121  1
  Si  Si7  1  0.13509166  0.17316136  0.15242121  1
  O  O8  1  0.00176186  0.23569672  0.99884591  1
  O  O9  1  0.49823814  0.26430328  0.49884591  1
  O  O10  1  0.36571225  0.71493508  0.20729763  1
  O  O11  1  0.13428775  0.78506492  0.70729763  1
  O  O12  1  0.19536220  0.98999929  0.13750838  1
  O  O13  1  0.30463780  0.51000071  0.63750838  1
  O  O14  1  0.79847274  0.98526300  0.82979783  1
  O  O15  1  0.70152726  0.51473700  0.32979783  1
  O  O16  1  0.86503222  0.79949818  0.28068120  1
  O  O17  1  0.63496778  0.70050182  0.78068120  1
  O  O18  1  0.50756736  0.74986632  0.49407948  1
  O  O19  1  0.99243264  0.75013368  0.99407948  1
  O  O20  1  0.08468206  0.23950058  0.68815153  1
  O  O21  1  0.41531794  0.26049942  0.18815153  1
  O  O22  1  0.57077679  0.29227789  0.79053907  1
  O  O23  1  0.92922321  0.20772211  0.29053907  1
