# generated using pymatgen
data_Ca5Ni15B4
_symmetry_space_group_name_H-M   'P 1'
_cell_length_a   5.08436448
_cell_length_b   5.08436448
_cell_length_c   27.83177172
_cell_angle_alpha   90.00000000
_cell_angle_beta   90.00000000
_cell_angle_gamma   120.00000001
_symmetry_Int_Tables_number   1
_chemical_formula_structural   Ca5Ni15B4
_chemical_formula_sum   'Ca10 Ni30 B8'
_cell_volume   623.08147193
_cell_formula_units_Z   2
loop_
 _symmetry_equiv_pos_site_id
 _symmetry_equiv_pos_as_xyz
  1  'x, y, z'
loop_
 _atom_site_type_symbol
 _atom_site_label
 _atom_site_symmetry_multiplicity
 _atom_site_fract_x
 _atom_site_fract_y
 _atom_site_fract_z
 _atom_site_occupancy
  B  B0  1  0.00000000  0.00000000  0.37180741  1
  B  B1  1  0.00000000  0.00000000  0.87180741  1
  B  B2  1  0.00000000  0.00000000  0.62819259  1
  B  B3  1  0.00000000  0.00000000  0.12819259  1
  B  B4  1  0.33333333  0.66666667  0.87326639  1
  B  B5  1  0.66666667  0.33333333  0.37326639  1
  B  B6  1  0.66666667  0.33333333  0.12673361  1
  B  B7  1  0.33333333  0.66666667  0.62673361  1
  Ca  Ca8  1  0.66666667  0.33333333  0.75000000  1
  Ca  Ca9  1  0.33333333  0.66666667  0.25000000  1
  Ca  Ca10  1  0.33333333  0.66666667  0.48135805  1
  Ca  Ca11  1  0.66666667  0.33333333  0.98135805  1
  Ca  Ca12  1  0.66666667  0.33333333  0.51864195  1
  Ca  Ca13  1  0.33333333  0.66666667  0.01864195  1
  Ca  Ca14  1  0.33333333  0.66666667  0.36868003  1
  Ca  Ca15  1  0.66666667  0.33333333  0.86868003  1
  Ca  Ca16  1  0.66666667  0.33333333  0.63131997  1
  Ca  Ca17  1  0.33333333  0.66666667  0.13131997  1
  Ni  Ni18  1  0.83283716  0.16716284  0.17755864  1
  Ni  Ni19  1  0.16716284  0.33432569  0.82244136  1
  Ni  Ni20  1  0.16716284  0.83283716  0.82244136  1
  Ni  Ni21  1  0.16716284  0.33432569  0.67755864  1
  Ni  Ni22  1  0.66567431  0.83283716  0.82244136  1
  Ni  Ni23  1  0.33432569  0.16716284  0.32244136  1
  Ni  Ni24  1  0.83283716  0.66567431  0.32244136  1
  Ni  Ni25  1  0.83283716  0.16716284  0.32244136  1
  Ni  Ni26  1  0.33333333  0.66666667  0.75000000  1
  Ni  Ni27  1  0.66666667  0.33333333  0.25000000  1
  Ni  Ni28  1  0.00000000  0.00000000  0.25000000  1
  Ni  Ni29  1  0.00000000  0.00000000  0.75000000  1
  Ni  Ni30  1  0.33432569  0.16716284  0.17755864  1
  Ni  Ni31  1  0.66567431  0.83283716  0.67755864  1
  Ni  Ni32  1  0.16716284  0.83283716  0.67755864  1
  Ni  Ni33  1  0.83283716  0.66567431  0.17755864  1
  Ni  Ni34  1  0.83564909  0.16435091  0.42213638  1
  Ni  Ni35  1  0.83564909  0.67129818  0.42213638  1
  Ni  Ni36  1  0.32870182  0.16435091  0.42213638  1
  Ni  Ni37  1  0.67129818  0.83564909  0.92213638  1
  Ni  Ni38  1  0.16435091  0.32870182  0.57786362  1
  Ni  Ni39  1  0.16435091  0.83564909  0.92213638  1
  Ni  Ni40  1  0.16435091  0.32870182  0.92213638  1
  Ni  Ni41  1  0.83564909  0.16435091  0.07786362  1
  Ni  Ni42  1  0.32870182  0.16435091  0.07786362  1
  Ni  Ni43  1  0.67129818  0.83564909  0.57786362  1
  Ni  Ni44  1  0.16435091  0.83564909  0.57786362  1
  Ni  Ni45  1  0.83564909  0.67129818  0.07786362  1
  Ni  Ni46  1  0.00000000  0.00000000  0.50000000  1
  Ni  Ni47  1  0.00000000  0.00000000  0.00000000  1
