# generated using pymatgen
data_Th6CBr14
_symmetry_space_group_name_H-M   'P 1'
_cell_length_a   10.88443866
_cell_length_b   10.88443865
_cell_length_c   13.31753756
_cell_angle_alpha   90.00000000
_cell_angle_beta   90.00000000
_cell_angle_gamma   96.03421574
_symmetry_Int_Tables_number   1
_chemical_formula_structural   Th6CBr14
_chemical_formula_sum   'Th12 C2 Br28'
_cell_volume   1569.00025486
_cell_formula_units_Z   2
loop_
 _symmetry_equiv_pos_site_id
 _symmetry_equiv_pos_as_xyz
  1  'x, y, z'
loop_
 _atom_site_type_symbol
 _atom_site_label
 _atom_site_symmetry_multiplicity
 _atom_site_fract_x
 _atom_site_fract_y
 _atom_site_fract_z
 _atom_site_occupancy
  C  C0  1  0.50000000  0.50000000  0.50000000  1
  C  C1  1  0.00000000  0.00000000  0.00000000  1
  Br  Br2  1  0.90085277  0.40085277  0.75000000  1
  Br  Br3  1  0.59914723  0.09914723  0.25000000  1
  Br  Br4  1  0.09914723  0.59914723  0.25000000  1
  Br  Br5  1  0.40085277  0.90085277  0.75000000  1
  Br  Br6  1  0.12963436  0.37975041  0.49007722  1
  Br  Br7  1  0.37036564  0.12024959  0.99007722  1
  Br  Br8  1  0.87975041  0.62963436  0.00992278  1
  Br  Br9  1  0.62024959  0.87036564  0.50992278  1
  Br  Br10  1  0.87036564  0.62024959  0.50992278  1
  Br  Br11  1  0.62963436  0.87975041  0.00992278  1
  Br  Br12  1  0.28564388  0.53684903  0.74908718  1
  Br  Br13  1  0.21435612  0.96315097  0.24908718  1
  Br  Br14  1  0.03684903  0.78564388  0.75091282  1
  Br  Br15  1  0.46315097  0.71435612  0.25091282  1
  Br  Br16  1  0.71435612  0.46315097  0.25091282  1
  Br  Br17  1  0.78564388  0.03684903  0.75091282  1
  Br  Br18  1  0.96315097  0.21435612  0.24908718  1
  Br  Br19  1  0.53684903  0.28564388  0.74908718  1
  Br  Br20  1  0.15769517  0.15769517  0.73482955  1
  Br  Br21  1  0.34230483  0.34230483  0.23482955  1
  Br  Br22  1  0.65769517  0.65769517  0.76517045  1
  Br  Br23  1  0.84230483  0.84230483  0.26517045  1
  Br  Br24  1  0.24671532  0.75328468  0.50000000  1
  Br  Br25  1  0.25328468  0.74671532  0.00000000  1
  Br  Br26  1  0.75328468  0.24671532  0.50000000  1
  Br  Br27  1  0.74671532  0.25328468  0.00000000  1
  Br  Br28  1  0.37975041  0.12963436  0.49007722  1
  Br  Br29  1  0.12024959  0.37036564  0.99007722  1
  Th  Th30  1  0.64703811  0.64703811  0.39426673  1
  Th  Th31  1  0.85296189  0.85296189  0.89426673  1
  Th  Th32  1  0.14703811  0.14703811  0.10573327  1
  Th  Th33  1  0.35296189  0.35296189  0.60573327  1
  Th  Th34  1  0.68621946  0.45475051  0.61687829  1
  Th  Th35  1  0.81378054  0.04524949  0.11687829  1
  Th  Th36  1  0.95475051  0.18621946  0.88312171  1
  Th  Th37  1  0.54524949  0.31378054  0.38312171  1
  Th  Th38  1  0.31378054  0.54524949  0.38312171  1
  Th  Th39  1  0.18621946  0.95475051  0.88312171  1
  Th  Th40  1  0.04524949  0.81378054  0.11687829  1
  Th  Th41  1  0.45475051  0.68621946  0.61687829  1
