# generated using pymatgen
data_FeSeCl7
_symmetry_space_group_name_H-M   'P 1'
_cell_length_a   6.61185026
_cell_length_b   8.53041913
_cell_length_c   10.36100068
_cell_angle_alpha   85.56212097
_cell_angle_beta   75.99568776
_cell_angle_gamma   83.86259553
_symmetry_Int_Tables_number   1
_chemical_formula_structural   FeSeCl7
_chemical_formula_sum   'Fe2 Se2 Cl14'
_cell_volume   562.95647679
_cell_formula_units_Z   2
loop_
 _symmetry_equiv_pos_site_id
 _symmetry_equiv_pos_as_xyz
  1  'x, y, z'
loop_
 _atom_site_type_symbol
 _atom_site_label
 _atom_site_symmetry_multiplicity
 _atom_site_fract_x
 _atom_site_fract_y
 _atom_site_fract_z
 _atom_site_occupancy
  Cl  Cl0  1  0.93936448  0.04667904  0.44239244  1
  Cl  Cl1  1  0.99169109  0.93448231  0.74617493  1
  Cl  Cl2  1  0.31968967  0.16599081  0.56078178  1
  Cl  Cl3  1  0.70285724  0.36582043  0.69218147  1
  Cl  Cl4  1  0.82287089  0.19062159  0.07779807  1
  Cl  Cl5  1  0.27758256  0.33226722  0.20537625  1
  Cl  Cl6  1  0.47094120  0.92833447  0.28271001  1
  Cl  Cl7  1  0.42463694  0.03957348  0.95238747  1
  Cl  Cl8  1  0.07816168  0.72288959  0.12199876  1
  Cl  Cl9  1  0.17132283  0.46613055  0.88933138  1
  Cl  Cl10  1  0.68852237  0.61437308  0.01336042  1
  Cl  Cl11  1  0.08038452  0.62923000  0.51469936  1
  Cl  Cl12  1  0.53302920  0.76809431  0.63574130  1
  Cl  Cl13  1  0.69320864  0.50008790  0.35884129  1
  Fe  Fe14  1  0.49379792  0.12597817  0.12629296  1
  Fe  Fe15  1  0.75223243  0.56606715  0.54926080  1
  Se  Se16  1  0.95960254  0.50500855  0.08371542  1
  Se  Se17  1  0.18370380  0.94817135  0.54225589  1
