# generated using pymatgen
data_TaClF8
_symmetry_space_group_name_H-M   'P 1'
_cell_length_a   5.99590671
_cell_length_b   10.10596645
_cell_length_c   11.00480165
_cell_angle_alpha   90.00000000
_cell_angle_beta   90.00000000
_cell_angle_gamma   90.00000000
_symmetry_Int_Tables_number   1
_chemical_formula_structural   TaClF8
_chemical_formula_sum   'Ta4 Cl4 F32'
_cell_volume   666.82970579
_cell_formula_units_Z   4
loop_
 _symmetry_equiv_pos_site_id
 _symmetry_equiv_pos_as_xyz
  1  'x, y, z'
loop_
 _atom_site_type_symbol
 _atom_site_label
 _atom_site_symmetry_multiplicity
 _atom_site_fract_x
 _atom_site_fract_y
 _atom_site_fract_z
 _atom_site_occupancy
  F  F0  1  0.11123854  0.34807798  0.94856475  1
  F  F1  1  0.11123854  0.65192202  0.55143525  1
  F  F2  1  0.88876146  0.84807798  0.55143525  1
  F  F3  1  0.88876146  0.15192202  0.94856475  1
  F  F4  1  0.88876146  0.65192202  0.05143525  1
  F  F5  1  0.88876146  0.34807798  0.44856475  1
  F  F6  1  0.11123854  0.15192202  0.44856475  1
  F  F7  1  0.11123854  0.84807798  0.05143525  1
  F  F8  1  0.60135496  0.88644697  0.81570875  1
  F  F9  1  0.60135496  0.11355303  0.68429125  1
  F  F10  1  0.39864504  0.38644697  0.68429125  1
  F  F11  1  0.39864504  0.61355303  0.81570875  1
  F  F12  1  0.39864504  0.11355303  0.18429125  1
  F  F13  1  0.39864504  0.88644697  0.31570875  1
  F  F14  1  0.60135496  0.61355303  0.31570875  1
  F  F15  1  0.60135496  0.38644697  0.18429125  1
  F  F16  1  0.13975386  0.88305302  0.81523631  1
  F  F17  1  0.13975386  0.11694698  0.68476369  1
  F  F18  1  0.86024614  0.38305302  0.68476369  1
  F  F19  1  0.86024614  0.61694698  0.81523631  1
  F  F20  1  0.86024614  0.11694698  0.18476369  1
  F  F21  1  0.86024614  0.88305302  0.31523631  1
  F  F22  1  0.13975386  0.61694698  0.31523631  1
  F  F23  1  0.13975386  0.38305302  0.18476369  1
  F  F24  1  0.35660866  0.09908779  0.89655960  1
  F  F25  1  0.35660866  0.90091221  0.60344040  1
  F  F26  1  0.64339134  0.59908779  0.60344040  1
  F  F27  1  0.64339134  0.40091221  0.89655960  1
  F  F28  1  0.64339134  0.90091221  0.10344040  1
  F  F29  1  0.64339134  0.09908779  0.39655960  1
  F  F30  1  0.35660866  0.40091221  0.39655960  1
  F  F31  1  0.35660866  0.59908779  0.10344040  1
  Cl  Cl32  1  0.00000000  0.75000000  0.45132279  1
  Cl  Cl33  1  0.00000000  0.25000000  0.04867721  1
  Cl  Cl34  1  0.00000000  0.25000000  0.54867721  1
  Cl  Cl35  1  0.00000000  0.75000000  0.95132279  1
  Ta  Ta36  1  0.38378238  0.50000000  0.25000000  1
  Ta  Ta37  1  0.61621762  0.00000000  0.25000000  1
  Ta  Ta38  1  0.61621762  0.50000000  0.75000000  1
  Ta  Ta39  1  0.38378238  0.00000000  0.75000000  1
