# generated using pymatgen
data_NaTaCl6
_symmetry_space_group_name_H-M   'P 1'
_cell_length_a   6.69464022
_cell_length_b   7.10346265
_cell_length_c   19.80757943
_cell_angle_alpha   90.00000000
_cell_angle_beta   90.65650290
_cell_angle_gamma   90.00000000
_symmetry_Int_Tables_number   1
_chemical_formula_structural   NaTaCl6
_chemical_formula_sum   'Na4 Ta4 Cl24'
_cell_volume   941.89011710
_cell_formula_units_Z   4
loop_
 _symmetry_equiv_pos_site_id
 _symmetry_equiv_pos_as_xyz
  1  'x, y, z'
loop_
 _atom_site_type_symbol
 _atom_site_label
 _atom_site_symmetry_multiplicity
 _atom_site_fract_x
 _atom_site_fract_y
 _atom_site_fract_z
 _atom_site_occupancy
  Na  Na0  1  0.78653773  0.18915560  0.74750137  1
  Na  Na1  1  0.21346227  0.68915560  0.75249863  1
  Na  Na2  1  0.21346227  0.81084440  0.25249863  1
  Na  Na3  1  0.78653773  0.31084440  0.24750137  1
  Cl  Cl4  1  0.38429999  0.18116337  0.23519572  1
  Cl  Cl5  1  0.61570001  0.68116337  0.26480428  1
  Cl  Cl6  1  0.61570001  0.81883663  0.76480428  1
  Cl  Cl7  1  0.38429999  0.31883663  0.73519572  1
  Cl  Cl8  1  0.53749716  0.39526749  0.09465588  1
  Cl  Cl9  1  0.46250284  0.89526749  0.40534412  1
  Cl  Cl10  1  0.46250284  0.60473251  0.90534412  1
  Cl  Cl11  1  0.53749716  0.10473251  0.59465588  1
  Cl  Cl12  1  0.08383816  0.49588272  0.15771223  1
  Cl  Cl13  1  0.91616184  -0.00411728  0.34228777  1
  Cl  Cl14  1  0.91616184  0.50411728  0.84228777  1
  Cl  Cl15  1  0.08383816  1.00411728  0.65771223  1
  Cl  Cl16  1  0.11678407  0.25275552  0.01221084  1
  Cl  Cl17  1  0.88321593  0.75275552  0.48778916  1
  Cl  Cl18  1  0.88321593  0.74724448  0.98778916  1
  Cl  Cl19  1  0.11678407  0.24724448  0.51221084  1
  Cl  Cl20  1  0.96783239  0.04297190  0.15812617  1
  Cl  Cl21  1  0.03216761  0.54297190  0.34187383  1
  Cl  Cl22  1  0.03216761  0.95702810  0.84187383  1
  Cl  Cl23  1  0.96783239  0.45702810  0.65812617  1
  Cl  Cl24  1  0.40569492  0.93212053  0.09204631  1
  Cl  Cl25  1  0.59430508  0.43212053  0.40795369  1
  Cl  Cl26  1  0.59430508  0.06787947  0.90795369  1
  Cl  Cl27  1  0.40569492  0.56787947  0.59204631  1
  Ta  Ta28  1  0.25656923  0.28258572  0.61747932  1
  Ta  Ta29  1  0.74343077  0.78258572  0.88252068  1
  Ta  Ta30  1  0.74343077  0.71741428  0.38252068  1
  Ta  Ta31  1  0.25656923  0.21741428  0.11747932  1
