# generated using pymatgen
data_NaNbCl6
_symmetry_space_group_name_H-M   'P 1'
_cell_length_a   6.65664956
_cell_length_b   7.07771968
_cell_length_c   19.92670257
_cell_angle_alpha   90.00000000
_cell_angle_beta   90.50509778
_cell_angle_gamma   90.00000000
_symmetry_Int_Tables_number   1
_chemical_formula_structural   NaNbCl6
_chemical_formula_sum   'Na4 Nb4 Cl24'
_cell_volume   938.78818453
_cell_formula_units_Z   4
loop_
 _symmetry_equiv_pos_site_id
 _symmetry_equiv_pos_as_xyz
  1  'x, y, z'
loop_
 _atom_site_type_symbol
 _atom_site_label
 _atom_site_symmetry_multiplicity
 _atom_site_fract_x
 _atom_site_fract_y
 _atom_site_fract_z
 _atom_site_occupancy
  Na  Na0  1  0.78883787  0.18878828  0.74747886  1
  Na  Na1  1  0.21116213  0.68878828  0.75252114  1
  Na  Na2  1  0.21116213  0.81121172  0.25252114  1
  Na  Na3  1  0.78883787  0.31121172  0.24747886  1
  Cl  Cl4  1  0.38614235  0.17959873  0.23453952  1
  Cl  Cl5  1  0.61385765  0.67959873  0.26546048  1
  Cl  Cl6  1  0.61385765  0.82040127  0.76546048  1
  Cl  Cl7  1  0.38614235  0.32040127  0.73453952  1
  Cl  Cl8  1  0.54030877  0.39722486  0.09424063  1
  Cl  Cl9  1  0.45969123  0.89722486  0.40575937  1
  Cl  Cl10  1  0.45969123  0.60277514  0.90575937  1
  Cl  Cl11  1  0.54030877  0.10277514  0.59424063  1
  Cl  Cl12  1  0.08237939  0.49774486  0.15781595  1
  Cl  Cl13  1  0.91762061  -0.00225514  0.34218405  1
  Cl  Cl14  1  0.91762061  0.50225514  0.84218405  1
  Cl  Cl15  1  0.08237939  1.00225514  0.65781595  1
  Cl  Cl16  1  0.11355216  0.25333282  0.01201250  1
  Cl  Cl17  1  0.88644784  0.75333282  0.48798750  1
  Cl  Cl18  1  0.88644784  0.74666718  0.98798750  1
  Cl  Cl19  1  0.11355216  0.24666718  0.51201250  1
  Cl  Cl20  1  0.96540432  0.04097159  0.15815473  1
  Cl  Cl21  1  0.03459568  0.54097159  0.34184527  1
  Cl  Cl22  1  0.03459568  0.95902841  0.84184527  1
  Cl  Cl23  1  0.96540432  0.45902841  0.65815473  1
  Cl  Cl24  1  0.40739262  0.92959636  0.09110873  1
  Cl  Cl25  1  0.59260738  0.42959636  0.40889127  1
  Cl  Cl26  1  0.59260738  0.07040364  0.90889127  1
  Cl  Cl27  1  0.40739262  0.57040364  0.59110873  1
  Nb  Nb28  1  0.25712235  0.28293420  0.61659820  1
  Nb  Nb29  1  0.74287765  0.78293420  0.88340180  1
  Nb  Nb30  1  0.74287765  0.71706580  0.38340180  1
  Nb  Nb31  1  0.25712235  0.21706580  0.11659820  1
