# generated using pymatgen
data_IrS3Cl11
_symmetry_space_group_name_H-M   'P 1'
_cell_length_a   8.54377447
_cell_length_b   13.90680415
_cell_length_c   15.95361438
_cell_angle_alpha   90.00000000
_cell_angle_beta   106.21818029
_cell_angle_gamma   90.00000000
_symmetry_Int_Tables_number   1
_chemical_formula_structural   IrS3Cl11
_chemical_formula_sum   'Ir4 S12 Cl44'
_cell_volume   1820.12082412
_cell_formula_units_Z   4
loop_
 _symmetry_equiv_pos_site_id
 _symmetry_equiv_pos_as_xyz
  1  'x, y, z'
loop_
 _atom_site_type_symbol
 _atom_site_label
 _atom_site_symmetry_multiplicity
 _atom_site_fract_x
 _atom_site_fract_y
 _atom_site_fract_z
 _atom_site_occupancy
  S  S0  1  0.37403762  0.23845844  0.93598498  1
  S  S1  1  0.62596238  0.73845844  0.56401502  1
  S  S2  1  0.62596238  0.76154156  0.06401502  1
  S  S3  1  0.37403762  0.26154156  0.43598498  1
  S  S4  1  0.06290699  0.52254414  0.12492098  1
  S  S5  1  0.93709301  0.02254414  0.37507902  1
  S  S6  1  0.12741034  0.54163045  0.73130771  1
  S  S7  1  0.87258966  0.04163045  0.76869229  1
  S  S8  1  0.87258966  0.45836955  0.26869229  1
  S  S9  1  0.12741034  0.95836955  0.23130771  1
  S  S10  1  0.93709301  0.47745586  0.87507902  1
  S  S11  1  0.06290699  0.97745586  0.62492098  1
  Cl  Cl12  1  0.89825123  0.36222043  0.67698970  1
  Cl  Cl13  1  0.68645752  0.56117345  0.06398436  1
  Cl  Cl14  1  0.68645752  0.93882655  0.56398436  1
  Cl  Cl15  1  0.31354248  0.43882655  0.93601564  1
  Cl  Cl16  1  0.30291666  0.18381697  0.26152009  1
  Cl  Cl17  1  0.69708334  0.68381697  0.23847991  1
  Cl  Cl18  1  0.69708334  0.81618303  0.73847991  1
  Cl  Cl19  1  0.30291666  0.31618303  0.76152009  1
  Cl  Cl20  1  0.33587806  0.88356667  0.29113635  1
  Cl  Cl21  1  0.66412194  0.38356667  0.20886365  1
  Cl  Cl22  1  0.66412194  0.11643333  0.70886365  1
  Cl  Cl23  1  0.33587806  0.61643333  0.79113635  1
  Cl  Cl24  1  0.17596423  0.99162525  0.11555314  1
  Cl  Cl25  1  0.82403577  0.49162525  0.38444686  1
  Cl  Cl26  1  0.82403577  0.00837475  0.88444686  1
  Cl  Cl27  1  0.31354248  0.06117345  0.43601564  1
  Cl  Cl28  1  0.69393065  0.04569720  0.31603333  1
  Cl  Cl29  1  0.30606935  0.54569720  0.18396667  1
  Cl  Cl30  1  0.30606935  0.95430280  0.68396667  1
  Cl  Cl31  1  0.69393065  0.45430280  0.81603333  1
  Cl  Cl32  1  0.94956286  0.87517848  0.36612381  1
  Cl  Cl33  1  0.05043714  0.37517848  0.13387619  1
  Cl  Cl34  1  0.05043714  0.12482152  0.63387619  1
  Cl  Cl35  1  0.94956286  0.62482152  0.86612381  1
  Cl  Cl36  1  0.34682329  0.40362961  0.39447170  1
  Cl  Cl37  1  0.65317671  0.90362961  0.10552830  1
  Cl  Cl38  1  0.65317671  0.59637039  0.60552830  1
  Cl  Cl39  1  0.34682329  0.09637039  0.89447170  1
  Cl  Cl40  1  0.36408743  0.28124863  0.56246800  1
  Cl  Cl41  1  0.63591257  0.78124863  0.93753200  1
  Cl  Cl42  1  0.63591257  0.71875137  0.43753200  1
  Cl  Cl43  1  0.36408743  0.21875137  0.06246800  1
  Cl  Cl44  1  0.62272036  0.24891840  0.45878861  1
  Cl  Cl45  1  0.37727964  0.74891840  0.04121139  1
  Cl  Cl46  1  0.37727964  0.75108160  0.54121139  1
  Cl  Cl47  1  0.62272036  0.25108160  0.95878861  1
  Cl  Cl48  1  0.10174877  0.63777957  0.32301030  1
  Cl  Cl49  1  0.89825123  0.13777957  0.17698970  1
  Cl  Cl50  1  0.03799745  0.26766079  0.87750116  1
  Cl  Cl51  1  0.96200255  0.76766079  0.62249884  1
  Cl  Cl52  1  0.96200255  0.73233921  0.12249884  1
  Cl  Cl53  1  0.03799745  0.23233921  0.37750116  1
  Cl  Cl54  1  0.17596423  0.50837475  0.61555314  1
  Cl  Cl55  1  0.10174877  0.86222043  0.82301030  1
  Ir  Ir56  1  0.10234857  0.40815234  0.80403827  1
  Ir  Ir57  1  0.89765143  0.90815234  0.69596173  1
  Ir  Ir58  1  0.89765143  0.59184766  0.19596173  1
  Ir  Ir59  1  0.10234857  0.09184766  0.30403827  1
