# generated using pymatgen
data_RbInI4
_symmetry_space_group_name_H-M   'P 1'
_cell_length_a   15.12317435
_cell_length_b   15.12317435
_cell_length_c   15.12317435
_cell_angle_alpha   115.18210168
_cell_angle_beta   115.18210166
_cell_angle_gamma   115.18210172
_symmetry_Int_Tables_number   1
_chemical_formula_structural   RbInI4
_chemical_formula_sum   'Rb6 In6 I24'
_cell_volume   1903.25974969
_cell_formula_units_Z   6
loop_
 _symmetry_equiv_pos_site_id
 _symmetry_equiv_pos_as_xyz
  1  'x, y, z'
loop_
 _atom_site_type_symbol
 _atom_site_label
 _atom_site_symmetry_multiplicity
 _atom_site_fract_x
 _atom_site_fract_y
 _atom_site_fract_z
 _atom_site_occupancy
  Rb  Rb0  1  0.12357788  0.31138421  0.90716565  1
  Rb  Rb1  1  0.90716565  0.12357788  0.31138421  1
  Rb  Rb2  1  0.31138421  0.90716565  0.12357788  1
  Rb  Rb3  1  0.81138421  0.62357788  0.40716565  1
  Rb  Rb4  1  0.40716565  0.81138421  0.62357788  1
  Rb  Rb5  1  0.62357788  0.40716565  0.81138421  1
  In  In6  1  0.13667211  0.92483749  0.31874989  1
  In  In7  1  0.31874989  0.13667211  0.92483749  1
  In  In8  1  0.92483749  0.31874989  0.13667211  1
  In  In9  1  0.42483749  0.63667211  0.81874989  1
  In  In10  1  0.81874989  0.42483749  0.63667211  1
  In  In11  1  0.63667211  0.81874989  0.42483749  1
  I  I12  1  0.03687252  0.88501584  0.09034735  1
  I  I13  1  0.09034735  0.03687252  0.88501584  1
  I  I14  1  0.88501584  0.09034735  0.03687252  1
  I  I15  1  0.38501584  0.53687252  0.59034735  1
  I  I16  1  0.59034735  0.38501584  0.53687252  1
  I  I17  1  0.53687252  0.59034735  0.38501584  1
  I  I18  1  0.92625326  0.67064713  0.21780655  1
  I  I19  1  0.21780655  0.92625326  0.67064713  1
  I  I20  1  0.67064713  0.21780655  0.92625326  1
  I  I21  1  0.17064713  0.42625326  0.71780655  1
  I  I22  1  0.71780655  0.17064713  0.42625326  1
  I  I23  1  0.42625326  0.71780655  0.17064713  1
  I  I24  1  0.38352834  0.99189986  0.44931000  1
  I  I25  1  0.44931000  0.38352834  0.99189986  1
  I  I26  1  0.99189986  0.44931000  0.38352834  1
  I  I27  1  0.49189986  0.88352834  0.94931000  1
  I  I28  1  0.94931000  0.49189986  0.88352834  1
  I  I29  1  0.88352834  0.94931000  0.49189986  1
  I  I30  1  0.20743561  0.15383973  0.52425657  1
  I  I31  1  0.52425657  0.20743561  0.15383973  1
  I  I32  1  0.15383973  0.52425657  0.20743561  1
  I  I33  1  0.65383973  0.70743561  0.02425657  1
  I  I34  1  0.02425657  0.65383973  0.70743561  1
  I  I35  1  0.70743561  0.02425657  0.65383973  1
