# generated using pymatgen
data_CsH7O4
_symmetry_space_group_name_H-M   'P 1'
_cell_length_a   6.08240954
_cell_length_b   8.77200293
_cell_length_c   10.03024198
_cell_angle_alpha   97.27204117
_cell_angle_beta   90.00000000
_cell_angle_gamma   90.00000000
_symmetry_Int_Tables_number   1
_chemical_formula_structural   CsH7O4
_chemical_formula_sum   'Cs4 H28 O16'
_cell_volume   530.85802818
_cell_formula_units_Z   4
loop_
 _symmetry_equiv_pos_site_id
 _symmetry_equiv_pos_as_xyz
  1  'x, y, z'
loop_
 _atom_site_type_symbol
 _atom_site_label
 _atom_site_symmetry_multiplicity
 _atom_site_fract_x
 _atom_site_fract_y
 _atom_site_fract_z
 _atom_site_occupancy
  H  H0  1  0.86887502  0.50932421  0.89314786  1
  H  H1  1  0.36887502  0.99067579  0.60685214  1
  H  H2  1  0.13112498  0.49067579  0.10685214  1
  H  H3  1  0.63112498  0.00932421  0.39314786  1
  H  H4  1  0.87567003  0.37084332  0.98167349  1
  H  H5  1  0.37567003  0.12915668  0.51832651  1
  H  H6  1  0.12432997  0.62915668  0.01832651  1
  H  H7  1  0.62432997  0.87084332  0.48167349  1
  H  H8  1  0.80793417  0.20616653  0.13082128  1
  H  H9  1  0.30793417  0.29383347  0.36917872  1
  H  H10  1  0.19206583  0.79383347  0.86917872  1
  H  H11  1  0.69206583  0.70616653  0.63082128  1
  H  H12  1  0.61201424  0.16384195  0.23615036  1
  H  H13  1  0.11201424  0.33615805  0.26384964  1
  H  H14  1  0.38798576  0.83615805  0.76384964  1
  H  H15  1  0.88798576  0.66384195  0.73615036  1
  H  H16  1  0.33557603  0.05244906  0.91370152  1
  H  H17  1  0.83557603  0.44755094  0.58629848  1
  H  H18  1  0.66442397  0.94755094  0.08629848  1
  H  H19  1  0.16442397  0.55244906  0.41370152  1
  H  H20  1  0.37493882  0.75225526  0.55991423  1
  H  H21  1  0.87493882  0.74774474  0.94008577  1
  H  H22  1  0.62506118  0.24774474  0.44008577  1
  H  H23  1  0.12506118  0.25225526  0.05991423  1
  H  H24  1  0.03022722  0.66566366  0.51887777  1
  H  H25  1  0.53022722  0.83433634  0.98112223  1
  H  H26  1  0.96977278  0.33433634  0.48112223  1
  H  H27  1  0.46977278  0.16566366  0.01887777  1
  O  O28  1  0.80261950  0.40586697  0.90076124  1
  O  O29  1  0.30261950  0.09413303  0.59923876  1
  O  O30  1  0.19738050  0.59413303  0.09923876  1
  O  O31  1  0.69738050  0.90586697  0.40076124  1
  O  O32  1  0.66832093  0.14169963  0.13924172  1
  O  O33  1  0.16832093  0.35830037  0.36075828  1
  O  O34  1  0.33167907  0.85830037  0.86075828  1
  O  O35  1  0.83167907  0.64169963  0.63924172  1
  O  O36  1  0.35198257  0.16373349  0.94910700  1
  O  O37  1  0.85198257  0.33626651  0.55089300  1
  O  O38  1  0.64801743  0.83626651  0.05089300  1
  O  O39  1  0.14801743  0.66373349  0.44910700  1
  O  O40  1  0.01263893  0.31264871  0.11476541  1
  O  O41  1  0.51263893  0.18735129  0.38523459  1
  O  O42  1  0.98736107  0.68735129  0.88523459  1
  O  O43  1  0.48736107  0.81264871  0.61476541  1
  Cs  Cs44  1  0.85218588  0.06997451  0.73372376  1
  Cs  Cs45  1  0.35218588  0.43002549  0.76627624  1
  Cs  Cs46  1  0.14781412  0.93002549  0.26627624  1
  Cs  Cs47  1  0.64781412  0.56997451  0.23372376  1
