# generated using pymatgen
data_K3NO4
_symmetry_space_group_name_H-M   'P 1'
_cell_length_a   5.78571077
_cell_length_b   8.08163313
_cell_length_c   11.01401771
_cell_angle_alpha   90.00000000
_cell_angle_beta   90.00000000
_cell_angle_gamma   90.00000000
_symmetry_Int_Tables_number   1
_chemical_formula_structural   K3NO4
_chemical_formula_sum   'K12 N4 O16'
_cell_volume   514.99335020
_cell_formula_units_Z   4
loop_
 _symmetry_equiv_pos_site_id
 _symmetry_equiv_pos_as_xyz
  1  'x, y, z'
loop_
 _atom_site_type_symbol
 _atom_site_label
 _atom_site_symmetry_multiplicity
 _atom_site_fract_x
 _atom_site_fract_y
 _atom_site_fract_z
 _atom_site_occupancy
  N  N0  1  0.28635946  0.75000000  0.61642493  1
  N  N1  1  0.21364054  0.75000000  0.11642493  1
  N  N2  1  0.71364054  0.25000000  0.38357507  1
  N  N3  1  0.78635946  0.25000000  0.88357507  1
  O  O4  1  0.35064326  0.60732906  0.10828805  1
  O  O5  1  0.85064326  0.39267094  0.39171195  1
  O  O6  1  0.64935674  0.10732906  0.89171195  1
  O  O7  1  0.14935674  0.89267094  0.60828805  1
  O  O8  1  0.09332215  0.75000000  0.22737251  1
  O  O9  1  0.59332215  0.25000000  0.27262749  1
  O  O10  1  0.90667785  0.25000000  0.77262749  1
  O  O11  1  0.40667785  0.75000000  0.72737251  1
  O  O12  1  0.64935674  0.39267094  0.89171195  1
  O  O13  1  0.85064326  0.10732906  0.39171195  1
  O  O14  1  0.35064326  0.89267094  0.10828805  1
  O  O15  1  0.14935674  0.60732906  0.60828805  1
  O  O16  1  0.44871110  0.75000000  0.52053151  1
  O  O17  1  0.94871110  0.25000000  0.97946849  1
  O  O18  1  0.55128890  0.25000000  0.47946849  1
  O  O19  1  0.05128890  0.75000000  0.02053151  1
  K  K20  1  0.67319599  0.49126946  0.64446585  1
  K  K21  1  0.17319599  0.50873054  0.85553415  1
  K  K22  1  0.32680401  0.99126946  0.35553415  1
  K  K23  1  0.82680401  0.00873054  0.14446585  1
  K  K24  1  0.32680401  0.50873054  0.35553415  1
  K  K25  1  0.82680401  0.49126946  0.14446585  1
  K  K26  1  0.67319599  0.00873054  0.64446585  1
  K  K27  1  0.17319599  0.99126946  0.85553415  1
  K  K28  1  0.87482550  0.75000000  0.43277465  1
  K  K29  1  0.37482550  0.25000000  0.06722535  1
  K  K30  1  0.12517450  0.25000000  0.56722535  1
  K  K31  1  0.62517450  0.75000000  0.93277465  1
