# generated using pymatgen
data_Sr4(PPd)5
_symmetry_space_group_name_H-M   'P 1'
_cell_length_a   4.22200897
_cell_length_b   8.70568692
_cell_length_c   15.90948206
_cell_angle_alpha   89.99925483
_cell_angle_beta   97.62497515
_cell_angle_gamma   90.00000000
_symmetry_Int_Tables_number   1
_chemical_formula_structural   Sr4(PPd)5
_chemical_formula_sum   'Sr8 P10 Pd10'
_cell_volume   579.59020633
_cell_formula_units_Z   2
loop_
 _symmetry_equiv_pos_site_id
 _symmetry_equiv_pos_as_xyz
  1  'x, y, z'
loop_
 _atom_site_type_symbol
 _atom_site_label
 _atom_site_symmetry_multiplicity
 _atom_site_fract_x
 _atom_site_fract_y
 _atom_site_fract_z
 _atom_site_occupancy
  P  P0  1  0.27093997  0.74999909  0.54187995  1
  P  P1  1  0.04234863  0.75000062  0.08469725  1
  P  P2  1  0.04332130  0.25000920  0.08664261  1
  P  P3  1  0.95765137  0.24999938  0.91530275  1
  P  P4  1  0.95667870  0.74999080  0.91335739  1
  P  P5  1  0.65692957  0.24998782  0.31385913  1
  P  P6  1  0.34307043  0.75001218  0.68614087  1
  P  P7  1  0.34427459  0.25000045  0.68854917  1
  P  P8  1  0.72906003  0.25000091  0.45812005  1
  P  P9  1  0.65572541  0.74999955  0.31145083  1
  Sr  Sr10  1  0.80643547  0.49572287  0.61287095  1
  Sr  Sr11  1  0.19356453  0.50427713  0.38712905  1
  Sr  Sr12  1  0.19356349  0.99572144  0.38712699  1
  Sr  Sr13  1  0.80643651  0.00427856  0.61287301  1
  Sr  Sr14  1  0.57916182  0.99975648  0.15832364  1
  Sr  Sr15  1  0.42083791  0.49975534  0.84167581  1
  Sr  Sr16  1  0.42083818  0.00024352  0.84167636  1
  Sr  Sr17  1  0.57916209  0.50024466  0.15832419  1
  Pd  Pd18  1  0.73351874  0.75000589  0.46703748  1
  Pd  Pd19  1  0.26648126  0.24999411  0.53296252  1
  Pd  Pd20  1  0.00000000  0.50000000  0.00000000  1
  Pd  Pd21  1  0.87992697  0.74999691  0.75985395  1
  Pd  Pd22  1  0.12007303  0.25000309  0.24014605  1
  Pd  Pd23  1  0.11856124  0.74999939  0.23712249  1
  Pd  Pd24  1  0.88143876  0.25000061  0.76287751  1
  Pd  Pd25  1  0.50005812  0.75000305  0.00011624  1
  Pd  Pd26  1  0.49994188  0.24999695  0.99988376  1
  Pd  Pd27  1  0.00000000  0.00000000  0.00000000  1
