# generated using pymatgen
data_TlCdCl3
_symmetry_space_group_name_H-M   'P 1'
_cell_length_a   4.04572016
_cell_length_b   9.18009054
_cell_length_c   15.16895074
_cell_angle_alpha   90.00000000
_cell_angle_beta   90.00000000
_cell_angle_gamma   90.00000000
_symmetry_Int_Tables_number   1
_chemical_formula_structural   TlCdCl3
_chemical_formula_sum   'Tl4 Cd4 Cl12'
_cell_volume   563.37600408
_cell_formula_units_Z   4
loop_
 _symmetry_equiv_pos_site_id
 _symmetry_equiv_pos_as_xyz
  1  'x, y, z'
loop_
 _atom_site_type_symbol
 _atom_site_label
 _atom_site_symmetry_multiplicity
 _atom_site_fract_x
 _atom_site_fract_y
 _atom_site_fract_z
 _atom_site_occupancy
  Cl  Cl0  1  0.25000000  0.51704678  0.59974714  1
  Cl  Cl1  1  0.75000000  0.48295322  0.40025286  1
  Cl  Cl2  1  0.25000000  0.01704678  0.90025286  1
  Cl  Cl3  1  0.75000000  0.98295322  0.09974714  1
  Cl  Cl4  1  0.25000000  0.66980188  0.00956835  1
  Cl  Cl5  1  0.75000000  0.33019812  0.99043165  1
  Cl  Cl6  1  0.25000000  0.16980188  0.49043165  1
  Cl  Cl7  1  0.75000000  0.83019812  0.50956835  1
  Cl  Cl8  1  0.75000000  0.71163972  0.79452161  1
  Cl  Cl9  1  0.25000000  0.28836028  0.20547839  1
  Cl  Cl10  1  0.75000000  0.21163972  0.70547839  1
  Cl  Cl11  1  0.25000000  0.78836028  0.29452161  1
  Cd  Cd12  1  0.25000000  0.67004879  0.44804723  1
  Cd  Cd13  1  0.75000000  0.32995121  0.55195277  1
  Cd  Cd14  1  0.25000000  0.17004879  0.05195277  1
  Cd  Cd15  1  0.75000000  0.82995121  0.94804723  1
  Tl  Tl16  1  0.25000000  0.93407706  0.67978493  1
  Tl  Tl17  1  0.75000000  0.06592294  0.32021507  1
  Tl  Tl18  1  0.25000000  0.43407706  0.82021507  1
  Tl  Tl19  1  0.75000000  0.56592294  0.17978493  1
