# generated using pymatgen
data_Ba2CoNiS4
_symmetry_space_group_name_H-M   'P 1'
_cell_length_a   4.39882613
_cell_length_b   4.39882613
_cell_length_c   8.96151906
_cell_angle_alpha   90.00000000
_cell_angle_beta   90.00000000
_cell_angle_gamma   90.00000000
_symmetry_Int_Tables_number   1
_chemical_formula_structural   Ba2CoNiS4
_chemical_formula_sum   'Ba2 Co1 Ni1 S4'
_cell_volume   173.40244836
_cell_formula_units_Z   1
loop_
 _symmetry_equiv_pos_site_id
 _symmetry_equiv_pos_as_xyz
  1  'x, y, z'
loop_
 _atom_site_type_symbol
 _atom_site_label
 _atom_site_symmetry_multiplicity
 _atom_site_fract_x
 _atom_site_fract_y
 _atom_site_fract_z
 _atom_site_occupancy
  Ba  Ba0  1  0.75000000  0.75000000  0.19885797  1
  Ba  Ba1  1  0.25000000  0.25000000  0.80097530  1
  Co  Co2  1  0.75000000  0.75000000  0.58783605  1
  Ni  Ni3  1  0.25000000  0.25000000  0.41322758  1
  S  S4  1  0.75000000  0.75000000  0.84054442  1
  S  S5  1  0.25000000  0.25000000  0.15496224  1
  S  S6  1  0.75000000  0.25000000  0.50179822  1
  S  S7  1  0.25000000  0.75000000  0.50179822  1
