# generated using pymatgen
data_Lu6Ge4O17
_symmetry_space_group_name_H-M   'P 1'
_cell_length_a   6.89778951
_cell_length_b   10.55620965
_cell_length_c   10.96001164
_cell_angle_alpha   111.58997242
_cell_angle_beta   90.00000000
_cell_angle_gamma   90.00000000
_symmetry_Int_Tables_number   1
_chemical_formula_structural   Lu6Ge4O17
_chemical_formula_sum   'Lu12 Ge8 O34'
_cell_volume   742.05757782
_cell_formula_units_Z   2
loop_
 _symmetry_equiv_pos_site_id
 _symmetry_equiv_pos_as_xyz
  1  'x, y, z'
loop_
 _atom_site_type_symbol
 _atom_site_label
 _atom_site_symmetry_multiplicity
 _atom_site_fract_x
 _atom_site_fract_y
 _atom_site_fract_z
 _atom_site_occupancy
  O  O0  1  0.57913665  0.61261969  0.98523347  1
  O  O1  1  0.57913665  0.88738031  0.01476653  1
  O  O2  1  0.42086335  0.38738031  0.01476653  1
  O  O3  1  0.42086335  0.11261969  0.98523347  1
  O  O4  1  0.32656015  0.36362394  0.76216066  1
  O  O5  1  0.32656015  0.13637606  0.23783934  1
  O  O6  1  0.67343985  0.63637606  0.23783934  1
  O  O7  1  0.67343985  0.86362394  0.76216066  1
  O  O8  1  0.02353343  0.61004047  0.09955012  1
  O  O9  1  0.02353343  0.88995953  0.90044988  1
  O  O10  1  0.97646657  0.38995953  0.90044988  1
  O  O11  1  0.97646657  0.11004047  0.09955012  1
  O  O12  1  0.27795878  0.67367218  0.84550702  1
  O  O13  1  0.27795878  0.82632782  0.15449298  1
  O  O14  1  0.72204122  0.32632782  0.15449298  1
  O  O15  1  0.72204122  0.17367218  0.84550702  1
  O  O16  1  0.47053739  0.25000000  0.50000000  1
  O  O17  1  0.52946261  0.75000000  0.50000000  1
  O  O18  1  0.85631713  0.24908497  0.62711462  1
  O  O19  1  0.85631713  0.25091503  0.37288538  1
  O  O20  1  0.15473634  0.04992544  0.44439928  1
  O  O21  1  0.15473634  0.45007456  0.55560072  1
  O  O22  1  0.84526366  0.95007456  0.55560072  1
  O  O23  1  0.84526366  0.54992544  0.44439928  1
  O  O24  1  0.11365095  0.11295316  0.75635157  1
  O  O25  1  0.11365095  0.38704684  0.24364843  1
  O  O26  1  0.88634905  0.88704684  0.24364843  1
  O  O27  1  0.88634905  0.61295316  0.75635157  1
  O  O28  1  0.44517860  0.01361841  0.64717564  1
  O  O29  1  0.44517860  0.48638159  0.35282436  1
  O  O30  1  0.55482140  0.98638159  0.35282436  1
  O  O31  1  0.55482140  0.51361841  0.64717564  1
  O  O32  1  0.14368287  0.74908497  0.62711462  1
  O  O33  1  0.14368287  0.75091503  0.37288538  1
  Ge  Ge34  1  0.36151132  0.39755403  0.61816501  1
  Ge  Ge35  1  0.36151132  0.10244597  0.38183499  1
  Ge  Ge36  1  0.63848868  0.60244597  0.38183499  1
  Ge  Ge37  1  0.63848868  0.89755403  0.61816501  1
  Ge  Ge38  1  0.07689138  0.73027750  0.77582356  1
  Ge  Ge39  1  0.07689138  0.76972250  0.22417644  1
  Ge  Ge40  1  0.92310862  0.26972250  0.22417644  1
  Ge  Ge41  1  0.92310862  0.23027750  0.77582356  1
  Lu  Lu42  1  0.25424508  0.52571573  0.95182981  1
  Lu  Lu43  1  0.25424508  0.97428427  0.04817019  1
  Lu  Lu44  1  0.74575492  0.47428427  0.04817019  1
  Lu  Lu45  1  0.74575492  0.02571573  0.95182981  1
  Lu  Lu46  1  0.59519988  0.69459909  0.83123295  1
  Lu  Lu47  1  0.59519988  0.80540091  0.16876705  1
  Lu  Lu48  1  0.40480012  0.30540091  0.16876705  1
  Lu  Lu49  1  0.40480012  0.19459909  0.83123295  1
  Lu  Lu50  1  0.16113022  0.57242777  0.42692106  1
  Lu  Lu51  1  0.16113022  0.92757223  0.57307894  1
  Lu  Lu52  1  0.83886978  0.42757223  0.57307894  1
  Lu  Lu53  1  0.83886978  0.07242777  0.42692106  1
