# generated using pymatgen
data_BiClF8
_symmetry_space_group_name_H-M   'P 1'
_cell_length_a   5.39978657
_cell_length_b   5.92029737
_cell_length_c   10.77904800
_cell_angle_alpha   90.57691147
_cell_angle_beta   93.60526529
_cell_angle_gamma   93.71773952
_symmetry_Int_Tables_number   1
_chemical_formula_structural   BiClF8
_chemical_formula_sum   'Bi2 Cl2 F16'
_cell_volume   343.14799802
_cell_formula_units_Z   2
loop_
 _symmetry_equiv_pos_site_id
 _symmetry_equiv_pos_as_xyz
  1  'x, y, z'
loop_
 _atom_site_type_symbol
 _atom_site_label
 _atom_site_symmetry_multiplicity
 _atom_site_fract_x
 _atom_site_fract_y
 _atom_site_fract_z
 _atom_site_occupancy
  F  F0  1  0.84878964  0.18527399  0.36133794  1
  F  F1  1  0.15121036  0.81472601  0.63866206  1
  F  F2  1  0.70887726  0.04929881  0.60477328  1
  F  F3  1  0.29112274  0.95070119  0.39522672  1
  F  F4  1  0.42469383  0.54705625  0.12359641  1
  F  F5  1  0.57530617  0.45294375  0.87640359  1
  F  F6  1  0.40192903  0.47849275  0.34051827  1
  F  F7  1  0.59807097  0.52150725  0.65948173  1
  F  F8  1  0.88872837  0.28026977  0.08390272  1
  F  F9  1  0.11127163  0.71973023  0.91609728  1
  F  F10  1  0.32741336  0.03690227  0.10318525  1
  F  F11  1  0.67258664  0.96309773  0.89681475  1
  F  F12  1  0.86249333  0.79256682  0.14270708  1
  F  F13  1  0.13750667  0.20743318  0.85729292  1
  F  F14  1  0.81626557  0.69972084  0.42172763  1
  F  F15  1  0.18373443  0.30027916  0.57827237  1
  Cl  Cl16  1  0.41045601  0.38470144  0.74864048  1
  Cl  Cl17  1  0.58954399  0.61529856  0.25135952  1
  Bi  Bi18  1  0.00000000  0.00000000  0.50000000  1
  Bi  Bi19  1  0.00000000  0.00000000  0.00000000  1
