# generated using pymatgen
data_TlSbS2
_symmetry_space_group_name_H-M   'P 1'
_cell_length_a   6.32053827
_cell_length_b   6.60457098
_cell_length_c   11.96519658
_cell_angle_alpha   101.42867015
_cell_angle_beta   97.09036925
_cell_angle_gamma   104.75433987
_symmetry_Int_Tables_number   1
_chemical_formula_structural   TlSbS2
_chemical_formula_sum   'Tl4 Sb4 S8'
_cell_volume   465.39788601
_cell_formula_units_Z   4
loop_
 _symmetry_equiv_pos_site_id
 _symmetry_equiv_pos_as_xyz
  1  'x, y, z'
loop_
 _atom_site_type_symbol
 _atom_site_label
 _atom_site_symmetry_multiplicity
 _atom_site_fract_x
 _atom_site_fract_y
 _atom_site_fract_z
 _atom_site_occupancy
  S  S0  1  0.01894135  0.18305102  0.63646140  1
  S  S1  1  0.98105865  0.81694898  0.36353860  1
  S  S2  1  0.36781816  0.79190382  0.61969311  1
  S  S3  1  0.63218184  0.20809618  0.38030689  1
  S  S4  1  0.00084494  0.78739045  0.82492359  1
  S  S5  1  0.41672130  0.81884827  0.09308894  1
  S  S6  1  0.58327870  0.18115173  0.90691106  1
  S  S7  1  0.99915506  0.21260955  0.17507641  1
  Sb  Sb8  1  0.60152752  0.20589774  0.15611482  1
  Sb  Sb9  1  0.02747291  0.20670097  0.40627198  1
  Sb  Sb10  1  0.39847248  0.79410226  0.84388518  1
  Sb  Sb11  1  0.97252709  0.79329903  0.59372802  1
  Tl  Tl12  1  0.90436571  0.72577666  0.08644494  1
  Tl  Tl13  1  0.09563429  0.27422334  0.91355506  1
  Tl  Tl14  1  0.43380019  0.70075650  0.33623124  1
  Tl  Tl15  1  0.56619981  0.29924350  0.66376876  1
