# generated using pymatgen
data_SOF2
_symmetry_space_group_name_H-M   'P 1'
_cell_length_a   5.43765791
_cell_length_b   7.30163016
_cell_length_c   15.01920048
_cell_angle_alpha   90.00000000
_cell_angle_beta   97.26660325
_cell_angle_gamma   90.00000000
_symmetry_Int_Tables_number   1
_chemical_formula_structural   SOF2
_chemical_formula_sum   'S8 O8 F16'
_cell_volume   591.52940558
_cell_formula_units_Z   8
loop_
 _symmetry_equiv_pos_site_id
 _symmetry_equiv_pos_as_xyz
  1  'x, y, z'
loop_
 _atom_site_type_symbol
 _atom_site_label
 _atom_site_symmetry_multiplicity
 _atom_site_fract_x
 _atom_site_fract_y
 _atom_site_fract_z
 _atom_site_occupancy
  O  O0  1  0.02722457  0.97421385  0.83237127  1
  O  O1  1  0.50513365  0.19822403  0.74447585  1
  O  O2  1  0.49486635  0.69822403  0.75552415  1
  O  O3  1  0.49486635  0.80177597  0.25552415  1
  O  O4  1  0.50513365  0.30177597  0.24447585  1
  O  O5  1  0.97277543  0.47421385  0.66762873  1
  O  O6  1  0.97277543  0.02578615  0.16762873  1
  O  O7  1  0.02722457  0.52578615  0.33237127  1
  F  F8  1  0.23143746  0.40990222  0.11339326  1
  F  F9  1  0.76856254  0.90990222  0.38660674  1
  F  F10  1  0.76856254  0.59009778  0.88660674  1
  F  F11  1  0.66514345  0.08898931  0.60890249  1
  F  F12  1  0.23143746  0.09009778  0.61339326  1
  F  F13  1  0.66514345  0.41101069  0.10890249  1
  F  F14  1  0.33485655  0.91101069  0.39109751  1
  F  F15  1  0.33485655  0.58898931  0.89109751  1
  F  F16  1  0.86448114  0.32439876  0.44117286  1
  F  F17  1  0.13551886  0.82439876  0.05882714  1
  F  F18  1  0.13551886  0.67560124  0.55882714  1
  F  F19  1  0.86448114  0.17560124  0.94117286  1
  F  F20  1  0.29781968  0.33393965  0.43619528  1
  F  F21  1  0.70218032  0.83393965  0.06380472  1
  F  F22  1  0.70218032  0.66606035  0.56380472  1
  F  F23  1  0.29781968  0.16606035  0.93619528  1
  S  S24  1  0.46498925  0.22178675  0.64886721  1
  S  S25  1  0.53501075  0.72178675  0.85113279  1
  S  S26  1  0.53501075  0.77821325  0.35113279  1
  S  S27  1  0.46498925  0.27821325  0.14886721  1
  S  S28  1  0.04731825  0.15987708  0.86377081  1
  S  S29  1  0.95268175  0.65987708  0.63622919  1
  S  S30  1  0.95268175  0.84012292  0.13622919  1
  S  S31  1  0.04731825  0.34012292  0.36377081  1
