# generated using pymatgen
data_KH3O2
_symmetry_space_group_name_H-M   'P 1'
_cell_length_a   5.96006406
_cell_length_b   5.79544975
_cell_length_c   7.96941855
_cell_angle_alpha   90.00000000
_cell_angle_beta   109.47461087
_cell_angle_gamma   90.00000000
_symmetry_Int_Tables_number   1
_chemical_formula_structural   KH3O2
_chemical_formula_sum   'K4 H12 O8'
_cell_volume   259.52509656
_cell_formula_units_Z   4
loop_
 _symmetry_equiv_pos_site_id
 _symmetry_equiv_pos_as_xyz
  1  'x, y, z'
loop_
 _atom_site_type_symbol
 _atom_site_label
 _atom_site_symmetry_multiplicity
 _atom_site_fract_x
 _atom_site_fract_y
 _atom_site_fract_z
 _atom_site_occupancy
  H  H0  1  0.01555926  0.00933120  0.75352818  1
  H  H1  1  0.98444074  0.50933120  0.74647182  1
  H  H2  1  0.98444074  0.99066880  0.24647182  1
  H  H3  1  0.01555926  0.49066880  0.25352818  1
  H  H4  1  0.77246950  0.28469264  0.84628626  1
  H  H5  1  0.22753050  0.78469264  0.65371374  1
  H  H6  1  0.22753050  0.71530736  0.15371374  1
  H  H7  1  0.77246950  0.21530736  0.34628626  1
  H  H8  1  0.77271611  0.29172768  0.54290214  1
  H  H9  1  0.77271611  0.20827232  0.04290214  1
  H  H10  1  0.22728389  0.70827232  0.45709786  1
  H  H11  1  0.22728389  0.79172768  0.95709786  1
  O  O12  1  0.34023755  0.75567283  0.08408425  1
  O  O13  1  0.05561777  0.84435746  0.76238737  1
  O  O14  1  0.05561777  0.65564254  0.26238737  1
  O  O15  1  0.94438223  0.15564254  0.23761263  1
  O  O16  1  0.65976245  0.24432717  0.91591575  1
  O  O17  1  0.34023755  0.74432717  0.58408425  1
  O  O18  1  0.65976245  0.25567283  0.41591575  1
  O  O19  1  0.94438223  0.34435746  0.73761263  1
  K  K20  1  0.30208248  0.24452942  0.57687369  1
  K  K21  1  0.69791752  0.74452942  0.92312631  1
  K  K22  1  0.69791752  0.75547058  0.42312631  1
  K  K23  1  0.30208248  0.25547058  0.07687369  1
