# generated using pymatgen
data_Ta2Zn3O8
_symmetry_space_group_name_H-M   'P 1'
_cell_length_a   6.18578285
_cell_length_b   6.18578285
_cell_length_c   9.65011459
_cell_angle_alpha   71.64292616
_cell_angle_beta   71.64292617
_cell_angle_gamma   87.06026435
_symmetry_Int_Tables_number   1
_chemical_formula_structural   Ta2Zn3O8
_chemical_formula_sum   'Ta4 Zn6 O16'
_cell_volume   332.15598997
_cell_formula_units_Z   2
loop_
 _symmetry_equiv_pos_site_id
 _symmetry_equiv_pos_as_xyz
  1  'x, y, z'
loop_
 _atom_site_type_symbol
 _atom_site_label
 _atom_site_symmetry_multiplicity
 _atom_site_fract_x
 _atom_site_fract_y
 _atom_site_fract_z
 _atom_site_occupancy
  O  O0  1  0.82080930  0.57493066  0.64549411  1
  O  O1  1  0.42506934  0.17919070  0.85450589  1
  O  O2  1  0.17919070  0.42506934  0.35450589  1
  O  O3  1  0.57493066  0.82080930  0.14549411  1
  O  O4  1  0.69045817  0.41405350  0.41141047  1
  O  O5  1  0.58594650  0.30954183  0.08858953  1
  O  O6  1  0.30954183  0.58594650  0.58858953  1
  O  O7  1  0.41405350  0.69045817  0.91141047  1
  O  O8  1  0.01584806  0.28272424  0.14668211  1
  O  O9  1  0.71727576  0.98415194  0.35331789  1
  O  O10  1  0.93692695  0.13783636  0.89692472  1
  O  O11  1  0.86216364  0.06307305  0.60307528  1
  O  O12  1  0.06307305  0.86216364  0.10307528  1
  O  O13  1  0.13783636  0.93692695  0.39692472  1
  O  O14  1  0.28272424  0.01584806  0.64668211  1
  O  O15  1  0.98415194  0.71727576  0.85331789  1
  Zn  Zn16  1  0.23841659  0.76158341  0.25000000  1
  Zn  Zn17  1  0.76158341  0.23841659  0.75000000  1
  Zn  Zn18  1  0.31975637  0.36252698  0.99697930  1
  Zn  Zn19  1  0.63747302  0.68024363  0.50302070  1
  Zn  Zn20  1  0.68024363  0.63747302  0.00302070  1
  Zn  Zn21  1  0.36252698  0.31975637  0.49697930  1
  Ta  Ta22  1  0.93918009  0.22155701  0.37310219  1
  Ta  Ta23  1  0.77844299  0.06081991  0.12689781  1
  Ta  Ta24  1  0.06081991  0.77844299  0.62689781  1
  Ta  Ta25  1  0.22155701  0.93918009  0.87310219  1
