# generated using pymatgen
data_LaHO
_symmetry_space_group_name_H-M   'P 1'
_cell_length_a   5.71546041
_cell_length_b   8.08270844
_cell_length_c   8.08270844
_cell_angle_alpha   90.00000000
_cell_angle_beta   90.00000000
_cell_angle_gamma   90.00000000
_symmetry_Int_Tables_number   1
_chemical_formula_structural   LaHO
_chemical_formula_sum   'La8 H8 O8'
_cell_volume   373.39203294
_cell_formula_units_Z   8
loop_
 _symmetry_equiv_pos_site_id
 _symmetry_equiv_pos_as_xyz
  1  'x, y, z'
loop_
 _atom_site_type_symbol
 _atom_site_label
 _atom_site_symmetry_multiplicity
 _atom_site_fract_x
 _atom_site_fract_y
 _atom_site_fract_z
 _atom_site_occupancy
  H  H0  1  0.75623824  0.51925086  0.75000000  1
  H  H1  1  0.75623824  0.98074914  0.75000000  1
  H  H2  1  0.75623824  0.75000000  0.98074914  1
  H  H3  1  0.75623824  0.75000000  0.51925086  1
  H  H4  1  0.24376176  0.25000000  0.01925086  1
  H  H5  1  0.24376176  0.48074914  0.25000000  1
  H  H6  1  0.24376176  0.01925086  0.25000000  1
  H  H7  1  0.24376176  0.25000000  0.48074914  1
  O  O8  1  0.74149707  0.25000000  0.51400329  1
  O  O9  1  0.74149707  0.98599671  0.25000000  1
  O  O10  1  0.74149707  0.51400329  0.25000000  1
  O  O11  1  0.74149707  0.25000000  0.98599671  1
  O  O12  1  0.25850293  0.75000000  0.48599671  1
  O  O13  1  0.25850293  0.75000000  0.01400329  1
  O  O14  1  0.25850293  0.01400329  0.75000000  1
  O  O15  1  0.25850293  0.48599671  0.75000000  1
  La  La16  1  0.50000000  0.50000000  0.50000000  1
  La  La17  1  0.50000000  0.00000000  0.50000000  1
  La  La18  1  0.50000000  0.50000000  0.00000000  1
  La  La19  1  0.50000000  0.00000000  0.00000000  1
  La  La20  1  0.05676334  0.75000000  0.75000000  1
  La  La21  1  0.94323666  0.25000000  0.25000000  1
  La  La22  1  0.00000000  0.25000000  0.75000000  1
  La  La23  1  0.00000000  0.75000000  0.25000000  1
