# generated using pymatgen
data_Ba4Sb4Se11
_symmetry_space_group_name_H-M   'P 1'
_cell_length_a   9.11967592
_cell_length_b   9.32438115
_cell_length_c   28.31214635
_cell_angle_alpha   90.00000000
_cell_angle_beta   90.00000000
_cell_angle_gamma   90.00000000
_symmetry_Int_Tables_number   1
_chemical_formula_structural   Ba4Sb4Se11
_chemical_formula_sum   'Ba16 Sb16 Se44'
_cell_volume   2407.53282800
_cell_formula_units_Z   4
loop_
 _symmetry_equiv_pos_site_id
 _symmetry_equiv_pos_as_xyz
  1  'x, y, z'
loop_
 _atom_site_type_symbol
 _atom_site_label
 _atom_site_symmetry_multiplicity
 _atom_site_fract_x
 _atom_site_fract_y
 _atom_site_fract_z
 _atom_site_occupancy
  Se  Se0  1  0.10116964  0.50000000  0.47235289  1
  Se  Se1  1  0.60116964  0.00000000  0.02764711  1
  Se  Se2  1  0.89883036  0.50000000  0.52764711  1
  Se  Se3  1  0.39883036  0.00000000  0.97235289  1
  Se  Se4  1  0.27303449  0.50000000  0.26404659  1
  Se  Se5  1  0.77303449  0.00000000  0.23595341  1
  Se  Se6  1  0.72696551  0.50000000  0.73595341  1
  Se  Se7  1  0.22696551  0.00000000  0.76404659  1
  Se  Se8  1  0.50000000  0.20165849  0.50000000  1
  Se  Se9  1  0.00000000  0.29834151  0.00000000  1
  Se  Se10  1  0.50000000  0.79834151  0.50000000  1
  Se  Se11  1  0.00000000  0.70165849  0.00000000  1
  Se  Se12  1  0.59880783  0.50000000  0.03004679  1
  Se  Se13  1  0.09880783  0.00000000  0.46995321  1
  Se  Se14  1  0.40119217  0.50000000  0.96995321  1
  Se  Se15  1  0.90119217  0.00000000  0.53004679  1
  Se  Se16  1  0.79032717  0.50000000  0.23853310  1
  Se  Se17  1  0.29032717  0.00000000  0.26146690  1
  Se  Se18  1  0.31899913  0.70555333  0.38361097  1
  Se  Se19  1  0.20967283  0.50000000  0.76146690  1
  Se  Se20  1  0.69517204  0.50000000  0.37424285  1
  Se  Se21  1  0.19517204  0.00000000  0.12575715  1
  Se  Se22  1  0.30482796  0.50000000  0.62575715  1
  Se  Se23  1  0.80482796  0.00000000  0.87424285  1
  Se  Se24  1  0.14934962  0.50000000  0.11791952  1
  Se  Se25  1  0.64934962  0.00000000  0.38208048  1
  Se  Se26  1  0.85065038  0.50000000  0.88208048  1
  Se  Se27  1  0.35065038  0.00000000  0.61791952  1
  Se  Se28  1  0.68100087  0.29444667  0.61638903  1
  Se  Se29  1  0.18100087  0.20555333  0.88361097  1
  Se  Se30  1  0.31899913  0.29444667  0.38361097  1
  Se  Se31  1  0.81899913  0.20555333  0.11638903  1
  Se  Se32  1  0.53845454  0.72186514  0.82500872  1
  Se  Se33  1  0.03845454  0.77813486  0.67499128  1
  Se  Se34  1  0.46154546  0.72186514  0.17499128  1
  Se  Se35  1  0.96154546  0.77813486  0.32500872  1
  Se  Se36  1  0.46154546  0.27813486  0.17499128  1
  Se  Se37  1  0.96154546  0.22186514  0.32500872  1
  Se  Se38  1  0.53845454  0.27813486  0.82500872  1
  Se  Se39  1  0.03845454  0.22186514  0.67499128  1
  Se  Se40  1  0.18100087  0.79444667  0.88361097  1
  Se  Se41  1  0.68100087  0.70555333  0.61638903  1
  Se  Se42  1  0.81899913  0.79444667  0.11638903  1
  Se  Se43  1  0.70967283  0.00000000  0.73853310  1
  Sb  Sb44  1  0.91702338  0.50000000  0.06380167  1
  Sb  Sb45  1  0.41702338  0.00000000  0.43619833  1
  Sb  Sb46  1  0.08297662  0.50000000  0.93619833  1
  Sb  Sb47  1  0.58297662  0.00000000  0.56380167  1
  Sb  Sb48  1  0.46061347  0.50000000  0.42740201  1
  Sb  Sb49  1  0.96061347  0.00000000  0.07259799  1
  Sb  Sb50  1  0.53938653  0.50000000  0.57259799  1
  Sb  Sb51  1  0.03938653  0.00000000  0.92740201  1
  Sb  Sb52  1  0.13126879  0.50000000  0.34297256  1
  Sb  Sb53  1  0.63126879  0.00000000  0.15702744  1
  Sb  Sb54  1  0.86873121  0.50000000  0.65702744  1
  Sb  Sb55  1  0.36873121  0.00000000  0.84297256  1
  Sb  Sb56  1  0.63684886  0.50000000  0.16073818  1
  Sb  Sb57  1  0.13684886  0.00000000  0.33926182  1
  Sb  Sb58  1  0.36315114  0.50000000  0.83926182  1
  Sb  Sb59  1  0.86315114  0.00000000  0.66073818  1
  Ba  Ba60  1  0.65226045  0.25297740  0.94056994  1
  Ba  Ba61  1  0.15226045  0.24702260  0.55943006  1
  Ba  Ba62  1  0.34773955  0.25297740  0.05943006  1
  Ba  Ba63  1  0.84773955  0.24702260  0.44056994  1
  Ba  Ba64  1  0.34773955  0.74702260  0.05943006  1
  Ba  Ba65  1  0.84773955  0.75297740  0.44056994  1
  Ba  Ba66  1  0.65226045  0.74702260  0.94056994  1
  Ba  Ba67  1  0.15226045  0.75297740  0.55943006  1
  Ba  Ba68  1  0.43293304  0.25208543  0.70912242  1
  Ba  Ba69  1  0.93293304  0.24791457  0.79087758  1
  Ba  Ba70  1  0.56706696  0.25208543  0.29087758  1
  Ba  Ba71  1  0.06706696  0.24791457  0.20912242  1
  Ba  Ba72  1  0.56706696  0.74791457  0.29087758  1
  Ba  Ba73  1  0.06706696  0.75208543  0.20912242  1
  Ba  Ba74  1  0.43293304  0.74791457  0.70912242  1
  Ba  Ba75  1  0.93293304  0.75208543  0.79087758  1
