# generated using pymatgen
data_Sn5BF13
_symmetry_space_group_name_H-M   'P 1'
_cell_length_a   7.77187216
_cell_length_b   13.97232903
_cell_length_c   14.45969020
_cell_angle_alpha   118.53908364
_cell_angle_beta   90.00000000
_cell_angle_gamma   90.00000000
_symmetry_Int_Tables_number   1
_chemical_formula_structural   Sn5BF13
_chemical_formula_sum   'Sn20 B4 F52'
_cell_volume   1379.40236012
_cell_formula_units_Z   4
loop_
 _symmetry_equiv_pos_site_id
 _symmetry_equiv_pos_as_xyz
  1  'x, y, z'
loop_
 _atom_site_type_symbol
 _atom_site_label
 _atom_site_symmetry_multiplicity
 _atom_site_fract_x
 _atom_site_fract_y
 _atom_site_fract_z
 _atom_site_occupancy
  B  B0  1  0.31259869  0.29818430  0.36091793  1
  B  B1  1  0.81259869  0.20181570  0.13908207  1
  B  B2  1  0.68740131  0.70181570  0.63908207  1
  B  B3  1  0.18740131  0.79818430  0.86091793  1
  F  F4  1  0.49118317  0.93760931  0.13481337  1
  F  F5  1  0.99118317  0.56239069  0.36518663  1
  F  F6  1  0.50881683  0.06239069  0.86518663  1
  F  F7  1  0.00881683  0.43760931  0.63481337  1
  F  F8  1  0.30456247  0.01829306  0.31829757  1
  F  F9  1  0.80456247  0.48170694  0.18170243  1
  F  F10  1  0.69543753  0.98170694  0.68170243  1
  F  F11  1  0.19543753  0.51829306  0.81829757  1
  F  F12  1  0.13273196  0.81230422  0.17474557  1
  F  F13  1  0.63273196  0.68769578  0.32525443  1
  F  F14  1  0.86726804  0.18769578  0.82525443  1
  F  F15  1  0.36726804  0.31230422  0.67474557  1
  F  F16  1  0.50904908  0.11756413  0.49268717  1
  F  F17  1  0.00904908  0.38243587  0.00731283  1
  F  F18  1  0.49095092  0.88243587  0.50731283  1
  F  F19  1  0.99095092  0.61756413  0.99268717  1
  F  F20  1  0.13310729  0.93772001  0.45413244  1
  F  F21  1  0.63310729  0.56227999  0.04586756  1
  F  F22  1  0.86689271  0.06227999  0.54586756  1
  F  F23  1  0.36689271  0.43772001  0.95413244  1
  F  F24  1  0.09289815  0.60643121  0.18066648  1
  F  F25  1  0.59289815  0.89356879  0.31933352  1
  F  F26  1  0.90710185  0.39356879  0.81933352  1
  F  F27  1  0.40710185  0.10643121  0.68066648  1
  F  F28  1  0.46856971  0.47546328  0.17435711  1
  F  F29  1  0.96856971  0.02453672  0.32564289  1
  F  F30  1  0.53143029  0.52453672  0.82564289  1
  F  F31  1  0.03143029  0.97546328  0.67435711  1
  F  F32  1  0.35687284  0.27621698  0.01213584  1
  F  F33  1  0.85687284  0.22378302  0.48786416  1
  F  F34  1  0.64312716  0.72378302  0.98786416  1
  F  F35  1  0.14312716  0.77621698  0.51213584  1
  F  F36  1  0.34516996  0.61096993  0.37600673  1
  F  F37  1  0.84516996  0.88903007  0.12399327  1
  F  F38  1  0.65483004  0.38903007  0.62399327  1
  F  F39  1  0.15483004  0.11096993  0.87600673  1
  F  F40  1  0.45782962  0.30963618  0.42537061  1
  F  F41  1  0.95782962  0.19036382  0.07462939  1
  F  F42  1  0.54217038  0.69036382  0.57462939  1
  F  F43  1  0.04217038  0.80963618  0.92537061  1
  F  F44  1  0.16155206  0.28896757  0.41272827  1
  F  F45  1  0.66155206  0.21103243  0.08727173  1
  F  F46  1  0.83844794  0.71103243  0.58727173  1
  F  F47  1  0.33844794  0.78896757  0.91272827  1
  F  F48  1  0.29797272  0.39235873  0.34771461  1
  F  F49  1  0.79797272  0.10764127  0.15228539  1
  F  F50  1  0.70202728  0.60764127  0.65228539  1
  F  F51  1  0.20202728  0.89235873  0.84771461  1
  F  F52  1  0.33092254  0.20397136  0.26270955  1
  F  F53  1  0.83092254  0.29602864  0.23729045  1
  F  F54  1  0.66907746  0.79602864  0.73729045  1
  F  F55  1  0.16907746  0.70397136  0.76270955  1
  Sn  Sn56  1  0.39823391  0.79558297  0.35230790  1
  Sn  Sn57  1  0.89823391  0.70441703  0.14769210  1
  Sn  Sn58  1  0.60176609  0.20441703  0.64769210  1
  Sn  Sn59  1  0.10176609  0.29558297  0.85230790  1
  Sn  Sn60  1  0.09222092  0.11124138  0.48040561  1
  Sn  Sn61  1  0.59222092  0.38875862  0.01959439  1
  Sn  Sn62  1  0.90777908  0.88875862  0.51959439  1
  Sn  Sn63  1  0.40777908  0.61124138  0.98040561  1
  Sn  Sn64  1  0.08131597  0.45239432  0.18345607  1
  Sn  Sn65  1  0.58131597  0.04760568  0.31654393  1
  Sn  Sn66  1  0.91868403  0.54760568  0.81654393  1
  Sn  Sn67  1  0.41868403  0.95239432  0.68345607  1
  Sn  Sn68  1  0.33427090  0.11794038  0.99380138  1
  Sn  Sn69  1  0.83427090  0.38205962  0.50619862  1
  Sn  Sn70  1  0.66572910  0.88205962  0.00619862  1
  Sn  Sn71  1  0.16572910  0.61794038  0.49380138  1
  Sn  Sn72  1  0.11693094  0.96774672  0.17810888  1
  Sn  Sn73  1  0.61693094  0.53225328  0.32189112  1
  Sn  Sn74  1  0.88306906  0.03225328  0.82189112  1
  Sn  Sn75  1  0.38306906  0.46774672  0.67810888  1
