# generated using pymatgen
data_K2PrBr5
_symmetry_space_group_name_H-M   'P 1'
_cell_length_a   8.64896751
_cell_length_b   9.28755764
_cell_length_c   13.70237996
_cell_angle_alpha   90.00000000
_cell_angle_beta   90.00000000
_cell_angle_gamma   90.00000000
_symmetry_Int_Tables_number   1
_chemical_formula_structural   K2PrBr5
_chemical_formula_sum   'K8 Pr4 Br20'
_cell_volume   1100.68182149
_cell_formula_units_Z   4
loop_
 _symmetry_equiv_pos_site_id
 _symmetry_equiv_pos_as_xyz
  1  'x, y, z'
loop_
 _atom_site_type_symbol
 _atom_site_label
 _atom_site_symmetry_multiplicity
 _atom_site_fract_x
 _atom_site_fract_y
 _atom_site_fract_z
 _atom_site_occupancy
  K  K0  1  0.44331985  0.50518908  0.32767520  1
  K  K1  1  0.94331985  0.49481092  0.17232480  1
  K  K2  1  0.55668015  0.00518908  0.67232480  1
  K  K3  1  0.05668015  0.99481092  0.82767520  1
  K  K4  1  0.55668015  0.49481092  0.67232480  1
  K  K5  1  0.05668015  0.50518908  0.82767520  1
  K  K6  1  0.44331985  0.99481092  0.32767520  1
  K  K7  1  0.94331985  0.00518908  0.17232480  1
  Br  Br8  1  0.57518174  0.75000000  0.49243549  1
  Br  Br9  1  0.33304906  0.95498604  0.07576617  1
  Br  Br10  1  0.83304906  0.04501396  0.42423383  1
  Br  Br11  1  0.66695094  0.45498604  0.92423383  1
  Br  Br12  1  0.07518174  0.25000000  0.00756451  1
  Br  Br13  1  0.66018875  0.75000000  0.20479293  1
  Br  Br14  1  0.92481826  0.75000000  0.99243549  1
  Br  Br15  1  0.42481826  0.25000000  0.50756451  1
  Br  Br16  1  0.12310933  0.75000000  0.31848344  1
  Br  Br17  1  0.16018875  0.25000000  0.29520707  1
  Br  Br18  1  0.33981125  0.25000000  0.79520707  1
  Br  Br19  1  0.83981125  0.75000000  0.70479293  1
  Br  Br20  1  0.66695094  0.04501396  0.92423383  1
  Br  Br21  1  0.62310933  0.25000000  0.18151656  1
  Br  Br22  1  0.87689067  0.25000000  0.68151656  1
  Br  Br23  1  0.37689067  0.75000000  0.81848344  1
  Br  Br24  1  0.83304906  0.45498604  0.42423383  1
  Br  Br25  1  0.33304906  0.54501396  0.07576617  1
  Br  Br26  1  0.16695094  0.95498604  0.57576617  1
  Br  Br27  1  0.16695094  0.54501396  0.57576617  1
  Pr  Pr28  1  0.92199514  0.75000000  0.49411209  1
  Pr  Pr29  1  0.57800486  0.75000000  0.99411209  1
  Pr  Pr30  1  0.07800486  0.25000000  0.50588791  1
  Pr  Pr31  1  0.42199514  0.25000000  0.00588791  1
