# generated using pymatgen
data_CdTeO3
_symmetry_space_group_name_H-M   'P 1'
_cell_length_a   7.59565083
_cell_length_b   7.98098461
_cell_length_c   11.45142215
_cell_angle_alpha   90.00000000
_cell_angle_beta   90.00000000
_cell_angle_gamma   113.93007901
_symmetry_Int_Tables_number   1
_chemical_formula_structural   CdTeO3
_chemical_formula_sum   'Cd8 Te8 O24'
_cell_volume   634.52192521
_cell_formula_units_Z   8
loop_
 _symmetry_equiv_pos_site_id
 _symmetry_equiv_pos_as_xyz
  1  'x, y, z'
loop_
 _atom_site_type_symbol
 _atom_site_label
 _atom_site_symmetry_multiplicity
 _atom_site_fract_x
 _atom_site_fract_y
 _atom_site_fract_z
 _atom_site_occupancy
  O  O0  1  0.99247400  0.19610919  0.07833275  1
  O  O1  1  0.50752600  0.80389081  0.57833275  1
  O  O2  1  0.00752600  0.80389081  0.92166725  1
  O  O3  1  0.49247400  0.19610919  0.42166725  1
  O  O4  1  0.94026769  0.50918589  0.37274612  1
  O  O5  1  0.55973231  0.49081411  0.87274612  1
  O  O6  1  0.05973231  0.49081411  0.62725388  1
  O  O7  1  0.44026769  0.50918589  0.12725388  1
  O  O8  1  0.82970901  0.69901016  0.16739081  1
  O  O9  1  0.67029099  0.30098984  0.66739081  1
  O  O10  1  0.17029099  0.30098984  0.83260919  1
  O  O11  1  0.32970901  0.69901016  0.33260919  1
  O  O12  1  0.73747704  0.99520868  0.37104400  1
  O  O13  1  0.76252296  0.00479132  0.87104400  1
  O  O14  1  0.26252296  0.00479132  0.62895600  1
  O  O15  1  0.23747704  0.99520868  0.12895600  1
  O  O16  1  0.11150876  0.94990697  0.41047933  1
  O  O17  1  0.38849124  0.05009303  0.91047933  1
  O  O18  1  0.88849124  0.05009303  0.58952067  1
  O  O19  1  0.61150876  0.94990697  0.08952067  1
  O  O20  1  0.15650947  0.29854934  0.32364728  1
  O  O21  1  0.34349053  0.70145066  0.82364728  1
  O  O22  1  0.84349053  0.70145066  0.67635272  1
  O  O23  1  0.65650947  0.29854934  0.17635272  1
  Cd  Cd24  1  0.30656644  0.26860592  0.00852037  1
  Cd  Cd25  1  0.19343356  0.73139408  0.50852037  1
  Cd  Cd26  1  0.69343356  0.73139408  0.99147963  1
  Cd  Cd27  1  0.80656644  0.26860592  0.49147963  1
  Cd  Cd28  1  0.97644534  0.00380469  0.23394187  1
  Cd  Cd29  1  0.52355466  0.99619531  0.73394187  1
  Cd  Cd30  1  0.02355466  0.99619531  0.76605813  1
  Cd  Cd31  1  0.47644534  0.00380469  0.26605813  1
  Te  Te32  1  0.12365487  0.50191090  0.25749854  1
  Te  Te33  1  0.37634513  0.49808910  0.75749854  1
  Te  Te34  1  0.87634513  0.49808910  0.74250146  1
  Te  Te35  1  0.62365487  0.50191090  0.24250146  1
  Te  Te36  1  0.24083365  0.83589806  -0.00021401  1
  Te  Te37  1  0.25916635  0.16410194  0.49978599  1
  Te  Te38  1  0.75916635  0.16410194  1.00021401  1
  Te  Te39  1  0.74083365  0.83589806  0.50021401  1
