# generated using pymatgen
data_Gd2NCl3
_symmetry_space_group_name_H-M   'P 1'
_cell_length_a   6.17203263
_cell_length_b   6.77507805
_cell_length_c   13.15226621
_cell_angle_alpha   90.00000000
_cell_angle_beta   90.00000000
_cell_angle_gamma   90.00000000
_symmetry_Int_Tables_number   1
_chemical_formula_structural   Gd2NCl3
_chemical_formula_sum   'Gd8 N4 Cl12'
_cell_volume   549.97520060
_cell_formula_units_Z   4
loop_
 _symmetry_equiv_pos_site_id
 _symmetry_equiv_pos_as_xyz
  1  'x, y, z'
loop_
 _atom_site_type_symbol
 _atom_site_label
 _atom_site_symmetry_multiplicity
 _atom_site_fract_x
 _atom_site_fract_y
 _atom_site_fract_z
 _atom_site_occupancy
  N  N0  1  0.75000000  0.50999102  0.50000000  1
  N  N1  1  0.25000000  0.99000898  0.00000000  1
  N  N2  1  0.25000000  0.49000898  0.50000000  1
  N  N3  1  0.75000000  0.00999102  0.00000000  1
  Cl  Cl4  1  0.11076827  0.13479354  0.77942941  1
  Cl  Cl5  1  0.61076827  0.36520646  0.72057059  1
  Cl  Cl6  1  0.38923173  0.13479354  0.22057059  1
  Cl  Cl7  1  0.88923173  0.36520646  0.27942941  1
  Cl  Cl8  1  0.75000000  0.50261655  0.00000000  1
  Cl  Cl9  1  0.25000000  0.99738345  0.50000000  1
  Cl  Cl10  1  0.25000000  0.49738345  0.00000000  1
  Cl  Cl11  1  0.75000000  0.00261655  0.50000000  1
  Cl  Cl12  1  0.11076827  0.63479354  0.72057059  1
  Cl  Cl13  1  0.61076827  0.86520646  0.77942941  1
  Cl  Cl14  1  0.38923173  0.63479354  0.27942941  1
  Cl  Cl15  1  0.88923173  0.86520646  0.22057059  1
  Gd  Gd16  1  0.99240672  0.32763607  0.59182609  1
  Gd  Gd17  1  0.49240672  0.17236393  0.90817391  1
  Gd  Gd18  1  0.50759328  0.32763607  0.40817391  1
  Gd  Gd19  1  0.00759328  0.17236393  0.09182609  1
  Gd  Gd20  1  0.00759328  0.67236393  0.40817391  1
  Gd  Gd21  1  0.50759328  0.82763607  0.09182609  1
  Gd  Gd22  1  0.49240672  0.67236393  0.59182609  1
  Gd  Gd23  1  0.99240672  0.82763607  0.90817391  1
