# generated using pymatgen
data_K2PrI5
_symmetry_space_group_name_H-M   'P 1'
_cell_length_a   9.33983408
_cell_length_b   9.94822015
_cell_length_c   14.65827679
_cell_angle_alpha   90.00000000
_cell_angle_beta   90.00000000
_cell_angle_gamma   90.00000000
_symmetry_Int_Tables_number   1
_chemical_formula_structural   K2PrI5
_chemical_formula_sum   'K8 Pr4 I20'
_cell_volume   1361.96976560
_cell_formula_units_Z   4
loop_
 _symmetry_equiv_pos_site_id
 _symmetry_equiv_pos_as_xyz
  1  'x, y, z'
loop_
 _atom_site_type_symbol
 _atom_site_label
 _atom_site_symmetry_multiplicity
 _atom_site_fract_x
 _atom_site_fract_y
 _atom_site_fract_z
 _atom_site_occupancy
  K  K0  1  0.43487229  0.50547827  0.32783717  1
  K  K1  1  0.93487229  0.49452173  0.17216283  1
  K  K2  1  0.56512771  0.00547827  0.67216283  1
  K  K3  1  0.06512771  0.99452173  0.82783717  1
  K  K4  1  0.56512771  0.49452173  0.67216283  1
  K  K5  1  0.06512771  0.50547827  0.82783717  1
  K  K6  1  0.43487229  0.99452173  0.32783717  1
  K  K7  1  0.93487229  0.00547827  0.17216283  1
  I  I8  1  0.57044417  0.75000000  0.49352165  1
  I  I9  1  0.33049628  0.95383199  0.07388830  1
  I  I10  1  0.83049628  0.04616801  0.42611170  1
  I  I11  1  0.66950372  0.45383199  0.92611170  1
  I  I12  1  0.07044417  0.25000000  0.00647835  1
  I  I13  1  0.65737424  0.75000000  0.20699902  1
  I  I14  1  0.92955583  0.75000000  0.99352165  1
  I  I15  1  0.42955583  0.25000000  0.50647835  1
  I  I16  1  0.12061907  0.75000000  0.31617884  1
  I  I17  1  0.15737424  0.25000000  0.29300098  1
  I  I18  1  0.34262576  0.25000000  0.79300098  1
  I  I19  1  0.84262576  0.75000000  0.70699902  1
  I  I20  1  0.66950372  0.04616801  0.92611170  1
  I  I21  1  0.62061907  0.25000000  0.18382116  1
  I  I22  1  0.87938093  0.25000000  0.68382116  1
  I  I23  1  0.37938093  0.75000000  0.81617884  1
  I  I24  1  0.83049628  0.45383199  0.42611170  1
  I  I25  1  0.33049628  0.54616801  0.07388830  1
  I  I26  1  0.16950372  0.95383199  0.57388830  1
  I  I27  1  0.16950372  0.54616801  0.57388830  1
  Pr  Pr28  1  0.91956525  0.75000000  0.49435026  1
  Pr  Pr29  1  0.58043475  0.75000000  0.99435026  1
  Pr  Pr30  1  0.08043475  0.25000000  0.50564974  1
  Pr  Pr31  1  0.41956525  0.25000000  0.00564974  1
