# generated using pymatgen
data_AlCdInS4
_symmetry_space_group_name_H-M   'P 1'
_cell_length_a   3.89825114
_cell_length_b   3.89963931
_cell_length_c   12.88165228
_cell_angle_alpha   81.29401470
_cell_angle_beta   81.29612373
_cell_angle_gamma   59.98822948
_symmetry_Int_Tables_number   1
_chemical_formula_structural   AlCdInS4
_chemical_formula_sum   'Al1 Cd1 In1 S4'
_cell_volume   166.95926360
_cell_formula_units_Z   1
loop_
 _symmetry_equiv_pos_site_id
 _symmetry_equiv_pos_as_xyz
  1  'x, y, z'
loop_
 _atom_site_type_symbol
 _atom_site_label
 _atom_site_symmetry_multiplicity
 _atom_site_fract_x
 _atom_site_fract_y
 _atom_site_fract_z
 _atom_site_occupancy
  Al  Al0  1  0.59732750  0.59737667  0.20791916  1
  Cd  Cd1  1  0.83505984  0.83499656  0.49494703  1
  In  In2  1  0.06714053  0.06726897  0.79832153  1
  S  S3  1  0.54084872  0.53948627  0.38017873  1
  S  S4  1  0.70340549  0.70328560  0.89002331  1
  S  S5  1  0.95346520  0.95386382  0.13880715  1
  S  S6  1  0.12965271  0.13062209  0.60910310  1
