# generated using pymatgen
data_Pu5Ir3
_symmetry_space_group_name_H-M   'P 1'
_cell_length_a   5.58260704
_cell_length_b   8.36083208
_cell_length_c   8.36083209
_cell_angle_alpha   83.60057288
_cell_angle_beta   70.49708897
_cell_angle_gamma   70.49708897
_symmetry_Int_Tables_number   1
_chemical_formula_structural   Pu5Ir3
_chemical_formula_sum   'Pu10 Ir6'
_cell_volume   346.74765772
_cell_formula_units_Z   2
loop_
 _symmetry_equiv_pos_site_id
 _symmetry_equiv_pos_as_xyz
  1  'x, y, z'
loop_
 _atom_site_type_symbol
 _atom_site_label
 _atom_site_symmetry_multiplicity
 _atom_site_fract_x
 _atom_site_fract_y
 _atom_site_fract_z
 _atom_site_occupancy
  Ir  Ir0  1  0.25000000  0.00000000  0.00000000  1
  Ir  Ir1  1  0.75000000  0.00000000  0.00000000  1
  Ir  Ir2  1  0.16422342  0.50000000  0.17155317  1
  Ir  Ir3  1  0.33577658  0.82844683  0.50000000  1
  Ir  Ir4  1  0.66422342  0.17155317  0.50000000  1
  Ir  Ir5  1  0.83577658  0.50000000  0.82844683  1
  Pu  Pu6  1  0.25000000  0.50000000  0.50000000  1
  Pu  Pu7  1  0.75000000  0.50000000  0.50000000  1
  Pu  Pu8  1  0.08247486  0.13848738  0.69656290  1
  Pu  Pu9  1  0.77903776  0.30343710  0.13848738  1
  Pu  Pu10  1  0.22096224  0.69656290  0.86151262  1
  Pu  Pu11  1  0.91752514  0.86151262  0.30343710  1
  Pu  Pu12  1  0.27903776  0.13848738  0.30343710  1
  Pu  Pu13  1  0.72096224  0.86151262  0.69656290  1
  Pu  Pu14  1  0.41752514  0.30343710  0.86151262  1
  Pu  Pu15  1  0.58247486  0.69656290  0.13848738  1
