# generated using pymatgen
data_Na3CuO3
_symmetry_space_group_name_H-M   'P 1'
_cell_length_a   8.22557168
_cell_length_b   8.22557104
_cell_length_c   16.49822854
_cell_angle_alpha   90.00000000
_cell_angle_beta   90.00000000
_cell_angle_gamma   95.73050800
_symmetry_Int_Tables_number   1
_chemical_formula_structural   Na3CuO3
_chemical_formula_sum   'Na36 Cu12 O36'
_cell_volume   1110.69202978
_cell_formula_units_Z   12
loop_
 _symmetry_equiv_pos_site_id
 _symmetry_equiv_pos_as_xyz
  1  'x, y, z'
loop_
 _atom_site_type_symbol
 _atom_site_label
 _atom_site_symmetry_multiplicity
 _atom_site_fract_x
 _atom_site_fract_y
 _atom_site_fract_z
 _atom_site_occupancy
  O  O0  1  0.48126654  0.75908799  0.65420614  1
  O  O1  1  0.01873346  0.74091201  0.15420614  1
  O  O2  1  0.75908799  0.48126654  0.34579386  1
  O  O3  1  0.74091201  0.01873346  0.84579386  1
  O  O4  1  0.51873346  0.24091201  0.34579386  1
  O  O5  1  0.98126654  0.25908799  0.84579386  1
  O  O6  1  0.24091201  0.51873346  0.65420614  1
  O  O7  1  0.25908799  0.98126654  0.15420614  1
  O  O8  1  0.45123000  0.77554333  0.49367752  1
  O  O9  1  0.04877000  0.72445667  0.99367752  1
  O  O10  1  0.77554333  0.45123000  0.50632248  1
  O  O11  1  0.72445667  0.04877000  0.00632248  1
  O  O12  1  0.54877000  0.22445667  0.50632248  1
  O  O13  1  0.95123000  0.27554333  0.00632248  1
  O  O14  1  0.22445667  0.54877000  0.49367752  1
  O  O15  1  0.27554333  0.95123000  0.99367752  1
  O  O16  1  0.44485646  0.80239334  0.33200206  1
  O  O17  1  0.05514354  0.69760666  0.83200206  1
  O  O18  1  0.80239334  0.44485646  0.66799794  1
  O  O19  1  0.69760666  0.05514354  0.16799794  1
  O  O20  1  0.55514354  0.19760666  0.66799794  1
  O  O21  1  0.94485646  0.30239334  0.16799794  1
  O  O22  1  0.19760666  0.55514354  0.33200206  1
  O  O23  1  0.30239334  0.94485646  0.83200206  1
  O  O24  1  0.88451404  0.88451404  0.50000000  1
  O  O25  1  0.61548596  0.61548596  0.00000000  1
  O  O26  1  0.11548596  0.11548596  0.50000000  1
  O  O27  1  0.38451404  0.38451404  0.00000000  1
  O  O28  1  0.87203517  0.88868536  0.66115122  1
  O  O29  1  0.62796483  0.61131464  0.16115122  1
  O  O30  1  0.88868536  0.87203517  0.33884878  1
  O  O31  1  0.61131464  0.62796483  0.83884878  1
  O  O32  1  0.12796483  0.11131464  0.33884878  1
  O  O33  1  0.37203517  0.38868536  0.83884878  1
  O  O34  1  0.11131464  0.12796483  0.66115122  1
  O  O35  1  0.38868536  0.37203517  0.16115122  1
  Na  Na36  1  0.02476733  0.97523267  0.77998055  1
  Na  Na37  1  0.47523267  0.52476733  0.27998055  1
  Na  Na38  1  0.97523267  0.02476733  0.22001945  1
  Na  Na39  1  0.52476733  0.47523267  0.72001945  1
  Na  Na40  1  0.66744368  0.83255632  0.75000000  1
  Na  Na41  1  0.83255632  0.66744368  0.25000000  1
  Na  Na42  1  0.33255632  0.16744368  0.25000000  1
  Na  Na43  1  0.16744368  0.33255632  0.75000000  1
  Na  Na44  1  0.82785824  0.17214176  0.71967546  1
  Na  Na45  1  0.67214176  0.32785824  0.21967546  1
  Na  Na46  1  0.17214176  0.82785824  0.28032454  1
  Na  Na47  1  0.32785824  0.67214176  0.78032454  1
  Na  Na48  1  0.62607808  0.97965376  0.57050535  1
  Na  Na49  1  0.87392192  0.52034624  0.07050535  1
  Na  Na50  1  0.97965376  0.62607808  0.42949465  1
  Na  Na51  1  0.52034624  0.87392192  0.92949465  1
  Na  Na52  1  0.37392192  0.02034624  0.42949465  1
  Na  Na53  1  0.12607808  0.47965376  0.92949465  1
  Na  Na54  1  0.02034624  0.37392192  0.57050535  1
  Na  Na55  1  0.47965376  0.12607808  0.07050535  1
  Na  Na56  1  0.67755015  0.73004148  0.41283502  1
  Na  Na57  1  0.82244985  0.76995852  0.91283502  1
  Na  Na58  1  0.73004148  0.67755015  0.58716498  1
  Na  Na59  1  0.76995852  0.82244985  0.08716498  1
  Na  Na60  1  0.32244985  0.26995852  0.58716498  1
  Na  Na61  1  0.17755015  0.23004148  0.08716498  1
  Na  Na62  1  0.26995852  0.32244985  0.41283502  1
  Na  Na63  1  0.23004148  0.17755015  0.91283502  1
  Na  Na64  1  0.66265768  0.01738161  0.31458442  1
  Na  Na65  1  0.83734232  0.48261839  0.81458442  1
  Na  Na66  1  0.01738161  0.66265768  0.68541558  1
  Na  Na67  1  0.48261839  0.83734232  0.18541558  1
  Na  Na68  1  0.33734232  0.98261839  0.68541558  1
  Na  Na69  1  0.16265768  0.51738161  0.18541558  1
  Na  Na70  1  0.98261839  0.33734232  0.31458442  1
  Na  Na71  1  0.51738161  0.16265768  0.81458442  1
  Cu  Cu72  1  0.34778611  0.65221389  0.57829522  1
  Cu  Cu73  1  0.15221389  0.84778611  0.07829522  1
  Cu  Cu74  1  0.65221389  0.34778611  0.42170478  1
  Cu  Cu75  1  0.84778611  0.15221389  0.92170478  1
  Cu  Cu76  1  0.32836079  0.67163921  0.40894595  1
  Cu  Cu77  1  0.17163921  0.82836079  0.90894595  1
  Cu  Cu78  1  0.67163921  0.32836079  0.59105405  1
  Cu  Cu79  1  0.82836079  0.17163921  0.09105405  1
  Cu  Cu80  1  0.99913381  0.00086619  0.58414598  1
  Cu  Cu81  1  0.50086619  0.49913381  0.08414598  1
  Cu  Cu82  1  0.00086619  0.99913381  0.41585402  1
  Cu  Cu83  1  0.49913381  0.50086619  0.91585402  1
