# generated using pymatgen
data_ErB4
_symmetry_space_group_name_H-M   'P 1'
_cell_length_a   3.99707892
_cell_length_b   7.06972816
_cell_length_c   7.06972816
_cell_angle_alpha   90.00000000
_cell_angle_beta   90.00000000
_cell_angle_gamma   90.00000000
_symmetry_Int_Tables_number   1
_chemical_formula_structural   ErB4
_chemical_formula_sum   'Er4 B16'
_cell_volume   199.77822636
_cell_formula_units_Z   4
loop_
 _symmetry_equiv_pos_site_id
 _symmetry_equiv_pos_as_xyz
  1  'x, y, z'
loop_
 _atom_site_type_symbol
 _atom_site_label
 _atom_site_symmetry_multiplicity
 _atom_site_fract_x
 _atom_site_fract_y
 _atom_site_fract_z
 _atom_site_occupancy
  B  B0  1  0.50000000  0.46128186  0.32348340  1
  B  B1  1  0.50000000  0.53871814  0.67651660  1
  B  B2  1  0.50000000  0.32348340  0.53871814  1
  B  B3  1  0.50000000  0.67651660  0.46128186  1
  B  B4  1  0.20263201  0.00000000  0.00000000  1
  B  B5  1  0.79736799  0.50000000  0.50000000  1
  B  B6  1  0.79736799  0.00000000  0.00000000  1
  B  B7  1  0.20263201  0.50000000  0.50000000  1
  B  B8  1  0.50000000  0.08690267  0.58690267  1
  B  B9  1  0.50000000  0.41309733  0.08690267  1
  B  B10  1  0.50000000  0.58690267  0.91309733  1
  B  B11  1  0.50000000  0.91309733  0.41309733  1
  B  B12  1  0.50000000  0.17651660  0.03871814  1
  B  B13  1  0.50000000  0.96128186  0.17651660  1
  B  B14  1  0.50000000  0.03871814  0.82348340  1
  B  B15  1  0.50000000  0.82348340  0.96128186  1
  Er  Er16  1  0.00000000  0.68179301  0.18179301  1
  Er  Er17  1  0.00000000  0.81820699  0.68179301  1
  Er  Er18  1  0.00000000  0.18179301  0.31820699  1
  Er  Er19  1  0.00000000  0.31820699  0.81820699  1
