# generated using pymatgen
data_Sb11F43
_symmetry_space_group_name_H-M   'P 1'
_cell_length_a   9.28907341
_cell_length_b   11.77274427
_cell_length_c   16.95782799
_cell_angle_alpha   106.46190682
_cell_angle_beta   90.00000000
_cell_angle_gamma   90.00000000
_symmetry_Int_Tables_number   1
_chemical_formula_structural   Sb11F43
_chemical_formula_sum   'Sb22 F86'
_cell_volume   1778.45434173
_cell_formula_units_Z   2
loop_
 _symmetry_equiv_pos_site_id
 _symmetry_equiv_pos_as_xyz
  1  'x, y, z'
loop_
 _atom_site_type_symbol
 _atom_site_label
 _atom_site_symmetry_multiplicity
 _atom_site_fract_x
 _atom_site_fract_y
 _atom_site_fract_z
 _atom_site_occupancy
  F  F0  1  0.13229954  0.97152181  0.76884324  1
  F  F1  1  0.63229954  0.02847819  0.73115676  1
  F  F2  1  0.86770046  0.02847819  0.23115676  1
  F  F3  1  0.36770046  0.97152181  0.26884324  1
  F  F4  1  0.39084611  0.02475297  0.84965009  1
  F  F5  1  0.89084611  0.97524703  0.65034991  1
  F  F6  1  0.60915389  0.97524703  0.15034991  1
  F  F7  1  0.10915389  0.02475297  0.34965009  1
  F  F8  1  0.28197872  0.79157554  0.79276838  1
  F  F9  1  0.78197872  0.20842446  0.70723162  1
  F  F10  1  0.71802128  0.20842446  0.20723162  1
  F  F11  1  0.21802128  0.79157554  0.29276838  1
  F  F12  1  0.41714025  0.59036452  0.81444989  1
  F  F13  1  0.91714025  0.40963548  0.68555011  1
  F  F14  1  0.58285975  0.40963548  0.18555011  1
  F  F15  1  0.08285975  0.59036452  0.31444989  1
  F  F16  1  0.64199397  0.22353098  0.05609581  1
  F  F17  1  0.14199397  0.77646902  0.44390419  1
  F  F18  1  0.35800603  0.77646902  0.94390419  1
  F  F19  1  0.85800603  0.22353098  0.55609581  1
  F  F20  1  0.15706587  0.90264402  0.60191589  1
  F  F21  1  0.65706587  0.09735598  0.89808411  1
  F  F22  1  0.84293413  0.09735598  0.39808411  1
  F  F23  1  0.34293413  0.90264402  0.10191589  1
  F  F24  1  0.50000000  0.00000000  0.00000000  1
  F  F25  1  0.00000000  0.00000000  0.50000000  1
  F  F26  1  0.95920797  0.07148047  0.91395704  1
  F  F27  1  0.45920797  0.92851953  0.58604296  1
  F  F28  1  0.04079203  0.92851953  0.08604296  1
  F  F29  1  0.54079203  0.07148047  0.41395704  1
  F  F30  1  0.80578580  0.94299961  0.99685592  1
  F  F31  1  0.30578580  0.05700039  0.50314408  1
  F  F32  1  0.19421420  0.05700039  0.00314408  1
  F  F33  1  0.69421420  0.94299961  0.49685592  1
  F  F34  1  0.05659786  0.85374111  0.92088192  1
  F  F35  1  0.55659786  0.14625889  0.57911808  1
  F  F36  1  0.94340214  0.14625889  0.07911808  1
  F  F37  1  0.44340214  0.85374111  0.42088192  1
  F  F38  1  0.32472637  0.11044879  0.71062529  1
  F  F39  1  0.82472637  0.88955121  0.78937471  1
  F  F40  1  0.67527363  0.88955121  0.28937471  1
  F  F41  1  0.17527363  0.11044879  0.21062529  1
  F  F42  1  0.17420732  0.43193020  0.79818016  1
  F  F43  1  0.67420732  0.56806980  0.70181984  1
  F  F44  1  0.82579268  0.56806980  0.20181984  1
  F  F45  1  0.32579268  0.43193020  0.29818016  1
  F  F46  1  0.29440498  0.26364746  0.85944009  1
  F  F47  1  0.79440498  0.73635254  0.64055991  1
  F  F48  1  0.70559502  0.73635254  0.14055991  1
  F  F49  1  0.20559502  0.26364746  0.35944009  1
  F  F50  1  0.43763503  0.32870194  0.73882238  1
  F  F51  1  0.93763503  0.67129806  0.76117762  1
  F  F52  1  0.56236497  0.67129806  0.26117762  1
  F  F53  1  0.06236497  0.32870194  0.23882238  1
  F  F54  1  0.20267278  0.26988869  0.64145286  1
  F  F55  1  0.70267278  0.73011131  0.85854714  1
  F  F56  1  0.79732722  0.73011131  0.35854714  1
  F  F57  1  0.29732722  0.26988869  0.14145286  1
  F  F58  1  0.56378320  0.79354454  0.74039658  1
  F  F59  1  0.06378320  0.20645546  0.75960342  1
  F  F60  1  0.43621680  0.20645546  0.25960342  1
  F  F61  1  0.93621680  0.79354454  0.24039658  1
  F  F62  1  0.23767413  0.56516025  0.96303561  1
  F  F63  1  0.73767413  0.43483975  0.53696439  1
  F  F64  1  0.76232587  0.43483975  0.03696439  1
  F  F65  1  0.26232587  0.56516025  0.46303561  1
  F  F66  1  0.60714469  0.56510147  0.95729397  1
  F  F67  1  0.10714469  0.43489853  0.54270603  1
  F  F68  1  0.39285531  0.43489853  0.04270603  1
  F  F69  1  0.89285531  0.56510147  0.45729397  1
  F  F70  1  0.57895104  0.32497673  0.91644021  1
  F  F71  1  0.07895104  0.67502327  0.58355979  1
  F  F72  1  0.42104896  0.67502327  0.08355979  1
  F  F73  1  0.92104896  0.32497673  0.41644021  1
  F  F74  1  0.20400324  0.57174940  0.69086844  1
  F  F75  1  0.70400324  0.42825060  0.80913156  1
  F  F76  1  0.79599676  0.42825060  0.30913156  1
  F  F77  1  0.29599676  0.57174940  0.19086844  1
  F  F78  1  0.85921318  0.30053356  0.88886780  1
  F  F79  1  0.35921318  0.69946644  0.61113220  1
  F  F80  1  0.14078682  0.69946644  0.11113220  1
  F  F81  1  0.64078682  0.30053356  0.38886780  1
  F  F82  1  0.89752324  0.54074440  0.93084600  1
  F  F83  1  0.39752324  0.45925560  0.56915400  1
  F  F84  1  0.10247676  0.45925560  0.06915400  1
  F  F85  1  0.60247676  0.54074440  0.43084600  1
  Sb  Sb86  1  0.32829591  0.92961506  0.73287683  1
  Sb  Sb87  1  0.82829591  0.07038494  0.76712317  1
  Sb  Sb88  1  0.67170409  0.07038494  0.26712317  1
  Sb  Sb89  1  0.17170409  0.92961506  0.23287683  1
  Sb  Sb90  1  0.23402270  0.66055367  0.84761833  1
  Sb  Sb91  1  0.73402270  0.33944633  0.65238167  1
  Sb  Sb92  1  0.76597730  0.33944633  0.15238167  1
  Sb  Sb93  1  0.26597730  0.66055367  0.34761833  1
  Sb  Sb94  1  0.48540451  0.15651312  0.96096373  1
  Sb  Sb95  1  0.98540451  0.84348688  0.53903627  1
  Sb  Sb96  1  0.51459549  0.84348688  0.03903627  1
  Sb  Sb97  1  0.01459549  0.15651312  0.46096373  1
  Sb  Sb98  1  0.00000000  0.00000000  0.00000000  1
  Sb  Sb99  1  0.50000000  0.00000000  0.50000000  1
  Sb  Sb100  1  0.24837799  0.27482984  0.75162188  1
  Sb  Sb101  1  0.74837799  0.72517016  0.74837812  1
  Sb  Sb102  1  0.75162201  0.72517016  0.24837812  1
  Sb  Sb103  1  0.25162201  0.27482984  0.25162188  1
  Sb  Sb104  1  0.73875701  0.43745145  0.92336219  1
  Sb  Sb105  1  0.23875701  0.56254855  0.57663781  1
  Sb  Sb106  1  0.26124299  0.56254855  0.07663781  1
  Sb  Sb107  1  0.76124299  0.43745145  0.42336219  1
