# generated using pymatgen
data_Ba3GaSb3
_symmetry_space_group_name_H-M   'P 1'
_cell_length_a   7.24180485
_cell_length_b   14.29189425
_cell_length_c   21.45599733
_cell_angle_alpha   90.00000000
_cell_angle_beta   90.00000000
_cell_angle_gamma   90.00000000
_symmetry_Int_Tables_number   1
_chemical_formula_structural   Ba3GaSb3
_chemical_formula_sum   'Ba24 Ga8 Sb24'
_cell_volume   2220.67660841
_cell_formula_units_Z   8
loop_
 _symmetry_equiv_pos_site_id
 _symmetry_equiv_pos_as_xyz
  1  'x, y, z'
loop_
 _atom_site_type_symbol
 _atom_site_label
 _atom_site_symmetry_multiplicity
 _atom_site_fract_x
 _atom_site_fract_y
 _atom_site_fract_z
 _atom_site_occupancy
  Ga  Ga0  1  0.51540566  0.12659356  0.83672043  1
  Ga  Ga1  1  0.01540566  0.37340644  0.16327957  1
  Ga  Ga2  1  0.48459434  0.87340644  0.33672043  1
  Ga  Ga3  1  0.51540566  0.12659356  0.66327957  1
  Ga  Ga4  1  0.01540566  0.37340644  0.33672043  1
  Ga  Ga5  1  0.98459434  0.62659356  0.83672043  1
  Ga  Ga6  1  0.48459434  0.87340644  0.16327957  1
  Ga  Ga7  1  0.98459434  0.62659356  0.66327957  1
  Sb  Sb8  1  0.80053278  0.25807661  0.08964403  1
  Sb  Sb9  1  0.26846609  0.98798993  0.41045740  1
  Sb  Sb10  1  0.73153391  0.01201007  0.91045740  1
  Sb  Sb11  1  0.23153391  0.48798993  0.08954260  1
  Sb  Sb12  1  0.23153391  0.48798993  0.41045740  1
  Sb  Sb13  1  0.73153391  0.01201007  0.58954260  1
  Sb  Sb14  1  0.26846609  0.98798993  0.08954260  1
  Sb  Sb15  1  0.76846609  0.51201007  0.58954260  1
  Sb  Sb16  1  0.31987185  0.01864224  0.75000000  1
  Sb  Sb17  1  0.81987185  0.48135776  0.25000000  1
  Sb  Sb18  1  0.18012815  0.51864224  0.75000000  1
  Sb  Sb19  1  0.68012815  0.98135776  0.25000000  1
  Sb  Sb20  1  0.70909419  0.23264562  0.75000000  1
  Sb  Sb21  1  0.20909419  0.26735438  0.25000000  1
  Sb  Sb22  1  0.79090581  0.73264562  0.75000000  1
  Sb  Sb23  1  0.29090581  0.76735438  0.25000000  1
  Sb  Sb24  1  0.30053278  0.24192339  0.91035597  1
  Sb  Sb25  1  0.69946722  0.75807661  0.41035597  1
  Sb  Sb26  1  0.19946722  0.74192339  0.58964403  1
  Sb  Sb27  1  0.19946722  0.74192339  0.91035597  1
  Sb  Sb28  1  0.80053278  0.25807661  0.41035597  1
  Sb  Sb29  1  0.30053278  0.24192339  0.58964403  1
  Sb  Sb30  1  0.76846609  0.51201007  0.91045740  1
  Sb  Sb31  1  0.69946722  0.75807661  0.08964403  1
  Ba  Ba32  1  0.82310228  0.98417914  0.75000000  1
  Ba  Ba33  1  0.32310228  0.51582086  0.25000000  1
  Ba  Ba34  1  0.67689772  0.48417914  0.75000000  1
  Ba  Ba35  1  0.17689772  0.01582086  0.25000000  1
  Ba  Ba36  1  0.19999415  0.26478129  0.75000000  1
  Ba  Ba37  1  0.69999415  0.23521871  0.25000000  1
  Ba  Ba38  1  0.30000585  0.76478129  0.75000000  1
  Ba  Ba39  1  0.80000585  0.73521871  0.25000000  1
  Ba  Ba40  1  0.19580090  0.73804789  0.07636311  1
  Ba  Ba41  1  0.69580090  0.76195211  0.92363689  1
  Ba  Ba42  1  0.30419910  0.23804789  0.42363689  1
  Ba  Ba43  1  0.80419910  0.26195211  0.57636311  1
  Ba  Ba44  1  0.80419910  0.26195211  0.92363689  1
  Ba  Ba45  1  0.30419910  0.23804789  0.07636311  1
  Ba  Ba46  1  0.69580090  0.76195211  0.57636311  1
  Ba  Ba47  1  0.19580090  0.73804789  0.42363689  1
  Ba  Ba48  1  0.76974818  0.00890513  0.07643807  1
  Ba  Ba49  1  0.26974818  0.49109487  0.92356193  1
  Ba  Ba50  1  0.73025182  0.50890513  0.42356193  1
  Ba  Ba51  1  0.23025182  0.99109487  0.57643807  1
  Ba  Ba52  1  0.23025182  0.99109487  0.92356193  1
  Ba  Ba53  1  0.73025182  0.50890513  0.07643807  1
  Ba  Ba54  1  0.26974818  0.49109487  0.57643807  1
  Ba  Ba55  1  0.76974818  0.00890513  0.42356193  1
