# generated using pymatgen
data_Ce15B8N25
_symmetry_space_group_name_H-M   'P 1'
_cell_length_a   10.72537698
_cell_length_b   10.72537686
_cell_length_c   10.72537724
_cell_angle_alpha   82.43032438
_cell_angle_beta   82.43032446
_cell_angle_gamma   82.43032328
_symmetry_Int_Tables_number   1
_chemical_formula_structural   Ce15B8N25
_chemical_formula_sum   'Ce30 B16 N50'
_cell_volume   1204.12887596
_cell_formula_units_Z   2
loop_
 _symmetry_equiv_pos_site_id
 _symmetry_equiv_pos_as_xyz
  1  'x, y, z'
loop_
 _atom_site_type_symbol
 _atom_site_label
 _atom_site_symmetry_multiplicity
 _atom_site_fract_x
 _atom_site_fract_y
 _atom_site_fract_z
 _atom_site_occupancy
  B  B0  1  0.16462225  0.16462225  0.16462225  1
  B  B1  1  0.33537775  0.33537775  0.33537775  1
  B  B2  1  0.83537775  0.83537775  0.83537775  1
  B  B3  1  0.66462225  0.66462225  0.66462225  1
  B  B4  1  0.06527537  0.65244607  0.16229556  1
  B  B5  1  0.16229556  0.06527537  0.65244607  1
  B  B6  1  0.65244607  0.16229556  0.06527537  1
  B  B7  1  0.84755393  0.43472463  0.33770444  1
  B  B8  1  0.33770444  0.84755393  0.43472463  1
  B  B9  1  0.43472463  0.33770444  0.84755393  1
  B  B10  1  0.93472463  0.34755393  0.83770444  1
  B  B11  1  0.83770444  0.93472463  0.34755393  1
  B  B12  1  0.34755393  0.83770444  0.93472463  1
  B  B13  1  0.15244607  0.56527537  0.66229556  1
  B  B14  1  0.66229556  0.15244607  0.56527537  1
  B  B15  1  0.56527537  0.66229556  0.15244607  1
  N  N16  1  0.00000000  0.00000000  0.00000000  1
  N  N17  1  0.50000000  0.50000000  0.50000000  1
  N  N18  1  0.75089721  0.16233227  0.95516421  1
  N  N19  1  0.95516421  0.75089721  0.16233227  1
  N  N20  1  0.16233227  0.95516421  0.75089721  1
  N  N21  1  0.33766773  0.74910279  0.54483579  1
  N  N22  1  0.54483579  0.33766773  0.74910279  1
  N  N23  1  0.74910279  0.54483579  0.33766773  1
  N  N24  1  0.24910279  0.83766773  0.04483579  1
  N  N25  1  0.04483579  0.24910279  0.83766773  1
  N  N26  1  0.83766773  0.04483579  0.24910279  1
  N  N27  1  0.66233227  0.25089721  0.45516421  1
  N  N28  1  0.45516421  0.66233227  0.25089721  1
  N  N29  1  0.25089721  0.45516421  0.66233227  1
  N  N30  1  0.60388321  0.55851396  0.07111557  1
  N  N31  1  0.07111557  0.60388321  0.55851396  1
  N  N32  1  0.55851396  0.07111557  0.60388321  1
  N  N33  1  0.94148604  0.89611679  0.42888443  1
  N  N34  1  0.42888443  0.94148604  0.89611679  1
  N  N35  1  0.89611679  0.42888443  0.94148604  1
  N  N36  1  0.39611679  0.44148604  0.92888443  1
  N  N37  1  0.92888443  0.39611679  0.44148604  1
  N  N38  1  0.44148604  0.92888443  0.39611679  1
  N  N39  1  0.05851396  0.10388321  0.57111557  1
  N  N40  1  0.57111557  0.05851396  0.10388321  1
  N  N41  1  0.10388321  0.57111557  0.05851396  1
  N  N42  1  0.14486003  0.27651259  0.07356437  1
  N  N43  1  0.07356437  0.14486003  0.27651259  1
  N  N44  1  0.27651259  0.07356437  0.14486003  1
  N  N45  1  0.22348741  0.35513997  0.42643563  1
  N  N46  1  0.42643563  0.22348741  0.35513997  1
  N  N47  1  0.35513997  0.42643563  0.22348741  1
  N  N48  1  0.85513997  0.72348741  0.92643563  1
  N  N49  1  0.92643563  0.85513997  0.72348741  1
  N  N50  1  0.72348741  0.92643563  0.85513997  1
  N  N51  1  0.77651259  0.64486003  0.57356437  1
  N  N52  1  0.57356437  0.77651259  0.64486003  1
  N  N53  1  0.64486003  0.57356437  0.77651259  1
  N  N54  1  0.27029238  0.13853001  0.63046427  1
  N  N55  1  0.63046427  0.27029238  0.13853001  1
  N  N56  1  0.13853001  0.63046427  0.27029238  1
  N  N57  1  0.36146999  0.22970762  0.86953573  1
  N  N58  1  0.86953573  0.36146999  0.22970762  1
  N  N59  1  0.22970762  0.86953573  0.36146999  1
  N  N60  1  0.72970762  0.86146999  0.36953573  1
  N  N61  1  0.36953573  0.72970762  0.86146999  1
  N  N62  1  0.86146999  0.36953573  0.72970762  1
  N  N63  1  0.63853001  0.77029238  0.13046427  1
  N  N64  1  0.13046427  0.63853001  0.77029238  1
  N  N65  1  0.77029238  0.13046427  0.63853001  1
  Ce  Ce66  1  0.58968887  0.41036136  0.28719430  1
  Ce  Ce67  1  0.28719430  0.58968887  0.41036136  1
  Ce  Ce68  1  0.41036136  0.28719430  0.58968887  1
  Ce  Ce69  1  0.08963864  0.91031113  0.21280570  1
  Ce  Ce70  1  0.21280570  0.08963864  0.91031113  1
  Ce  Ce71  1  0.91031113  0.21280570  0.08963864  1
  Ce  Ce72  1  0.41031113  0.58963864  0.71280570  1
  Ce  Ce73  1  0.71280570  0.41031113  0.58963864  1
  Ce  Ce74  1  0.58963864  0.71280570  0.41031113  1
  Ce  Ce75  1  0.91036136  0.08968887  0.78719430  1
  Ce  Ce76  1  0.78719430  0.91036136  0.08968887  1
  Ce  Ce77  1  0.08968887  0.78719430  0.91036136  1
  Ce  Ce78  1  0.42434843  0.90199054  0.15939760  1
  Ce  Ce79  1  0.15939760  0.42434843  0.90199054  1
  Ce  Ce80  1  0.90199054  0.15939760  0.42434843  1
  Ce  Ce81  1  0.59800946  0.07565157  0.34060240  1
  Ce  Ce82  1  0.34060240  0.59800946  0.07565157  1
  Ce  Ce83  1  0.07565157  0.34060240  0.59800946  1
  Ce  Ce84  1  0.57565157  0.09800946  0.84060240  1
  Ce  Ce85  1  0.84060240  0.57565157  0.09800946  1
  Ce  Ce86  1  0.09800946  0.84060240  0.57565157  1
  Ce  Ce87  1  0.40199054  0.92434843  0.65939760  1
  Ce  Ce88  1  0.65939760  0.40199054  0.92434843  1
  Ce  Ce89  1  0.92434843  0.65939760  0.40199054  1
  Ce  Ce90  1  0.39867201  0.25000000  0.10132799  1
  Ce  Ce91  1  0.10132799  0.39867201  0.25000000  1
  Ce  Ce92  1  0.25000000  0.10132799  0.39867201  1
  Ce  Ce93  1  0.60132799  0.75000000  0.89867201  1
  Ce  Ce94  1  0.89867201  0.60132799  0.75000000  1
  Ce  Ce95  1  0.75000000  0.89867201  0.60132799  1
