# generated using pymatgen
data_Ge(SF6)2
_symmetry_space_group_name_H-M   'P 1'
_cell_length_a   6.12883243
_cell_length_b   7.65118998
_cell_length_c   9.66646815
_cell_angle_alpha   90.00000000
_cell_angle_beta   90.00000000
_cell_angle_gamma   90.00000000
_symmetry_Int_Tables_number   1
_chemical_formula_structural   Ge(SF6)2
_chemical_formula_sum   'Ge2 S4 F24'
_cell_volume   453.28835000
_cell_formula_units_Z   2
loop_
 _symmetry_equiv_pos_site_id
 _symmetry_equiv_pos_as_xyz
  1  'x, y, z'
loop_
 _atom_site_type_symbol
 _atom_site_label
 _atom_site_symmetry_multiplicity
 _atom_site_fract_x
 _atom_site_fract_y
 _atom_site_fract_z
 _atom_site_occupancy
  F  F0  1  0.21212790  0.36914012  0.91364110  1
  F  F1  1  0.21212790  0.63085988  0.08635890  1
  F  F2  1  0.28787210  0.86914012  0.58635890  1
  F  F3  1  0.28787210  0.13085988  0.41364110  1
  F  F4  1  0.78787210  0.63085988  0.08635890  1
  F  F5  1  0.78787210  0.36914012  0.91364110  1
  F  F6  1  0.81129747  0.97250448  0.84742059  1
  F  F7  1  0.81129747  0.02749552  0.15257941  1
  F  F8  1  0.68870253  0.47250448  0.65257941  1
  F  F9  1  0.68870253  0.52749552  0.34742059  1
  F  F10  1  0.18870253  0.02749552  0.15257941  1
  F  F11  1  0.18870253  0.97250448  0.84742059  1
  F  F12  1  0.31129747  0.52749552  0.34742059  1
  F  F13  1  0.31129747  0.47250448  0.65257941  1
  F  F14  1  0.00000000  0.65217716  0.85349376  1
  F  F15  1  0.00000000  0.34782284  0.14650624  1
  F  F16  1  0.50000000  0.15217716  0.64650624  1
  F  F17  1  0.50000000  0.84782284  0.35349376  1
  F  F18  1  0.50000000  0.61653006  0.82596358  1
  F  F19  1  0.50000000  0.38346994  0.17403642  1
  F  F20  1  0.00000000  0.11653006  0.67403642  1
  F  F21  1  0.00000000  0.88346994  0.32596358  1
  F  F22  1  0.71212790  0.86914012  0.58635890  1
  F  F23  1  0.71212790  0.13085988  0.41364110  1
  S  S24  1  0.50000000  0.56844251  0.24282367  1
  S  S25  1  0.50000000  0.43155749  0.75717633  1
  S  S26  1  0.00000000  0.06844251  0.25717633  1
  S  S27  1  0.00000000  0.93155749  0.74282367  1
  Ge  Ge28  1  0.00000000  0.50000000  0.00000000  1
  Ge  Ge29  1  0.50000000  0.00000000  0.50000000  1
