# generated using pymatgen
data_Sb7Se8F35
_symmetry_space_group_name_H-M   'P 1'
_cell_length_a   11.41959222
_cell_length_b   11.80538705
_cell_length_c   13.91439250
_cell_angle_alpha   90.00000000
_cell_angle_beta   90.00000000
_cell_angle_gamma   93.47406393
_symmetry_Int_Tables_number   1
_chemical_formula_structural   Sb7Se8F35
_chemical_formula_sum   'Sb14 Se16 F70'
_cell_volume   1872.38973935
_cell_formula_units_Z   2
loop_
 _symmetry_equiv_pos_site_id
 _symmetry_equiv_pos_as_xyz
  1  'x, y, z'
loop_
 _atom_site_type_symbol
 _atom_site_label
 _atom_site_symmetry_multiplicity
 _atom_site_fract_x
 _atom_site_fract_y
 _atom_site_fract_z
 _atom_site_occupancy
  F  F0  1  0.98758241  0.49494152  0.36236713  1
  F  F1  1  0.51241759  0.00505848  0.86236713  1
  F  F2  1  0.01241759  0.50505848  0.63763287  1
  F  F3  1  0.48758241  0.99494152  0.13763287  1
  F  F4  1  0.98970718  0.33813198  0.50478150  1
  F  F5  1  0.51029282  0.16186802  0.00478150  1
  F  F6  1  0.01029282  0.66186802  0.49521850  1
  F  F7  1  0.48970718  0.83813198  0.99521850  1
  F  F8  1  0.17043618  0.50050965  0.49071084  1
  F  F9  1  0.32956382  0.99949035  0.99071084  1
  F  F10  1  0.82956382  0.49949035  0.50928916  1
  F  F11  1  0.67043618  0.00050965  0.00928916  1
  F  F12  1  0.89314003  0.32021739  0.84791356  1
  F  F13  1  0.60685997  0.17978261  0.34791356  1
  F  F14  1  0.10685997  0.67978261  0.15208644  1
  F  F15  1  0.39314003  0.82021739  0.65208644  1
  F  F16  1  0.90664943  0.21171998  0.67367099  1
  F  F17  1  0.59335057  0.28828002  0.17367099  1
  F  F18  1  0.09335057  0.78828002  0.32632901  1
  F  F19  1  0.40664943  0.71171998  0.82632901  1
  F  F20  1  0.76343926  0.38432094  0.69805998  1
  F  F21  1  0.73656074  0.11567906  0.19805998  1
  F  F22  1  0.23656074  0.61567906  0.30194002  1
  F  F23  1  0.26343926  0.88432094  0.80194002  1
  F  F24  1  0.80418050  0.10231174  0.82424052  1
  F  F25  1  0.69581950  0.39768826  0.32424052  1
  F  F26  1  0.19581950  0.89768826  0.17575948  1
  F  F27  1  0.30418050  0.60231174  0.67575948  1
  F  F28  1  0.67380499  0.16785737  0.67013493  1
  F  F29  1  0.82619501  0.33214263  0.17013493  1
  F  F30  1  0.32619501  0.83214263  0.32986507  1
  F  F31  1  0.17380499  0.66785737  0.82986507  1
  F  F32  1  0.65479061  0.27222060  0.84535235  1
  F  F33  1  0.84520939  0.22777940  0.34535235  1
  F  F34  1  0.34520939  0.72777940  0.15464765  1
  F  F35  1  0.15479061  0.77222060  0.65464765  1
  F  F36  1  0.78871558  0.75310704  0.57296256  1
  F  F37  1  0.71128442  0.74689296  0.07296256  1
  F  F38  1  0.21128442  0.24689296  0.42703744  1
  F  F39  1  0.28871558  0.25310704  0.92703744  1
  F  F40  1  0.88791538  0.88074421  0.71753561  1
  F  F41  1  0.61208462  0.61925579  0.21753561  1
  F  F42  1  0.11208462  0.11925579  0.28246439  1
  F  F43  1  0.38791538  0.38074421  0.78246439  1
  F  F44  1  0.72043193  0.79199864  0.83942716  1
  F  F45  1  0.77956807  0.70800136  0.33942716  1
  F  F46  1  0.27956807  0.20800136  0.16057284  1
  F  F47  1  0.22043193  0.29199864  0.66057284  1
  F  F48  1  0.62777100  0.66297546  0.69741923  1
  F  F49  1  0.87222900  0.83702454  0.19741923  1
  F  F50  1  0.37222900  0.33702454  0.30258077  1
  F  F51  1  0.12777100  0.16297546  0.80258077  1
  F  F52  1  0.65577024  0.89683016  0.67060745  1
  F  F53  1  0.84422976  0.60316984  0.17060745  1
  F  F54  1  0.34422976  0.10316984  0.32939255  1
  F  F55  1  0.15577024  0.39683016  0.82939255  1
  F  F56  1  0.85801459  0.65379629  0.73992293  1
  F  F57  1  0.64198541  0.84620371  0.23992293  1
  F  F58  1  0.14198541  0.34620371  0.26007707  1
  F  F59  1  0.35801459  0.15379629  0.76007707  1
  F  F60  1  0.00000000  0.50000000  0.00000000  1
  F  F61  1  0.50000000  0.00000000  0.50000000  1
  F  F62  1  0.79275452  0.52693165  0.90279335  1
  F  F63  1  0.70724548  0.97306835  0.40279335  1
  F  F64  1  0.20724548  0.47306835  0.09720665  1
  F  F65  1  0.29275452  0.02693165  0.59720665  1
  F  F66  1  0.95843816  0.70374726  0.91848397  1
  F  F67  1  0.54156184  0.79625274  0.41848397  1
  F  F68  1  0.04156184  0.29625274  0.08151603  1
  F  F69  1  0.45843816  0.20374726  0.58151603  1
  Se  Se70  1  0.88408233  0.91595666  0.97297947  1
  Se  Se71  1  0.61591767  0.58404334  0.47297947  1
  Se  Se72  1  0.11591767  0.08404334  0.02702053  1
  Se  Se73  1  0.38408233  0.41595666  0.52702053  1
  Se  Se74  1  0.08598387  0.90341706  0.96323504  1
  Se  Se75  1  0.41401613  0.59658294  0.46323504  1
  Se  Se76  1  0.91401613  0.09658294  0.03676496  1
  Se  Se77  1  0.58598387  0.40341706  0.53676496  1
  Se  Se78  1  0.93346490  0.92081196  0.41695917  1
  Se  Se79  1  0.56653510  0.57918804  0.91695917  1
  Se  Se80  1  0.06653510  0.07918804  0.58304083  1
  Se  Se81  1  0.43346490  0.42081196  0.08304083  1
  Se  Se82  1  0.88038512  0.06567068  0.51717901  1
  Se  Se83  1  0.61961488  0.43432932  0.01717901  1
  Se  Se84  1  0.11961488  0.93432932  0.48282099  1
  Se  Se85  1  0.38038512  0.56567068  0.98282099  1
  Sb  Sb86  1  0.00000000  0.50000000  0.50000000  1
  Sb  Sb87  1  0.50000000  0.00000000  0.00000000  1
  Sb  Sb88  1  0.78156371  0.24280900  0.76175807  1
  Sb  Sb89  1  0.71843629  0.25719100  0.26175807  1
  Sb  Sb90  1  0.21843629  0.75719100  0.23824193  1
  Sb  Sb91  1  0.28156371  0.74280900  0.73824193  1
  Sb  Sb92  1  0.75371644  0.77722565  0.70526434  1
  Sb  Sb93  1  0.74628356  0.72277435  0.20526434  1
  Sb  Sb94  1  0.24628356  0.22277435  0.29473566  1
  Sb  Sb95  1  0.25371644  0.27722565  0.79473566  1
  Sb  Sb96  1  0.95481729  0.55390098  0.85706578  1
  Sb  Sb97  1  0.54518271  0.94609902  0.35706578  1
  Sb  Sb98  1  0.04518271  0.44609902  0.14293422  1
  Sb  Sb99  1  0.45481729  0.05390098  0.64293422  1
