# generated using pymatgen
data_Y4RuI5
_symmetry_space_group_name_H-M   'P 1'
_cell_length_a   12.43559644
_cell_length_b   12.43559644
_cell_length_c   18.35521984
_cell_angle_alpha   90.00000000
_cell_angle_beta   90.00000000
_cell_angle_gamma   90.00000000
_symmetry_Int_Tables_number   1
_chemical_formula_structural   Y4RuI5
_chemical_formula_sum   'Y32 Ru8 I40'
_cell_volume   2838.52569656
_cell_formula_units_Z   8
loop_
 _symmetry_equiv_pos_site_id
 _symmetry_equiv_pos_as_xyz
  1  'x, y, z'
loop_
 _atom_site_type_symbol
 _atom_site_label
 _atom_site_symmetry_multiplicity
 _atom_site_fract_x
 _atom_site_fract_y
 _atom_site_fract_z
 _atom_site_occupancy
  Y  Y0  1  0.63737172  0.36262828  0.46795464  1
  Y  Y1  1  0.13737172  0.63737172  0.96795464  1
  Y  Y2  1  0.36262828  0.86262828  0.96795464  1
  Y  Y3  1  0.63737172  0.13737172  0.03204536  1
  Y  Y4  1  0.86262828  0.36262828  0.03204536  1
  Y  Y5  1  0.86262828  0.13737172  0.46795464  1
  Y  Y6  1  0.36262828  0.63737172  0.53204536  1
  Y  Y7  1  0.13737172  0.86262828  0.53204536  1
  Y  Y8  1  0.12760386  0.87239614  0.83448834  1
  Y  Y9  1  0.62760386  0.12760386  0.33448834  1
  Y  Y10  1  0.87239614  0.37239614  0.33448834  1
  Y  Y11  1  0.12760386  0.62760386  0.66551166  1
  Y  Y12  1  0.37239614  0.87239614  0.66551166  1
  Y  Y13  1  0.37239614  0.62760386  0.83448834  1
  Y  Y14  1  0.87239614  0.12760386  0.16551166  1
  Y  Y15  1  0.62760386  0.37239614  0.16551166  1
  Y  Y16  1  0.43002458  0.36484679  0.32526033  1
  Y  Y17  1  0.13515321  0.43002458  0.82526033  1
  Y  Y18  1  0.36484679  0.06997542  0.82526033  1
  Y  Y19  1  0.43002458  0.13515321  0.17473967  1
  Y  Y20  1  0.06997542  0.36484679  0.17473967  1
  Y  Y21  1  0.06997542  0.13515321  0.32526033  1
  Y  Y22  1  0.36484679  0.43002458  0.67473967  1
  Y  Y23  1  0.13515321  0.06997542  0.67473967  1
  Y  Y24  1  0.56997542  0.63515321  0.67473967  1
  Y  Y25  1  0.86484679  0.56997542  0.17473967  1
  Y  Y26  1  0.63515321  0.93002458  0.17473967  1
  Y  Y27  1  0.56997542  0.86484679  0.82526033  1
  Y  Y28  1  0.93002458  0.63515321  0.82526033  1
  Y  Y29  1  0.93002458  0.86484679  0.67473967  1
  Y  Y30  1  0.63515321  0.56997542  0.32526033  1
  Y  Y31  1  0.86484679  0.93002458  0.32526033  1
  Ru  Ru32  1  0.64583117  0.35416883  0.32036439  1
  Ru  Ru33  1  0.14583117  0.64583117  0.82036439  1
  Ru  Ru34  1  0.35416883  0.85416883  0.82036439  1
  Ru  Ru35  1  0.64583117  0.14583117  0.17963561  1
  Ru  Ru36  1  0.85416883  0.35416883  0.17963561  1
  Ru  Ru37  1  0.85416883  0.14583117  0.32036439  1
  Ru  Ru38  1  0.35416883  0.64583117  0.67963561  1
  Ru  Ru39  1  0.14583117  0.85416883  0.67963561  1
  I  I40  1  0.35558694  0.12250862  0.33864075  1
  I  I41  1  0.37749138  0.35558694  0.83864075  1
  I  I42  1  0.12250862  0.14441306  0.83864075  1
  I  I43  1  0.35558694  0.37749138  0.16135925  1
  I  I44  1  0.14441306  0.12250862  0.16135925  1
  I  I45  1  0.14441306  0.37749138  0.33864075  1
  I  I46  1  0.12250862  0.35558694  0.66135925  1
  I  I47  1  0.37749138  0.14441306  0.66135925  1
  I  I48  1  0.64441306  0.87749138  0.66135925  1
  I  I49  1  0.62250862  0.64441306  0.16135925  1
  I  I50  1  0.87749138  0.85558694  0.16135925  1
  I  I51  1  0.64441306  0.62250862  0.83864075  1
  I  I52  1  0.85558694  0.87749138  0.83864075  1
  I  I53  1  0.85558694  0.62250862  0.66135925  1
  I  I54  1  0.87749138  0.64441306  0.33864075  1
  I  I55  1  0.62250862  0.85558694  0.33864075  1
  I  I56  1  0.38800493  0.61199507  0.34048071  1
  I  I57  1  0.88800493  0.38800493  0.84048071  1
  I  I58  1  0.61199507  0.11199507  0.84048071  1
  I  I59  1  0.38800493  0.88800493  0.15951929  1
  I  I60  1  0.11199507  0.61199507  0.15951929  1
  I  I61  1  0.11199507  0.88800493  0.34048071  1
  I  I62  1  0.61199507  0.38800493  0.65951929  1
  I  I63  1  0.88800493  0.11199507  0.65951929  1
  I  I64  1  0.11971718  0.88028282  0.01094946  1
  I  I65  1  0.61971718  0.11971718  0.51094946  1
  I  I66  1  0.88028282  0.38028282  0.51094946  1
  I  I67  1  0.11971718  0.61971718  0.48905054  1
  I  I68  1  0.38028282  0.88028282  0.48905054  1
  I  I69  1  0.38028282  0.61971718  0.01094946  1
  I  I70  1  0.88028282  0.11971718  0.98905054  1
  I  I71  1  0.61971718  0.38028282  0.98905054  1
  I  I72  1  0.37988838  0.37988838  0.50000000  1
  I  I73  1  0.12011162  0.37988838  0.00000000  1
  I  I74  1  0.37988838  0.12011162  0.00000000  1
  I  I75  1  0.12011162  0.12011162  0.50000000  1
  I  I76  1  0.62011162  0.62011162  0.50000000  1
  I  I77  1  0.87988838  0.62011162  0.00000000  1
  I  I78  1  0.62011162  0.87988838  0.00000000  1
  I  I79  1  0.87988838  0.87988838  0.50000000  1
