# generated using pymatgen
data_KYF4
_symmetry_space_group_name_H-M   'P 1'
_cell_length_a   14.26417573
_cell_length_b   14.26417557
_cell_length_c   10.31399389
_cell_angle_alpha   90.00000000
_cell_angle_beta   90.00000000
_cell_angle_gamma   120.00000038
_symmetry_Int_Tables_number   1
_chemical_formula_structural   KYF4
_chemical_formula_sum   'K18 Y18 F72'
_cell_volume   1817.40139084
_cell_formula_units_Z   18
loop_
 _symmetry_equiv_pos_site_id
 _symmetry_equiv_pos_as_xyz
  1  'x, y, z'
loop_
 _atom_site_type_symbol
 _atom_site_label
 _atom_site_symmetry_multiplicity
 _atom_site_fract_x
 _atom_site_fract_y
 _atom_site_fract_z
 _atom_site_occupancy
  F  F0  1  0.13228673  0.93604864  0.11560466  1
  F  F1  1  0.06395136  0.19623808  0.44893800  1
  F  F2  1  0.80376192  0.86771327  0.78227133  1
  F  F3  1  0.06899980  0.87754623  0.54134644  1
  F  F4  1  0.12245377  0.19145357  0.87467977  1
  F  F5  1  0.80854643  0.93100020  0.20801310  1
  F  F6  1  0.21206025  0.59385775  0.46679946  1
  F  F7  1  0.40614225  0.61820251  0.80013280  1
  F  F8  1  0.38179749  0.78793975  0.13346613  1
  F  F9  1  0.33217521  0.72881882  0.65572535  1
  F  F10  1  0.27118118  0.60335639  0.98905868  1
  F  F11  1  0.39664361  0.66782479  0.32239201  1
  F  F12  1  0.73523470  0.20279772  0.55652698  1
  F  F13  1  0.79720228  0.53243697  0.88986031  1
  F  F14  1  0.46756303  0.26476530  0.22319364  1
  F  F15  1  0.78881712  0.26817779  0.13155909  1
  F  F16  1  0.73182221  0.52063932  0.46489243  1
  F  F17  1  0.47936068  0.21118288  0.79822576  1
  F  F18  1  0.99979578  0.06010914  0.66422018  1
  F  F19  1  0.93989086  0.93968665  0.99755352  1
  F  F20  1  0.06031335  0.00020422  0.33088685  1
  F  F21  1  0.04537260  0.12204839  0.14425168  1
  F  F22  1  0.87795161  0.92332421  0.47758501  1
  F  F23  1  0.07667579  0.95462740  0.81091835  1
  F  F24  1  0.39119247  0.53823581  0.53406271  1
  F  F25  1  0.46176419  0.85295666  0.86739605  1
  F  F26  1  0.14704334  0.60880753  0.20072938  1
  F  F27  1  0.45835625  0.59126787  0.10937051  1
  F  F28  1  0.40873213  0.86708838  0.44270384  1
  F  F29  1  0.13291162  0.54164375  0.77603717  1
  F  F30  1  0.54799875  0.29170297  0.53511066  1
  F  F31  1  0.70829703  0.25629578  0.86844400  1
  F  F32  1  0.74370422  0.45200125  0.20177733  1
  F  F33  1  0.60609017  0.34246635  0.00896154  1
  F  F34  1  0.65753365  0.26362382  0.34229488  1
  F  F35  1  0.73637618  0.39390983  0.67562821  1
  F  F36  1  0.76811497  0.72928047  0.06793627  1
  F  F37  1  0.27071953  0.03883450  0.40126961  1
  F  F38  1  0.96116550  0.23188503  0.73460294  1
  F  F39  1  0.80754032  0.72319338  0.57781813  1
  F  F40  1  0.27680662  0.08434694  0.91115146  1
  F  F41  1  0.91565306  0.19245968  0.24448480  1
  F  F42  1  0.24699061  0.22276765  0.60759065  1
  F  F43  1  0.77723235  0.02422296  0.94092399  1
  F  F44  1  0.97577704  0.75300939  0.27425732  1
  F  F45  1  0.80774543  0.07415981  0.43157532  1
  F  F46  1  0.92584019  0.73358562  0.76490865  1
  F  F47  1  0.26641438  0.19225457  0.09824199  1
  F  F48  1  0.12861057  0.39342153  0.57114370  1
  F  F49  1  0.60657847  0.73518904  0.90447703  1
  F  F50  1  0.26481096  0.87138943  0.23781037  1
  F  F51  1  0.09258485  0.40278051  0.06548259  1
  F  F52  1  0.59721949  0.68980434  0.39881592  1
  F  F53  1  0.31019566  0.90741515  0.73214925  1
  F  F54  1  0.15273376  0.75429682  0.42389195  1
  F  F55  1  0.24570318  0.39843694  0.75722529  1
  F  F56  1  0.60156306  0.84726624  0.09055862  1
  F  F57  1  0.58672089  0.88160768  0.60506111  1
  F  F58  1  0.11839232  0.70511321  0.93839444  1
  F  F59  1  0.29488679  0.41327911  0.27172777  1
  F  F60  1  0.93857010  0.57569848  0.60027260  1
  F  F61  1  0.42430152  0.36287162  0.93360593  1
  F  F62  1  0.63712838  0.06142990  0.26693927  1
  F  F63  1  0.94304330  0.53299290  0.09195539  1
  F  F64  1  0.46700710  0.41005040  0.42528873  1
  F  F65  1  0.58994960  0.05695670  0.75862206  1
  F  F66  1  0.48178349  0.06868509  0.57223670  1
  F  F67  1  0.93131491  0.41309840  0.90557003  1
  F  F68  1  0.58690160  0.51821651  0.23890337  1
  F  F69  1  0.45431763  0.08841077  0.05975461  1
  F  F70  1  0.91158923  0.36590686  0.39308794  1
  F  F71  1  0.63409314  0.54568237  0.72642127  1
  K  K72  1  0.78191682  0.72075884  0.32290888  1
  K  K73  1  0.27924116  0.06115798  0.65624221  1
  K  K74  1  0.93884202  0.21808318  0.98957555  1
  K  K75  1  0.26711501  0.22079589  0.35054172  1
  K  K76  1  0.77920411  0.04631912  0.68387505  1
  K  K77  1  0.95368088  0.73288499  0.01720839  1
  K  K78  1  0.10274492  0.39377824  0.31895354  1
  K  K79  1  0.60622176  0.70896668  0.65228687  1
  K  K80  1  0.29103332  0.89725508  0.98562021  1
  K  K81  1  0.60822020  0.87616611  0.34751579  1
  K  K82  1  0.12383389  0.73205409  0.68084912  1
  K  K83  1  0.26794591  0.39177980  0.01418246  1
  K  K84  1  0.94756868  0.56306863  0.34592050  1
  K  K85  1  0.43693137  0.38450006  0.67925383  1
  K  K86  1  0.61549994  0.05243132  0.01258716  1
  K  K87  1  0.45607151  0.06557826  0.31679944  1
  K  K88  1  0.93442174  0.39049325  0.65013277  1
  K  K89  1  0.60950675  0.54392849  0.98346611  1
  Y  Y90  1  0.13097264  0.89037299  0.33220786  1
  Y  Y91  1  0.10962701  0.24059965  0.66554119  1
  Y  Y92  1  0.75940035  0.86902736  0.99887453  1
  Y  Y93  1  0.28263831  0.73187077  0.32066523  1
  Y  Y94  1  0.26812923  0.55076754  0.65399857  1
  Y  Y95  1  0.44923246  0.71736169  0.98733190  1
  Y  Y96  1  0.77891928  0.20590744  0.34055434  1
  Y  Y97  1  0.79409256  0.57301184  0.67388767  1
  Y  Y98  1  0.42698816  0.22108072  0.00722101  1
  Y  Y99  1  0.94181533  0.05869021  0.32780367  1
  Y  Y100  1  0.94130979  0.88312512  0.66113700  1
  Y  Y101  1  0.11687488  0.05818467  0.99447034  1
  Y  Y102  1  0.45401286  0.54642943  0.32571040  1
  Y  Y103  1  0.45357057  0.90758343  0.65904374  1
  Y  Y104  1  0.09241657  0.54598714  0.99237707  1
  Y  Y105  1  0.60470497  0.38718952  0.34628034  1
  Y  Y106  1  0.61281048  0.21751545  0.67961367  1
  Y  Y107  1  0.78248455  0.39529503  0.01294700  1
