# generated using pymatgen
data_Ba9(AuO6)2
_symmetry_space_group_name_H-M   'P 1'
_cell_length_a   7.23924361
_cell_length_b   14.40459643
_cell_length_c   17.49547596
_cell_angle_alpha   90.00000000
_cell_angle_beta   90.00000000
_cell_angle_gamma   90.00000000
_symmetry_Int_Tables_number   1
_chemical_formula_structural   Ba9(AuO6)2
_chemical_formula_sum   'Ba36 Au8 O48'
_cell_volume   1824.39993698
_cell_formula_units_Z   4
loop_
 _symmetry_equiv_pos_site_id
 _symmetry_equiv_pos_as_xyz
  1  'x, y, z'
loop_
 _atom_site_type_symbol
 _atom_site_label
 _atom_site_symmetry_multiplicity
 _atom_site_fract_x
 _atom_site_fract_y
 _atom_site_fract_z
 _atom_site_occupancy
  O  O0  1  0.99615567  0.04800461  0.65254926  1
  O  O1  1  0.49615567  0.45199539  0.84745074  1
  O  O2  1  0.50384433  0.54800461  0.34745074  1
  O  O3  1  0.00384433  0.95199539  0.15254926  1
  O  O4  1  0.00384433  0.95199539  0.34745074  1
  O  O5  1  0.50384433  0.54800461  0.15254926  1
  O  O6  1  0.49615567  0.45199539  0.65254926  1
  O  O7  1  0.99615567  0.04800461  0.84745074  1
  O  O8  1  0.29579350  0.72783663  0.75000000  1
  O  O9  1  0.79579350  0.77216337  0.75000000  1
  O  O10  1  0.20420650  0.22783663  0.25000000  1
  O  O11  1  0.70420650  0.27216337  0.25000000  1
  O  O12  1  0.33680545  0.67617569  0.51988397  1
  O  O13  1  0.83680545  0.82382431  0.98011603  1
  O  O14  1  0.16319455  0.17617569  0.48011603  1
  O  O15  1  0.66319455  0.32382431  0.01988397  1
  O  O16  1  0.66319455  0.32382431  0.48011603  1
  O  O17  1  0.16319455  0.17617569  0.01988397  1
  O  O18  1  0.83680545  0.82382431  0.51988397  1
  O  O19  1  0.33680545  0.67617569  0.98011603  1
  O  O20  1  0.17742013  0.87684397  0.59475065  1
  O  O21  1  0.67742013  0.62315603  0.90524935  1
  O  O22  1  0.32257987  0.37684397  0.40524935  1
  O  O23  1  0.82257987  0.12315603  0.09475065  1
  O  O24  1  0.82257987  0.12315603  0.40524935  1
  O  O25  1  0.32257987  0.37684397  0.09475065  1
  O  O26  1  0.67742013  0.62315603  0.59475065  1
  O  O27  1  0.17742013  0.87684397  0.90524935  1
  O  O28  1  0.98813959  0.30029602  0.84526860  1
  O  O29  1  0.48813959  0.19970398  0.65473140  1
  O  O30  1  0.51186041  0.80029602  0.15473140  1
  O  O31  1  0.01186041  0.69970398  0.34526860  1
  O  O32  1  0.01186041  0.69970398  0.15473140  1
  O  O33  1  0.51186041  0.80029602  0.34526860  1
  O  O34  1  0.48813959  0.19970398  0.84526860  1
  O  O35  1  0.98813959  0.30029602  0.65473140  1
  O  O36  1  0.66263675  0.99181329  0.57465258  1
  O  O37  1  0.16263675  0.50818671  0.92534742  1
  O  O38  1  0.83736325  0.49181329  0.42534742  1
  O  O39  1  0.33736325  0.00818671  0.07465258  1
  O  O40  1  0.33736325  0.00818671  0.42534742  1
  O  O41  1  0.83736325  0.49181329  0.07465258  1
  O  O42  1  0.16263675  0.50818671  0.57465258  1
  O  O43  1  0.66263675  0.99181329  0.92534742  1
  O  O44  1  0.44307375  0.94619419  0.75000000  1
  O  O45  1  0.94307375  0.55380581  0.75000000  1
  O  O46  1  0.05692625  0.44619419  0.25000000  1
  O  O47  1  0.55692625  0.05380581  0.25000000  1
  Ba  Ba48  1  0.18288519  0.82203587  0.44326343  1
  Ba  Ba49  1  0.68288519  0.67796413  0.05673657  1
  Ba  Ba50  1  0.31711481  0.32203587  0.55673657  1
  Ba  Ba51  1  0.81711481  0.17796413  0.94326343  1
  Ba  Ba52  1  0.81711481  0.17796413  0.55673657  1
  Ba  Ba53  1  0.31711481  0.32203587  0.94326343  1
  Ba  Ba54  1  0.68288519  0.67796413  0.44326343  1
  Ba  Ba55  1  0.18288519  0.82203587  0.05673657  1
  Ba  Ba56  1  0.15620498  0.18228028  0.75000000  1
  Ba  Ba57  1  0.65620498  0.31771972  0.75000000  1
  Ba  Ba58  1  0.34379502  0.68228028  0.25000000  1
  Ba  Ba59  1  0.84379502  0.81771972  0.25000000  1
  Ba  Ba60  1  0.17262993  0.43650648  0.75000000  1
  Ba  Ba61  1  0.67262993  0.06349352  0.75000000  1
  Ba  Ba62  1  0.32737007  0.93650648  0.25000000  1
  Ba  Ba63  1  0.82737007  0.56349352  0.25000000  1
  Ba  Ba64  1  0.33124803  0.05121342  0.57936917  1
  Ba  Ba65  1  0.83124803  0.44878658  0.92063083  1
  Ba  Ba66  1  0.16875197  0.55121342  0.42063083  1
  Ba  Ba67  1  0.66875197  0.94878658  0.07936917  1
  Ba  Ba68  1  0.66875197  0.94878658  0.42063083  1
  Ba  Ba69  1  0.16875197  0.55121342  0.07936917  1
  Ba  Ba70  1  0.83124803  0.44878658  0.57936917  1
  Ba  Ba71  1  0.33124803  0.05121342  0.92063083  1
  Ba  Ba72  1  0.89213409  0.09951271  0.25000000  1
  Ba  Ba73  1  0.39213409  0.40048729  0.25000000  1
  Ba  Ba74  1  0.60786591  0.59951271  0.75000000  1
  Ba  Ba75  1  0.10786591  0.90048729  0.75000000  1
  Ba  Ba76  1  0.46795618  0.18689159  0.35802965  1
  Ba  Ba77  1  0.96795618  0.31310841  0.14197035  1
  Ba  Ba78  1  0.03204382  0.68689159  0.64197035  1
  Ba  Ba79  1  0.53204382  0.81310841  0.85802965  1
  Ba  Ba80  1  0.53204382  0.81310841  0.64197035  1
  Ba  Ba81  1  0.03204382  0.68689159  0.85802965  1
  Ba  Ba82  1  0.96795618  0.31310841  0.35802965  1
  Ba  Ba83  1  0.46795618  0.18689159  0.14197035  1
  Au  Au84  1  0.08058997  0.06416437  0.41619910  1
  Au  Au85  1  0.58058997  0.43583563  0.08380090  1
  Au  Au86  1  0.41941003  0.56416437  0.58380090  1
  Au  Au87  1  0.91941003  0.93583563  0.91619910  1
  Au  Au88  1  0.91941003  0.93583563  0.58380090  1
  Au  Au89  1  0.41941003  0.56416437  0.91619910  1
  Au  Au90  1  0.58058997  0.43583563  0.41619910  1
  Au  Au91  1  0.08058997  0.06416437  0.08380090  1
