# generated using pymatgen
data_BaNd2O4
_symmetry_space_group_name_H-M   'P 1'
_cell_length_a   3.63368531
_cell_length_b   10.74319049
_cell_length_c   12.60408988
_cell_angle_alpha   90.00000000
_cell_angle_beta   90.00000000
_cell_angle_gamma   90.00000000
_symmetry_Int_Tables_number   1
_chemical_formula_structural   BaNd2O4
_chemical_formula_sum   'Ba4 Nd8 O16'
_cell_volume   492.03056385
_cell_formula_units_Z   4
loop_
 _symmetry_equiv_pos_site_id
 _symmetry_equiv_pos_as_xyz
  1  'x, y, z'
loop_
 _atom_site_type_symbol
 _atom_site_label
 _atom_site_symmetry_multiplicity
 _atom_site_fract_x
 _atom_site_fract_y
 _atom_site_fract_z
 _atom_site_occupancy
  O  O0  1  0.25000000  0.92895108  0.07614522  1
  O  O1  1  0.75000000  0.07104892  0.92385478  1
  O  O2  1  0.25000000  0.42895108  0.42385478  1
  O  O3  1  0.75000000  0.57104892  0.57614522  1
  O  O4  1  0.25000000  0.01530664  0.71720513  1
  O  O5  1  0.75000000  0.98469336  0.28279487  1
  O  O6  1  0.25000000  0.51530664  0.78279487  1
  O  O7  1  0.75000000  0.48469336  0.21720513  1
  O  O8  1  0.25000000  0.62155967  0.01872426  1
  O  O9  1  0.75000000  0.37844033  0.98127574  1
  O  O10  1  0.25000000  0.12155967  0.48127574  1
  O  O11  1  0.75000000  0.87844033  0.51872426  1
  O  O12  1  0.75000000  0.78857280  0.83062053  1
  O  O13  1  0.25000000  0.21142720  0.16937947  1
  O  O14  1  0.75000000  0.28857280  0.66937947  1
  O  O15  1  0.25000000  0.71142720  0.33062053  1
  Ba  Ba16  1  0.75000000  0.24839747  0.35295844  1
  Ba  Ba17  1  0.25000000  0.75160253  0.64704156  1
  Ba  Ba18  1  0.75000000  0.74839747  0.14704156  1
  Ba  Ba19  1  0.25000000  0.25160253  0.85295844  1
  Nd  Nd20  1  0.25000000  0.92409763  0.38782422  1
  Nd  Nd21  1  0.75000000  0.07590237  0.61217578  1
  Nd  Nd22  1  0.25000000  0.42409763  0.11217578  1
  Nd  Nd23  1  0.75000000  0.57590237  0.88782422  1
  Nd  Nd24  1  0.75000000  0.57892277  0.38860958  1
  Nd  Nd25  1  0.25000000  0.42107723  0.61139042  1
  Nd  Nd26  1  0.75000000  0.07892277  0.11139042  1
  Nd  Nd27  1  0.25000000  0.92107723  0.88860958  1
