# generated using pymatgen
data_Na4Cu2S3
_symmetry_space_group_name_H-M   'P 1'
_cell_length_a   9.52121838
_cell_length_b   9.52121837
_cell_length_c   19.47401488
_cell_angle_alpha   104.14989501
_cell_angle_beta   104.14989503
_cell_angle_gamma   90.00000365
_symmetry_Int_Tables_number   1
_chemical_formula_structural   Na4Cu2S3
_chemical_formula_sum   'Na32 Cu16 S24'
_cell_volume   1656.53292068
_cell_formula_units_Z   8
loop_
 _symmetry_equiv_pos_site_id
 _symmetry_equiv_pos_as_xyz
  1  'x, y, z'
loop_
 _atom_site_type_symbol
 _atom_site_label
 _atom_site_symmetry_multiplicity
 _atom_site_fract_x
 _atom_site_fract_y
 _atom_site_fract_z
 _atom_site_occupancy
  Na  Na0  1  0.87500000  0.12500000  0.25000000  1
  Na  Na1  1  0.12500000  0.87500000  0.75000000  1
  Na  Na2  1  0.37500000  0.62500000  0.25000000  1
  Na  Na3  1  0.62500000  0.37500000  0.75000000  1
  Na  Na4  1  0.78307468  0.03307468  0.06614936  1
  Na  Na5  1  0.03307468  0.78307468  0.56614936  1
  Na  Na6  1  0.21692532  0.96692532  0.93385064  1
  Na  Na7  1  0.96692532  0.21692532  0.43385064  1
  Na  Na8  1  0.36689356  0.11689356  0.23378712  1
  Na  Na9  1  0.11689356  0.36689356  0.73378712  1
  Na  Na10  1  0.63310644  0.88310644  0.76621288  1
  Na  Na11  1  0.88310644  0.63310644  0.26621288  1
  Na  Na12  1  0.78812893  0.53812893  0.07625787  1
  Na  Na13  1  0.53812893  0.78812893  0.57625787  1
  Na  Na14  1  0.21187107  0.46187107  0.92374213  1
  Na  Na15  1  0.46187107  0.21187107  0.42374213  1
  Na  Na16  1  0.08402773  0.29264431  0.07829560  1
  Na  Na17  1  0.78565130  0.08402773  0.57829560  1
  Na  Na18  1  0.29264431  0.49426787  0.57829560  1
  Na  Na19  1  0.49426787  0.78565130  0.07829560  1
  Na  Na20  1  0.91597227  0.70735569  0.92170440  1
  Na  Na21  1  0.21434870  0.91597227  0.42170440  1
  Na  Na22  1  0.70735569  0.50573213  0.42170440  1
  Na  Na23  1  0.50573213  0.21434870  0.92170440  1
  Na  Na24  1  0.62397644  0.36916668  0.23640719  1
  Na  Na25  1  0.86724051  0.62397644  0.73640719  1
  Na  Na26  1  0.36916668  0.11243076  0.73640719  1
  Na  Na27  1  0.11243076  0.86724051  0.23640719  1
  Na  Na28  1  0.37602356  0.63083332  0.76359281  1
  Na  Na29  1  0.13275949  0.37602356  0.26359281  1
  Na  Na30  1  0.63083332  0.88756924  0.26359281  1
  Na  Na31  1  0.88756924  0.13275949  0.76359281  1
  S  S32  1  0.30977989  0.26282599  0.01091026  1
  S  S33  1  0.74808427  0.30977989  0.51091026  1
  S  S34  1  0.26282599  0.20113037  0.51091026  1
  S  S35  1  0.20113037  0.74808427  0.01091026  1
  S  S36  1  0.69022011  0.73717401  0.98908974  1
  S  S37  1  0.25191573  0.69022011  0.48908974  1
  S  S38  1  0.73717401  0.79886963  0.48908974  1
  S  S39  1  0.79886963  0.25191573  0.98908974  1
  S  S40  1  0.59617244  0.06931797  0.16525208  1
  S  S41  1  0.09593411  0.59617244  0.66525208  1
  S  S42  1  0.06931797  0.06907964  0.66525208  1
  S  S43  1  0.06907964  0.09593411  0.16525208  1
  S  S44  1  0.40382756  0.93068203  0.83474792  1
  S  S45  1  0.90406589  0.40382756  0.33474792  1
  S  S46  1  0.93068203  0.93092036  0.33474792  1
  S  S47  1  0.93092036  0.90406589  0.83474792  1
  S  S48  1  0.07388947  0.56928026  0.17217984  1
  S  S49  1  0.60289958  0.07388947  0.67217984  1
  S  S50  1  0.56928026  0.59829037  0.67217984  1
  S  S51  1  0.59829037  0.60289958  0.17217984  1
  S  S52  1  0.92611053  0.43071974  0.82782016  1
  S  S53  1  0.39710042  0.92611053  0.32782016  1
  S  S54  1  0.43071974  0.40170963  0.32782016  1
  S  S55  1  0.40170963  0.39710042  0.82782016  1
  Cu  Cu56  1  0.44725919  0.43949641  0.09189205  1
  Cu  Cu57  1  0.65239564  0.44725919  0.59189205  1
  Cu  Cu58  1  0.43949641  0.14463286  0.59189205  1
  Cu  Cu59  1  0.14463286  0.65239564  0.09189205  1
  Cu  Cu60  1  0.55274081  0.56050359  0.90810795  1
  Cu  Cu61  1  0.34760436  0.55274081  0.40810795  1
  Cu  Cu62  1  0.56050359  0.85536714  0.40810795  1
  Cu  Cu63  1  0.85536714  0.34760436  0.90810795  1
  Cu  Cu64  1  0.45048148  0.16174623  0.08760908  1
  Cu  Cu65  1  0.92586285  0.45048148  0.58760908  1
  Cu  Cu66  1  0.16174623  0.13712760  0.58760908  1
  Cu  Cu67  1  0.13712760  0.92586285  0.08760908  1
  Cu  Cu68  1  0.54951852  0.83825377  0.91239092  1
  Cu  Cu69  1  0.07413715  0.54951852  0.41239092  1
  Cu  Cu70  1  0.83825377  0.86287240  0.41239092  1
  Cu  Cu71  1  0.86287240  0.07413715  0.91239092  1
