# generated using pymatgen
data_KI3F16
_symmetry_space_group_name_H-M   'P 1'
_cell_length_a   14.02255660
_cell_length_b   14.00626920
_cell_length_c   14.17130941
_cell_angle_alpha   90.00000000
_cell_angle_beta   90.00000000
_cell_angle_gamma   90.07285753
_symmetry_Int_Tables_number   1
_chemical_formula_structural   KI3F16
_chemical_formula_sum   'K8 I24 F128'
_cell_volume   2783.29538927
_cell_formula_units_Z   8
loop_
 _symmetry_equiv_pos_site_id
 _symmetry_equiv_pos_as_xyz
  1  'x, y, z'
loop_
 _atom_site_type_symbol
 _atom_site_label
 _atom_site_symmetry_multiplicity
 _atom_site_fract_x
 _atom_site_fract_y
 _atom_site_fract_z
 _atom_site_occupancy
  F  F0  1  0.59878424  0.54576459  0.37223450  1
  F  F1  1  0.40121576  0.95423541  0.87223450  1
  F  F2  1  0.40121576  0.45423541  0.62776550  1
  F  F3  1  0.59878424  0.04576459  0.12776550  1
  F  F4  1  0.57431682  0.54312993  0.18378408  1
  F  F5  1  0.42568318  0.95687007  0.68378408  1
  F  F6  1  0.42568318  0.45687007  0.81621592  1
  F  F7  1  0.57431682  0.04312993  0.31621592  1
  F  F8  1  0.38675935  0.50077121  0.20532728  1
  F  F9  1  0.61324065  0.99922879  0.70532728  1
  F  F10  1  0.61324065  0.49922879  0.79467272  1
  F  F11  1  0.38675935  0.00077121  0.29467272  1
  F  F12  1  0.40763462  0.50405998  0.39635733  1
  F  F13  1  0.59236538  0.99594002  0.89635733  1
  F  F14  1  0.59236538  0.49594002  0.60364267  1
  F  F15  1  0.40763462  0.00405998  0.10364267  1
  F  F16  1  0.51433827  0.41268878  0.28747753  1
  F  F17  1  0.48566173  0.08731122  0.78747753  1
  F  F18  1  0.48566173  0.58731122  0.71252247  1
  F  F19  1  0.51433827  0.91268878  0.21252247  1
  F  F20  1  0.44341488  0.60692136  0.01318687  1
  F  F21  1  0.55658512  0.89307864  0.51318687  1
  F  F22  1  0.55658512  0.39307864  0.98681313  1
  F  F23  1  0.44341488  0.10692136  0.48681313  1
  F  F24  1  0.41987757  0.79727490  0.03144397  1
  F  F25  1  0.58012243  0.70272510  0.53144397  1
  F  F26  1  0.58012243  0.20272510  0.96855603  1
  F  F27  1  0.41987757  0.29727490  0.46855603  1
  F  F28  1  0.61116277  0.82388858  0.03148657  1
  F  F29  1  0.38883723  0.67611142  0.53148657  1
  F  F30  1  0.38883723  0.17611142  0.96851343  1
  F  F31  1  0.61116277  0.32388858  0.46851343  1
  F  F32  1  0.63599641  0.62951059  0.01333269  1
  F  F33  1  0.36400359  0.87048941  0.51333269  1
  F  F34  1  0.36400359  0.37048941  0.98666731  1
  F  F35  1  0.63599641  0.12951059  0.48666731  1
  F  F36  1  0.52651108  0.72550001  0.91040561  1
  F  F37  1  0.47348892  0.77449999  0.41040561  1
  F  F38  1  0.47348892  0.27449999  0.08959439  1
  F  F39  1  0.52651108  0.22550001  0.58959439  1
  F  F40  1  0.26388028  0.68533147  0.12483714  1
  F  F41  1  0.73611972  0.81466853  0.62483714  1
  F  F42  1  0.73611972  0.31466853  0.87516286  1
  F  F43  1  0.26388028  0.18533147  0.37516286  1
  F  F44  1  0.28546775  0.65793288  0.31280149  1
  F  F45  1  0.71453225  0.84206712  0.81280149  1
  F  F46  1  0.71453225  0.34206712  0.68719851  1
  F  F47  1  0.28546775  0.15793288  0.18719851  1
  F  F48  1  0.26092491  0.84461642  0.34412631  1
  F  F49  1  0.73907509  0.65538358  0.84412631  1
  F  F50  1  0.73907509  0.15538358  0.65587369  1
  F  F51  1  0.26092491  0.34461642  0.15587369  1
  F  F52  1  0.24068723  0.87517902  0.15219906  1
  F  F53  1  0.75931277  0.62482098  0.65219906  1
  F  F54  1  0.75931277  0.12482098  0.84780094  1
  F  F55  1  0.24068723  0.37517902  0.34780094  1
  F  F56  1  0.15166084  0.75077032  0.24210552  1
  F  F57  1  0.84833916  0.74922968  0.74210552  1
  F  F58  1  0.84833916  0.24922968  0.75789448  1
  F  F59  1  0.15166084  0.25077032  0.25789448  1
  F  F60  1  0.25532984  0.62998641  0.69443004  1
  F  F61  1  0.74467016  0.87001359  0.19443004  1
  F  F62  1  0.74467016  0.37001359  0.30556996  1
  F  F63  1  0.25532984  0.12998641  0.80556996  1
  F  F64  1  0.21007794  0.81886027  0.68950628  1
  F  F65  1  0.78992206  0.68113973  0.18950628  1
  F  F66  1  0.78992206  0.18113973  0.31049372  1
  F  F67  1  0.21007794  0.31886027  0.81049372  1
  F  F68  1  0.21297931  0.82494290  0.88037275  1
  F  F69  1  0.78702069  0.67505710  0.38037275  1
  F  F70  1  0.78702069  0.17505710  0.11962725  1
  F  F71  1  0.21297931  0.32494290  0.61962725  1
  F  F72  1  0.25937503  0.63470839  0.88516510  1
  F  F73  1  0.74062497  0.86529161  0.38516510  1
  F  F74  1  0.74062497  0.36529161  0.11483490  1
  F  F75  1  0.25937503  0.13470839  0.61483490  1
  F  F76  1  0.34422738  0.75376638  0.78307190  1
  F  F77  1  0.65577262  0.74623362  0.28307190  1
  F  F78  1  0.65577262  0.24623362  0.21692810  1
  F  F79  1  0.34422738  0.25376638  0.71692810  1
  F  F80  1  0.88814180  0.50983789  0.80753850  1
  F  F81  1  0.11185820  0.99016211  0.30753850  1
  F  F82  1  0.11185820  0.49016211  0.19246150  1
  F  F83  1  0.88814180  0.00983789  0.69246150  1
  F  F84  1  0.07898516  0.53806059  0.81346634  1
  F  F85  1  0.92101484  0.96193941  0.31346634  1
  F  F86  1  0.92101484  0.46193941  0.18653366  1
  F  F87  1  0.07898516  0.03806059  0.68653366  1
  F  F88  1  0.09130503  0.50115747  0.62537178  1
  F  F89  1  0.90869497  0.99884253  0.12537178  1
  F  F90  1  0.90869497  0.49884253  0.37462822  1
  F  F91  1  0.09130503  0.00115747  0.87462822  1
  F  F92  1  0.90168587  0.47013776  0.61736504  1
  F  F93  1  0.09831413  0.02986224  0.11736504  1
  F  F94  1  0.09831413  0.52986224  0.38263496  1
  F  F95  1  0.90168587  0.97013776  0.88263496  1
  F  F96  1  0.00688201  0.39591188  0.73928448  1
  F  F97  1  0.99311799  0.10408812  0.23928448  1
  F  F98  1  0.99311799  0.60408812  0.26071552  1
  F  F99  1  0.00688201  0.89591188  0.76071552  1
  F  F100  1  0.95631590  0.66269344  0.53411542  1
  F  F101  1  0.04368410  0.83730656  0.03411542  1
  F  F102  1  0.04368410  0.33730656  0.46588458  1
  F  F103  1  0.95631590  0.16269344  0.96588458  1
  F  F104  1  0.14524970  0.70161412  0.51027536  1
  F  F105  1  0.85475030  0.79838588  0.01027536  1
  F  F106  1  0.85475030  0.29838588  0.48972464  1
  F  F107  1  0.14524970  0.20161412  0.98972464  1
  F  F108  1  0.10710056  0.89256007  0.51266006  1
  F  F109  1  0.89289944  0.60743993  0.01266006  1
  F  F110  1  0.89289944  0.10743993  0.48733994  1
  F  F111  1  0.10710056  0.39256007  0.98733994  1
  F  F112  1  0.91687951  0.85180935  0.53583532  1
  F  F113  1  0.08312049  0.64819065  0.03583532  1
  F  F114  1  0.08312049  0.14819065  0.46416468  1
  F  F115  1  0.91687951  0.35180935  0.96416468  1
  F  F116  1  0.01732159  0.77463914  0.41200469  1
  F  F117  1  0.98267841  0.72536086  0.91200469  1
  F  F118  1  0.98267841  0.22536086  0.58799531  1
  F  F119  1  0.01732159  0.27463914  0.08799531  1
  F  F120  1  0.44739707  0.69503955  0.20299656  1
  F  F121  1  0.55260293  0.80496045  0.70299656  1
  F  F122  1  0.55260293  0.30496045  0.79700344  1
  F  F123  1  0.44739707  0.19503955  0.29700344  1
  F  F124  1  0.05925902  0.68974110  0.69533803  1
  F  F125  1  0.94074098  0.81025890  0.19533803  1
  F  F126  1  0.94074098  0.31025890  0.30466197  1
  F  F127  1  0.05925902  0.18974110  0.80466197  1
  K  K128  1  0.75307184  0.98594595  0.54066961  1
  K  K129  1  0.24692816  0.51405405  0.04066961  1
  K  K130  1  0.24692816  0.01405405  0.45933039  1
  K  K131  1  0.75307184  0.48594595  0.95933039  1
  K  K132  1  0.74883755  0.98131717  0.01354687  1
  K  K133  1  0.25116245  0.51868283  0.51354687  1
  K  K134  1  0.25116245  0.01868283  0.98645313  1
  K  K135  1  0.74883755  0.48131717  0.48645313  1
  I  I136  1  0.48729576  0.54383045  0.28912510  1
  I  I137  1  0.51270424  0.95616955  0.78912510  1
  I  I138  1  0.51270424  0.45616955  0.71087490  1
  I  I139  1  0.48729576  0.04383045  0.21087490  1
  I  I140  1  0.52725115  0.71230037  0.04253742  1
  I  I141  1  0.47274885  0.78769963  0.54253742  1
  I  I142  1  0.47274885  0.28769963  0.95746258  1
  I  I143  1  0.52725115  0.21230037  0.45746258  1
  I  I144  1  0.28363879  0.76888693  0.23154192  1
  I  I145  1  0.71636121  0.73111307  0.73154192  1
  I  I146  1  0.71636121  0.23111307  0.76845808  1
  I  I147  1  0.28363879  0.26888693  0.26845808  1
  I  I148  1  0.21425304  0.72249242  0.78722193  1
  I  I149  1  0.78574696  0.77750758  0.28722193  1
  I  I150  1  0.78574696  0.27750758  0.21277807  1
  I  I151  1  0.21425304  0.22249242  0.71277807  1
  I  I152  1  0.98742209  0.52564636  0.71186247  1
  I  I153  1  0.01257791  0.97435364  0.21186247  1
  I  I154  1  0.01257791  0.47435364  0.28813753  1
  I  I155  1  0.98742209  0.02564636  0.78813753  1
  I  I156  1  0.03426957  0.77659242  0.54334781  1
  I  I157  1  0.96573043  0.72340758  0.04334781  1
  I  I158  1  0.96573043  0.22340758  0.45665219  1
  I  I159  1  0.03426957  0.27659242  0.95665219  1
