# generated using pymatgen
data_CoNiP4(H8O5)4
_symmetry_space_group_name_H-M   'P 1'
_cell_length_a   10.52551470
_cell_length_b   10.52551470
_cell_length_c   12.65091509
_cell_angle_alpha   65.41781014
_cell_angle_beta   65.41781014
_cell_angle_gamma   90.00000000
_symmetry_Int_Tables_number   1
_chemical_formula_structural   CoNiP4(H8O5)4
_chemical_formula_sum   'Co2 Ni2 P8 H64 O40'
_cell_volume   1133.34292135
_cell_formula_units_Z   2
loop_
 _symmetry_equiv_pos_site_id
 _symmetry_equiv_pos_as_xyz
  1  'x, y, z'
loop_
 _atom_site_type_symbol
 _atom_site_label
 _atom_site_symmetry_multiplicity
 _atom_site_fract_x
 _atom_site_fract_y
 _atom_site_fract_z
 _atom_site_occupancy
  Co  Co0  1  0.87500000  0.12500000  0.25000000  1
  Co  Co1  1  0.37500000  0.62500000  0.25000000  1
  Ni  Ni2  1  0.12500000  0.87500000  0.75000000  1
  Ni  Ni3  1  0.62500000  0.37500000  0.75000000  1
  P  P4  1  0.75015566  0.48138588  -0.00022418  1
  P  P5  1  0.75006853  0.98138588  -0.00022418  1
  P  P6  1  0.48116169  0.74984434  0.50022418  1
  P  P7  1  0.51861412  0.24984434  0.50022418  1
  P  P8  1  0.25015566  0.51883831  -0.00022418  1
  P  P9  1  0.25006853  0.01883831  -0.00022418  1
  P  P10  1  0.98116169  0.74993147  0.50022418  1
  P  P11  1  0.01861412  0.24993147  0.50022418  1
  H  H12  1  0.59432901  0.04047355  0.30624144  1
  H  H13  1  0.59942955  0.54047355  0.30624144  1
  H  H14  1  0.03951307  0.59717267  0.80731175  1
  H  H15  1  0.65317518  0.09717267  0.80731175  1
  H  H16  1  0.40282733  0.96048693  0.69268825  1
  H  H17  1  0.40448442  0.46048693  0.69268825  1
  H  H18  1  0.95952645  0.40567099  0.19375856  1
  H  H19  1  0.34671499  0.90567099  0.19375856  1
  H  H20  1  0.09432901  0.65328501  0.30624144  1
  H  H21  1  0.09942955  0.15328501  0.30624144  1
  H  H22  1  0.53951307  0.59551558  0.80731175  1
  H  H23  1  0.15317518  0.09551558  0.80731175  1
  H  H24  1  0.90282733  0.34682482  0.69268825  1
  H  H25  1  0.90448442  0.84682482  0.69268825  1
  H  H26  1  0.45952645  0.40057045  0.19375856  1
  H  H27  1  0.84671499  0.90057045  0.19375856  1
  H  H28  1  0.64627920  0.20746370  0.19637385  1
  H  H29  1  0.65734695  0.70746370  0.19637385  1
  H  H30  1  0.20535628  0.65002493  0.69628194  1
  H  H31  1  0.59836178  0.15002493  0.69628194  1
  H  H32  1  0.34997507  0.79464372  0.80371806  1
  H  H33  1  0.34630686  0.29464372  0.80371806  1
  H  H34  1  0.79253630  0.35372080  0.30362615  1
  H  H35  1  0.40383755  0.85372080  0.30362615  1
  H  H36  1  0.14627920  0.59616245  0.19637385  1
  H  H37  1  0.15734695  0.09616245  0.19637385  1
  H  H38  1  0.70535628  0.65369314  0.69628194  1
  H  H39  1  0.09836178  0.15369314  0.69628194  1
  H  H40  1  0.84997507  0.40163822  0.80371806  1
  H  H41  1  0.84630686  0.90163822  0.80371806  1
  H  H42  1  0.29253630  0.34265305  0.30362615  1
  H  H43  1  0.90383755  0.84265305  0.30362615  1
  H  H44  1  0.71230344  0.60154968  0.92360592  1
  H  H45  1  0.86409064  0.10154968  0.92360592  1
  H  H46  1  0.60140715  0.71240260  0.42338820  1
  H  H47  1  0.47520465  0.21240260  0.42338820  1
  H  H48  1  0.28759740  0.39859285  0.07661180  1
  H  H49  1  0.13579080  0.89859285  0.07661180  1
  H  H50  1  0.39845032  0.28769656  0.57639408  1
  H  H51  1  0.52515560  0.78769656  0.57639408  1
  H  H52  1  0.21230344  0.47484440  0.92360592  1
  H  H53  1  0.36409064  0.97484440  0.92360592  1
  H  H54  1  0.10140715  0.86420920  0.42338820  1
  H  H55  1  0.97520465  0.36420920  0.42338820  1
  H  H56  1  0.78759740  0.52479535  0.07661180  1
  H  H57  1  0.63579080  0.02479535  0.07661180  1
  H  H58  1  0.89845032  0.13590936  0.57639408  1
  H  H59  1  0.02515560  0.63590936  0.57639408  1
  H  H60  1  0.94905696  0.30871425  0.99160283  1
  H  H61  1  0.55934021  0.80871425  0.99160283  1
  H  H62  1  0.30860189  0.94896690  0.49231450  1
  H  H63  1  0.69908362  0.44896690  0.49231450  1
  H  H64  1  0.05103310  0.69139811  0.00768550  1
  H  H65  1  0.44128140  0.19139811  0.00768550  1
  H  H66  1  0.69128575  0.05094304  0.50839717  1
  H  H67  1  0.30031708  0.55094304  0.50839717  1
  H  H68  1  0.44905696  0.69968292  0.99160283  1
  H  H69  1  0.05934021  0.19968292  0.99160283  1
  H  H70  1  0.80860189  0.55871860  0.49231450  1
  H  H71  1  0.19908362  0.05871860  0.49231450  1
  H  H72  1  0.55103310  0.30091638  0.00768550  1
  H  H73  1  0.94128140  0.80091638  0.00768550  1
  H  H74  1  0.19128575  0.44065979  0.50839717  1
  H  H75  1  0.80031708  0.94065979  0.50839717  1
  O  O76  1  0.88229865  0.45015316  0.90870291  1
  O  O77  1  0.70899844  0.95015316  0.90870291  1
  O  O78  1  0.45043663  0.88308347  0.40865045  1
  O  O79  1  0.64091292  0.38308347  0.40865045  1
  O  O80  1  0.11691653  0.54956337  0.09134955  1
  O  O81  1  0.29173391  0.04956337  0.09134955  1
  O  O82  1  0.54984684  0.11770135  0.59129709  1
  O  O83  1  0.35885607  0.61770135  0.59129709  1
  O  O84  1  0.38229865  0.64114393  0.90870291  1
  O  O85  1  0.20899844  0.14114393  0.90870291  1
  O  O86  1  0.95043663  0.70826609  0.40865045  1
  O  O87  1  0.14091292  0.20826609  0.40865045  1
  O  O88  1  0.61691653  0.35908708  0.09134955  1
  O  O89  1  0.79173391  0.85908708  0.09134955  1
  O  O90  1  0.04984684  0.29100156  0.59129709  1
  O  O91  1  0.85885607  0.79100156  0.59129709  1
  O  O92  1  0.97693539  0.22693539  0.04612922  1
  O  O93  1  0.47693539  0.72693539  0.04612922  1
  O  O94  1  0.22648937  0.97648937  0.54702126  1
  O  O95  1  0.72648937  0.47648937  0.54702126  1
  O  O96  1  0.02351063  0.77351063  0.95297874  1
  O  O97  1  0.52351063  0.27351063  0.95297874  1
  O  O98  1  0.77306461  0.02306461  0.45387078  1
  O  O99  1  0.27306461  0.52306461  0.45387078  1
  O  O100  1  0.67203424  0.12671808  0.25536396  1
  O  O101  1  0.57260180  0.62671808  0.25536396  1
  O  O102  1  0.12581411  0.67389782  0.75749141  1
  O  O103  1  0.61669448  0.17389782  0.75749141  1
  O  O104  1  0.32610218  0.87418589  0.74250859  1
  O  O105  1  0.43138922  0.37418589  0.74250859  1
  O  O106  1  0.87328192  0.32796576  0.24463604  1
  O  O107  1  0.38208205  0.82796576  0.24463604  1
  O  O108  1  0.17203424  0.61791795  0.25536396  1
  O  O109  1  0.07260180  0.11791795  0.25536396  1
  O  O110  1  0.62581411  0.56861078  0.75749141  1
  O  O111  1  0.11669448  0.06861078  0.75749141  1
  O  O112  1  0.82610218  0.38330552  0.74250859  1
  O  O113  1  0.93138922  0.88330552  0.74250859  1
  O  O114  1  0.37328192  0.42739820  0.24463604  1
  O  O115  1  0.88208205  0.92739820  0.24463604  1
