# generated using pymatgen
data_Na3B5S9
_symmetry_space_group_name_H-M   'P 1'
_cell_length_a   14.55125892
_cell_length_b   14.55125851
_cell_length_c   16.71574939
_cell_angle_alpha   115.80158058
_cell_angle_beta   115.80157980
_cell_angle_gamma   90.00000030
_symmetry_Int_Tables_number   1
_chemical_formula_structural   Na3B5S9
_chemical_formula_sum   'Na24 B40 S72'
_cell_volume   2789.39058824
_cell_formula_units_Z   8
loop_
 _symmetry_equiv_pos_site_id
 _symmetry_equiv_pos_as_xyz
  1  'x, y, z'
loop_
 _atom_site_type_symbol
 _atom_site_label
 _atom_site_symmetry_multiplicity
 _atom_site_fract_x
 _atom_site_fract_y
 _atom_site_fract_z
 _atom_site_occupancy
  B  B0  1  0.64943912  0.22409872  0.24981187  1
  B  B1  1  0.52571315  0.64943912  0.74981187  1
  B  B2  1  0.22409872  0.60037274  0.74981187  1
  B  B3  1  0.89962726  0.27590128  0.75018813  1
  B  B4  1  0.85056088  0.97428685  0.75018813  1
  B  B5  1  0.97428685  0.89962726  0.25018813  1
  B  B6  1  0.27590128  0.85056088  0.25018813  1
  B  B7  1  0.60037274  0.52571315  0.24981187  1
  B  B8  1  0.35056088  0.77590128  0.75018813  1
  B  B9  1  0.47428685  0.35056088  0.25018813  1
  B  B10  1  0.77590128  0.39962726  0.25018813  1
  B  B11  1  0.10037274  0.72409872  0.24981187  1
  B  B12  1  0.14943912  0.02571315  0.24981187  1
  B  B13  1  0.02571315  0.10037274  0.74981187  1
  B  B14  1  0.72409872  0.14943912  0.74981187  1
  B  B15  1  0.39962726  0.47428685  0.75018813  1
  B  B16  1  0.54039984  0.29039984  0.08079969  1
  B  B17  1  0.29039984  0.54039984  0.58079969  1
  B  B18  1  0.95960016  0.20960016  0.91920031  1
  B  B19  1  0.20960016  0.95960016  0.41920031  1
  B  B20  1  0.45960016  0.70960016  0.91920031  1
  B  B21  1  0.70960016  0.45960016  0.41920031  1
  B  B22  1  0.04039984  0.79039984  0.08079969  1
  B  B23  1  0.79039984  0.04039984  0.58079969  1
  B  B24  1  0.70985070  0.17033499  0.08379507  1
  B  B25  1  0.41346008  0.70985070  0.58379507  1
  B  B26  1  0.17033499  0.37394437  0.58379507  1
  B  B27  1  0.12605563  0.32966501  0.91620493  1
  B  B28  1  0.79014930  0.08653992  0.91620493  1
  B  B29  1  0.08653992  0.12605563  0.41620493  1
  B  B30  1  0.32966501  0.79014930  0.41620493  1
  B  B31  1  0.37394437  0.41346008  0.08379507  1
  B  B32  1  0.29014930  0.82966501  0.91620493  1
  B  B33  1  0.58653992  0.29014930  0.41620493  1
  B  B34  1  0.82966501  0.62605563  0.41620493  1
  B  B35  1  0.87394437  0.67033499  0.08379507  1
  B  B36  1  0.20985070  0.91346008  0.08379507  1
  B  B37  1  0.91346008  0.87394437  0.58379507  1
  B  B38  1  0.67033499  0.20985070  0.58379507  1
  B  B39  1  0.62605563  0.58653992  0.91620493  1
  Na  Na40  1  0.50000000  0.00000000  0.00000000  1
  Na  Na41  1  0.50000000  0.50000000  0.50000000  1
  Na  Na42  1  0.00000000  0.50000000  0.50000000  1
  Na  Na43  1  0.00000000  0.50000000  0.00000000  1
  Na  Na44  1  0.00000000  0.00000000  0.00000000  1
  Na  Na45  1  0.00000000  0.00000000  0.50000000  1
  Na  Na46  1  0.50000000  0.00000000  0.50000000  1
  Na  Na47  1  0.50000000  0.50000000  0.00000000  1
  Na  Na48  1  0.25000000  0.16327251  0.00000000  1
  Na  Na49  1  0.33672749  0.25000000  0.50000000  1
  Na  Na50  1  0.16327251  0.75000000  0.50000000  1
  Na  Na51  1  0.75000000  0.33672749  0.00000000  1
  Na  Na52  1  0.75000000  0.83672749  0.00000000  1
  Na  Na53  1  0.66327251  0.75000000  0.50000000  1
  Na  Na54  1  0.83672749  0.25000000  0.50000000  1
  Na  Na55  1  0.25000000  0.66327251  0.00000000  1
  Na  Na56  1  0.92107061  0.17107061  0.25000000  1
  Na  Na57  1  0.57892939  0.92107061  0.75000000  1
  Na  Na58  1  0.17107061  0.32892939  0.75000000  1
  Na  Na59  1  0.32892939  0.57892939  0.25000000  1
  Na  Na60  1  0.07892939  0.82892939  0.75000000  1
  Na  Na61  1  0.42107061  0.07892939  0.25000000  1
  Na  Na62  1  0.82892939  0.67107061  0.25000000  1
  Na  Na63  1  0.67107061  0.42107061  0.75000000  1
  S  S64  1  0.51665445  0.24175526  0.16331583  1
  S  S65  1  0.42156057  0.51665445  0.66331583  1
  S  S66  1  0.24175526  0.64666138  0.66331583  1
  S  S67  1  0.85333862  0.25824474  0.83668417  1
  S  S68  1  0.98334555  0.07843943  0.83668417  1
  S  S69  1  0.07843943  0.85333862  0.33668417  1
  S  S70  1  0.25824474  0.98334555  0.33668417  1
  S  S71  1  0.64666138  0.42156057  0.16331583  1
  S  S72  1  0.48334555  0.75824474  0.83668417  1
  S  S73  1  0.57843943  0.48334555  0.33668417  1
  S  S74  1  0.75824474  0.35333862  0.33668417  1
  S  S75  1  0.14666138  0.74175526  0.16331583  1
  S  S76  1  0.01665445  0.92156057  0.16331583  1
  S  S77  1  0.92156057  0.14666138  0.66331583  1
  S  S78  1  0.74175526  0.01665445  0.66331583  1
  S  S79  1  0.35333862  0.57843943  0.83668417  1
  S  S80  1  0.82173928  0.29787859  0.16639898  1
  S  S81  1  0.36852039  0.82173928  0.66639898  1
  S  S82  1  0.29787859  0.34465971  0.66639898  1
  S  S83  1  0.15534029  0.20212141  0.83360102  1
  S  S84  1  0.67826072  0.13147961  0.83360102  1
  S  S85  1  0.13147961  0.15534029  0.33360102  1
  S  S86  1  0.20212141  0.67826072  0.33360102  1
  S  S87  1  0.34465971  0.36852039  0.16639898  1
  S  S88  1  0.17826072  0.70212141  0.83360102  1
  S  S89  1  0.63147961  0.17826072  0.33360102  1
  S  S90  1  0.70212141  0.65534029  0.33360102  1
  S  S91  1  0.84465971  0.79787859  0.16639898  1
  S  S92  1  0.32173928  0.86852039  0.16639898  1
  S  S93  1  0.86852039  0.84465971  0.66639898  1
  S  S94  1  0.79787859  0.32173928  0.66639898  1
  S  S95  1  0.65534029  0.63147961  0.83360102  1
  S  S96  1  0.69551522  0.11844756  0.16855496  1
  S  S97  1  0.55010739  0.69551522  0.66855496  1
  S  S98  1  0.11844756  0.47303974  0.66855496  1
  S  S99  1  0.02696026  0.38155244  0.83144504  1
  S  S100  1  0.80448478  0.94989261  0.83144504  1
  S  S101  1  0.94989261  0.02696026  0.33144504  1
  S  S102  1  0.38155244  0.80448478  0.33144504  1
  S  S103  1  0.47303974  0.55010739  0.16855496  1
  S  S104  1  0.30448478  0.88155244  0.83144504  1
  S  S105  1  0.44989261  0.30448478  0.33144504  1
  S  S106  1  0.88155244  0.52696026  0.33144504  1
  S  S107  1  0.97303974  0.61844756  0.16855496  1
  S  S108  1  0.19551522  0.05010739  0.16855496  1
  S  S109  1  0.05010739  0.97303974  0.66855496  1
  S  S110  1  0.61844756  0.19551522  0.66855496  1
  S  S111  1  0.52696026  0.44989261  0.83144504  1
  S  S112  1  0.57983896  0.18491126  0.99457900  1
  S  S113  1  0.30966774  0.57983896  0.49457900  1
  S  S114  1  0.18491126  0.41474004  0.49457900  1
  S  S115  1  0.08525996  0.31508874  0.00542100  1
  S  S116  1  0.92016104  0.19033226  0.00542100  1
  S  S117  1  0.19033226  0.08525996  0.50542100  1
  S  S118  1  0.31508874  0.92016104  0.50542100  1
  S  S119  1  0.41474004  0.30966774  0.99457900  1
  S  S120  1  0.42016104  0.81508874  0.00542100  1
  S  S121  1  0.69033226  0.42016104  0.50542100  1
  S  S122  1  0.81508874  0.58525996  0.50542100  1
  S  S123  1  0.91474004  0.68491126  0.99457900  1
  S  S124  1  0.07983896  0.80966774  0.99457900  1
  S  S125  1  0.80966774  0.91474004  0.49457900  1
  S  S126  1  0.68491126  0.07983896  0.49457900  1
  S  S127  1  0.58525996  0.69033226  0.00542100  1
  S  S128  1  0.75000000  0.05408806  1.00000000  1
  S  S129  1  0.44591194  0.75000000  0.50000000  1
  S  S130  1  0.05408806  0.25000000  0.50000000  1
  S  S131  1  0.25000000  0.44591194  0.00000000  1
  S  S132  1  0.25000000  0.94591194  0.00000000  1
  S  S133  1  0.55408806  0.25000000  0.50000000  1
  S  S134  1  0.94591194  0.75000000  0.50000000  1
  S  S135  1  0.75000000  0.55408806  1.00000000  1
