# generated using pymatgen
data_Hg4Sb2I3
_symmetry_space_group_name_H-M   'P 1'
_cell_length_a   13.91073065
_cell_length_b   13.91073065
_cell_length_c   13.91073065
_cell_angle_alpha   90.00000000
_cell_angle_beta   90.00000000
_cell_angle_gamma   90.00000000
_symmetry_Int_Tables_number   1
_chemical_formula_structural   Hg4Sb2I3
_chemical_formula_sum   'Hg32 Sb16 I24'
_cell_volume   2691.84360952
_cell_formula_units_Z   8
loop_
 _symmetry_equiv_pos_site_id
 _symmetry_equiv_pos_as_xyz
  1  'x, y, z'
loop_
 _atom_site_type_symbol
 _atom_site_label
 _atom_site_symmetry_multiplicity
 _atom_site_fract_x
 _atom_site_fract_y
 _atom_site_fract_z
 _atom_site_occupancy
  Sb  Sb0  1  0.89247874  0.10752126  0.60752126  1
  Sb  Sb1  1  0.60752126  0.89247874  0.10752126  1
  Sb  Sb2  1  0.10752126  0.60752126  0.89247874  1
  Sb  Sb3  1  0.39247874  0.39247874  0.39247874  1
  Sb  Sb4  1  0.10752126  0.89247874  0.39247874  1
  Sb  Sb5  1  0.39247874  0.10752126  0.89247874  1
  Sb  Sb6  1  0.89247874  0.39247874  0.10752126  1
  Sb  Sb7  1  0.60752126  0.60752126  0.60752126  1
  Sb  Sb8  1  0.55885278  0.05885278  0.44114722  1
  Sb  Sb9  1  0.44114722  0.55885278  0.05885278  1
  Sb  Sb10  1  0.05885278  0.44114722  0.55885278  1
  Sb  Sb11  1  0.94114722  0.94114722  0.94114722  1
  Sb  Sb12  1  0.44114722  0.94114722  0.55885278  1
  Sb  Sb13  1  0.55885278  0.44114722  0.94114722  1
  Sb  Sb14  1  0.94114722  0.55885278  0.44114722  1
  Sb  Sb15  1  0.05885278  0.05885278  0.05885278  1
  I  I16  1  0.23740425  0.18432383  0.56793670  1
  I  I17  1  0.56793670  0.23740425  0.18432383  1
  I  I18  1  0.18432383  0.56793670  0.23740425  1
  I  I19  1  0.31567617  0.43206330  0.73740425  1
  I  I20  1  0.06793670  0.26259575  0.81567617  1
  I  I21  1  0.81567617  0.06793670  0.26259575  1
  I  I22  1  0.93206330  0.76259575  0.68432383  1
  I  I23  1  0.43206330  0.73740425  0.31567617  1
  I  I24  1  0.68432383  0.93206330  0.76259575  1
  I  I25  1  0.73740425  0.31567617  0.43206330  1
  I  I26  1  0.76259575  0.68432383  0.93206330  1
  I  I27  1  0.26259575  0.81567617  0.06793670  1
  I  I28  1  0.76259575  0.81567617  0.43206330  1
  I  I29  1  0.43206330  0.76259575  0.81567617  1
  I  I30  1  0.81567617  0.43206330  0.76259575  1
  I  I31  1  0.68432383  0.56793670  0.26259575  1
  I  I32  1  0.93206330  0.73740425  0.18432383  1
  I  I33  1  0.18432383  0.93206330  0.73740425  1
  I  I34  1  0.06793670  0.23740425  0.31567617  1
  I  I35  1  0.56793670  0.26259575  0.68432383  1
  I  I36  1  0.31567617  0.06793670  0.23740425  1
  I  I37  1  0.26259575  0.68432383  0.56793670  1
  I  I38  1  0.23740425  0.31567617  0.06793670  1
  I  I39  1  0.73740425  0.18432383  0.93206330  1
  Hg  Hg40  1  0.02901626  0.00569438  0.24902850  1
  Hg  Hg41  1  0.24902850  0.02901626  0.00569438  1
  Hg  Hg42  1  0.00569438  0.24902850  0.02901626  1
  Hg  Hg43  1  0.49430562  0.75097150  0.52901626  1
  Hg  Hg44  1  0.74902850  0.47098374  0.99430562  1
  Hg  Hg45  1  0.99430562  0.74902850  0.47098374  1
  Hg  Hg46  1  0.25097150  0.97098374  0.50569438  1
  Hg  Hg47  1  0.75097150  0.52901626  0.49430562  1
  Hg  Hg48  1  0.50569438  0.25097150  0.97098374  1
  Hg  Hg49  1  0.52901626  0.49430562  0.75097150  1
  Hg  Hg50  1  0.97098374  0.50569438  0.25097150  1
  Hg  Hg51  1  0.47098374  0.99430562  0.74902850  1
  Hg  Hg52  1  0.97098374  0.99430562  0.75097150  1
  Hg  Hg53  1  0.75097150  0.97098374  0.99430562  1
  Hg  Hg54  1  0.99430562  0.75097150  0.97098374  1
  Hg  Hg55  1  0.50569438  0.24902850  0.47098374  1
  Hg  Hg56  1  0.25097150  0.52901626  0.00569438  1
  Hg  Hg57  1  0.00569438  0.25097150  0.52901626  1
  Hg  Hg58  1  0.74902850  0.02901626  0.49430562  1
  Hg  Hg59  1  0.24902850  0.47098374  0.50569438  1
  Hg  Hg60  1  0.49430562  0.74902850  0.02901626  1
  Hg  Hg61  1  0.47098374  0.50569438  0.24902850  1
  Hg  Hg62  1  0.02901626  0.49430562  0.74902850  1
  Hg  Hg63  1  0.52901626  0.00569438  0.25097150  1
  Hg  Hg64  1  0.77845185  0.22154815  0.72154815  1
  Hg  Hg65  1  0.72154815  0.77845185  0.22154815  1
  Hg  Hg66  1  0.22154815  0.72154815  0.77845185  1
  Hg  Hg67  1  0.27845185  0.27845185  0.27845185  1
  Hg  Hg68  1  0.22154815  0.77845185  0.27845185  1
  Hg  Hg69  1  0.27845185  0.22154815  0.77845185  1
  Hg  Hg70  1  0.77845185  0.27845185  0.22154815  1
  Hg  Hg71  1  0.72154815  0.72154815  0.72154815  1
