# generated using pymatgen
data_ThZrF8
_symmetry_space_group_name_H-M   'P 1'
_cell_length_a   8.35488876
_cell_length_b   8.63297898
_cell_length_c   16.62988973
_cell_angle_alpha   90.00000000
_cell_angle_beta   101.05982870
_cell_angle_gamma   90.00000000
_symmetry_Int_Tables_number   1
_chemical_formula_structural   ThZrF8
_chemical_formula_sum   'Th8 Zr8 F64'
_cell_volume   1177.19634553
_cell_formula_units_Z   8
loop_
 _symmetry_equiv_pos_site_id
 _symmetry_equiv_pos_as_xyz
  1  'x, y, z'
loop_
 _atom_site_type_symbol
 _atom_site_label
 _atom_site_symmetry_multiplicity
 _atom_site_fract_x
 _atom_site_fract_y
 _atom_site_fract_z
 _atom_site_occupancy
  F  F0  1  0.58041459  0.27898159  0.57479221  1
  F  F1  1  0.41958541  0.77898159  0.92520779  1
  F  F2  1  0.41958541  0.72101841  0.42520779  1
  F  F3  1  0.58041459  0.22101841  0.07479221  1
  F  F4  1  0.04106749  0.20711026  0.35278102  1
  F  F5  1  0.95893251  0.70711026  0.14721898  1
  F  F6  1  0.95893251  0.79288974  0.64721898  1
  F  F7  1  0.04106749  0.29288974  0.85278102  1
  F  F8  1  0.45665415  0.41034731  0.40328164  1
  F  F9  1  0.54334585  0.91034731  0.09671836  1
  F  F10  1  0.54334585  0.58965269  0.59671836  1
  F  F11  1  0.45665415  0.08965269  0.90328164  1
  F  F12  1  0.04689964  0.36667356  0.59076630  1
  F  F13  1  0.95310036  0.86667356  0.90923370  1
  F  F14  1  0.95310036  0.63332644  0.40923370  1
  F  F15  1  0.04689964  0.13332644  0.09076630  1
  F  F16  1  0.25625796  0.12437406  0.24838626  1
  F  F17  1  0.74374204  0.62437406  0.25161374  1
  F  F18  1  0.74374204  0.87562594  0.75161374  1
  F  F19  1  0.25625796  0.37562594  0.74838626  1
  F  F20  1  0.84573477  0.28725167  0.70084742  1
  F  F21  1  0.15426523  0.78725167  0.79915258  1
  F  F22  1  0.15426523  0.71274833  0.29915258  1
  F  F23  1  0.84573477  0.21274833  0.20084742  1
  F  F24  1  0.83699569  0.13310668  0.46761523  1
  F  F25  1  0.16300431  0.63310668  0.03238477  1
  F  F26  1  0.16300431  0.86689332  0.53238477  1
  F  F27  1  0.83699569  0.36689332  0.96761523  1
  F  F28  1  0.52803479  0.13415071  0.37467705  1
  F  F29  1  0.47196521  0.63415071  0.12532295  1
  F  F30  1  0.47196521  0.86584929  0.62532295  1
  F  F31  1  0.52803479  0.36584929  0.87467705  1
  F  F32  1  0.79309191  0.90997120  0.21249869  1
  F  F33  1  0.20690809  0.40997120  0.28750131  1
  F  F34  1  0.20690809  0.09002880  0.78750131  1
  F  F35  1  0.79309191  0.59002880  0.71249869  1
  F  F36  1  0.26893657  0.25947558  0.48512888  1
  F  F37  1  0.73106343  0.75947558  0.01487112  1
  F  F38  1  0.73106343  0.74052442  0.51487112  1
  F  F39  1  0.26893657  0.24052442  0.98512888  1
  F  F40  1  0.97846483  0.91377152  0.37593481  1
  F  F41  1  0.02153517  0.41377152  0.12406519  1
  F  F42  1  0.02153517  0.08622848  0.62406519  1
  F  F43  1  0.97846483  0.58622848  0.87593481  1
  F  F44  1  0.27433108  0.98719273  0.40167562  1
  F  F45  1  0.72566892  0.48719273  0.09832438  1
  F  F46  1  0.72566892  0.01280727  0.59832438  1
  F  F47  1  0.27433108  0.51280727  0.90167562  1
  F  F48  1  0.45137346  0.61027262  0.27868108  1
  F  F49  1  0.54862654  0.11027262  0.22131892  1
  F  F50  1  0.54862654  0.38972738  0.72131892  1
  F  F51  1  0.45137346  0.88972738  0.77868108  1
  F  F52  1  0.66346518  0.85623382  0.35221266  1
  F  F53  1  0.33653482  0.35623382  0.14778734  1
  F  F54  1  0.33653482  0.14376618  0.64778734  1
  F  F55  1  0.66346518  0.64376618  0.85221266  1
  F  F56  1  0.77247050  0.42932430  0.50199518  1
  F  F57  1  0.22752950  0.92932430  0.99800482  1
  F  F58  1  0.22752950  0.57067570  0.49800482  1
  F  F59  1  0.77247050  0.07067570  0.00199518  1
  F  F60  1  0.73278429  0.35917338  0.33627351  1
  F  F61  1  0.26721571  0.85917338  0.16372649  1
  F  F62  1  0.26721571  0.64082662  0.66372649  1
  F  F63  1  0.73278429  0.14082662  0.83627351  1
  Zr  Zr64  1  0.29499587  0.22407012  0.36382239  1
  Zr  Zr65  1  0.70500413  0.72407012  0.13617761  1
  Zr  Zr66  1  0.70500413  0.77592988  0.63617761  1
  Zr  Zr67  1  0.29499587  0.27592988  0.86382239  1
  Zr  Zr68  1  0.82553647  0.23529096  0.57887596  1
  Zr  Zr69  1  0.17446353  0.73529096  0.92112404  1
  Zr  Zr70  1  0.17446353  0.76470904  0.42112404  1
  Zr  Zr71  1  0.82553647  0.26470904  0.07887596  1
  Th  Th72  1  0.77788352  0.09324077  0.32227855  1
  Th  Th73  1  0.22211648  0.59324077  0.17772145  1
  Th  Th74  1  0.22211648  0.90675923  0.67772145  1
  Th  Th75  1  0.77788352  0.40675923  0.82227855  1
  Th  Th76  1  0.66585865  0.59703555  0.38842995  1
  Th  Th77  1  0.33414135  0.09703555  0.11157005  1
  Th  Th78  1  0.33414135  0.40296445  0.61157005  1
  Th  Th79  1  0.66585865  0.90296445  0.88842995  1
