# generated using pymatgen
data_Cd4Sb2I3
_symmetry_space_group_name_H-M   'P 1'
_cell_length_a   13.89713461
_cell_length_b   13.89713461
_cell_length_c   13.89713461
_cell_angle_alpha   90.00000000
_cell_angle_beta   90.00000000
_cell_angle_gamma   90.00000000
_symmetry_Int_Tables_number   1
_chemical_formula_structural   Cd4Sb2I3
_chemical_formula_sum   'Cd32 Sb16 I24'
_cell_volume   2683.95847635
_cell_formula_units_Z   8
loop_
 _symmetry_equiv_pos_site_id
 _symmetry_equiv_pos_as_xyz
  1  'x, y, z'
loop_
 _atom_site_type_symbol
 _atom_site_label
 _atom_site_symmetry_multiplicity
 _atom_site_fract_x
 _atom_site_fract_y
 _atom_site_fract_z
 _atom_site_occupancy
  Cd  Cd0  1  0.03151594  0.01798913  0.25449831  1
  Cd  Cd1  1  0.25449831  0.03151594  0.01798913  1
  Cd  Cd2  1  0.01798913  0.25449831  0.03151594  1
  Cd  Cd3  1  0.48201087  0.74550169  0.53151594  1
  Cd  Cd4  1  0.75449831  0.46848406  0.98201087  1
  Cd  Cd5  1  0.98201087  0.75449831  0.46848406  1
  Cd  Cd6  1  0.24550169  0.96848406  0.51798913  1
  Cd  Cd7  1  0.74550169  0.53151594  0.48201087  1
  Cd  Cd8  1  0.51798913  0.24550169  0.96848406  1
  Cd  Cd9  1  0.53151594  0.48201087  0.74550169  1
  Cd  Cd10  1  0.96848406  0.51798913  0.24550169  1
  Cd  Cd11  1  0.46848406  0.98201087  0.75449831  1
  Cd  Cd12  1  0.96848406  0.98201087  0.74550169  1
  Cd  Cd13  1  0.74550169  0.96848406  0.98201087  1
  Cd  Cd14  1  0.98201087  0.74550169  0.96848406  1
  Cd  Cd15  1  0.51798913  0.25449831  0.46848406  1
  Cd  Cd16  1  0.24550169  0.53151594  0.01798913  1
  Cd  Cd17  1  0.01798913  0.24550169  0.53151594  1
  Cd  Cd18  1  0.75449831  0.03151594  0.48201087  1
  Cd  Cd19  1  0.25449831  0.46848406  0.51798913  1
  Cd  Cd20  1  0.48201087  0.75449831  0.03151594  1
  Cd  Cd21  1  0.46848406  0.51798913  0.25449831  1
  Cd  Cd22  1  0.03151594  0.48201087  0.75449831  1
  Cd  Cd23  1  0.53151594  0.01798913  0.24550169  1
  Cd  Cd24  1  0.77816692  0.22183308  0.72183308  1
  Cd  Cd25  1  0.72183308  0.77816692  0.22183308  1
  Cd  Cd26  1  0.22183308  0.72183308  0.77816692  1
  Cd  Cd27  1  0.27816692  0.27816692  0.27816692  1
  Cd  Cd28  1  0.22183308  0.77816692  0.27816692  1
  Cd  Cd29  1  0.27816692  0.22183308  0.77816692  1
  Cd  Cd30  1  0.77816692  0.27816692  0.22183308  1
  Cd  Cd31  1  0.72183308  0.72183308  0.72183308  1
  Sb  Sb32  1  0.89369663  0.10630337  0.60630337  1
  Sb  Sb33  1  0.60630337  0.89369663  0.10630337  1
  Sb  Sb34  1  0.10630337  0.60630337  0.89369663  1
  Sb  Sb35  1  0.39369663  0.39369663  0.39369663  1
  Sb  Sb36  1  0.10630337  0.89369663  0.39369663  1
  Sb  Sb37  1  0.39369663  0.10630337  0.89369663  1
  Sb  Sb38  1  0.89369663  0.39369663  0.10630337  1
  Sb  Sb39  1  0.60630337  0.60630337  0.60630337  1
  Sb  Sb40  1  0.55881386  0.05881386  0.44118614  1
  Sb  Sb41  1  0.44118614  0.55881386  0.05881386  1
  Sb  Sb42  1  0.05881386  0.44118614  0.55881386  1
  Sb  Sb43  1  0.94118614  0.94118614  0.94118614  1
  Sb  Sb44  1  0.44118614  0.94118614  0.55881386  1
  Sb  Sb45  1  0.55881386  0.44118614  0.94118614  1
  Sb  Sb46  1  0.94118614  0.55881386  0.44118614  1
  Sb  Sb47  1  0.05881386  0.05881386  0.05881386  1
  I  I48  1  0.23299443  0.18071376  0.57155112  1
  I  I49  1  0.57155112  0.23299443  0.18071376  1
  I  I50  1  0.18071376  0.57155112  0.23299443  1
  I  I51  1  0.31928624  0.42844888  0.73299443  1
  I  I52  1  0.07155112  0.26700557  0.81928624  1
  I  I53  1  0.81928624  0.07155112  0.26700557  1
  I  I54  1  0.92844888  0.76700557  0.68071376  1
  I  I55  1  0.42844888  0.73299443  0.31928624  1
  I  I56  1  0.68071376  0.92844888  0.76700557  1
  I  I57  1  0.73299443  0.31928624  0.42844888  1
  I  I58  1  0.76700557  0.68071376  0.92844888  1
  I  I59  1  0.26700557  0.81928624  0.07155112  1
  I  I60  1  0.76700557  0.81928624  0.42844888  1
  I  I61  1  0.42844888  0.76700557  0.81928624  1
  I  I62  1  0.81928624  0.42844888  0.76700557  1
  I  I63  1  0.68071376  0.57155112  0.26700557  1
  I  I64  1  0.92844888  0.73299443  0.18071376  1
  I  I65  1  0.18071376  0.92844888  0.73299443  1
  I  I66  1  0.07155112  0.23299443  0.31928624  1
  I  I67  1  0.57155112  0.26700557  0.68071376  1
  I  I68  1  0.31928624  0.07155112  0.23299443  1
  I  I69  1  0.26700557  0.68071376  0.57155112  1
  I  I70  1  0.23299443  0.31928624  0.07155112  1
  I  I71  1  0.73299443  0.18071376  0.92844888  1
