# generated using pymatgen
data_WS9Cl4
_symmetry_space_group_name_H-M   'P 1'
_cell_length_a   11.34687585
_cell_length_b   18.24022523
_cell_length_c   18.24022523
_cell_angle_alpha   90.00000000
_cell_angle_beta   90.00000000
_cell_angle_gamma   90.00000000
_symmetry_Int_Tables_number   1
_chemical_formula_structural   WS9Cl4
_chemical_formula_sum   'W8 S72 Cl32'
_cell_volume   3775.17159373
_cell_formula_units_Z   8
loop_
 _symmetry_equiv_pos_site_id
 _symmetry_equiv_pos_as_xyz
  1  'x, y, z'
loop_
 _atom_site_type_symbol
 _atom_site_label
 _atom_site_symmetry_multiplicity
 _atom_site_fract_x
 _atom_site_fract_y
 _atom_site_fract_z
 _atom_site_occupancy
  S  S0  1  0.23758066  0.20807112  0.20128643  1
  S  S1  1  0.76241934  0.20128643  0.79192888  1
  S  S2  1  0.76241934  0.79871357  0.20807112  1
  S  S3  1  0.23758066  0.79192888  0.79871357  1
  S  S4  1  0.26241934  0.70807112  0.29871357  1
  S  S5  1  0.26241934  0.29192888  0.70128643  1
  S  S6  1  0.73758066  0.29871357  0.29192888  1
  S  S7  1  0.73758066  0.70128643  0.70807112  1
  S  S8  1  0.83771105  0.01844417  0.23778104  1
  S  S9  1  0.16228895  0.23778104  0.98155583  1
  S  S10  1  0.16228895  0.76221896  0.01844417  1
  S  S11  1  0.83771105  0.98155583  0.76221896  1
  S  S12  1  0.66228895  0.51844417  0.26221896  1
  S  S13  1  0.66228895  0.48155583  0.73778104  1
  S  S14  1  0.33771105  0.26221896  0.48155583  1
  S  S15  1  0.33771105  0.73778104  0.51844417  1
  S  S16  1  0.78213690  0.03791509  0.34405209  1
  S  S17  1  0.21786310  0.34405209  0.96208491  1
  S  S18  1  0.21786310  0.65594791  0.03791509  1
  S  S19  1  0.78213690  0.96208491  0.65594791  1
  S  S20  1  0.71786310  0.53791509  0.15594791  1
  S  S21  1  0.71786310  0.46208491  0.84405209  1
  S  S22  1  0.28213690  0.15594791  0.46208491  1
  S  S23  1  0.28213690  0.84405209  0.53791509  1
  S  S24  1  0.69679103  0.94579375  0.38182304  1
  S  S25  1  0.30320897  0.38182304  0.05420625  1
  S  S26  1  0.30320897  0.61817696  0.94579375  1
  S  S27  1  0.69679103  0.05420625  0.61817696  1
  S  S28  1  0.80320897  0.44579375  0.11817696  1
  S  S29  1  0.80320897  0.55420625  0.88182304  1
  S  S30  1  0.19679103  0.11817696  0.55420625  1
  S  S31  1  0.19679103  0.88182304  0.44579375  1
  S  S32  1  0.51708824  0.95889607  0.36913292  1
  S  S33  1  0.48291176  0.36913292  0.04110393  1
  S  S34  1  0.48291176  0.63086708  0.95889607  1
  S  S35  1  0.51708824  0.04110393  0.63086708  1
  S  S36  1  0.98291176  0.45889607  0.13086708  1
  S  S37  1  0.98291176  0.54110393  0.86913292  1
  S  S38  1  0.01708824  0.13086708  0.54110393  1
  S  S39  1  0.01708824  0.86913292  0.45889607  1
  S  S40  1  0.46429487  0.90794369  0.27375692  1
  S  S41  1  0.53570513  0.27375692  0.09205631  1
  S  S42  1  0.53570513  0.72624308  0.90794369  1
  S  S43  1  0.46429487  0.09205631  0.72624308  1
  S  S44  1  0.03570513  0.40794369  0.22624308  1
  S  S45  1  0.03570513  0.59205631  0.77375692  1
  S  S46  1  0.96429487  0.22624308  0.59205631  1
  S  S47  1  0.96429487  0.77375692  0.40794369  1
  S  S48  1  0.45305280  0.98445130  0.19079630  1
  S  S49  1  0.54694720  0.19079630  0.01554870  1
  S  S50  1  0.54694720  0.80920370  0.98445130  1
  S  S51  1  0.45305280  0.01554870  0.80920370  1
  S  S52  1  0.04694720  0.48445130  0.30920370  1
  S  S53  1  0.04694720  0.51554870  0.69079630  1
  S  S54  1  0.95305280  0.30920370  0.51554870  1
  S  S55  1  0.95305280  0.69079630  0.48445130  1
  S  S56  1  0.60632730  0.98168080  0.12962458  1
  S  S57  1  0.39367270  0.12962458  0.01831920  1
  S  S58  1  0.39367270  0.87037542  0.98168080  1
  S  S59  1  0.60632730  0.01831920  0.87037542  1
  S  S60  1  0.89367270  0.48168080  0.37037542  1
  S  S61  1  0.89367270  0.51831920  0.62962458  1
  S  S62  1  0.10632730  0.37037542  0.51831920  1
  S  S63  1  0.10632730  0.62962458  0.48168080  1
  S  S64  1  0.71814414  0.06327361  0.16472696  1
  S  S65  1  0.28185586  0.16472696  0.93672639  1
  S  S66  1  0.28185586  0.83527304  0.06327361  1
  S  S67  1  0.71814414  0.93672639  0.83527304  1
  S  S68  1  0.78185586  0.56327361  0.33527304  1
  S  S69  1  0.78185586  0.43672639  0.66472696  1
  S  S70  1  0.21814414  0.33527304  0.43672639  1
  S  S71  1  0.21814414  0.66472696  0.56327361  1
  Cl  Cl72  1  0.09748789  0.06168034  0.11888296  1
  Cl  Cl73  1  0.90251211  0.11888296  0.93831966  1
  Cl  Cl74  1  0.90251211  0.88111704  0.06168034  1
  Cl  Cl75  1  0.09748789  0.93831966  0.88111704  1
  Cl  Cl76  1  0.40251211  0.56168034  0.38111704  1
  Cl  Cl77  1  0.40251211  0.43831966  0.61888296  1
  Cl  Cl78  1  0.59748789  0.38111704  0.43831966  1
  Cl  Cl79  1  0.59748789  0.61888296  0.56168034  1
  Cl  Cl80  1  0.15614363  0.04714659  0.28871589  1
  Cl  Cl81  1  0.84385637  0.28871589  0.95285341  1
  Cl  Cl82  1  0.84385637  0.71128411  0.04714659  1
  Cl  Cl83  1  0.15614363  0.95285341  0.71128411  1
  Cl  Cl84  1  0.34385637  0.54714659  0.21128411  1
  Cl  Cl85  1  0.34385637  0.45285341  0.78871589  1
  Cl  Cl86  1  0.65614363  0.21128411  0.45285341  1
  Cl  Cl87  1  0.65614363  0.78871589  0.54714659  1
  Cl  Cl88  1  0.00276835  0.18897991  0.32104569  1
  Cl  Cl89  1  0.99723165  0.32104569  0.81102009  1
  Cl  Cl90  1  0.99723165  0.67895431  0.18897991  1
  Cl  Cl91  1  0.00276835  0.81102009  0.67895431  1
  Cl  Cl92  1  0.49723165  0.68897991  0.17895431  1
  Cl  Cl93  1  0.49723165  0.31102009  0.82104569  1
  Cl  Cl94  1  0.50276835  0.17895431  0.31102009  1
  Cl  Cl95  1  0.50276835  0.82104569  0.68897991  1
  Cl  Cl96  1  0.94422678  0.20394842  0.15126318  1
  Cl  Cl97  1  0.05577322  0.15126318  0.79605158  1
  Cl  Cl98  1  0.05577322  0.84873682  0.20394842  1
  Cl  Cl99  1  0.94422678  0.79605158  0.84873682  1
  Cl  Cl100  1  0.55577322  0.70394842  0.34873682  1
  Cl  Cl101  1  0.55577322  0.29605158  0.65126318  1
  Cl  Cl102  1  0.44422678  0.34873682  0.29605158  1
  Cl  Cl103  1  0.44422678  0.65126318  0.70394842  1
  W  W104  1  0.08771981  0.14190419  0.21628590  1
  W  W105  1  0.91228019  0.21628590  0.85809581  1
  W  W106  1  0.91228019  0.78371410  0.14190419  1
  W  W107  1  0.08771981  0.85809581  0.78371410  1
  W  W108  1  0.41228019  0.64190419  0.28371410  1
  W  W109  1  0.41228019  0.35809581  0.71628590  1
  W  W110  1  0.58771981  0.28371410  0.35809581  1
  W  W111  1  0.58771981  0.71628590  0.64190419  1
