# generated using pymatgen
data_Hf(Se2Cl3)2
_symmetry_space_group_name_H-M   'P 1'
_cell_length_a   11.12924653
_cell_length_b   11.10161761
_cell_length_c   11.10161761
_cell_angle_alpha   90.00000000
_cell_angle_beta   90.00000000
_cell_angle_gamma   90.00000000
_symmetry_Int_Tables_number   1
_chemical_formula_structural   Hf(Se2Cl3)2
_chemical_formula_sum   'Hf4 Se16 Cl24'
_cell_volume   1371.63415581
_cell_formula_units_Z   4
loop_
 _symmetry_equiv_pos_site_id
 _symmetry_equiv_pos_as_xyz
  1  'x, y, z'
loop_
 _atom_site_type_symbol
 _atom_site_label
 _atom_site_symmetry_multiplicity
 _atom_site_fract_x
 _atom_site_fract_y
 _atom_site_fract_z
 _atom_site_occupancy
  Cl  Cl0  1  0.13634706  0.16917947  0.94540612  1
  Cl  Cl1  1  0.13634706  0.33082053  0.55459388  1
  Cl  Cl2  1  0.63634706  0.94540612  0.33082053  1
  Cl  Cl3  1  0.63634706  0.55459388  0.16917947  1
  Cl  Cl4  1  0.86365294  0.44540612  0.66917947  1
  Cl  Cl5  1  0.36365294  0.83082053  0.44540612  1
  Cl  Cl6  1  0.36365294  0.66917947  0.05459388  1
  Cl  Cl7  1  0.86365294  0.05459388  0.83082053  1
  Cl  Cl8  1  0.86365294  0.83082053  0.05459388  1
  Cl  Cl9  1  0.86365294  0.66917947  0.44540612  1
  Cl  Cl10  1  0.36365294  0.05459388  0.66917947  1
  Cl  Cl11  1  0.36365294  0.44540612  0.83082053  1
  Cl  Cl12  1  0.13634706  0.55459388  0.33082053  1
  Cl  Cl13  1  0.63634706  0.16917947  0.55459388  1
  Cl  Cl14  1  0.63634706  0.33082053  0.94540612  1
  Cl  Cl15  1  0.13634706  0.94540612  0.16917947  1
  Cl  Cl16  1  0.11321016  0.86826717  0.86826717  1
  Cl  Cl17  1  0.11321016  0.63173283  0.63173283  1
  Cl  Cl18  1  0.61321016  0.86826717  0.63173283  1
  Cl  Cl19  1  0.61321016  0.63173283  0.86826717  1
  Cl  Cl20  1  0.88678984  0.13173283  0.13173283  1
  Cl  Cl21  1  0.38678984  0.36826717  0.13173283  1
  Cl  Cl22  1  0.38678984  0.13173283  0.36826717  1
  Cl  Cl23  1  0.88678984  0.36826717  0.36826717  1
  Se  Se24  1  0.50000000  0.60479165  0.39520835  1
  Se  Se25  1  0.00000000  0.10479165  0.60479165  1
  Se  Se26  1  0.00000000  0.39520835  0.89520835  1
  Se  Se27  1  0.50000000  0.89520835  0.10479165  1
  Se  Se28  1  0.50000000  0.39520835  0.60479165  1
  Se  Se29  1  0.00000000  0.89520835  0.39520835  1
  Se  Se30  1  0.00000000  0.60479165  0.10479165  1
  Se  Se31  1  0.50000000  0.10479165  0.89520835  1
  Se  Se32  1  0.42093781  0.91026465  0.91026465  1
  Se  Se33  1  0.42093781  0.58973535  0.58973535  1
  Se  Se34  1  0.92093781  0.91026465  0.58973535  1
  Se  Se35  1  0.92093781  0.58973535  0.91026465  1
  Se  Se36  1  0.57906219  0.41026465  0.41026465  1
  Se  Se37  1  0.07906219  0.08973535  0.41026465  1
  Se  Se38  1  0.07906219  0.41026465  0.08973535  1
  Se  Se39  1  0.57906219  0.08973535  0.08973535  1
  Hf  Hf40  1  0.00000000  0.50000000  0.50000000  1
  Hf  Hf41  1  0.50000000  0.00000000  0.50000000  1
  Hf  Hf42  1  0.50000000  0.50000000  0.00000000  1
  Hf  Hf43  1  0.00000000  0.00000000  0.00000000  1
