# generated using pymatgen
data_Hf(Te2Cl3)2
_symmetry_space_group_name_H-M   'P 1'
_cell_length_a   7.38830144
_cell_length_b   7.34054057
_cell_length_c   7.87229470
_cell_angle_alpha   75.10464257
_cell_angle_beta   76.19763175
_cell_angle_gamma   79.21042139
_symmetry_Int_Tables_number   1
_chemical_formula_structural   Hf(Te2Cl3)2
_chemical_formula_sum   'Hf1 Te4 Cl6'
_cell_volume   397.06572280
_cell_formula_units_Z   1
loop_
 _symmetry_equiv_pos_site_id
 _symmetry_equiv_pos_as_xyz
  1  'x, y, z'
loop_
 _atom_site_type_symbol
 _atom_site_label
 _atom_site_symmetry_multiplicity
 _atom_site_fract_x
 _atom_site_fract_y
 _atom_site_fract_z
 _atom_site_occupancy
  Hf  Hf0  1  -0.00000000  0.00000000  -0.00000000  1
  Te  Te1  1  0.49975868  0.60851015  0.69671387  1
  Te  Te2  1  0.50024132  0.39148985  0.30328613  1
  Te  Te3  1  0.70644822  0.31020653  0.56232672  1
  Te  Te4  1  0.29355178  0.68979347  0.43767328  1
  Cl  Cl5  1  0.78522374  0.00274767  0.29613842  1
  Cl  Cl6  1  0.21477626  0.99725233  0.70386158  1
  Cl  Cl7  1  0.76199903  0.88875503  0.90052970  1
  Cl  Cl8  1  0.23800097  0.11124497  0.09947030  1
  Cl  Cl9  1  0.87491218  0.33570908  0.88077676  1
  Cl  Cl10  1  0.12508782  0.66429092  0.11922324  1
