# generated using pymatgen
data_AgSb(Te8Pb7)2
_symmetry_space_group_name_H-M   'P 1'
_cell_length_a   9.23940629
_cell_length_b   9.23940629
_cell_length_c   14.45945462
_cell_angle_alpha   71.36769755
_cell_angle_beta   71.36769755
_cell_angle_gamma   90.00000000
_symmetry_Int_Tables_number   1
_chemical_formula_structural   AgSb(Te8Pb7)2
_chemical_formula_sum   'Ag1 Sb1 Te16 Pb14'
_cell_volume   1101.17164843
_cell_formula_units_Z   1
loop_
 _symmetry_equiv_pos_site_id
 _symmetry_equiv_pos_as_xyz
  1  'x, y, z'
loop_
 _atom_site_type_symbol
 _atom_site_label
 _atom_site_symmetry_multiplicity
 _atom_site_fract_x
 _atom_site_fract_y
 _atom_site_fract_z
 _atom_site_occupancy
  Ag  Ag0  1  0.87500000  0.37500000  0.25000000  1
  Sb  Sb1  1  0.37500000  0.87500000  0.25000000  1
  Te  Te2  1  0.74996892  0.74996892  0.50006215  1
  Te  Te3  1  0.50003108  0.50003108  0.99993785  1
  Te  Te4  1  0.24996892  0.24996892  0.50006215  1
  Te  Te5  1  0.00003108  0.00003108  0.99993785  1
  Te  Te6  1  0.87500000  0.37500000  0.75000000  1
  Te  Te7  1  0.61762311  0.11762311  0.25000000  1
  Te  Te8  1  0.37500000  0.87500000  0.75000000  1
  Te  Te9  1  0.13237689  0.63237689  0.25000000  1
  Te  Te10  1  0.75937246  0.25937246  0.48125507  1
  Te  Te11  1  0.49547116  0.99547116  0.00905767  1
  Te  Te12  1  0.25452884  0.75452884  0.49094233  1
  Te  Te13  1  0.99062754  0.49062754  0.01874493  1
  Te  Te14  1  0.37500000  0.37500000  0.75000000  1
  Te  Te15  1  0.13237689  0.11762311  0.25000000  1
  Te  Te16  1  0.87500000  0.87500000  0.75000000  1
  Te  Te17  1  0.61762311  0.63237689  0.25000000  1
  Pb  Pb18  1  0.62500000  0.62500000  0.75000000  1
  Pb  Pb19  1  0.37500000  0.37500000  0.25000000  1
  Pb  Pb20  1  0.12500000  0.12500000  0.75000000  1
  Pb  Pb21  1  0.87500000  0.87500000  0.25000000  1
  Pb  Pb22  1  0.00034092  0.50034092  0.49790603  1
  Pb  Pb23  1  0.74965908  0.24965908  0.00209397  1
  Pb  Pb24  1  0.50175305  0.00175305  0.49790603  1
  Pb  Pb25  1  0.24824695  0.74824695  0.00209397  1
  Pb  Pb26  1  0.50175305  0.50034092  0.49790603  1
  Pb  Pb27  1  0.24824695  0.24965908  0.00209397  1
  Pb  Pb28  1  0.00034092  0.00175305  0.49790603  1
  Pb  Pb29  1  0.74965908  0.74824695  0.00209397  1
  Pb  Pb30  1  0.62742135  0.12742135  0.74515730  1
  Pb  Pb31  1  0.12257865  0.62257865  0.75484270  1
