# generated using pymatgen
data_Cd(W3Br7)2
_symmetry_space_group_name_H-M   'P 1'
_cell_length_a   13.70908228
_cell_length_b   13.70908228
_cell_length_c   13.70908228
_cell_angle_alpha   90.00000000
_cell_angle_beta   90.00000000
_cell_angle_gamma   90.00000000
_symmetry_Int_Tables_number   1
_chemical_formula_structural   Cd(W3Br7)2
_chemical_formula_sum   'Cd4 W24 Br56'
_cell_volume   2576.47035040
_cell_formula_units_Z   4
loop_
 _symmetry_equiv_pos_site_id
 _symmetry_equiv_pos_as_xyz
  1  'x, y, z'
loop_
 _atom_site_type_symbol
 _atom_site_label
 _atom_site_symmetry_multiplicity
 _atom_site_fract_x
 _atom_site_fract_y
 _atom_site_fract_z
 _atom_site_occupancy
  Br  Br0  1  0.42146175  0.18357721  0.87395063  1
  Br  Br1  1  0.87395063  0.42146175  0.18357721  1
  Br  Br2  1  0.18357721  0.87395063  0.42146175  1
  Br  Br3  1  0.31642279  0.62604937  0.42146175  1
  Br  Br4  1  0.87395063  0.07853825  0.31642279  1
  Br  Br5  1  0.31642279  0.87395063  0.07853825  1
  Br  Br6  1  0.62604937  0.07853825  0.18357721  1
  Br  Br7  1  0.62604937  0.42146175  0.31642279  1
  Br  Br8  1  0.18357721  0.62604937  0.07853825  1
  Br  Br9  1  0.42146175  0.31642279  0.62604937  1
  Br  Br10  1  0.07853825  0.18357721  0.62604937  1
  Br  Br11  1  0.07853825  0.31642279  0.87395063  1
  Br  Br12  1  0.57853825  0.81642279  0.12604937  1
  Br  Br13  1  0.12604937  0.57853825  0.81642279  1
  Br  Br14  1  0.81642279  0.12604937  0.57853825  1
  Br  Br15  1  0.68357721  0.37395063  0.57853825  1
  Br  Br16  1  0.12604937  0.92146175  0.68357721  1
  Br  Br17  1  0.68357721  0.12604937  0.92146175  1
  Br  Br18  1  0.37395063  0.92146175  0.81642279  1
  Br  Br19  1  0.37395063  0.57853825  0.68357721  1
  Br  Br20  1  0.81642279  0.37395063  0.92146175  1
  Br  Br21  1  0.57853825  0.68357721  0.37395063  1
  Br  Br22  1  0.92146175  0.81642279  0.37395063  1
  Br  Br23  1  0.92146175  0.68357721  0.12604937  1
  Br  Br24  1  0.81613107  0.92434166  0.06206832  1
  Br  Br25  1  0.06206832  0.81613107  0.92434166  1
  Br  Br26  1  0.92434166  0.06206832  0.81613107  1
  Br  Br27  1  0.57565834  0.43793168  0.81613107  1
  Br  Br28  1  0.06206832  0.68386893  0.57565834  1
  Br  Br29  1  0.57565834  0.06206832  0.68386893  1
  Br  Br30  1  0.43793168  0.68386893  0.92434166  1
  Br  Br31  1  0.43793168  0.81613107  0.57565834  1
  Br  Br32  1  0.92434166  0.43793168  0.68386893  1
  Br  Br33  1  0.81613107  0.57565834  0.43793168  1
  Br  Br34  1  0.68386893  0.92434166  0.43793168  1
  Br  Br35  1  0.68386893  0.57565834  0.06206832  1
  Br  Br36  1  0.18386893  0.07565834  0.93793168  1
  Br  Br37  1  0.93793168  0.18386893  0.07565834  1
  Br  Br38  1  0.07565834  0.93793168  0.18386893  1
  Br  Br39  1  0.42434166  0.56206832  0.18386893  1
  Br  Br40  1  0.93793168  0.31613107  0.42434166  1
  Br  Br41  1  0.42434166  0.93793168  0.31613107  1
  Br  Br42  1  0.56206832  0.31613107  0.07565834  1
  Br  Br43  1  0.56206832  0.18386893  0.42434166  1
  Br  Br44  1  0.07565834  0.56206832  0.31613107  1
  Br  Br45  1  0.18386893  0.42434166  0.56206832  1
  Br  Br46  1  0.31613107  0.07565834  0.56206832  1
  Br  Br47  1  0.31613107  0.42434166  0.93793168  1
  Br  Br48  1  0.63703721  0.63703721  0.63703721  1
  Br  Br49  1  0.86296279  0.86296279  0.63703721  1
  Br  Br50  1  0.63703721  0.86296279  0.86296279  1
  Br  Br51  1  0.86296279  0.63703721  0.86296279  1
  Br  Br52  1  0.36296279  0.36296279  0.36296279  1
  Br  Br53  1  0.13703721  0.13703721  0.36296279  1
  Br  Br54  1  0.36296279  0.13703721  0.13703721  1
  Br  Br55  1  0.13703721  0.36296279  0.13703721  1
  Cd  Cd56  1  0.00000000  0.00000000  0.00000000  1
  Cd  Cd57  1  0.50000000  0.50000000  0.00000000  1
  Cd  Cd58  1  0.00000000  0.50000000  0.50000000  1
  Cd  Cd59  1  0.50000000  0.00000000  0.50000000  1
  W  W60  1  0.52348477  0.13191046  0.02875888  1
  W  W61  1  0.02875888  0.52348477  0.13191046  1
  W  W62  1  0.13191046  0.02875888  0.52348477  1
  W  W63  1  0.36808954  0.47124112  0.52348477  1
  W  W64  1  0.02875888  0.97651523  0.36808954  1
  W  W65  1  0.36808954  0.02875888  0.97651523  1
  W  W66  1  0.47124112  0.97651523  0.13191046  1
  W  W67  1  0.47124112  0.52348477  0.36808954  1
  W  W68  1  0.13191046  0.47124112  0.97651523  1
  W  W69  1  0.52348477  0.36808954  0.47124112  1
  W  W70  1  0.97651523  0.13191046  0.47124112  1
  W  W71  1  0.97651523  0.36808954  0.02875888  1
  W  W72  1  0.47651523  0.86808954  0.97124112  1
  W  W73  1  0.97124112  0.47651523  0.86808954  1
  W  W74  1  0.86808954  0.97124112  0.47651523  1
  W  W75  1  0.63191046  0.52875888  0.47651523  1
  W  W76  1  0.97124112  0.02348477  0.63191046  1
  W  W77  1  0.63191046  0.97124112  0.02348477  1
  W  W78  1  0.52875888  0.02348477  0.86808954  1
  W  W79  1  0.52875888  0.47651523  0.63191046  1
  W  W80  1  0.86808954  0.52875888  0.02348477  1
  W  W81  1  0.47651523  0.63191046  0.52875888  1
  W  W82  1  0.02348477  0.86808954  0.52875888  1
  W  W83  1  0.02348477  0.63191046  0.97124112  1
