# generated using pymatgen
data_Rb4Cu5Cl9
_symmetry_space_group_name_H-M   'P 1'
_cell_length_a   8.83686450
_cell_length_b   15.62266034
_cell_length_c   15.86844237
_cell_angle_alpha   107.93455725
_cell_angle_beta   90.00000000
_cell_angle_gamma   90.00000000
_symmetry_Int_Tables_number   1
_chemical_formula_structural   Rb4Cu5Cl9
_chemical_formula_sum   'Rb16 Cu20 Cl36'
_cell_volume   2084.27333976
_cell_formula_units_Z   4
loop_
 _symmetry_equiv_pos_site_id
 _symmetry_equiv_pos_as_xyz
  1  'x, y, z'
loop_
 _atom_site_type_symbol
 _atom_site_label
 _atom_site_symmetry_multiplicity
 _atom_site_fract_x
 _atom_site_fract_y
 _atom_site_fract_z
 _atom_site_occupancy
  Rb  Rb0  1  0.30917305  0.00209957  0.00047084  1
  Rb  Rb1  1  0.69082695  0.00209957  0.50047084  1
  Rb  Rb2  1  0.16483107  0.01797055  0.30133816  1
  Rb  Rb3  1  0.83516893  0.01797055  0.80133816  1
  Rb  Rb4  1  0.47325314  0.53025554  0.47835924  1
  Rb  Rb5  1  0.52674686  0.53025554  0.97835924  1
  Rb  Rb6  1  0.04501417  0.51741973  0.11820469  1
  Rb  Rb7  1  0.95498583  0.51741973  0.61820469  1
  Rb  Rb8  1  0.18498319  0.26764071  0.88510157  1
  Rb  Rb9  1  0.81501681  0.26764071  0.38510157  1
  Rb  Rb10  1  0.34451185  0.24786936  0.56921397  1
  Rb  Rb11  1  0.65548815  0.24786936  0.06921397  1
  Rb  Rb12  1  0.46260924  0.75047054  0.76461016  1
  Rb  Rb13  1  0.53739076  0.75047054  0.26461016  1
  Rb  Rb14  1  0.02720899  0.73931043  0.40133527  1
  Rb  Rb15  1  0.97279101  0.73931043  0.90133527  1
  Cu  Cu16  1  0.62829657  0.42474373  0.71828996  1
  Cu  Cu17  1  0.37170343  0.42474373  0.21828996  1
  Cu  Cu18  1  0.88192903  0.42720945  0.81548217  1
  Cu  Cu19  1  0.11807097  0.42720945  0.31548217  1
  Cu  Cu20  1  0.39088561  0.84055509  0.55994831  1
  Cu  Cu21  1  0.60911439  0.84055509  0.05994831  1
  Cu  Cu22  1  0.15098460  0.85652628  0.66284619  1
  Cu  Cu23  1  0.84901540  0.85652628  0.16284619  1
  Cu  Cu24  1  0.67897126  0.29969974  0.79720914  1
  Cu  Cu25  1  0.32102874  0.29969974  0.29720914  1
  Cu  Cu26  1  0.08482824  0.21249921  0.12204589  1
  Cu  Cu27  1  0.91517176  0.21249921  0.62204589  1
  Cu  Cu28  1  0.35655890  0.01778640  0.73632311  1
  Cu  Cu29  1  0.64344110  0.01778640  0.23632311  1
  Cu  Cu30  1  0.20528856  0.97540480  0.58548219  1
  Cu  Cu31  1  0.79471144  0.97540480  0.08548219  1
  Cu  Cu32  1  0.22680306  0.51748094  0.79649515  1
  Cu  Cu33  1  0.77319694  0.51748094  0.29649515  1
  Cu  Cu34  1  0.74396367  0.75814199  0.58663435  1
  Cu  Cu35  1  0.25603633  0.75814199  0.08663435  1
  Cl  Cl36  1  0.31189476  0.54591946  0.68308796  1
  Cl  Cl37  1  0.68810524  0.54591946  0.18308796  1
  Cl  Cl38  1  0.12145392  0.52072434  0.91784066  1
  Cl  Cl39  1  0.87854608  0.52072434  0.41784066  1
  Cl  Cl40  1  0.16466435  0.89153222  0.80916551  1
  Cl  Cl41  1  0.83533565  0.89153222  0.30916551  1
  Cl  Cl42  1  0.31605538  0.90961856  0.45421276  1
  Cl  Cl43  1  0.68394462  0.90961856  0.95421276  1
  Cl  Cl44  1  0.72160931  0.16900623  0.69028692  1
  Cl  Cl45  1  0.27839069  0.16900623  0.19028692  1
  Cl  Cl46  1  0.18653949  0.10498881  0.69435599  1
  Cl  Cl47  1  0.81346051  0.10498881  0.19435599  1
  Cl  Cl48  1  0.00344002  0.14503441  0.48744080  1
  Cl  Cl49  1  0.99655998  0.14503441  0.98744080  1
  Cl  Cl50  1  0.46048031  0.10755570  0.87394860  1
  Cl  Cl51  1  0.53951969  0.10755570  0.37394860  1
  Cl  Cl52  1  0.03213625  0.34395582  0.70345627  1
  Cl  Cl53  1  0.96786375  0.34395582  0.20345627  1
  Cl  Cl54  1  0.44683839  0.36358531  0.78679719  1
  Cl  Cl55  1  0.55316161  0.36358531  0.28679719  1
  Cl  Cl56  1  0.64680356  0.38666134  0.57118685  1
  Cl  Cl57  1  0.35319644  0.38666134  0.07118685  1
  Cl  Cl58  1  0.80810507  0.36117796  0.92482247  1
  Cl  Cl59  1  0.19189493  0.36117796  0.42482247  1
  Cl  Cl60  1  0.82166267  0.72779953  0.70136957  1
  Cl  Cl61  1  0.17833733  0.72779953  0.20136957  1
  Cl  Cl62  1  0.63163332  0.74825941  0.46429513  1
  Cl  Cl63  1  0.36836668  0.74825941  0.96429513  1
  Cl  Cl64  1  0.54212579  0.91850494  0.67573692  1
  Cl  Cl65  1  0.45787421  0.91850494  0.17573692  1
  Cl  Cl66  1  0.95636300  0.90058594  0.58865248  1
  Cl  Cl67  1  0.04363700  0.90058594  0.08865248  1
  Cl  Cl68  1  0.25281891  0.72068132  0.57043783  1
  Cl  Cl69  1  0.74718109  0.72068132  0.07043783  1
  Cl  Cl70  1  0.74522274  0.55032663  0.81101674  1
  Cl  Cl71  1  0.25477726  0.55032663  0.31101674  1
