# generated using pymatgen
data_Na3TlO2
_symmetry_space_group_name_H-M   'P 1'
_cell_length_a   5.41190661
_cell_length_b   6.81945151
_cell_length_c   11.65282964
_cell_angle_alpha   90.00000000
_cell_angle_beta   90.00000000
_cell_angle_gamma   90.00000000
_symmetry_Int_Tables_number   1
_chemical_formula_structural   Na3TlO2
_chemical_formula_sum   'Na12 Tl4 O8'
_cell_volume   430.06206565
_cell_formula_units_Z   4
loop_
 _symmetry_equiv_pos_site_id
 _symmetry_equiv_pos_as_xyz
  1  'x, y, z'
loop_
 _atom_site_type_symbol
 _atom_site_label
 _atom_site_symmetry_multiplicity
 _atom_site_fract_x
 _atom_site_fract_y
 _atom_site_fract_z
 _atom_site_occupancy
  O  O0  1  0.49079181  0.75000000  0.24208712  1
  O  O1  1  0.99079181  0.25000000  0.25791288  1
  O  O2  1  0.50920819  0.25000000  0.75791288  1
  O  O3  1  0.00920819  0.75000000  0.74208712  1
  O  O4  1  0.50000000  0.50000000  0.50000000  1
  O  O5  1  0.00000000  0.50000000  0.00000000  1
  O  O6  1  0.50000000  0.00000000  0.50000000  1
  O  O7  1  0.00000000  0.00000000  0.00000000  1
  Na  Na8  1  0.74725017  1.00144063  0.66619735  1
  Na  Na9  1  0.24725017  0.50144063  0.83380265  1
  Na  Na10  1  0.75274983  1.00144063  0.16619735  1
  Na  Na11  1  0.25274983  -0.00144063  0.33380265  1
  Na  Na12  1  0.74825570  0.25000000  0.92292162  1
  Na  Na13  1  0.24825570  0.75000000  0.57707838  1
  Na  Na14  1  0.25174430  0.75000000  0.07707838  1
  Na  Na15  1  0.75174430  0.25000000  0.42292162  1
  Na  Na16  1  0.25274983  0.50144063  0.33380265  1
  Na  Na17  1  0.75274983  0.49855937  0.16619735  1
  Na  Na18  1  0.74725017  0.49855937  0.66619735  1
  Na  Na19  1  0.24725017  -0.00144063  0.83380265  1
  Tl  Tl20  1  0.73800785  0.75000000  0.40929159  1
  Tl  Tl21  1  0.23800785  0.25000000  0.09070841  1
  Tl  Tl22  1  0.26199215  0.25000000  0.59070841  1
  Tl  Tl23  1  0.76199215  0.75000000  0.90929159  1
