# generated using pymatgen
data_Sr4As3
_symmetry_space_group_name_H-M   'P 1'
_cell_length_a   11.05090522
_cell_length_b   12.28533131
_cell_length_c   12.93513561
_cell_angle_alpha   90.00000000
_cell_angle_beta   90.00000000
_cell_angle_gamma   90.00000000
_symmetry_Int_Tables_number   1
_chemical_formula_structural   Sr4As3
_chemical_formula_sum   'Sr32 As24'
_cell_volume   1756.12616363
_cell_formula_units_Z   8
loop_
 _symmetry_equiv_pos_site_id
 _symmetry_equiv_pos_as_xyz
  1  'x, y, z'
loop_
 _atom_site_type_symbol
 _atom_site_label
 _atom_site_symmetry_multiplicity
 _atom_site_fract_x
 _atom_site_fract_y
 _atom_site_fract_z
 _atom_site_occupancy
  As  As0  1  0.88338197  0.50000000  0.00000000  1
  As  As1  1  0.11661803  0.00000000  0.50000000  1
  As  As2  1  0.11661803  0.50000000  0.00000000  1
  As  As3  1  0.88338197  0.00000000  0.50000000  1
  As  As4  1  0.50000000  0.86406930  0.88635495  1
  As  As5  1  0.50000000  0.13593070  0.11364505  1
  As  As6  1  0.50000000  0.36406930  0.61364505  1
  As  As7  1  0.50000000  0.63593070  0.38635495  1
  As  As8  1  0.23381462  0.83777776  0.17710194  1
  As  As9  1  0.23381462  0.16222224  0.82289806  1
  As  As10  1  0.76618538  0.33777776  0.32289806  1
  As  As11  1  0.76618538  0.66222224  0.67710194  1
  As  As12  1  0.76618538  0.16222224  0.82289806  1
  As  As13  1  0.76618538  0.83777776  0.17710194  1
  As  As14  1  0.23381462  0.66222224  0.67710194  1
  As  As15  1  0.23381462  0.33777776  0.32289806  1
  As  As16  1  0.50000000  0.46207835  0.90786904  1
  As  As17  1  0.50000000  0.53792165  0.09213096  1
  As  As18  1  0.50000000  0.96207835  0.59213096  1
  As  As19  1  0.50000000  0.03792165  0.40786904  1
  As  As20  1  0.00000000  0.86037552  0.85804713  1
  As  As21  1  0.00000000  0.13962448  0.14195287  1
  As  As22  1  0.00000000  0.36037552  0.64195287  1
  As  As23  1  0.00000000  0.63962448  0.35804713  1
  Sr  Sr24  1  0.00000000  0.60253047  0.79380036  1
  Sr  Sr25  1  0.00000000  0.39746953  0.20619964  1
  Sr  Sr26  1  0.00000000  0.10253047  0.70619964  1
  Sr  Sr27  1  0.00000000  0.89746953  0.29380036  1
  Sr  Sr28  1  0.72357607  0.40382313  0.76413905  1
  Sr  Sr29  1  0.72357607  0.59617687  0.23586095  1
  Sr  Sr30  1  0.27642393  0.90382313  0.73586095  1
  Sr  Sr31  1  0.27642393  0.09617687  0.26413905  1
  Sr  Sr32  1  0.27642393  0.59617687  0.23586095  1
  Sr  Sr33  1  0.27642393  0.40382313  0.76413905  1
  Sr  Sr34  1  0.72357607  0.09617687  0.26413905  1
  Sr  Sr35  1  0.72357607  0.90382313  0.73586095  1
  Sr  Sr36  1  0.00000000  0.77420544  0.57657517  1
  Sr  Sr37  1  0.00000000  0.22579456  0.42342483  1
  Sr  Sr38  1  0.00000000  0.27420544  0.92342483  1
  Sr  Sr39  1  0.00000000  0.72579456  0.07657517  1
  Sr  Sr40  1  0.67703837  0.67365528  0.93294534  1
  Sr  Sr41  1  0.67703837  0.32634472  0.06705466  1
  Sr  Sr42  1  0.32296163  0.17365528  0.56705466  1
  Sr  Sr43  1  0.32296163  0.82634472  0.43294534  1
  Sr  Sr44  1  0.32296163  0.32634472  0.06705466  1
  Sr  Sr45  1  0.32296163  0.67365528  0.93294534  1
  Sr  Sr46  1  0.67703837  0.82634472  0.43294534  1
  Sr  Sr47  1  0.67703837  0.17365528  0.56705466  1
  Sr  Sr48  1  0.50000000  0.12318473  0.86782682  1
  Sr  Sr49  1  0.50000000  0.87681527  0.13217318  1
  Sr  Sr50  1  0.50000000  0.62318473  0.63217318  1
  Sr  Sr51  1  0.50000000  0.37681527  0.36782682  1
  Sr  Sr52  1  0.81774205  0.00000000  0.00000000  1
  Sr  Sr53  1  0.18225795  0.50000000  0.50000000  1
  Sr  Sr54  1  0.18225795  0.00000000  0.00000000  1
  Sr  Sr55  1  0.81774205  0.50000000  0.50000000  1
