# generated using pymatgen
data_Sc4BCl6
_symmetry_space_group_name_H-M   'P 1'
_cell_length_a   3.61232704
_cell_length_b   11.92014527
_cell_length_c   12.35059434
_cell_angle_alpha   90.00000000
_cell_angle_beta   90.00000000
_cell_angle_gamma   90.00000000
_symmetry_Int_Tables_number   1
_chemical_formula_structural   Sc4BCl6
_chemical_formula_sum   'Sc8 B2 Cl12'
_cell_volume   531.80996099
_cell_formula_units_Z   2
loop_
 _symmetry_equiv_pos_site_id
 _symmetry_equiv_pos_as_xyz
  1  'x, y, z'
loop_
 _atom_site_type_symbol
 _atom_site_label
 _atom_site_symmetry_multiplicity
 _atom_site_fract_x
 _atom_site_fract_y
 _atom_site_fract_z
 _atom_site_occupancy
  B  B0  1  0.50000000  0.00000000  0.00000000  1
  B  B1  1  0.50000000  0.50000000  0.50000000  1
  Cl  Cl2  1  0.50000000  0.26849332  0.68131310  1
  Cl  Cl3  1  0.50000000  0.73150668  0.31868690  1
  Cl  Cl4  1  0.50000000  0.76849332  0.81868690  1
  Cl  Cl5  1  0.50000000  0.23150668  0.18131310  1
  Cl  Cl6  1  0.00000000  0.25662756  0.93045702  1
  Cl  Cl7  1  0.00000000  0.74337244  0.06954298  1
  Cl  Cl8  1  0.00000000  0.47921314  0.24351828  1
  Cl  Cl9  1  0.00000000  0.52078686  0.75648172  1
  Cl  Cl10  1  0.00000000  0.97921314  0.25648172  1
  Cl  Cl11  1  0.00000000  0.02078686  0.74351828  1
  Cl  Cl12  1  0.00000000  0.24337244  0.43045702  1
  Cl  Cl13  1  0.00000000  0.75662756  0.56954298  1
  Sc  Sc14  1  0.00000000  0.10488139  0.08316798  1
  Sc  Sc15  1  0.00000000  0.89511861  0.91683202  1
  Sc  Sc16  1  0.00000000  0.60488139  0.41683202  1
  Sc  Sc17  1  0.00000000  0.39511861  0.58316798  1
  Sc  Sc18  1  0.50000000  0.12456574  0.85362505  1
  Sc  Sc19  1  0.50000000  0.87543426  0.14637495  1
  Sc  Sc20  1  0.50000000  0.62456574  0.64637495  1
  Sc  Sc21  1  0.50000000  0.37543426  0.35362505  1
