# generated using pymatgen
data_Ba2Cu5F14
_symmetry_space_group_name_H-M   'P 1'
_cell_length_a   6.71429700
_cell_length_b   9.83189211
_cell_length_c   10.49201754
_cell_angle_alpha   114.79963965
_cell_angle_beta   90.00000000
_cell_angle_gamma   109.96554398
_symmetry_Int_Tables_number   1
_chemical_formula_structural   Ba2Cu5F14
_chemical_formula_sum   'Ba4 Cu10 F28'
_cell_volume   582.57476424
_cell_formula_units_Z   2
loop_
 _symmetry_equiv_pos_site_id
 _symmetry_equiv_pos_as_xyz
  1  'x, y, z'
loop_
 _atom_site_type_symbol
 _atom_site_label
 _atom_site_symmetry_multiplicity
 _atom_site_fract_x
 _atom_site_fract_y
 _atom_site_fract_z
 _atom_site_occupancy
  F  F0  1  0.01712179  0.72100375  0.86093191  1
  F  F1  1  0.29611804  0.27899625  0.63906809  1
  F  F2  1  0.98287821  0.27899625  0.13906809  1
  F  F3  1  0.70388196  0.72100375  0.36093191  1
  F  F4  1  0.11372168  0.92947130  0.36713381  1
  F  F5  1  0.18425038  0.07052870  0.13286619  1
  F  F6  1  0.88627832  0.07052870  0.63286619  1
  F  F7  1  0.81574962  0.92947130  0.86713381  1
  F  F8  1  0.82938711  0.50086131  0.39478359  1
  F  F9  1  0.32852580  0.49913869  0.10521641  1
  F  F10  1  0.17061289  0.49913869  0.60521641  1
  F  F11  1  0.67147420  0.50086131  0.89478359  1
  F  F12  1  0.05896350  0.84658006  0.61106300  1
  F  F13  1  0.21238344  0.15341994  0.88893700  1
  F  F14  1  0.53694671  0.93260719  0.35550624  1
  F  F15  1  0.60433952  0.06739281  0.14449376  1
  F  F16  1  0.46305329  0.06739281  0.64449376  1
  F  F17  1  0.39566048  0.93260719  0.85550624  1
  F  F18  1  0.54127227  0.78080463  0.60285959  1
  F  F19  1  0.76046765  0.21919537  0.89714041  1
  F  F20  1  0.45872773  0.21919537  0.39714041  1
  F  F21  1  0.23953235  0.78080463  0.10285959  1
  F  F22  1  0.64407363  0.55521023  0.63723765  1
  F  F23  1  0.08886340  0.44478977  0.86276235  1
  F  F24  1  0.35592637  0.44478977  0.36276235  1
  F  F25  1  0.91113660  0.55521023  0.13723765  1
  F  F26  1  0.78761656  0.84658006  0.11106300  1
  F  F27  1  0.94103650  0.15341994  0.38893700  1
  Cu  Cu28  1  0.64573815  0.00000000  0.75000000  1
  Cu  Cu29  1  0.35426185  0.00000000  0.25000000  1
  Cu  Cu30  1  0.17658584  0.06985163  0.64025819  1
  Cu  Cu31  1  0.10673421  0.93014837  0.85974181  1
  Cu  Cu32  1  0.82341416  0.93014837  0.35974181  1
  Cu  Cu33  1  0.89326579  0.06985163  0.14025819  1
  Cu  Cu34  1  0.29504931  0.35072790  0.49254194  1
  Cu  Cu35  1  0.94432141  0.64927210  0.00745806  1
  Cu  Cu36  1  0.70495069  0.64927210  0.50745806  1
  Cu  Cu37  1  0.05567859  0.35072790  0.99254194  1
  Ba  Ba38  1  0.77990844  0.32532667  0.62993773  1
  Ba  Ba39  1  0.45458177  0.67467333  0.87006227  1
  Ba  Ba40  1  0.22009156  0.67467333  0.37006227  1
  Ba  Ba41  1  0.54541823  0.32532667  0.12993773  1
