# generated using pymatgen
data_Ca2P4H11NO18
_symmetry_space_group_name_H-M   'P 1'
_cell_length_a   5.64490349
_cell_length_b   6.31812009
_cell_length_c   12.71233551
_cell_angle_alpha   76.45840169
_cell_angle_beta   83.96866222
_cell_angle_gamma   66.25106258
_symmetry_Int_Tables_number   1
_chemical_formula_structural   Ca2P4H11NO18
_chemical_formula_sum   'Ca2 P4 H11 N1 O18'
_cell_volume   403.42802670
_cell_formula_units_Z   1
loop_
 _symmetry_equiv_pos_site_id
 _symmetry_equiv_pos_as_xyz
  1  'x, y, z'
loop_
 _atom_site_type_symbol
 _atom_site_label
 _atom_site_symmetry_multiplicity
 _atom_site_fract_x
 _atom_site_fract_y
 _atom_site_fract_z
 _atom_site_occupancy
  Ca  Ca0  1  0.00726814  0.29496365  0.90009740  1
  Ca  Ca1  1  0.99493911  0.69968071  0.09872211  1
  P  P2  1  0.49913371  0.20997449  0.09228285  1
  P  P3  1  0.50043547  0.78977513  0.90499738  1
  P  P4  1  0.80718768  0.40556543  0.36082331  1
  P  P5  1  0.16112651  0.61152537  0.63721223  1
  H  H6  1  0.95579724  0.06685731  0.70501641  1
  H  H7  1  0.03521614  0.93038463  0.29146516  1
  H  H8  1  0.37622329  0.92918870  0.19923752  1
  H  H9  1  0.62132341  0.07495868  0.79944972  1
  H  H10  1  0.00187062  0.48393794  0.51039470  1
  H  H11  1  0.01928218  0.96826642  0.52861381  1
  H  H12  1  0.74505943  0.31984566  0.69898087  1
  H  H13  1  0.27096587  0.68740442  0.30406060  1
  H  H14  1  0.62043512  0.40492405  0.19051893  1
  H  H15  1  0.37594536  0.59590965  0.80741738  1
  H  H16  1  0.47997808  0.51311437  0.51154212  1
  N  N17  1  0.63741080  0.04804808  0.42442929  1
  O  O18  1  0.53210377  0.53751805  0.39718573  1
  O  O19  1  0.44453390  0.48875332  0.59650684  1
  O  O20  1  0.84747507  0.10003009  0.40500127  1
  O  O21  1  0.08224454  0.89261840  0.60360612  1
  O  O22  1  0.53520045  0.96206312  0.17133063  1
  O  O23  1  0.46365766  0.03824061  0.82665607  1
  O  O24  1  0.45848209  0.39843527  0.16355192  1
  O  O25  1  0.53782970  0.60413706  0.83213279  1
  O  O26  1  0.24822224  0.31763309  0.03049373  1
  O  O27  1  0.75220714  0.68080513  0.96617935  1
  O  O28  1  0.84515167  0.17591188  0.75169919  1
  O  O29  1  0.15540864  0.81967596  0.24866470  1
  O  O30  1  0.84591858  0.42967098  0.23874491  1
  O  O31  1  0.15175775  0.55606695  0.75979566  1
  O  O32  1  0.75662237  0.14796669  0.03195829  1
  O  O33  1  0.24403360  0.84938682  0.96624920  1
  O  O34  1  0.02620280  0.40573091  0.41934649  1
  O  O35  1  0.96894984  0.54913097  0.58623528  1
