# generated using pymatgen
data_CuSe3I
_symmetry_space_group_name_H-M   'P 1'
_cell_length_a   9.60054747
_cell_length_b   9.60054747
_cell_length_c   9.60054747
_cell_angle_alpha   95.28363143
_cell_angle_beta   95.28363142
_cell_angle_gamma   95.28363141
_symmetry_Int_Tables_number   1
_chemical_formula_structural   CuSe3I
_chemical_formula_sum   'Cu6 Se18 I6'
_cell_volume   872.85906245
_cell_formula_units_Z   6
loop_
 _symmetry_equiv_pos_site_id
 _symmetry_equiv_pos_as_xyz
  1  'x, y, z'
loop_
 _atom_site_type_symbol
 _atom_site_label
 _atom_site_symmetry_multiplicity
 _atom_site_fract_x
 _atom_site_fract_y
 _atom_site_fract_z
 _atom_site_occupancy
  Cu  Cu0  1  0.88728604  0.39087327  0.88728604  1
  Cu  Cu1  1  0.88728604  0.88728604  0.39087327  1
  Cu  Cu2  1  0.39087327  0.88728604  0.88728604  1
  Cu  Cu3  1  0.60912673  0.11271396  0.11271396  1
  Cu  Cu4  1  0.11271396  0.60912673  0.11271396  1
  Cu  Cu5  1  0.11271396  0.11271396  0.60912673  1
  Se  Se6  1  0.61086916  0.87506639  0.61086916  1
  Se  Se7  1  0.61086916  0.61086916  0.87506639  1
  Se  Se8  1  0.87506639  0.61086916  0.61086916  1
  Se  Se9  1  0.12493361  0.38913084  0.38913084  1
  Se  Se10  1  0.38913084  0.12493361  0.38913084  1
  Se  Se11  1  0.38913084  0.38913084  0.12493361  1
  Se  Se12  1  0.87418135  0.13777061  0.87418135  1
  Se  Se13  1  0.87418135  0.87418135  0.13777061  1
  Se  Se14  1  0.13777061  0.87418135  0.87418135  1
  Se  Se15  1  0.86222939  0.12581865  0.12581865  1
  Se  Se16  1  0.12581865  0.86222939  0.12581865  1
  Se  Se17  1  0.12581865  0.12581865  0.86222939  1
  Se  Se18  1  0.71269929  0.45375361  0.71269929  1
  Se  Se19  1  0.71269929  0.71269929  0.45375361  1
  Se  Se20  1  0.45375361  0.71269929  0.71269929  1
  Se  Se21  1  0.54624639  0.28730071  0.28730071  1
  Se  Se22  1  0.28730071  0.54624639  0.28730071  1
  Se  Se23  1  0.28730071  0.28730071  0.54624639  1
  I  I24  1  0.85252852  0.14747148  0.50000000  1
  I  I25  1  0.50000000  0.85252852  0.14747148  1
  I  I26  1  0.14747148  0.50000000  0.85252852  1
  I  I27  1  0.14747148  0.85252852  0.50000000  1
  I  I28  1  0.50000000  0.14747148  0.85252852  1
  I  I29  1  0.85252852  0.50000000  0.14747148  1
