# generated using pymatgen
data_CuMo3I7
_symmetry_space_group_name_H-M   'P 1'
_cell_length_a   11.42842282
_cell_length_b   16.60480324
_cell_length_c   17.28185056
_cell_angle_alpha   90.00000000
_cell_angle_beta   90.00000000
_cell_angle_gamma   90.00000000
_symmetry_Int_Tables_number   1
_chemical_formula_structural   CuMo3I7
_chemical_formula_sum   'Cu8 Mo24 I56'
_cell_volume   3279.51996271
_cell_formula_units_Z   8
loop_
 _symmetry_equiv_pos_site_id
 _symmetry_equiv_pos_as_xyz
  1  'x, y, z'
loop_
 _atom_site_type_symbol
 _atom_site_label
 _atom_site_symmetry_multiplicity
 _atom_site_fract_x
 _atom_site_fract_y
 _atom_site_fract_z
 _atom_site_occupancy
  Cu  Cu0  1  0.36070186  0.71804953  0.79142048  1
  Cu  Cu1  1  0.86070186  0.28195047  0.70857952  1
  Cu  Cu2  1  0.13929814  0.21804953  0.20857952  1
  Cu  Cu3  1  0.63929814  0.78195047  0.29142048  1
  Cu  Cu4  1  0.63929814  0.28195047  0.20857952  1
  Cu  Cu5  1  0.13929814  0.71804953  0.29142048  1
  Cu  Cu6  1  0.86070186  0.78195047  0.79142048  1
  Cu  Cu7  1  0.36070186  0.21804953  0.70857952  1
  Mo  Mo8  1  0.63737016  0.96153282  0.94945395  1
  Mo  Mo9  1  0.13737016  0.03846718  0.55054605  1
  Mo  Mo10  1  0.86262984  0.46153282  0.05054605  1
  Mo  Mo11  1  0.36262984  0.53846718  0.44945395  1
  Mo  Mo12  1  0.36262984  0.03846718  0.05054605  1
  Mo  Mo13  1  0.86262984  0.96153282  0.44945395  1
  Mo  Mo14  1  0.13737016  0.53846718  0.94945395  1
  Mo  Mo15  1  0.63737016  0.46153282  0.55054605  1
  Mo  Mo16  1  0.40568271  0.93915083  0.93084275  1
  Mo  Mo17  1  0.90568271  0.06084917  0.56915725  1
  Mo  Mo18  1  0.09431729  0.43915083  0.06915725  1
  Mo  Mo19  1  0.59431729  0.56084917  0.43084275  1
  Mo  Mo20  1  0.59431729  0.06084917  0.06915725  1
  Mo  Mo21  1  0.09431729  0.93915083  0.43084275  1
  Mo  Mo22  1  0.90568271  0.56084917  0.93084275  1
  Mo  Mo23  1  0.40568271  0.43915083  0.56915725  1
  Mo  Mo24  1  0.49443347  0.08912562  0.93105107  1
  Mo  Mo25  1  0.99443347  0.91087438  0.56894893  1
  Mo  Mo26  1  0.00556653  0.58912562  0.06894893  1
  Mo  Mo27  1  0.50556653  0.41087438  0.43105107  1
  Mo  Mo28  1  0.50556653  0.91087438  0.06894893  1
  Mo  Mo29  1  0.00556653  0.08912562  0.43105107  1
  Mo  Mo30  1  0.99443347  0.41087438  0.93105107  1
  Mo  Mo31  1  0.49443347  0.58912562  0.56894893  1
  I  I32  1  0.55044760  0.80457571  0.94625499  1
  I  I33  1  0.05044760  0.19542429  0.55374501  1
  I  I34  1  0.94955240  0.30457571  0.05374501  1
  I  I35  1  0.44955240  0.69542429  0.44625499  1
  I  I36  1  0.44955240  0.19542429  0.05374501  1
  I  I37  1  0.94955240  0.80457571  0.44625499  1
  I  I38  1  0.05044760  0.69542429  0.94625499  1
  I  I39  1  0.55044760  0.30457571  0.55374501  1
  I  I40  1  0.53917296  0.98958690  0.80423188  1
  I  I41  1  0.03917296  0.01041310  0.69576812  1
  I  I42  1  0.96082704  0.48958690  0.19576812  1
  I  I43  1  0.46082704  0.51041310  0.30423188  1
  I  I44  1  0.46082704  0.01041310  0.19576812  1
  I  I45  1  0.96082704  0.98958690  0.30423188  1
  I  I46  1  0.03917296  0.51041310  0.80423188  1
  I  I47  1  0.53917296  0.48958690  0.69576812  1
  I  I48  1  0.25346728  0.06938615  0.90844768  1
  I  I49  1  0.75346728  0.93061385  0.59155232  1
  I  I50  1  0.24653272  0.56938615  0.09155232  1
  I  I51  1  0.74653272  0.43061385  0.40844768  1
  I  I52  1  0.74653272  0.93061385  0.09155232  1
  I  I53  1  0.24653272  0.06938615  0.40844768  1
  I  I54  1  0.75346728  0.43061385  0.90844768  1
  I  I55  1  0.25346728  0.56938615  0.59155232  1
  I  I56  1  0.26523055  0.88391641  0.05284244  1
  I  I57  1  0.76523055  0.11608359  0.44715756  1
  I  I58  1  0.23476945  0.38391641  0.94715756  1
  I  I59  1  0.73476945  0.61608359  0.55284244  1
  I  I60  1  0.73476945  0.11608359  0.94715756  1
  I  I61  1  0.23476945  0.88391641  0.55284244  1
  I  I62  1  0.76523055  0.61608359  0.05284244  1
  I  I63  1  0.26523055  0.38391641  0.44715756  1
  I  I64  1  0.48616659  0.22896547  0.82984085  1
  I  I65  1  0.98616659  0.77103453  0.67015915  1
  I  I66  1  0.01383341  0.72896547  0.17015915  1
  I  I67  1  0.51383341  0.27103453  0.32984085  1
  I  I68  1  0.51383341  0.77103453  0.17015915  1
  I  I69  1  0.01383341  0.22896547  0.32984085  1
  I  I70  1  0.98616659  0.27103453  0.82984085  1
  I  I71  1  0.48616659  0.72896547  0.67015915  1
  I  I72  1  0.85274410  0.90806647  0.87356463  1
  I  I73  1  0.35274410  0.09193353  0.62643537  1
  I  I74  1  0.64725590  0.40806647  0.12643537  1
  I  I75  1  0.14725590  0.59193353  0.37356463  1
  I  I76  1  0.14725590  0.09193353  0.12643537  1
  I  I77  1  0.64725590  0.90806647  0.37356463  1
  I  I78  1  0.35274410  0.59193353  0.87356463  1
  I  I79  1  0.85274410  0.40806647  0.62643537  1
  I  I80  1  0.25819855  0.85033456  0.82473649  1
  I  I81  1  0.75819855  0.14966544  0.67526351  1
  I  I82  1  0.24180145  0.35033456  0.17526351  1
  I  I83  1  0.74180145  0.64966544  0.32473649  1
  I  I84  1  0.74180145  0.14966544  0.17526351  1
  I  I85  1  0.24180145  0.85033456  0.32473649  1
  I  I86  1  0.75819855  0.64966544  0.82473649  1
  I  I87  1  0.25819855  0.35033456  0.67526351  1
