# generated using pymatgen
data_Y5C2I9
_symmetry_space_group_name_H-M   'P 1'
_cell_length_a   10.93215675
_cell_length_b   12.66269714
_cell_length_c   17.48356170
_cell_angle_alpha   90.00000000
_cell_angle_beta   90.00000000
_cell_angle_gamma   105.75364984
_symmetry_Int_Tables_number   1
_chemical_formula_structural   Y5C2I9
_chemical_formula_sum   'Y20 C8 I36'
_cell_volume   2329.34982838
_cell_formula_units_Z   4
loop_
 _symmetry_equiv_pos_site_id
 _symmetry_equiv_pos_as_xyz
  1  'x, y, z'
loop_
 _atom_site_type_symbol
 _atom_site_label
 _atom_site_symmetry_multiplicity
 _atom_site_fract_x
 _atom_site_fract_y
 _atom_site_fract_z
 _atom_site_occupancy
  C  C0  1  0.40718714  0.33765306  0.53073835  1
  C  C1  1  0.49440054  0.61668722  0.41568112  1
  C  C2  1  0.99440054  0.11668722  0.08431888  1
  C  C3  1  0.50559946  0.38331278  0.58431888  1
  C  C4  1  0.90718714  0.83765306  0.96926165  1
  C  C5  1  0.59281286  0.66234694  0.46926165  1
  C  C6  1  0.09281286  0.16234694  0.03073835  1
  C  C7  1  0.00559946  0.88331278  0.91568112  1
  Y  Y8  1  0.74014627  0.75255413  0.55317161  1
  Y  Y9  1  0.46275221  0.80087190  0.44210757  1
  Y  Y10  1  0.96275221  0.30087190  0.05789243  1
  Y  Y11  1  0.53724779  0.19912810  0.55789243  1
  Y  Y12  1  0.25985373  0.24744587  0.44682839  1
  Y  Y13  1  0.38223533  0.53352817  0.53913440  1
  Y  Y14  1  0.03724779  0.69912810  0.94210757  1
  Y  Y15  1  0.75985373  0.74744587  0.05317161  1
  Y  Y16  1  0.35545035  0.55385862  0.32080186  1
  Y  Y17  1  0.14454965  0.94614138  0.82080186  1
  Y  Y18  1  0.64454965  0.44614138  0.67919814  1
  Y  Y19  1  0.85545035  0.05385862  0.17919814  1
  Y  Y20  1  0.11776467  0.96647183  0.03913440  1
  Y  Y21  1  0.61776467  0.46647183  0.46086560  1
  Y  Y22  1  0.88223533  0.03352817  0.96086560  1
  Y  Y23  1  0.29969207  0.28356705  0.65557060  1
  Y  Y24  1  0.20030793  0.21643295  0.15557060  1
  Y  Y25  1  0.70030793  0.71643295  0.34442940  1
  Y  Y26  1  0.24014627  0.25255413  0.94682839  1
  Y  Y27  1  0.79969207  0.78356705  0.84442940  1
  I  I28  1  0.14108612  0.45692721  0.94171541  1
  I  I29  1  0.75378581  0.24958143  0.18106645  1
  I  I30  1  0.25378581  0.74958143  0.31893355  1
  I  I31  1  0.24621419  0.75041857  0.81893355  1
  I  I32  1  0.57353617  0.66784932  0.69736844  1
  I  I33  1  0.92646383  0.83215068  0.19736844  1
  I  I34  1  0.42646383  0.33215068  0.30263156  1
  I  I35  1  0.07353617  0.16784932  0.80263156  1
  I  I36  1  0.45168642  0.35816418  0.80766928  1
  I  I37  1  0.04831358  0.14183582  0.30766928  1
  I  I38  1  0.54831358  0.64183582  0.19233072  1
  I  I39  1  0.95168642  0.85816418  0.69233072  1
  I  I40  1  0.68554007  0.96683263  0.82658816  1
  I  I41  1  0.81445993  0.53316737  0.32658816  1
  I  I42  1  0.31445993  0.03316737  0.17341184  1
  I  I43  1  0.18554007  0.46683263  0.67341184  1
  I  I44  1  0.22964458  0.76579371  0.06256621  1
  I  I45  1  0.27035542  0.73420629  0.56256621  1
  I  I46  1  0.77035542  0.23420629  0.93743379  1
  I  I47  1  0.72964458  0.26579371  0.43743379  1
  I  I48  1  0.74621419  0.25041857  0.68106645  1
  I  I49  1  0.93509961  0.84500194  0.43452247  1
  I  I50  1  0.43509961  0.34500194  0.06547753  1
  I  I51  1  0.06490039  0.15499806  0.56547753  1
  I  I52  1  0.86002578  0.56082329  0.81683552  1
  I  I53  1  0.63997422  0.93917671  0.31683552  1
  I  I54  1  0.13997422  0.43917671  0.18316448  1
  I  I55  1  0.36002578  0.06082329  0.68316448  1
  I  I56  1  0.35891388  0.04307279  0.44171541  1
  I  I57  1  0.85891388  0.54307279  0.05828459  1
  I  I58  1  0.64108612  0.95692721  0.55828459  1
  I  I59  1  0.35606449  0.05671604  0.93324372  1
  I  I60  1  0.14393551  0.44328396  0.43324372  1
  I  I61  1  0.64393551  0.94328396  0.06675628  1
  I  I62  1  0.85606449  0.55671604  0.56675628  1
  I  I63  1  0.56490039  0.65499806  0.93452247  1
