# generated using pymatgen
data_NaScCl4
_symmetry_space_group_name_H-M   'P 1'
_cell_length_a   6.35122590
_cell_length_b   6.43278678
_cell_length_c   15.71381496
_cell_angle_alpha   90.00000000
_cell_angle_beta   90.00000000
_cell_angle_gamma   90.00000000
_symmetry_Int_Tables_number   1
_chemical_formula_structural   NaScCl4
_chemical_formula_sum   'Na4 Sc4 Cl16'
_cell_volume   642.00491264
_cell_formula_units_Z   4
loop_
 _symmetry_equiv_pos_site_id
 _symmetry_equiv_pos_as_xyz
  1  'x, y, z'
loop_
 _atom_site_type_symbol
 _atom_site_label
 _atom_site_symmetry_multiplicity
 _atom_site_fract_x
 _atom_site_fract_y
 _atom_site_fract_z
 _atom_site_occupancy
  Na  Na0  1  0.00000000  0.25000000  0.67974900  1
  Na  Na1  1  0.50000000  0.75000000  0.82025100  1
  Na  Na2  1  0.00000000  0.75000000  0.32025100  1
  Na  Na3  1  0.50000000  0.25000000  0.17974900  1
  Cl  Cl4  1  0.26895349  0.60622570  0.67702356  1
  Cl  Cl5  1  0.77862494  0.42838887  0.04915688  1
  Cl  Cl6  1  0.27862494  0.57161113  0.45084312  1
  Cl  Cl7  1  0.72137506  0.92838887  0.45084312  1
  Cl  Cl8  1  0.76895349  0.39377430  0.82297644  1
  Cl  Cl9  1  0.23104651  0.60622570  0.17702356  1
  Cl  Cl10  1  0.73104651  0.89377430  0.67702356  1
  Cl  Cl11  1  0.23104651  0.10622570  0.82297644  1
  Cl  Cl12  1  0.26895349  0.10622570  0.32297644  1
  Cl  Cl13  1  0.73104651  0.39377430  0.32297644  1
  Cl  Cl14  1  0.22137506  0.57161113  0.95084312  1
  Cl  Cl15  1  0.76895349  0.89377430  0.17702356  1
  Cl  Cl16  1  0.77862494  0.92838887  0.95084312  1
  Cl  Cl17  1  0.27862494  0.07161113  0.54915688  1
  Cl  Cl18  1  0.72137506  0.42838887  0.54915688  1
  Cl  Cl19  1  0.22137506  0.07161113  0.04915688  1
  Sc  Sc20  1  0.00000000  0.25000000  0.92971467  1
  Sc  Sc21  1  0.50000000  0.25000000  0.42971467  1
  Sc  Sc22  1  0.00000000  0.75000000  0.07028533  1
  Sc  Sc23  1  0.50000000  0.75000000  0.57028533  1
