# generated using pymatgen
data_NaGa3Te5
_symmetry_space_group_name_H-M   'P 1'
_cell_length_a   10.52807870
_cell_length_b   10.52807870
_cell_length_c   10.52807870
_cell_angle_alpha   90.49386995
_cell_angle_beta   90.49386995
_cell_angle_gamma   90.49386995
_symmetry_Int_Tables_number   1
_chemical_formula_structural   NaGa3Te5
_chemical_formula_sum   'Na4 Ga12 Te20'
_cell_volume   1166.80608345
_cell_formula_units_Z   4
loop_
 _symmetry_equiv_pos_site_id
 _symmetry_equiv_pos_as_xyz
  1  'x, y, z'
loop_
 _atom_site_type_symbol
 _atom_site_label
 _atom_site_symmetry_multiplicity
 _atom_site_fract_x
 _atom_site_fract_y
 _atom_site_fract_z
 _atom_site_occupancy
  Na  Na0  1  0.00000000  0.25635799  0.74364201  1
  Na  Na1  1  0.25635799  0.74364201  0.00000000  1
  Na  Na2  1  0.74364201  0.00000000  0.25635799  1
  Na  Na3  1  0.50000000  0.50000000  0.50000000  1
  Ga  Ga4  1  0.87804838  0.83854183  0.57352373  1
  Ga  Ga5  1  0.83854183  0.57352373  0.87804838  1
  Ga  Ga6  1  0.57352373  0.87804838  0.83854183  1
  Ga  Ga7  1  0.42647627  0.16145817  0.12195162  1
  Ga  Ga8  1  0.16145817  0.12195162  0.42647627  1
  Ga  Ga9  1  0.12195162  0.42647627  0.16145817  1
  Ga  Ga10  1  0.16561810  0.74710030  0.34289519  1
  Ga  Ga11  1  0.74710030  0.34289519  0.16561810  1
  Ga  Ga12  1  0.34289519  0.16561810  0.74710030  1
  Ga  Ga13  1  0.65710481  0.25289970  0.83438190  1
  Ga  Ga14  1  0.25289970  0.83438190  0.65710481  1
  Ga  Ga15  1  0.83438190  0.65710481  0.25289970  1
  Te  Te16  1  0.82646208  0.17353792  0.00000000  1
  Te  Te17  1  0.00000000  0.82646208  0.17353792  1
  Te  Te18  1  0.17253225  0.17253225  0.17253225  1
  Te  Te19  1  0.82746775  0.82746775  0.82746775  1
  Te  Te20  1  0.17353792  0.00000000  0.82646208  1
  Te  Te21  1  0.50000000  0.92284481  0.07715519  1
  Te  Te22  1  0.92284481  0.07715519  0.50000000  1
  Te  Te23  1  0.07715519  0.50000000  0.92284481  1
  Te  Te24  1  0.68684272  0.74976510  0.43079792  1
  Te  Te25  1  0.74976510  0.43079792  0.68684272  1
  Te  Te26  1  0.43079792  0.68684272  0.74976510  1
  Te  Te27  1  0.56920208  0.25023490  0.31315728  1
  Te  Te28  1  0.25023490  0.31315728  0.56920208  1
  Te  Te29  1  0.31315728  0.56920208  0.25023490  1
  Te  Te30  1  0.06995086  0.67339868  0.56962916  1
  Te  Te31  1  0.67339868  0.56962916  0.06995086  1
  Te  Te32  1  0.56962916  0.06995086  0.67339868  1
  Te  Te33  1  0.43037084  0.32660132  0.93004914  1
  Te  Te34  1  0.32660132  0.93004914  0.43037084  1
  Te  Te35  1  0.93004914  0.43037084  0.32660132  1
