# generated using pymatgen
data_Y4BBr6
_symmetry_space_group_name_H-M   'P 1'
_cell_length_a   10.76418405
_cell_length_b   10.76418405
_cell_length_c   12.64700944
_cell_angle_alpha   84.52605552
_cell_angle_beta   84.52605552
_cell_angle_gamma   63.38102527
_symmetry_Int_Tables_number   1
_chemical_formula_structural   Y4BBr6
_chemical_formula_sum   'Y16 B4 Br24'
_cell_volume   1301.79913363
_cell_formula_units_Z   4
loop_
 _symmetry_equiv_pos_site_id
 _symmetry_equiv_pos_as_xyz
  1  'x, y, z'
loop_
 _atom_site_type_symbol
 _atom_site_label
 _atom_site_symmetry_multiplicity
 _atom_site_fract_x
 _atom_site_fract_y
 _atom_site_fract_z
 _atom_site_occupancy
  B  B0  1  0.33959666  0.58777383  0.60565006  1
  B  B1  1  0.41222617  0.66040334  0.89434994  1
  B  B2  1  0.66040334  0.41222617  0.39434994  1
  B  B3  1  0.58777383  0.33959666  0.10565006  1
  Br  Br4  1  0.85701899  0.62046659  0.25174466  1
  Br  Br5  1  0.37953341  0.14298101  0.24825534  1
  Br  Br6  1  0.14298101  0.37953341  0.74825534  1
  Br  Br7  1  0.62046659  0.85701899  0.75174466  1
  Br  Br8  1  0.84130506  0.08616403  0.60341742  1
  Br  Br9  1  0.91383597  0.15869494  0.89658258  1
  Br  Br10  1  0.15869494  0.91383597  0.39658258  1
  Br  Br11  1  0.08616403  0.84130506  0.10341742  1
  Br  Br12  1  0.94723457  0.69176075  0.53361967  1
  Br  Br13  1  0.30823925  0.05276543  0.96638033  1
  Br  Br14  1  0.05276543  0.30823925  0.46638033  1
  Br  Br15  1  0.69176075  0.94723457  0.03361967  1
  Br  Br16  1  0.01593972  0.77477625  0.81910673  1
  Br  Br17  1  0.22522375  0.98406028  0.68089327  1
  Br  Br18  1  0.98406028  0.22522375  0.18089327  1
  Br  Br19  1  0.77477625  0.01593972  0.31910673  1
  Br  Br20  1  0.53064550  0.25297775  0.81525081  1
  Br  Br21  1  0.74702225  0.46935450  0.68474919  1
  Br  Br22  1  0.46935450  0.74702225  0.18474919  1
  Br  Br23  1  0.25297775  0.53064550  0.31525081  1
  Br  Br24  1  0.19391020  0.45354735  0.02564626  1
  Br  Br25  1  0.54645265  0.80608980  0.47435374  1
  Br  Br26  1  0.80608980  0.54645265  0.97435374  1
  Br  Br27  1  0.45354735  0.19391020  0.52564626  1
  Y  Y28  1  0.28880037  0.52991190  0.80842203  1
  Y  Y29  1  0.47008810  0.71119963  0.69157797  1
  Y  Y30  1  0.71119963  0.47008810  0.19157797  1
  Y  Y31  1  0.52991190  0.28880037  0.30842203  1
  Y  Y32  1  0.21623938  0.45677215  0.54648255  1
  Y  Y33  1  0.54322785  0.78376062  0.95351745  1
  Y  Y34  1  0.78376062  0.54322785  0.45351745  1
  Y  Y35  1  0.45677215  0.21623938  0.04648255  1
  Y  Y36  1  0.41899168  0.64051439  0.41232778  1
  Y  Y37  1  0.35948561  0.58100832  0.08767222  1
  Y  Y38  1  0.58100832  0.35948561  0.58767222  1
  Y  Y39  1  0.64051439  0.41899168  0.91232778  1
  Y  Y40  1  0.88337835  0.18883041  0.39541103  1
  Y  Y41  1  0.81116959  0.11662165  0.10458897  1
  Y  Y42  1  0.11662165  0.81116959  0.60458897  1
  Y  Y43  1  0.18883041  0.88337835  0.89541103  1
