# generated using pymatgen
data_Pd(SeBr3)2
_symmetry_space_group_name_H-M   'P 1'
_cell_length_a   5.04184234
_cell_length_b   7.39545232
_cell_length_c   9.36814973
_cell_angle_alpha   106.46815357
_cell_angle_beta   95.80891451
_cell_angle_gamma   91.76029815
_symmetry_Int_Tables_number   1
_chemical_formula_structural   Pd(SeBr3)2
_chemical_formula_sum   'Pd1 Se2 Br6'
_cell_volume   332.61107140
_cell_formula_units_Z   1
loop_
 _symmetry_equiv_pos_site_id
 _symmetry_equiv_pos_as_xyz
  1  'x, y, z'
loop_
 _atom_site_type_symbol
 _atom_site_label
 _atom_site_symmetry_multiplicity
 _atom_site_fract_x
 _atom_site_fract_y
 _atom_site_fract_z
 _atom_site_occupancy
  Se  Se0  1  0.68753221  0.28548877  0.30484237  1
  Se  Se1  1  0.31246779  0.71451123  0.69515763  1
  Br  Br2  1  0.30864178  0.62161722  0.35498834  1
  Br  Br3  1  0.69135822  0.37838278  0.64501166  1
  Br  Br4  1  0.74671568  0.32601040  0.06819767  1
  Br  Br5  1  0.08257705  -0.00305832  0.71270456  1
  Br  Br6  1  0.91742295  1.00305832  0.28729544  1
  Br  Br7  1  0.25328432  0.67398960  0.93180233  1
  Pd  Pd8  1  0.00000000  0.50000000  0.50000000  1
