# generated using pymatgen
data_Rb3Mo2Cl9
_symmetry_space_group_name_H-M   'P 1'
_cell_length_a   7.33098078
_cell_length_b   7.33098078
_cell_length_c   17.84505204
_cell_angle_alpha   90.00000000
_cell_angle_beta   90.00000000
_cell_angle_gamma   120.00000000
_symmetry_Int_Tables_number   1
_chemical_formula_structural   Rb3Mo2Cl9
_chemical_formula_sum   'Rb6 Mo4 Cl18'
_cell_volume   830.56306130
_cell_formula_units_Z   2
loop_
 _symmetry_equiv_pos_site_id
 _symmetry_equiv_pos_as_xyz
  1  'x, y, z'
loop_
 _atom_site_type_symbol
 _atom_site_label
 _atom_site_symmetry_multiplicity
 _atom_site_fract_x
 _atom_site_fract_y
 _atom_site_fract_z
 _atom_site_occupancy
  Cl  Cl0  1  0.82272296  0.17727704  0.40535481  1
  Cl  Cl1  1  0.82272296  0.64544592  0.40535481  1
  Cl  Cl2  1  0.35455408  0.17727704  0.40535481  1
  Cl  Cl3  1  0.64544592  0.82272296  0.90535481  1
  Cl  Cl4  1  0.17727704  0.35455408  0.59464519  1
  Cl  Cl5  1  0.17727704  0.82272296  0.90535481  1
  Cl  Cl6  1  0.17727704  0.35455408  0.90535481  1
  Cl  Cl7  1  0.82272296  0.17727704  0.09464519  1
  Cl  Cl8  1  0.35455408  0.17727704  0.09464519  1
  Cl  Cl9  1  0.64544592  0.82272296  0.59464519  1
  Cl  Cl10  1  0.50372636  0.00745272  0.25000000  1
  Cl  Cl11  1  0.49627364  0.50372636  0.75000000  1
  Cl  Cl12  1  0.00745272  0.50372636  0.75000000  1
  Cl  Cl13  1  0.99254728  0.49627364  0.25000000  1
  Cl  Cl14  1  0.50372636  0.49627364  0.25000000  1
  Cl  Cl15  1  0.49627364  0.99254728  0.75000000  1
  Cl  Cl16  1  0.82272296  0.64544592  0.09464519  1
  Cl  Cl17  1  0.17727704  0.82272296  0.59464519  1
  Rb  Rb18  1  0.00000000  0.00000000  0.25000000  1
  Rb  Rb19  1  0.00000000  0.00000000  0.75000000  1
  Rb  Rb20  1  0.33333333  0.66666667  0.06723085  1
  Rb  Rb21  1  0.66666667  0.33333333  0.56723085  1
  Rb  Rb22  1  0.33333333  0.66666667  0.43276915  1
  Rb  Rb23  1  0.66666667  0.33333333  0.93276915  1
  Mo  Mo24  1  0.33333333  0.66666667  0.82794042  1
  Mo  Mo25  1  0.66666667  0.33333333  0.32794042  1
  Mo  Mo26  1  0.66666667  0.33333333  0.17205958  1
  Mo  Mo27  1  0.33333333  0.66666667  0.67205958  1
