# generated using pymatgen
data_Na2ZnO2
_symmetry_space_group_name_H-M   'P 1'
_cell_length_a   5.79402134
_cell_length_b   6.04124910
_cell_length_c   7.82476361
_cell_angle_alpha   90.00000000
_cell_angle_beta   94.87361299
_cell_angle_gamma   90.00000000
_symmetry_Int_Tables_number   1
_chemical_formula_structural   Na2ZnO2
_chemical_formula_sum   'Na8 Zn4 O8'
_cell_volume   272.90094250
_cell_formula_units_Z   4
loop_
 _symmetry_equiv_pos_site_id
 _symmetry_equiv_pos_as_xyz
  1  'x, y, z'
loop_
 _atom_site_type_symbol
 _atom_site_label
 _atom_site_symmetry_multiplicity
 _atom_site_fract_x
 _atom_site_fract_y
 _atom_site_fract_z
 _atom_site_occupancy
  O  O0  1  0.74859538  0.03505919  0.85154305  1
  O  O1  1  0.75140462  0.53505919  0.14845695  1
  O  O2  1  0.25140462  0.96494081  0.14845695  1
  O  O3  1  0.24859538  0.46494081  0.85154305  1
  O  O4  1  0.30229886  0.87770490  0.56276042  1
  O  O5  1  0.19770114  0.37770490  0.43723958  1
  O  O6  1  0.69770114  0.12229510  0.43723958  1
  O  O7  1  0.80229886  0.62229510  0.56276042  1
  Na  Na8  1  0.99124372  0.74206256  0.97224046  1
  Na  Na9  1  0.50875628  0.24206256  0.02775954  1
  Na  Na10  1  0.00875628  0.25793744  0.02775954  1
  Na  Na11  1  0.49124372  0.75793744  0.97224046  1
  Na  Na12  1  0.57129730  0.35512500  0.67566877  1
  Na  Na13  1  0.92870270  0.85512500  0.32433123  1
  Na  Na14  1  0.42870270  0.64487500  0.32433123  1
  Na  Na15  1  0.07129730  0.14487500  0.67566877  1
  Zn  Zn16  1  0.14466897  0.60638713  0.63552415  1
  Zn  Zn17  1  0.35533103  0.10638713  0.36447585  1
  Zn  Zn18  1  0.85533103  0.39361287  0.36447585  1
  Zn  Zn19  1  0.64466897  0.89361287  0.63552415  1
