# generated using pymatgen
data_Rb6Cl4O
_symmetry_space_group_name_H-M   'P 1'
_cell_length_a   9.17943626
_cell_length_b   9.17943626
_cell_length_c   9.17943626
_cell_angle_alpha   89.38020737
_cell_angle_beta   89.38020740
_cell_angle_gamma   89.38020737
_symmetry_Int_Tables_number   1
_chemical_formula_structural   Rb6Cl4O
_chemical_formula_sum   'Rb12 Cl8 O2'
_cell_volume   773.34332644
_cell_formula_units_Z   2
loop_
 _symmetry_equiv_pos_site_id
 _symmetry_equiv_pos_as_xyz
  1  'x, y, z'
loop_
 _atom_site_type_symbol
 _atom_site_label
 _atom_site_symmetry_multiplicity
 _atom_site_fract_x
 _atom_site_fract_y
 _atom_site_fract_z
 _atom_site_occupancy
  O  O0  1  0.50000000  0.50000000  0.50000000  1
  O  O1  1  0.00000000  0.00000000  0.00000000  1
  Cl  Cl2  1  0.75000000  0.75000000  0.75000000  1
  Cl  Cl3  1  0.25000000  0.25000000  0.25000000  1
  Cl  Cl4  1  0.37613031  0.75000000  0.12386969  1
  Cl  Cl5  1  0.75000000  0.12386969  0.37613031  1
  Cl  Cl6  1  0.12386969  0.37613031  0.75000000  1
  Cl  Cl7  1  0.62386969  0.25000000  0.87613031  1
  Cl  Cl8  1  0.25000000  0.87613031  0.62386969  1
  Cl  Cl9  1  0.87613031  0.62386969  0.25000000  1
  Rb  Rb10  1  0.92967936  0.05646232  0.71739087  1
  Rb  Rb11  1  0.71739087  0.92967936  0.05646232  1
  Rb  Rb12  1  0.05646232  0.71739087  0.92967936  1
  Rb  Rb13  1  0.44353768  0.57032064  0.78260913  1
  Rb  Rb14  1  0.57032064  0.78260913  0.44353768  1
  Rb  Rb15  1  0.78260913  0.44353768  0.57032064  1
  Rb  Rb16  1  0.28260913  0.07032064  0.94353768  1
  Rb  Rb17  1  0.07032064  0.94353768  0.28260913  1
  Rb  Rb18  1  0.94353768  0.28260913  0.07032064  1
  Rb  Rb19  1  0.55646232  0.42967936  0.21739087  1
  Rb  Rb20  1  0.42967936  0.21739087  0.55646232  1
  Rb  Rb21  1  0.21739087  0.55646232  0.42967936  1
