# generated using pymatgen
data_WBr2
_symmetry_space_group_name_H-M   'P 1'
_cell_length_a   10.04693932
_cell_length_b   10.04693931
_cell_length_c   12.12242613
_cell_angle_alpha   90.00000000
_cell_angle_beta   90.00000000
_cell_angle_gamma   105.82210720
_symmetry_Int_Tables_number   1
_chemical_formula_structural   WBr2
_chemical_formula_sum   'W12 Br24'
_cell_volume   1177.28910861
_cell_formula_units_Z   12
loop_
 _symmetry_equiv_pos_site_id
 _symmetry_equiv_pos_as_xyz
  1  'x, y, z'
loop_
 _atom_site_type_symbol
 _atom_site_label
 _atom_site_symmetry_multiplicity
 _atom_site_fract_x
 _atom_site_fract_y
 _atom_site_fract_z
 _atom_site_occupancy
  Br  Br0  1  0.65589041  0.65589041  0.84415690  1
  Br  Br1  1  0.84410959  0.84410959  0.34415690  1
  Br  Br2  1  0.15589041  0.15589041  0.65584310  1
  Br  Br3  1  0.34410959  0.34410959  0.15584310  1
  Br  Br4  1  0.77829983  0.22170017  0.50000000  1
  Br  Br5  1  0.72170017  0.27829983  0.00000000  1
  Br  Br6  1  0.22170017  0.77829983  0.50000000  1
  Br  Br7  1  0.27829983  0.72170017  0.00000000  1
  Br  Br8  1  0.09193439  0.32466814  0.93091095  1
  Br  Br9  1  0.40806561  0.17533186  0.43091095  1
  Br  Br10  1  0.82466814  0.59193439  0.56908905  1
  Br  Br11  1  0.67533186  0.90806561  0.06908905  1
  Br  Br12  1  0.18545712  0.95275951  0.20817831  1
  Br  Br13  1  0.31454288  0.54724049  0.70817831  1
  Br  Br14  1  0.45275951  0.68545712  0.29182169  1
  Br  Br15  1  0.04724049  0.81454288  0.79182169  1
  Br  Br16  1  0.81454288  0.04724049  0.79182169  1
  Br  Br17  1  0.68545712  0.45275951  0.29182169  1
  Br  Br18  1  0.54724049  0.31454288  0.70817831  1
  Br  Br19  1  0.95275951  0.18545712  0.20817831  1
  Br  Br20  1  0.32466814  0.09193439  0.93091095  1
  Br  Br21  1  0.17533186  0.40806561  0.43091095  1
  Br  Br22  1  0.59193439  0.82466814  0.56908905  1
  Br  Br23  1  0.90806561  0.67533186  0.06908905  1
  W  W24  1  0.06975154  0.06975154  0.86191232  1
  W  W25  1  0.43024846  0.43024846  0.36191232  1
  W  W26  1  0.56975154  0.56975154  0.63808768  1
  W  W27  1  0.93024846  0.93024846  0.13808768  1
  W  W28  1  0.86184737  0.86184737  0.93034004  1
  W  W29  1  0.63815263  0.63815263  0.43034004  1
  W  W30  1  0.36184737  0.36184737  0.56965996  1
  W  W31  1  0.13815263  0.13815263  0.06965996  1
  W  W32  1  0.61733477  0.38266523  0.50000000  1
  W  W33  1  0.88266523  0.11733477  0.00000000  1
  W  W34  1  0.38266523  0.61733477  0.50000000  1
  W  W35  1  0.11733477  0.88266523  0.00000000  1
