# generated using pymatgen
data_Rb3AsSe16
_symmetry_space_group_name_H-M   'P 1'
_cell_length_a   12.10058488
_cell_length_b   12.10058488
_cell_length_c   12.10058488
_cell_angle_alpha   60.00000000
_cell_angle_beta   60.00000001
_cell_angle_gamma   59.99999999
_symmetry_Int_Tables_number   1
_chemical_formula_structural   Rb3AsSe16
_chemical_formula_sum   'Rb6 As2 Se32'
_cell_volume   1252.86445884
_cell_formula_units_Z   2
loop_
 _symmetry_equiv_pos_site_id
 _symmetry_equiv_pos_as_xyz
  1  'x, y, z'
loop_
 _atom_site_type_symbol
 _atom_site_label
 _atom_site_symmetry_multiplicity
 _atom_site_fract_x
 _atom_site_fract_y
 _atom_site_fract_z
 _atom_site_occupancy
  As  As0  1  0.12500000  0.12500000  0.12500000  1
  As  As1  1  0.87500000  0.87500000  0.87500000  1
  Se  Se2  1  0.05106582  0.46314031  0.67347378  1
  Se  Se3  1  0.67347378  0.46314031  0.31232009  1
  Se  Se4  1  0.67347378  0.05106582  0.46314031  1
  Se  Se5  1  0.05106582  0.31232009  0.46314031  1
  Se  Se6  1  0.31232009  0.67347378  0.46314031  1
  Se  Se7  1  0.46314031  0.05106582  0.31232009  1
  Se  Se8  1  0.20498983  0.88503050  0.20498983  1
  Se  Se9  1  0.20498983  0.20498983  0.88503050  1
  Se  Se10  1  0.88503050  0.20498983  0.20498983  1
  Se  Se11  1  0.20498983  0.20498983  0.20498983  1
  Se  Se12  1  0.79501017  0.11496950  0.79501017  1
  Se  Se13  1  0.79501017  0.79501017  0.11496950  1
  Se  Se14  1  0.11496950  0.79501017  0.79501017  1
  Se  Se15  1  0.79501017  0.79501017  0.79501017  1
  Se  Se16  1  0.32652622  0.68767991  0.94893418  1
  Se  Se17  1  0.94893418  0.32652622  0.68767991  1
  Se  Se18  1  0.68767991  0.94893418  0.32652622  1
  Se  Se19  1  0.53685969  0.32652622  0.94893418  1
  Se  Se20  1  0.68767991  0.53685969  0.94893418  1
  Se  Se21  1  0.53685969  0.68767991  0.32652622  1
  Se  Se22  1  0.94893418  0.68767991  0.53685969  1
  Se  Se23  1  0.32652622  0.94893418  0.53685969  1
  Se  Se24  1  0.32652622  0.53685969  0.68767991  1
  Se  Se25  1  0.94893418  0.53685969  0.32652622  1
  Se  Se26  1  0.53685969  0.94893418  0.68767991  1
  Se  Se27  1  0.68767991  0.32652622  0.53685969  1
  Se  Se28  1  0.67347378  0.31232009  0.05106582  1
  Se  Se29  1  0.05106582  0.67347378  0.31232009  1
  Se  Se30  1  0.31232009  0.05106582  0.67347378  1
  Se  Se31  1  0.46314031  0.67347378  0.05106582  1
  Se  Se32  1  0.31232009  0.46314031  0.05106582  1
  Se  Se33  1  0.46314031  0.31232009  0.67347378  1
  Rb  Rb34  1  0.37500000  0.37500000  0.37500000  1
  Rb  Rb35  1  0.62500000  0.62500000  0.62500000  1
  Rb  Rb36  1  0.00000000  0.00000000  0.00000000  1
  Rb  Rb37  1  0.00000000  0.50000000  0.00000000  1
  Rb  Rb38  1  0.50000000  0.00000000  0.00000000  1
  Rb  Rb39  1  0.00000000  0.00000000  0.50000000  1
