# generated using pymatgen
data_Re3Te8Cl3
_symmetry_space_group_name_H-M   'P 1'
_cell_length_a   8.69506348
_cell_length_b   10.87883827
_cell_length_c   18.84558871
_cell_angle_alpha   90.00000000
_cell_angle_beta   90.00000000
_cell_angle_gamma   90.00000000
_symmetry_Int_Tables_number   1
_chemical_formula_structural   Re3Te8Cl3
_chemical_formula_sum   'Re12 Te32 Cl12'
_cell_volume   1782.64549560
_cell_formula_units_Z   4
loop_
 _symmetry_equiv_pos_site_id
 _symmetry_equiv_pos_as_xyz
  1  'x, y, z'
loop_
 _atom_site_type_symbol
 _atom_site_label
 _atom_site_symmetry_multiplicity
 _atom_site_fract_x
 _atom_site_fract_y
 _atom_site_fract_z
 _atom_site_occupancy
  Cl  Cl0  1  0.17733217  0.66411536  0.74975060  1
  Cl  Cl1  1  0.67733217  0.33588464  0.75024940  1
  Cl  Cl2  1  0.82266783  0.66411536  0.25024940  1
  Cl  Cl3  1  0.32266783  0.33588464  0.24975060  1
  Cl  Cl4  1  0.55938296  0.67522820  0.70694037  1
  Cl  Cl5  1  0.05938296  0.32477180  0.79305963  1
  Cl  Cl6  1  0.44061704  0.67522820  0.29305963  1
  Cl  Cl7  1  0.94061704  0.32477180  0.20694037  1
  Cl  Cl8  1  0.60703717  0.99692825  0.72226525  1
  Cl  Cl9  1  0.10703717  0.00307175  0.77773475  1
  Cl  Cl10  1  0.39296283  0.99692825  0.27773475  1
  Cl  Cl11  1  0.89296283  0.00307175  0.22226525  1
  Te  Te12  1  0.34880763  0.19215757  0.42925691  1
  Te  Te13  1  0.84880763  0.80784243  0.07074309  1
  Te  Te14  1  0.65119237  0.19215757  0.57074309  1
  Te  Te15  1  0.15119237  0.80784243  0.92925691  1
  Te  Te16  1  0.11822322  0.17740060  0.25789741  1
  Te  Te17  1  0.61822322  0.82259940  0.24210259  1
  Te  Te18  1  0.88177678  0.17740060  0.74210259  1
  Te  Te19  1  0.38177678  0.82259940  0.75789741  1
  Te  Te20  1  0.04700810  0.94265267  0.39909854  1
  Te  Te21  1  0.54700810  0.05734733  0.10090146  1
  Te  Te22  1  0.95299190  0.94265267  0.60090146  1
  Te  Te23  1  0.45299190  0.05734733  0.89909854  1
  Te  Te24  1  0.37096314  0.48562786  0.55253952  1
  Te  Te25  1  0.87096314  0.51437214  0.94746048  1
  Te  Te26  1  0.62903686  0.48562786  0.44746048  1
  Te  Te27  1  0.12903686  0.51437214  0.05253952  1
  Te  Te28  1  0.74542562  0.19303533  0.36740095  1
  Te  Te29  1  0.24542562  0.80696467  0.13259905  1
  Te  Te30  1  0.25457438  0.19303533  0.63259905  1
  Te  Te31  1  0.75457438  0.80696467  0.86740095  1
  Te  Te32  1  0.37018956  0.89798582  0.55260712  1
  Te  Te33  1  0.87018956  0.10201418  0.94739288  1
  Te  Te34  1  0.62981044  0.89798582  0.44739288  1
  Te  Te35  1  0.12981044  0.10201418  0.05260712  1
  Te  Te36  1  0.04546708  0.44119798  0.39803283  1
  Te  Te37  1  0.54546708  0.55880202  0.10196717  1
  Te  Te38  1  0.95453292  0.44119798  0.60196717  1
  Te  Te39  1  0.45453292  0.55880202  0.89803283  1
  Te  Te40  1  0.22887011  0.69176577  0.49144567  1
  Te  Te41  1  0.72887011  0.30823423  0.00855433  1
  Te  Te42  1  0.77112989  0.69176577  0.50855433  1
  Te  Te43  1  0.27112989  0.30823423  0.99144567  1
  Re  Re44  1  0.34696870  0.93200890  0.01524871  1
  Re  Re45  1  0.84696870  0.06799110  0.48475129  1
  Re  Re46  1  0.65303130  0.93200890  0.98475129  1
  Re  Re47  1  0.15303130  0.06799110  0.51524871  1
  Re  Re48  1  0.45408924  0.80771983  0.90020675  1
  Re  Re49  1  0.95408924  0.19228017  0.59979325  1
  Re  Re50  1  0.54591076  0.80771983  0.09979325  1
  Re  Re51  1  0.04591076  0.19228017  0.40020675  1
  Re  Re52  1  0.34728607  0.68301687  0.01484942  1
  Re  Re53  1  0.84728607  0.31698313  0.48515058  1
  Re  Re54  1  0.65271393  0.68301687  0.98515058  1
  Re  Re55  1  0.15271393  0.31698313  0.51484942  1
