# generated using pymatgen
data_Rb3BiO3
_symmetry_space_group_name_H-M   'P 1'
_cell_length_a   8.97140090
_cell_length_b   8.97140090
_cell_length_c   8.97140090
_cell_angle_alpha   90.00000000
_cell_angle_beta   90.00000000
_cell_angle_gamma   90.00000000
_symmetry_Int_Tables_number   1
_chemical_formula_structural   Rb3BiO3
_chemical_formula_sum   'Rb12 Bi4 O12'
_cell_volume   722.07247884
_cell_formula_units_Z   4
loop_
 _symmetry_equiv_pos_site_id
 _symmetry_equiv_pos_as_xyz
  1  'x, y, z'
loop_
 _atom_site_type_symbol
 _atom_site_label
 _atom_site_symmetry_multiplicity
 _atom_site_fract_x
 _atom_site_fract_y
 _atom_site_fract_z
 _atom_site_occupancy
  O  O0  1  0.43891873  0.00352395  0.21510041  1
  O  O1  1  0.93891873  0.49647605  0.78489959  1
  O  O2  1  0.56108127  0.50352395  0.28489959  1
  O  O3  1  0.49647605  0.78489959  0.93891873  1
  O  O4  1  0.00352395  0.21510041  0.43891873  1
  O  O5  1  0.21510041  0.43891873  0.00352395  1
  O  O6  1  0.50352395  0.28489959  0.56108127  1
  O  O7  1  0.99647605  0.71510041  0.06108127  1
  O  O8  1  0.71510041  0.06108127  0.99647605  1
  O  O9  1  0.06108127  0.99647605  0.71510041  1
  O  O10  1  0.28489959  0.56108127  0.50352395  1
  O  O11  1  0.78489959  0.93891873  0.49647605  1
  Rb  Rb12  1  0.28439593  0.28439593  0.28439593  1
  Rb  Rb13  1  0.21560407  0.71560407  0.78439593  1
  Rb  Rb14  1  0.78439593  0.21560407  0.71560407  1
  Rb  Rb15  1  0.71560407  0.78439593  0.21560407  1
  Rb  Rb16  1  0.71020646  0.21020646  0.28979354  1
  Rb  Rb17  1  0.78979354  0.78979354  0.78979354  1
  Rb  Rb18  1  0.97891762  0.52108238  0.47891762  1
  Rb  Rb19  1  0.52108238  0.47891762  0.97891762  1
  Rb  Rb20  1  0.47891762  0.97891762  0.52108238  1
  Rb  Rb21  1  0.02108238  0.02108238  0.02108238  1
  Rb  Rb22  1  0.21020646  0.28979354  0.71020646  1
  Rb  Rb23  1  0.28979354  0.71020646  0.21020646  1
  Bi  Bi24  1  0.48619401  0.01380599  0.98619401  1
  Bi  Bi25  1  0.01380599  0.98619401  0.48619401  1
  Bi  Bi26  1  0.98619401  0.48619401  0.01380599  1
  Bi  Bi27  1  0.51380599  0.51380599  0.51380599  1
