# generated using pymatgen
data_CsBiO2
_symmetry_space_group_name_H-M   'P 1'
_cell_length_a   6.09595932
_cell_length_b   6.42141401
_cell_length_c   6.42141400
_cell_angle_alpha   97.35696712
_cell_angle_beta   111.22881456
_cell_angle_gamma   111.22881456
_symmetry_Int_Tables_number   1
_chemical_formula_structural   CsBiO2
_chemical_formula_sum   'Cs2 Bi2 O4'
_cell_volume   208.46592433
_cell_formula_units_Z   2
loop_
 _symmetry_equiv_pos_site_id
 _symmetry_equiv_pos_as_xyz
  1  'x, y, z'
loop_
 _atom_site_type_symbol
 _atom_site_label
 _atom_site_symmetry_multiplicity
 _atom_site_fract_x
 _atom_site_fract_y
 _atom_site_fract_z
 _atom_site_occupancy
  O  O0  1  0.20948274  0.12214924  0.23237789  1
  O  O1  1  0.29051726  0.76762211  0.87785076  1
  O  O2  1  0.70948274  0.23237789  0.12214924  1
  O  O3  1  0.79051726  0.87785076  0.76762211  1
  Cs  Cs4  1  0.75000000  0.35896263  0.64103737  1
  Cs  Cs5  1  0.25000000  0.64103737  0.35896263  1
  Bi  Bi6  1  0.25000000  0.08221107  0.91778893  1
  Bi  Bi7  1  0.75000000  0.91778893  0.08221107  1
