# generated using pymatgen
data_Cs3BiO3
_symmetry_space_group_name_H-M   'P 1'
_cell_length_a   9.44577904
_cell_length_b   9.44577904
_cell_length_c   9.44577904
_cell_angle_alpha   90.00000000
_cell_angle_beta   90.00000000
_cell_angle_gamma   90.00000000
_symmetry_Int_Tables_number   1
_chemical_formula_structural   Cs3BiO3
_chemical_formula_sum   'Cs12 Bi4 O12'
_cell_volume   842.77830318
_cell_formula_units_Z   4
loop_
 _symmetry_equiv_pos_site_id
 _symmetry_equiv_pos_as_xyz
  1  'x, y, z'
loop_
 _atom_site_type_symbol
 _atom_site_label
 _atom_site_symmetry_multiplicity
 _atom_site_fract_x
 _atom_site_fract_y
 _atom_site_fract_z
 _atom_site_occupancy
  O  O0  1  0.53664213  0.24530647  0.70562851  1
  O  O1  1  0.03664213  0.25469353  0.29437149  1
  O  O2  1  0.46335787  0.74530647  0.79437149  1
  O  O3  1  0.25469353  0.29437149  0.03664213  1
  O  O4  1  0.24530647  0.70562851  0.53664213  1
  O  O5  1  0.70562851  0.53664213  0.24530647  1
  O  O6  1  0.74530647  0.79437149  0.46335787  1
  O  O7  1  0.75469353  0.20562851  0.96335787  1
  O  O8  1  0.20562851  0.96335787  0.75469353  1
  O  O9  1  0.96335787  0.75469353  0.20562851  1
  O  O10  1  0.79437149  0.46335787  0.74530647  1
  O  O11  1  0.29437149  0.03664213  0.25469353  1
  Cs  Cs12  1  0.02769971  0.02769971  0.02769971  1
  Cs  Cs13  1  0.47230029  0.97230029  0.52769971  1
  Cs  Cs14  1  0.52769971  0.47230029  0.97230029  1
  Cs  Cs15  1  0.97230029  0.52769971  0.47230029  1
  Cs  Cs16  1  0.96895469  0.46895469  0.03104531  1
  Cs  Cs17  1  0.53104531  0.53104531  0.53104531  1
  Cs  Cs18  1  0.23547981  0.26452019  0.73547981  1
  Cs  Cs19  1  0.26452019  0.73547981  0.23547981  1
  Cs  Cs20  1  0.73547981  0.23547981  0.26452019  1
  Cs  Cs21  1  0.76452019  0.76452019  0.76452019  1
  Cs  Cs22  1  0.46895469  0.03104531  0.96895469  1
  Cs  Cs23  1  0.03104531  0.96895469  0.46895469  1
  Bi  Bi24  1  0.74462031  0.75537969  0.24462031  1
  Bi  Bi25  1  0.75537969  0.24462031  0.74462031  1
  Bi  Bi26  1  0.24462031  0.74462031  0.75537969  1
  Bi  Bi27  1  0.25537969  0.25537969  0.25537969  1
