# generated using pymatgen
data_Si(PH2)4
_symmetry_space_group_name_H-M   'P 1'
_cell_length_a   7.62017871
_cell_length_b   11.30259595
_cell_length_c   11.40164755
_cell_angle_alpha   100.39863380
_cell_angle_beta   90.00000000
_cell_angle_gamma   90.00000000
_symmetry_Int_Tables_number   1
_chemical_formula_structural   Si(PH2)4
_chemical_formula_sum   'Si4 P16 H32'
_cell_volume   965.87026207
_cell_formula_units_Z   4
loop_
 _symmetry_equiv_pos_site_id
 _symmetry_equiv_pos_as_xyz
  1  'x, y, z'
loop_
 _atom_site_type_symbol
 _atom_site_label
 _atom_site_symmetry_multiplicity
 _atom_site_fract_x
 _atom_site_fract_y
 _atom_site_fract_z
 _atom_site_occupancy
  H  H0  1  0.25725033  0.20009145  0.97376615  1
  H  H1  1  0.75725033  0.79990855  0.52623385  1
  H  H2  1  0.74274967  0.79990855  0.02623385  1
  H  H3  1  0.24274967  0.20009145  0.47376615  1
  H  H4  1  0.42713641  0.31596849  0.08155377  1
  H  H5  1  0.92713641  0.68403151  0.41844623  1
  H  H6  1  0.57286359  0.68403151  0.91844623  1
  H  H7  1  0.07286359  0.31596849  0.58155377  1
  H  H8  1  0.83720446  0.01514588  0.25755966  1
  H  H9  1  0.33720446  0.98485412  0.24244034  1
  H  H10  1  0.16279554  0.98485412  0.74244034  1
  H  H11  1  0.66279554  0.01514588  0.75755966  1
  H  H12  1  0.83018019  0.12991717  0.13370987  1
  H  H13  1  0.33018019  0.87008283  0.36629013  1
  H  H14  1  0.16981981  0.87008283  0.86629013  1
  H  H15  1  0.66981981  0.12991717  0.63370987  1
  H  H16  1  0.50093358  0.39413175  0.68745577  1
  H  H17  1  0.00093358  0.60586825  0.81254423  1
  H  H18  1  0.49906642  0.60586825  0.31254423  1
  H  H19  1  0.99906642  0.39413175  0.18745577  1
  H  H20  1  0.69792244  0.40815001  0.47678641  1
  H  H21  1  0.19792244  0.59184999  0.02321359  1
  H  H22  1  0.30207756  0.59184999  0.52321359  1
  H  H23  1  0.80207756  0.40815001  0.97678641  1
  H  H24  1  0.62317307  0.34308523  0.30208985  1
  H  H25  1  0.12317307  0.65691477  0.19791015  1
  H  H26  1  0.37682693  0.65691477  0.69791015  1
  H  H27  1  0.87682693  0.34308523  0.80208985  1
  H  H28  1  0.26835977  0.34864855  0.76324085  1
  H  H29  1  0.76835977  0.65135145  0.73675915  1
  H  H30  1  0.73164023  0.65135145  0.23675915  1
  H  H31  1  0.23164023  0.34864855  0.26324085  1
  Si  Si32  1  0.93994467  0.24770715  0.35535164  1
  Si  Si33  1  0.43994467  0.75229285  0.14464836  1
  Si  Si34  1  0.06005533  0.75229285  0.64464836  1
  Si  Si35  1  0.56005533  0.24770715  0.85535164  1
  P  P36  1  0.84444264  0.29325327  0.90688355  1
  P  P37  1  0.34444264  0.70674673  0.59311645  1
  P  P38  1  0.15555736  0.70674673  0.09311645  1
  P  P39  1  0.65555736  0.29325327  0.40688355  1
  P  P40  1  0.06807278  0.19440703  0.51852782  1
  P  P41  1  0.56807278  0.80559297  0.98147218  1
  P  P42  1  0.93192722  0.80559297  0.48147218  1
  P  P43  1  0.43192722  0.19440703  0.01852782  1
  P  P44  1  0.53949930  0.08576031  0.70516959  1
  P  P45  1  0.03949930  0.91423969  0.79483041  1
  P  P46  1  0.46050070  0.91423969  0.29483041  1
  P  P47  1  0.96050070  0.08576031  0.20516959  1
  P  P48  1  0.07406702  0.41142095  0.30438729  1
  P  P49  1  0.57406702  0.58857905  0.19561271  1
  P  P50  1  0.92593298  0.58857905  0.69561271  1
  P  P51  1  0.42593298  0.41142095  0.80438729  1
