# generated using pymatgen
data_MoBr2
_symmetry_space_group_name_H-M   'P 1'
_cell_length_a   10.03231518
_cell_length_b   10.03231518
_cell_length_c   12.10007498
_cell_angle_alpha   90.00000000
_cell_angle_beta   90.00000000
_cell_angle_gamma   105.86177842
_symmetry_Int_Tables_number   1
_chemical_formula_structural   MoBr2
_chemical_formula_sum   'Mo12 Br24'
_cell_volume   1171.46978143
_cell_formula_units_Z   12
loop_
 _symmetry_equiv_pos_site_id
 _symmetry_equiv_pos_as_xyz
  1  'x, y, z'
loop_
 _atom_site_type_symbol
 _atom_site_label
 _atom_site_symmetry_multiplicity
 _atom_site_fract_x
 _atom_site_fract_y
 _atom_site_fract_z
 _atom_site_occupancy
  Br  Br0  1  0.65523399  0.65523399  0.84483697  1
  Br  Br1  1  0.84476601  0.84476601  0.34483697  1
  Br  Br2  1  0.15523399  0.15523399  0.65516303  1
  Br  Br3  1  0.34476601  0.34476601  0.15516303  1
  Br  Br4  1  0.77848003  0.22151997  0.50000000  1
  Br  Br5  1  0.72151997  0.27848003  0.00000000  1
  Br  Br6  1  0.22151997  0.77848003  0.50000000  1
  Br  Br7  1  0.27848003  0.72151997  0.00000000  1
  Br  Br8  1  0.09060943  0.32184697  0.93077010  1
  Br  Br9  1  0.40939057  0.17815303  0.43077010  1
  Br  Br10  1  0.82184697  0.59060943  0.56922990  1
  Br  Br11  1  0.67815303  0.90939057  0.06922990  1
  Br  Br12  1  0.18473450  0.95373753  0.20613812  1
  Br  Br13  1  0.31526550  0.54626247  0.70613812  1
  Br  Br14  1  0.45373753  0.68473450  0.29386188  1
  Br  Br15  1  0.04626247  0.81526550  0.79386188  1
  Br  Br16  1  0.81526550  0.04626247  0.79386188  1
  Br  Br17  1  0.68473450  0.45373753  0.29386188  1
  Br  Br18  1  0.54626247  0.31526550  0.70613812  1
  Br  Br19  1  0.95373753  0.18473450  0.20613812  1
  Br  Br20  1  0.32184697  0.09060943  0.93077010  1
  Br  Br21  1  0.17815303  0.40939057  0.43077010  1
  Br  Br22  1  0.59060943  0.82184697  0.56922990  1
  Br  Br23  1  0.90939057  0.67815303  0.06922990  1
  Mo  Mo24  1  0.06930078  0.06930078  0.86150278  1
  Mo  Mo25  1  0.43069922  0.43069922  0.36150278  1
  Mo  Mo26  1  0.56930078  0.56930078  0.63849722  1
  Mo  Mo27  1  0.93069922  0.93069922  0.13849722  1
  Mo  Mo28  1  0.86144023  0.86144023  0.93082559  1
  Mo  Mo29  1  0.63855977  0.63855977  0.43082559  1
  Mo  Mo30  1  0.36144023  0.36144023  0.56917441  1
  Mo  Mo31  1  0.13855977  0.13855977  0.06917441  1
  Mo  Mo32  1  0.61752699  0.38247301  0.50000000  1
  Mo  Mo33  1  0.88247301  0.11752699  0.00000000  1
  Mo  Mo34  1  0.38247301  0.61752699  0.50000000  1
  Mo  Mo35  1  0.11752699  0.88247301  0.00000000  1
