# generated using pymatgen
data_CsBi3S5
_symmetry_space_group_name_H-M   'P 1'
_cell_length_a   4.12107105
_cell_length_b   12.24950902
_cell_length_c   21.51403993
_cell_angle_alpha   90.00000000
_cell_angle_beta   90.00000000
_cell_angle_gamma   90.00000000
_symmetry_Int_Tables_number   1
_chemical_formula_structural   CsBi3S5
_chemical_formula_sum   'Cs4 Bi12 S20'
_cell_volume   1086.05233655
_cell_formula_units_Z   4
loop_
 _symmetry_equiv_pos_site_id
 _symmetry_equiv_pos_as_xyz
  1  'x, y, z'
loop_
 _atom_site_type_symbol
 _atom_site_label
 _atom_site_symmetry_multiplicity
 _atom_site_fract_x
 _atom_site_fract_y
 _atom_site_fract_z
 _atom_site_occupancy
  S  S0  1  0.25000000  0.22009949  0.02699858  1
  S  S1  1  0.75000000  0.77990051  0.97300142  1
  S  S2  1  0.25000000  0.72009949  0.47300142  1
  S  S3  1  0.75000000  0.27990051  0.52699858  1
  S  S4  1  0.25000000  0.51455885  0.23977584  1
  S  S5  1  0.75000000  0.48544115  0.76022416  1
  S  S6  1  0.25000000  0.01455885  0.26022416  1
  S  S7  1  0.75000000  0.98544115  0.73977584  1
  S  S8  1  0.25000000  0.48912631  0.91695278  1
  S  S9  1  0.75000000  0.51087369  0.08304722  1
  S  S10  1  0.25000000  0.98912631  0.58304722  1
  S  S11  1  0.75000000  0.01087369  0.41695278  1
  S  S12  1  0.25000000  0.25040364  0.69180405  1
  S  S13  1  0.75000000  0.74959636  0.30819595  1
  S  S14  1  0.25000000  0.75040364  0.80819595  1
  S  S15  1  0.75000000  0.24959636  0.19180405  1
  S  S16  1  0.75000000  0.22575354  0.86823752  1
  S  S17  1  0.25000000  0.77424646  0.13176248  1
  S  S18  1  0.75000000  0.72575354  0.63176248  1
  S  S19  1  0.25000000  0.27424646  0.36823752  1
  Cs  Cs20  1  0.75000000  0.50451152  0.38840943  1
  Cs  Cs21  1  0.25000000  0.49548848  0.61159057  1
  Cs  Cs22  1  0.75000000  0.00451152  0.11159057  1
  Cs  Cs23  1  0.25000000  0.99548848  0.88840943  1
  Bi  Bi24  1  0.25000000  0.37000162  0.14585645  1
  Bi  Bi25  1  0.75000000  0.62999838  0.85414355  1
  Bi  Bi26  1  0.25000000  0.87000162  0.35414355  1
  Bi  Bi27  1  0.75000000  0.12999838  0.64585645  1
  Bi  Bi28  1  0.25000000  0.16462117  0.47383695  1
  Bi  Bi29  1  0.75000000  0.83537883  0.52616305  1
  Bi  Bi30  1  0.25000000  0.66462117  0.02616305  1
  Bi  Bi31  1  0.75000000  0.33537883  0.97383695  1
  Bi  Bi32  1  0.75000000  0.14693883  0.30828842  1
  Bi  Bi33  1  0.25000000  0.85306117  0.69171158  1
  Bi  Bi34  1  0.75000000  0.64693883  0.19171158  1
  Bi  Bi35  1  0.25000000  0.35306117  0.80828842  1
