# generated using pymatgen
data_CuW3Cl7
_symmetry_space_group_name_H-M   'P 1'
_cell_length_a   13.13928767
_cell_length_b   13.13928767
_cell_length_c   13.13928767
_cell_angle_alpha   90.00000000
_cell_angle_beta   90.00000000
_cell_angle_gamma   90.00000000
_symmetry_Int_Tables_number   1
_chemical_formula_structural   CuW3Cl7
_chemical_formula_sum   'Cu8 W24 Cl56'
_cell_volume   2268.37819216
_cell_formula_units_Z   8
loop_
 _symmetry_equiv_pos_site_id
 _symmetry_equiv_pos_as_xyz
  1  'x, y, z'
loop_
 _atom_site_type_symbol
 _atom_site_label
 _atom_site_symmetry_multiplicity
 _atom_site_fract_x
 _atom_site_fract_y
 _atom_site_fract_z
 _atom_site_occupancy
  Cl  Cl0  1  0.13573941  0.13573941  0.13573941  1
  Cl  Cl1  1  0.36426059  0.36426059  0.13573941  1
  Cl  Cl2  1  0.13573941  0.36426059  0.36426059  1
  Cl  Cl3  1  0.36426059  0.13573941  0.36426059  1
  Cl  Cl4  1  0.86426059  0.86426059  0.86426059  1
  Cl  Cl5  1  0.63573941  0.63573941  0.86426059  1
  Cl  Cl6  1  0.86426059  0.63573941  0.63573941  1
  Cl  Cl7  1  0.63573941  0.86426059  0.63573941  1
  Cl  Cl8  1  0.18267011  0.07503035  0.87532328  1
  Cl  Cl9  1  0.87532328  0.18267011  0.07503035  1
  Cl  Cl10  1  0.07503035  0.87532328  0.18267011  1
  Cl  Cl11  1  0.42496965  0.62467672  0.18267011  1
  Cl  Cl12  1  0.87532328  0.31732989  0.42496965  1
  Cl  Cl13  1  0.42496965  0.87532328  0.31732989  1
  Cl  Cl14  1  0.62467672  0.31732989  0.07503035  1
  Cl  Cl15  1  0.62467672  0.18267011  0.42496965  1
  Cl  Cl16  1  0.07503035  0.62467672  0.31732989  1
  Cl  Cl17  1  0.18267011  0.42496965  0.62467672  1
  Cl  Cl18  1  0.31732989  0.07503035  0.62467672  1
  Cl  Cl19  1  0.31732989  0.42496965  0.87532328  1
  Cl  Cl20  1  0.81732989  0.92496965  0.12467672  1
  Cl  Cl21  1  0.12467672  0.81732989  0.92496965  1
  Cl  Cl22  1  0.92496965  0.12467672  0.81732989  1
  Cl  Cl23  1  0.57503035  0.37532328  0.81732989  1
  Cl  Cl24  1  0.12467672  0.68267011  0.57503035  1
  Cl  Cl25  1  0.57503035  0.12467672  0.68267011  1
  Cl  Cl26  1  0.37532328  0.68267011  0.92496965  1
  Cl  Cl27  1  0.37532328  0.81732989  0.57503035  1
  Cl  Cl28  1  0.92496965  0.37532328  0.68267011  1
  Cl  Cl29  1  0.81732989  0.57503035  0.37532328  1
  Cl  Cl30  1  0.68267011  0.92496965  0.37532328  1
  Cl  Cl31  1  0.68267011  0.57503035  0.12467672  1
  Cl  Cl32  1  0.31611285  0.94126534  0.07787520  1
  Cl  Cl33  1  0.07787520  0.31611285  0.94126534  1
  Cl  Cl34  1  0.94126534  0.07787520  0.31611285  1
  Cl  Cl35  1  0.55873466  0.42212480  0.31611285  1
  Cl  Cl36  1  0.07787520  0.18388715  0.55873466  1
  Cl  Cl37  1  0.55873466  0.07787520  0.18388715  1
  Cl  Cl38  1  0.42212480  0.18388715  0.94126534  1
  Cl  Cl39  1  0.42212480  0.31611285  0.55873466  1
  Cl  Cl40  1  0.94126534  0.42212480  0.18388715  1
  Cl  Cl41  1  0.31611285  0.55873466  0.42212480  1
  Cl  Cl42  1  0.18388715  0.94126534  0.42212480  1
  Cl  Cl43  1  0.18388715  0.55873466  0.07787520  1
  Cl  Cl44  1  0.68388715  0.05873466  0.92212480  1
  Cl  Cl45  1  0.92212480  0.68388715  0.05873466  1
  Cl  Cl46  1  0.05873466  0.92212480  0.68388715  1
  Cl  Cl47  1  0.44126534  0.57787520  0.68388715  1
  Cl  Cl48  1  0.92212480  0.81611285  0.44126534  1
  Cl  Cl49  1  0.44126534  0.92212480  0.81611285  1
  Cl  Cl50  1  0.57787520  0.81611285  0.05873466  1
  Cl  Cl51  1  0.57787520  0.68388715  0.44126534  1
  Cl  Cl52  1  0.05873466  0.57787520  0.81611285  1
  Cl  Cl53  1  0.68388715  0.44126534  0.57787520  1
  Cl  Cl54  1  0.81611285  0.05873466  0.57787520  1
  Cl  Cl55  1  0.81611285  0.44126534  0.92212480  1
  Cu  Cu56  1  0.43824305  0.43824305  0.43824305  1
  Cu  Cu57  1  0.06175695  0.06175695  0.43824305  1
  Cu  Cu58  1  0.43824305  0.06175695  0.06175695  1
  Cu  Cu59  1  0.06175695  0.43824305  0.06175695  1
  Cu  Cu60  1  0.56175695  0.56175695  0.56175695  1
  Cu  Cu61  1  0.93824305  0.93824305  0.56175695  1
  Cu  Cu62  1  0.56175695  0.93824305  0.93824305  1
  Cu  Cu63  1  0.93824305  0.56175695  0.93824305  1
  W  W64  1  0.13598238  0.97504748  0.03111898  1
  W  W65  1  0.03111898  0.13598238  0.97504748  1
  W  W66  1  0.97504748  0.03111898  0.13598238  1
  W  W67  1  0.52495252  0.46888102  0.13598238  1
  W  W68  1  0.03111898  0.36401762  0.52495252  1
  W  W69  1  0.52495252  0.03111898  0.36401762  1
  W  W70  1  0.46888102  0.36401762  0.97504748  1
  W  W71  1  0.46888102  0.13598238  0.52495252  1
  W  W72  1  0.97504748  0.46888102  0.36401762  1
  W  W73  1  0.13598238  0.52495252  0.46888102  1
  W  W74  1  0.36401762  0.97504748  0.46888102  1
  W  W75  1  0.36401762  0.52495252  0.03111898  1
  W  W76  1  0.86401762  0.02495252  0.96888102  1
  W  W77  1  0.96888102  0.86401762  0.02495252  1
  W  W78  1  0.02495252  0.96888102  0.86401762  1
  W  W79  1  0.47504748  0.53111898  0.86401762  1
  W  W80  1  0.96888102  0.63598238  0.47504748  1
  W  W81  1  0.47504748  0.96888102  0.63598238  1
  W  W82  1  0.53111898  0.63598238  0.02495252  1
  W  W83  1  0.53111898  0.86401762  0.47504748  1
  W  W84  1  0.02495252  0.53111898  0.63598238  1
  W  W85  1  0.86401762  0.47504748  0.53111898  1
  W  W86  1  0.63598238  0.02495252  0.53111898  1
  W  W87  1  0.63598238  0.47504748  0.96888102  1
