# generated using pymatgen
data_BrNO3
_symmetry_space_group_name_H-M   'P 1'
_cell_length_a   4.31504918
_cell_length_b   7.28894839
_cell_length_c   11.58025181
_cell_angle_alpha   90.00000000
_cell_angle_beta   90.00000000
_cell_angle_gamma   90.00000000
_symmetry_Int_Tables_number   1
_chemical_formula_structural   BrNO3
_chemical_formula_sum   'Br4 N4 O12'
_cell_volume   364.22405753
_cell_formula_units_Z   4
loop_
 _symmetry_equiv_pos_site_id
 _symmetry_equiv_pos_as_xyz
  1  'x, y, z'
loop_
 _atom_site_type_symbol
 _atom_site_label
 _atom_site_symmetry_multiplicity
 _atom_site_fract_x
 _atom_site_fract_y
 _atom_site_fract_z
 _atom_site_occupancy
  N  N0  1  0.18592141  0.98825048  0.53591233  1
  N  N1  1  0.68592141  0.51174952  0.46408767  1
  N  N2  1  0.81407859  0.48825048  0.96408767  1
  N  N3  1  0.31407859  0.01174952  0.03591233  1
  O  O4  1  0.10585010  0.90057442  0.04001843  1
  O  O5  1  0.60585010  0.59942558  0.95998157  1
  O  O6  1  0.89414990  0.40057442  0.45998157  1
  O  O7  1  0.39414990  0.09942558  0.54001843  1
  O  O8  1  0.43859449  0.09156398  0.12894678  1
  O  O9  1  0.93859449  0.40843602  0.87105322  1
  O  O10  1  0.56140551  0.59156398  0.37105322  1
  O  O11  1  0.06140551  0.90843602  0.62894678  1
  O  O12  1  0.44823544  0.07138893  0.94365661  1
  O  O13  1  0.94823544  0.42861107  0.05634339  1
  O  O14  1  0.55176456  0.57138893  0.55634339  1
  O  O15  1  0.05176456  0.92861107  0.44365661  1
  Br  Br16  1  0.24886518  0.98475193  0.78126897  1
  Br  Br17  1  0.74886518  0.51524807  0.21873103  1
  Br  Br18  1  0.75113482  0.48475193  0.71873103  1
  Br  Br19  1  0.25113482  0.01524807  0.28126897  1
