# generated using pymatgen
data_La3Si3Cl2
_symmetry_space_group_name_H-M   'P 1'
_cell_length_a   4.24702853
_cell_length_b   9.34011656
_cell_length_c   10.67600965
_cell_angle_alpha   97.73034821
_cell_angle_beta   90.00000000
_cell_angle_gamma   103.14134943
_symmetry_Int_Tables_number   1
_chemical_formula_structural   La3Si3Cl2
_chemical_formula_sum   'La6 Si6 Cl4'
_cell_volume   408.44965755
_cell_formula_units_Z   2
loop_
 _symmetry_equiv_pos_site_id
 _symmetry_equiv_pos_as_xyz
  1  'x, y, z'
loop_
 _atom_site_type_symbol
 _atom_site_label
 _atom_site_symmetry_multiplicity
 _atom_site_fract_x
 _atom_site_fract_y
 _atom_site_fract_z
 _atom_site_occupancy
  Si  Si0  1  0.06425967  0.12851934  0.05066358  1
  Si  Si1  1  0.93574033  0.87148066  0.94933642  1
  Si  Si2  1  0.91155565  0.82311130  0.72301860  1
  Si  Si3  1  0.08844435  0.17688870  0.27698140  1
  Si  Si4  1  0.01884022  0.03768043  0.61157972  1
  Si  Si5  1  0.98115978  0.96231957  0.38842028  1
  Cl  Cl6  1  0.77360945  0.54721891  0.39145598  1
  Cl  Cl7  1  0.22639055  0.45278109  0.60854402  1
  Cl  Cl8  1  0.70282471  0.40564943  0.87396943  1
  Cl  Cl9  1  0.29717529  0.59435057  0.12603057  1
  La  La10  1  0.31959542  0.63919085  0.85135227  1
  La  La11  1  0.68040458  0.36080915  0.14864773  1
  La  La12  1  0.61562188  0.23124375  0.49046582  1
  La  La13  1  0.38437812  0.76875625  0.50953418  1
  La  La14  1  0.53521010  0.07042021  0.83075591  1
  La  La15  1  0.46478990  0.92957979  0.16924409  1
