# generated using pymatgen
data_Co2(GeS)3
_symmetry_space_group_name_H-M   'P 1'
_cell_length_a   8.06118138
_cell_length_b   8.06118138
_cell_length_c   8.06118138
_cell_angle_alpha   89.91606617
_cell_angle_beta   89.91606617
_cell_angle_gamma   89.91606617
_symmetry_Int_Tables_number   1
_chemical_formula_structural   Co2(GeS)3
_chemical_formula_sum   'Co8 Ge12 S12'
_cell_volume   523.83520558
_cell_formula_units_Z   4
loop_
 _symmetry_equiv_pos_site_id
 _symmetry_equiv_pos_as_xyz
  1  'x, y, z'
loop_
 _atom_site_type_symbol
 _atom_site_label
 _atom_site_symmetry_multiplicity
 _atom_site_fract_x
 _atom_site_fract_y
 _atom_site_fract_z
 _atom_site_occupancy
  Co  Co0  1  0.24157516  0.24157516  0.24157516  1
  Co  Co1  1  0.75649888  0.75649888  0.75649888  1
  Co  Co2  1  0.25929287  0.75551473  0.25350353  1
  Co  Co3  1  0.25350353  0.25929287  0.75551473  1
  Co  Co4  1  0.75551473  0.25350353  0.25929287  1
  Co  Co5  1  0.24343030  0.74532384  0.73990252  1
  Co  Co6  1  0.73990252  0.24343030  0.74532384  1
  Co  Co7  1  0.74532384  0.73990252  0.24343030  1
  Ge  Ge8  1  0.33446428  0.99870158  0.84746549  1
  Ge  Ge9  1  0.84746549  0.33446428  0.99870158  1
  Ge  Ge10  1  0.99870158  0.84746549  0.33446428  1
  Ge  Ge11  1  0.66421716  0.00051672  0.15024589  1
  Ge  Ge12  1  0.15024589  0.66421716  0.00051672  1
  Ge  Ge13  1  0.00051672  0.15024589  0.66421716  1
  Ge  Ge14  1  0.83358655  0.49858018  0.65040807  1
  Ge  Ge15  1  0.65040807  0.83358655  0.49858018  1
  Ge  Ge16  1  0.49858018  0.65040807  0.83358655  1
  Ge  Ge17  1  0.16532292  0.49982230  0.34812450  1
  Ge  Ge18  1  0.34812450  0.16532292  0.49982230  1
  Ge  Ge19  1  0.49982230  0.34812450  0.16532292  1
  S  S20  1  0.65510431  0.99709561  0.85063129  1
  S  S21  1  0.85063129  0.65510431  0.99709561  1
  S  S22  1  0.99709561  0.85063129  0.65510431  1
  S  S23  1  0.34444035  0.00132805  0.14658284  1
  S  S24  1  0.14658284  0.34444035  0.00132805  1
  S  S25  1  0.00132805  0.14658284  0.34444035  1
  S  S26  1  0.15575557  0.49881105  0.64779083  1
  S  S27  1  0.64779083  0.15575557  0.49881105  1
  S  S28  1  0.49881105  0.64779083  0.15575557  1
  S  S29  1  0.84503334  0.50020907  0.35072024  1
  S  S30  1  0.35072024  0.84503334  0.50020907  1
  S  S31  1  0.50020907  0.35072024  0.84503334  1
