# generated using pymatgen
data_CaSnAu
_symmetry_space_group_name_H-M   'P 1'
_cell_length_a   4.78195138
_cell_length_b   8.27696041
_cell_length_c   37.31282104
_cell_angle_alpha   90.00000000
_cell_angle_beta   90.00000000
_cell_angle_gamma   90.00000000
_symmetry_Int_Tables_number   1
_chemical_formula_structural   CaSnAu
_chemical_formula_sum   'Ca20 Sn20 Au20'
_cell_volume   1476.84228715
_cell_formula_units_Z   20
loop_
 _symmetry_equiv_pos_site_id
 _symmetry_equiv_pos_as_xyz
  1  'x, y, z'
loop_
 _atom_site_type_symbol
 _atom_site_label
 _atom_site_symmetry_multiplicity
 _atom_site_fract_x
 _atom_site_fract_y
 _atom_site_fract_z
 _atom_site_occupancy
  Ca  Ca0  1  0.25000000  0.71630709  0.99918179  1
  Ca  Ca1  1  0.75000000  0.28369291  0.00081821  1
  Ca  Ca2  1  0.75000000  0.21630709  0.50081821  1
  Ca  Ca3  1  0.25000000  0.78369291  0.49918179  1
  Ca  Ca4  1  0.25000000  0.79178746  0.10022326  1
  Ca  Ca5  1  0.75000000  0.20821254  0.89977674  1
  Ca  Ca6  1  0.75000000  0.29178746  0.39977674  1
  Ca  Ca7  1  0.25000000  0.70821254  0.60022326  1
  Ca  Ca8  1  0.25000000  0.71257819  0.20120063  1
  Ca  Ca9  1  0.75000000  0.28742181  0.79879937  1
  Ca  Ca10  1  0.75000000  0.21257819  0.29879937  1
  Ca  Ca11  1  0.25000000  0.78742181  0.70120063  1
  Ca  Ca12  1  0.25000000  0.78994992  0.30070499  1
  Ca  Ca13  1  0.75000000  0.21005008  0.69929501  1
  Ca  Ca14  1  0.75000000  0.28994992  0.19929501  1
  Ca  Ca15  1  0.25000000  0.71005008  0.80070499  1
  Ca  Ca16  1  0.25000000  0.71032521  0.40000413  1
  Ca  Ca17  1  0.75000000  0.28967479  0.59999587  1
  Ca  Ca18  1  0.75000000  0.21032521  0.09999587  1
  Ca  Ca19  1  0.25000000  0.78967479  0.90000413  1
  Sn  Sn20  1  0.25000000  0.41510010  0.05940839  1
  Sn  Sn21  1  0.75000000  0.58489990  0.94059161  1
  Sn  Sn22  1  0.75000000  0.91510010  0.44059161  1
  Sn  Sn23  1  0.25000000  0.08489990  0.55940839  1
  Sn  Sn24  1  0.25000000  0.41576747  0.14015787  1
  Sn  Sn25  1  0.75000000  0.58423253  0.85984213  1
  Sn  Sn26  1  0.75000000  0.91576747  0.35984213  1
  Sn  Sn27  1  0.25000000  0.08423253  0.64015787  1
  Sn  Sn28  1  0.25000000  0.08820287  0.23974834  1
  Sn  Sn29  1  0.75000000  0.91179713  0.76025166  1
  Sn  Sn30  1  0.75000000  0.58820287  0.26025166  1
  Sn  Sn31  1  0.25000000  0.41179713  0.73974834  1
  Sn  Sn32  1  0.25000000  0.41551340  0.34060463  1
  Sn  Sn33  1  0.75000000  0.58448660  0.65939537  1
  Sn  Sn34  1  0.75000000  0.91551340  0.15939537  1
  Sn  Sn35  1  0.25000000  0.08448660  0.84060463  1
  Sn  Sn36  1  0.25000000  0.41410884  0.45883763  1
  Sn  Sn37  1  0.75000000  0.58589116  0.54116237  1
  Sn  Sn38  1  0.75000000  0.91410884  0.04116237  1
  Sn  Sn39  1  0.25000000  0.08589116  0.95883763  1
  Au  Au40  1  0.25000000  0.08620660  0.04030255  1
  Au  Au41  1  0.75000000  0.91379340  0.95969745  1
  Au  Au42  1  0.75000000  0.58620660  0.45969745  1
  Au  Au43  1  0.25000000  0.41379340  0.54030255  1
  Au  Au44  1  0.25000000  0.08723873  0.15982555  1
  Au  Au45  1  0.75000000  0.91276127  0.84017445  1
  Au  Au46  1  0.75000000  0.58723873  0.34017445  1
  Au  Au47  1  0.25000000  0.41276127  0.65982555  1
  Au  Au48  1  0.25000000  0.41588645  0.25861510  1
  Au  Au49  1  0.75000000  0.58411355  0.74138490  1
  Au  Au50  1  0.75000000  0.91588645  0.24138490  1
  Au  Au51  1  0.25000000  0.08411355  0.75861510  1
  Au  Au52  1  0.25000000  0.08736456  0.35555964  1
  Au  Au53  1  0.75000000  0.91263544  0.64444036  1
  Au  Au54  1  0.75000000  0.58736456  0.14444036  1
  Au  Au55  1  0.25000000  0.41263544  0.85555964  1
  Au  Au56  1  0.25000000  0.08561711  0.44443953  1
  Au  Au57  1  0.75000000  0.91438289  0.55556047  1
  Au  Au58  1  0.75000000  0.58561711  0.05556047  1
  Au  Au59  1  0.25000000  0.41438289  0.94443953  1
