# generated using pymatgen
data_Tl2MoCl6
_symmetry_space_group_name_H-M   'P 1'
_cell_length_a   7.11543505
_cell_length_b   7.11543443
_cell_length_c   7.11543482
_cell_angle_alpha   59.99999818
_cell_angle_beta   60.00000107
_cell_angle_gamma   59.99999496
_symmetry_Int_Tables_number   1
_chemical_formula_structural   Tl2MoCl6
_chemical_formula_sum   'Tl2 Mo1 Cl6'
_cell_volume   254.73540323
_cell_formula_units_Z   1
loop_
 _symmetry_equiv_pos_site_id
 _symmetry_equiv_pos_as_xyz
  1  'x, y, z'
loop_
 _atom_site_type_symbol
 _atom_site_label
 _atom_site_symmetry_multiplicity
 _atom_site_fract_x
 _atom_site_fract_y
 _atom_site_fract_z
 _atom_site_occupancy
  Mo  Mo0  1  0.00000000  0.00000000  0.00000000  1
  Tl  Tl1  1  0.25000000  0.25000000  0.25000000  1
  Tl  Tl2  1  0.75000000  0.75000000  0.75000000  1
  Cl  Cl3  1  0.76199723  0.23800277  0.23800277  1
  Cl  Cl4  1  0.76199723  0.76199723  0.23800277  1
  Cl  Cl5  1  0.23800277  0.23800277  0.76199723  1
  Cl  Cl6  1  0.76199723  0.23800277  0.76199723  1
  Cl  Cl7  1  0.23800277  0.76199723  0.23800277  1
  Cl  Cl8  1  0.23800277  0.76199723  0.76199723  1
