# generated using pymatgen
data_CsNaGe2
_symmetry_space_group_name_H-M   'P 1'
_cell_length_a   8.62040152
_cell_length_b   9.85665442
_cell_length_c   13.10776246
_cell_angle_alpha   90.00000000
_cell_angle_beta   106.57271496
_cell_angle_gamma   90.00000000
_symmetry_Int_Tables_number   1
_chemical_formula_structural   CsNaGe2
_chemical_formula_sum   'Cs8 Na8 Ge16'
_cell_volume   1067.47793674
_cell_formula_units_Z   8
loop_
 _symmetry_equiv_pos_site_id
 _symmetry_equiv_pos_as_xyz
  1  'x, y, z'
loop_
 _atom_site_type_symbol
 _atom_site_label
 _atom_site_symmetry_multiplicity
 _atom_site_fract_x
 _atom_site_fract_y
 _atom_site_fract_z
 _atom_site_occupancy
  Na  Na0  1  0.54993332  0.09967013  0.60382379  1
  Na  Na1  1  0.36510441  0.53562191  0.31594970  1
  Na  Na2  1  0.13489559  0.03562191  0.18405030  1
  Na  Na3  1  0.04993332  0.40032987  0.10382379  1
  Na  Na4  1  0.45006668  0.90032987  0.39617621  1
  Na  Na5  1  0.95006668  0.59967013  0.89617621  1
  Na  Na6  1  0.63489559  0.46437809  0.68405030  1
  Na  Na7  1  0.86510441  0.96437809  0.81594970  1
  Ge  Ge8  1  0.29545617  0.59778261  0.05881317  1
  Ge  Ge9  1  0.82382974  0.16482953  0.01213927  1
  Ge  Ge10  1  0.32382974  0.33517047  0.51213927  1
  Ge  Ge11  1  0.67617026  0.66482953  0.48786073  1
  Ge  Ge12  1  0.88954570  0.68965630  0.67106511  1
  Ge  Ge13  1  0.61045430  0.18965630  0.82893489  1
  Ge  Ge14  1  0.11045430  0.31034370  0.32893489  1
  Ge  Ge15  1  0.38954570  0.81034370  0.17106511  1
  Ge  Ge16  1  0.59026683  0.77682939  0.64556063  1
  Ge  Ge17  1  0.70454383  0.40221739  0.94118683  1
  Ge  Ge18  1  0.79545617  0.90221739  0.55881317  1
  Ge  Ge19  1  0.09026683  0.72317061  0.14556063  1
  Ge  Ge20  1  0.40973317  0.22317061  0.35443937  1
  Ge  Ge21  1  0.90973317  0.27682939  0.85443937  1
  Ge  Ge22  1  0.17617026  0.83517047  0.98786073  1
  Ge  Ge23  1  0.20454383  0.09778261  0.44118683  1
  Cs  Cs24  1  0.22996974  0.98157454  0.72170945  1
  Cs  Cs25  1  0.27003026  0.48157454  0.77829055  1
  Cs  Cs26  1  0.77003026  0.01842546  0.27829055  1
  Cs  Cs27  1  0.72996974  0.51842546  0.22170945  1
  Cs  Cs28  1  0.38038692  0.20402762  0.03426512  1
  Cs  Cs29  1  0.11961308  0.70402762  0.46573488  1
  Cs  Cs30  1  0.61961308  0.79597238  0.96573488  1
  Cs  Cs31  1  0.88038692  0.29597238  0.53426512  1
