# generated using pymatgen
data_CuSe2Br
_symmetry_space_group_name_H-M   'P 1'
_cell_length_a   4.99502986
_cell_length_b   7.88665334
_cell_length_c   11.96245180
_cell_angle_alpha   104.16918794
_cell_angle_beta   90.00000000
_cell_angle_gamma   90.00000000
_symmetry_Int_Tables_number   1
_chemical_formula_structural   CuSe2Br
_chemical_formula_sum   'Cu4 Se8 Br4'
_cell_volume   456.91288361
_cell_formula_units_Z   4
loop_
 _symmetry_equiv_pos_site_id
 _symmetry_equiv_pos_as_xyz
  1  'x, y, z'
loop_
 _atom_site_type_symbol
 _atom_site_label
 _atom_site_symmetry_multiplicity
 _atom_site_fract_x
 _atom_site_fract_y
 _atom_site_fract_z
 _atom_site_occupancy
  Cu  Cu0  1  0.63744991  0.06722845  0.24835606  1
  Cu  Cu1  1  0.13744991  0.43277155  0.25164394  1
  Cu  Cu2  1  0.36255009  0.93277155  0.75164394  1
  Cu  Cu3  1  0.86255009  0.56722845  0.74835606  1
  Se  Se4  1  0.03492229  0.14706258  0.83655348  1
  Se  Se5  1  0.53492229  0.35293742  0.66344652  1
  Se  Se6  1  0.96507771  0.85293742  0.16344652  1
  Se  Se7  1  0.46507771  0.64706258  0.33655348  1
  Se  Se8  1  0.80490554  0.58007537  0.16764837  1
  Se  Se9  1  0.30490554  0.91992463  0.33235163  1
  Se  Se10  1  0.19509446  0.41992463  0.83235163  1
  Se  Se11  1  0.69509446  0.08007537  0.66764837  1
  Br  Br12  1  0.61125078  0.79549539  0.88314545  1
  Br  Br13  1  0.11125078  0.70450461  0.61685455  1
  Br  Br14  1  0.38874922  0.20450461  0.11685455  1
  Br  Br15  1  0.88874922  0.29549539  0.38314545  1
