# generated using pymatgen
data_Ca2Si3Ag
_symmetry_space_group_name_H-M   'P 1'
_cell_length_a   6.01914891
_cell_length_b   6.01914891
_cell_length_c   8.33683212
_cell_angle_alpha   110.30047299
_cell_angle_beta   110.30047300
_cell_angle_gamma   92.23114350
_symmetry_Int_Tables_number   1
_chemical_formula_structural   Ca2Si3Ag
_chemical_formula_sum   'Ca4 Si6 Ag2'
_cell_volume   261.29446336
_cell_formula_units_Z   2
loop_
 _symmetry_equiv_pos_site_id
 _symmetry_equiv_pos_as_xyz
  1  'x, y, z'
loop_
 _atom_site_type_symbol
 _atom_site_label
 _atom_site_symmetry_multiplicity
 _atom_site_fract_x
 _atom_site_fract_y
 _atom_site_fract_z
 _atom_site_occupancy
  Si  Si0  1  0.32446531  0.32446531  0.16170609  1
  Si  Si1  1  0.16275922  0.16275922  0.83829391  1
  Si  Si2  1  0.67553469  0.67553469  0.83829391  1
  Si  Si3  1  0.83724078  0.83724078  0.16170609  1
  Si  Si4  1  0.16158249  0.16158249  0.32316499  1
  Si  Si5  1  0.83841751  0.83841751  0.67683501  1
  Ca  Ca6  1  0.75000000  0.25000000  0.50000000  1
  Ca  Ca7  1  0.24712447  0.75287553  0.00000000  1
  Ca  Ca8  1  0.25000000  0.75000000  0.50000000  1
  Ca  Ca9  1  0.75287553  0.24712447  0.00000000  1
  Ag  Ag10  1  0.66661933  0.66661933  0.33323867  1
  Ag  Ag11  1  0.33338067  0.33338067  0.66676133  1
