# generated using pymatgen
data_Ba2Mg3Si4
_symmetry_space_group_name_H-M   'P 1'
_cell_length_a   4.63811738
_cell_length_b   6.50174535
_cell_length_c   15.69538566
_cell_angle_alpha   94.59304297
_cell_angle_beta   90.00000000
_cell_angle_gamma   110.89659531
_symmetry_Int_Tables_number   1
_chemical_formula_structural   Ba2Mg3Si4
_chemical_formula_sum   'Ba4 Mg6 Si8'
_cell_volume   440.54894538
_cell_formula_units_Z   2
loop_
 _symmetry_equiv_pos_site_id
 _symmetry_equiv_pos_as_xyz
  1  'x, y, z'
loop_
 _atom_site_type_symbol
 _atom_site_label
 _atom_site_symmetry_multiplicity
 _atom_site_fract_x
 _atom_site_fract_y
 _atom_site_fract_z
 _atom_site_occupancy
  Mg  Mg0  1  0.33773838  0.67547677  0.79455551  1
  Mg  Mg1  1  0.66226162  0.32452323  0.20544449  1
  Mg  Mg2  1  0.89343117  0.78686234  0.65417096  1
  Mg  Mg3  1  0.10656883  0.21313766  0.34582904  1
  Mg  Mg4  1  0.78048470  0.56096939  0.93118015  1
  Mg  Mg5  1  0.21951530  0.43903061  0.06881985  1
  Si  Si6  1  0.71976104  0.43952208  0.75421180  1
  Si  Si7  1  0.43956321  0.87912643  0.55720481  1
  Si  Si8  1  0.40110325  0.80220649  0.97023332  1
  Si  Si9  1  0.59889675  0.19779351  0.02976668  1
  Si  Si10  1  0.47645093  0.95290187  0.29563916  1
  Si  Si11  1  0.52354907  0.04709813  0.70436084  1
  Si  Si12  1  0.56043679  0.12087357  0.44279519  1
  Si  Si13  1  0.28023896  0.56047792  0.24578820  1
  Ba  Ba14  1  0.15780662  0.31561325  0.59014084  1
  Ba  Ba15  1  0.84219338  0.68438675  0.40985916  1
  Ba  Ba16  1  0.05889508  0.11779015  0.86539980  1
  Ba  Ba17  1  0.94110492  0.88220985  0.13460020  1
