# generated using pymatgen
data_K2ZrTe3
_symmetry_space_group_name_H-M   'P 1'
_cell_length_a   7.01039528
_cell_length_b   9.31569545
_cell_length_c   14.36595555
_cell_angle_alpha   90.00000000
_cell_angle_beta   90.00000000
_cell_angle_gamma   106.00668414
_symmetry_Int_Tables_number   1
_chemical_formula_structural   K2ZrTe3
_chemical_formula_sum   'K8 Zr4 Te12'
_cell_volume   901.81906583
_cell_formula_units_Z   4
loop_
 _symmetry_equiv_pos_site_id
 _symmetry_equiv_pos_as_xyz
  1  'x, y, z'
loop_
 _atom_site_type_symbol
 _atom_site_label
 _atom_site_symmetry_multiplicity
 _atom_site_fract_x
 _atom_site_fract_y
 _atom_site_fract_z
 _atom_site_occupancy
  K  K0  1  0.33672915  0.65568786  0.03631321  1
  K  K1  1  0.16327085  0.34431214  0.53631321  1
  K  K2  1  0.66327085  0.34431214  0.96368679  1
  K  K3  1  0.83672915  0.65568786  0.46368679  1
  K  K4  1  0.94198974  0.89824572  0.13722711  1
  K  K5  1  0.55801026  0.10175428  0.63722711  1
  K  K6  1  0.05801026  0.10175428  0.86277289  1
  K  K7  1  0.44198974  0.89824572  0.36277289  1
  Zr  Zr8  1  0.30923876  0.29263226  0.25066861  1
  Zr  Zr9  1  0.19076124  0.70736774  0.75066861  1
  Zr  Zr10  1  0.69076124  0.70736774  0.74933139  1
  Zr  Zr11  1  0.80923876  0.29263226  0.24933139  1
  Te  Te12  1  0.07279515  0.27378615  0.08480586  1
  Te  Te13  1  0.42720485  0.72621385  0.58480586  1
  Te  Te14  1  0.92720485  0.72621385  0.91519414  1
  Te  Te15  1  0.57279515  0.27378615  0.41519414  1
  Te  Te16  1  0.66521768  0.53470892  0.18792423  1
  Te  Te17  1  0.83478232  0.46529108  0.68792423  1
  Te  Te18  1  0.33478232  0.46529108  0.81207577  1
  Te  Te19  1  0.16521768  0.53470892  0.31207577  1
  Te  Te20  1  0.49894305  0.07826883  0.15078795  1
  Te  Te21  1  0.00105695  0.92173117  0.65078795  1
  Te  Te22  1  0.50105695  0.92173117  0.84921205  1
  Te  Te23  1  0.99894305  0.07826883  0.34921205  1
