# generated using pymatgen
data_Re3(SBr)7
_symmetry_space_group_name_H-M   'P 1'
_cell_length_a   9.97513716
_cell_length_b   9.97513715
_cell_length_c   26.02257909
_cell_angle_alpha   90.00000000
_cell_angle_beta   90.00000000
_cell_angle_gamma   120.00000002
_symmetry_Int_Tables_number   1
_chemical_formula_structural   Re3(SBr)7
_chemical_formula_sum   'Re12 S28 Br28'
_cell_volume   2242.42909970
_cell_formula_units_Z   4
loop_
 _symmetry_equiv_pos_site_id
 _symmetry_equiv_pos_as_xyz
  1  'x, y, z'
loop_
 _atom_site_type_symbol
 _atom_site_label
 _atom_site_symmetry_multiplicity
 _atom_site_fract_x
 _atom_site_fract_y
 _atom_site_fract_z
 _atom_site_occupancy
  S  S0  1  0.03212208  0.19748876  0.36131076  1
  S  S1  1  0.35695063  0.27220285  0.66287169  1
  S  S2  1  0.72779715  0.08474778  0.66287169  1
  S  S3  1  0.91525222  0.64304937  0.66287169  1
  S  S4  1  0.27220285  0.35695063  0.16287169  1
  S  S5  1  0.08474778  0.72779715  0.16287169  1
  S  S6  1  0.64304937  0.91525222  0.16287169  1
  S  S7  1  0.46678586  0.29381080  0.73288214  1
  S  S8  1  0.70618920  0.17297506  0.73288214  1
  S  S9  1  0.82702494  0.53321414  0.73288214  1
  S  S10  1  0.29381080  0.46678586  0.23288214  1
  S  S11  1  0.17297506  0.70618920  0.23288214  1
  S  S12  1  0.00000000  0.00000000  0.99233683  1
  S  S13  1  0.00000000  0.00000000  0.49233683  1
  S  S14  1  0.19748876  0.03212208  0.86131076  1
  S  S15  1  0.96787792  0.16536667  0.86131076  1
  S  S16  1  0.83463333  0.80251124  0.86131076  1
  S  S17  1  0.53321414  0.82702494  0.23288214  1
  S  S18  1  0.16536667  0.96787792  0.36131076  1
  S  S19  1  0.80251124  0.83463333  0.36131076  1
  S  S20  1  0.30573343  0.04957325  0.93130612  1
  S  S21  1  0.95042675  0.25616019  0.93130612  1
  S  S22  1  0.74383981  0.69426657  0.93130612  1
  S  S23  1  0.04957325  0.30573343  0.43130612  1
  S  S24  1  0.25616019  0.95042675  0.43130612  1
  S  S25  1  0.69426657  0.74383981  0.43130612  1
  S  S26  1  0.33333333  0.66666667  0.10170125  1
  S  S27  1  0.66666667  0.33333333  0.60170125  1
  Br  Br28  1  0.98294549  0.38682575  0.09364192  1
  Br  Br29  1  0.61317425  0.59611974  0.09364192  1
  Br  Br30  1  0.01705451  0.40388026  0.59364192  1
  Br  Br31  1  0.38682575  0.98294549  0.59364192  1
  Br  Br32  1  0.59611974  0.61317425  0.59364192  1
  Br  Br33  1  0.41640153  0.07898079  0.22050227  1
  Br  Br34  1  0.92101921  0.33742074  0.22050227  1
  Br  Br35  1  0.66257926  0.58359847  0.22050227  1
  Br  Br36  1  0.07898079  0.41640153  0.72050227  1
  Br  Br37  1  0.33742074  0.92101921  0.72050227  1
  Br  Br38  1  0.58359847  0.66257926  0.72050227  1
  Br  Br39  1  0.33333333  0.66666667  0.31504789  1
  Br  Br40  1  0.33599559  0.41081464  0.87505092  1
  Br  Br41  1  0.58918536  0.92518095  0.87505092  1
  Br  Br42  1  0.07481905  0.66400441  0.87505092  1
  Br  Br43  1  0.41081464  0.33599559  0.37505092  1
  Br  Br44  1  0.92518095  0.58918536  0.37505092  1
  Br  Br45  1  0.66400441  0.07481905  0.37505092  1
  Br  Br46  1  0.29367061  0.33893432  0.00161131  1
  Br  Br47  1  0.66106568  0.95473629  0.00161131  1
  Br  Br48  1  0.04526371  0.70632939  0.00161131  1
  Br  Br49  1  0.33893432  0.29367061  0.50161131  1
  Br  Br50  1  0.95473629  0.66106568  0.50161131  1
  Br  Br51  1  0.70632939  0.04526371  0.50161131  1
  Br  Br52  1  0.00000000  0.00000000  0.77888606  1
  Br  Br53  1  0.00000000  0.00000000  0.27888606  1
  Br  Br54  1  0.40388026  0.01705451  0.09364192  1
  Br  Br55  1  0.66666667  0.33333333  0.81504789  1
  Re  Re56  1  0.63262263  0.47154113  0.66918428  1
  Re  Re57  1  0.52845887  0.16108149  0.66918428  1
  Re  Re58  1  0.83891851  0.36737737  0.66918428  1
  Re  Re59  1  0.47154113  0.63262263  0.16918428  1
  Re  Re60  1  0.16108149  0.52845887  0.16918428  1
  Re  Re61  1  0.36737737  0.83891851  0.16918428  1
  Re  Re62  1  0.85749300  0.02738885  0.42505792  1
  Re  Re63  1  0.97261115  0.83010415  0.42505792  1
  Re  Re64  1  0.16989585  0.14250700  0.42505792  1
  Re  Re65  1  0.02738885  0.85749300  0.92505792  1
  Re  Re66  1  0.83010415  0.97261115  0.92505792  1
  Re  Re67  1  0.14250700  0.16989585  0.92505792  1
