# generated using pymatgen
data_Re2(PCl8)3
_symmetry_space_group_name_H-M   'P 1'
_cell_length_a   13.60982681
_cell_length_b   15.98324308
_cell_length_c   15.98324308
_cell_angle_alpha   90.00000000
_cell_angle_beta   90.00000000
_cell_angle_gamma   90.00000000
_symmetry_Int_Tables_number   1
_chemical_formula_structural   Re2(PCl8)3
_chemical_formula_sum   'Re8 P12 Cl96'
_cell_volume   3476.82160399
_cell_formula_units_Z   4
loop_
 _symmetry_equiv_pos_site_id
 _symmetry_equiv_pos_as_xyz
  1  'x, y, z'
loop_
 _atom_site_type_symbol
 _atom_site_label
 _atom_site_symmetry_multiplicity
 _atom_site_fract_x
 _atom_site_fract_y
 _atom_site_fract_z
 _atom_site_occupancy
  P  P0  1  0.75000000  0.87669632  0.37669632  1
  P  P1  1  0.25000000  0.62330368  0.87669632  1
  P  P2  1  0.25000000  0.37669632  0.12330368  1
  P  P3  1  0.75000000  0.12330368  0.62330368  1
  P  P4  1  0.25000000  0.12330368  0.62330368  1
  P  P5  1  0.75000000  0.37669632  0.12330368  1
  P  P6  1  0.75000000  0.62330368  0.87669632  1
  P  P7  1  0.25000000  0.87669632  0.37669632  1
  P  P8  1  0.25000000  0.50000000  0.50000000  1
  P  P9  1  0.75000000  0.50000000  0.50000000  1
  P  P10  1  0.75000000  0.00000000  0.00000000  1
  P  P11  1  0.25000000  0.00000000  0.00000000  1
  Cl  Cl12  1  0.00000000  0.12183295  0.45247562  1
  Cl  Cl13  1  0.50000000  0.54752438  0.12183295  1
  Cl  Cl14  1  0.50000000  0.45247562  0.87816705  1
  Cl  Cl15  1  0.00000000  0.87816705  0.54752438  1
  Cl  Cl16  1  0.00000000  0.62183295  0.04752438  1
  Cl  Cl17  1  0.00000000  0.37816705  0.95247562  1
  Cl  Cl18  1  0.50000000  0.95247562  0.62183295  1
  Cl  Cl19  1  0.50000000  0.04752438  0.37816705  1
  Cl  Cl20  1  0.00000000  0.32829757  0.49924103  1
  Cl  Cl21  1  0.50000000  0.50075897  0.32829757  1
  Cl  Cl22  1  0.50000000  0.49924103  0.67170243  1
  Cl  Cl23  1  0.00000000  0.67170243  0.50075897  1
  Cl  Cl24  1  0.00000000  0.82829757  0.00075897  1
  Cl  Cl25  1  0.00000000  0.17170243  0.99924103  1
  Cl  Cl26  1  0.50000000  0.99924103  0.82829757  1
  Cl  Cl27  1  0.50000000  0.00075897  0.17170243  1
  Cl  Cl28  1  0.00000000  0.37419835  0.29366711  1
  Cl  Cl29  1  0.50000000  0.70633289  0.37419835  1
  Cl  Cl30  1  0.50000000  0.29366711  0.62580165  1
  Cl  Cl31  1  0.00000000  0.62580165  0.70633289  1
  Cl  Cl32  1  0.00000000  0.87419835  0.20633289  1
  Cl  Cl33  1  0.00000000  0.12580165  0.79366711  1
  Cl  Cl34  1  0.50000000  0.79366711  0.87419835  1
  Cl  Cl35  1  0.50000000  0.20633289  0.12580165  1
  Cl  Cl36  1  0.17127761  0.25057946  0.37664016  1
  Cl  Cl37  1  0.67127761  0.62335984  0.25057946  1
  Cl  Cl38  1  0.67127761  0.37664016  0.74942054  1
  Cl  Cl39  1  0.17127761  0.74942054  0.62335984  1
  Cl  Cl40  1  0.82872239  0.75057946  0.12335984  1
  Cl  Cl41  1  0.82872239  0.24942054  0.87664016  1
  Cl  Cl42  1  0.32872239  0.87664016  0.75057946  1
  Cl  Cl43  1  0.32872239  0.12335984  0.24942054  1
  Cl  Cl44  1  0.82872239  0.74942054  0.62335984  1
  Cl  Cl45  1  0.32872239  0.37664016  0.74942054  1
  Cl  Cl46  1  0.32872239  0.62335984  0.25057946  1
  Cl  Cl47  1  0.82872239  0.25057946  0.37664016  1
  Cl  Cl48  1  0.17127761  0.24942054  0.87664016  1
  Cl  Cl49  1  0.17127761  0.75057946  0.12335984  1
  Cl  Cl50  1  0.67127761  0.12335984  0.24942054  1
  Cl  Cl51  1  0.67127761  0.87664016  0.75057946  1
  Cl  Cl52  1  0.00000000  0.16790869  0.25106149  1
  Cl  Cl53  1  0.50000000  0.74893851  0.16790869  1
  Cl  Cl54  1  0.50000000  0.25106149  0.83209131  1
  Cl  Cl55  1  0.00000000  0.83209131  0.74893851  1
  Cl  Cl56  1  0.00000000  0.66790869  0.24893851  1
  Cl  Cl57  1  0.00000000  0.33209131  0.75106149  1
  Cl  Cl58  1  0.50000000  0.75106149  0.66790869  1
  Cl  Cl59  1  0.50000000  0.24893851  0.33209131  1
  Cl  Cl60  1  0.66397115  0.87598705  0.27883010  1
  Cl  Cl61  1  0.16397115  0.72116990  0.87598705  1
  Cl  Cl62  1  0.16397115  0.27883010  0.12401295  1
  Cl  Cl63  1  0.66397115  0.12401295  0.72116990  1
  Cl  Cl64  1  0.33602885  0.37598705  0.22116990  1
  Cl  Cl65  1  0.33602885  0.62401295  0.77883010  1
  Cl  Cl66  1  0.83602885  0.77883010  0.37598705  1
  Cl  Cl67  1  0.83602885  0.22116990  0.62401295  1
  Cl  Cl68  1  0.33602885  0.12401295  0.72116990  1
  Cl  Cl69  1  0.83602885  0.27883010  0.12401295  1
  Cl  Cl70  1  0.83602885  0.72116990  0.87598705  1
  Cl  Cl71  1  0.33602885  0.87598705  0.27883010  1
  Cl  Cl72  1  0.66397115  0.62401295  0.77883010  1
  Cl  Cl73  1  0.66397115  0.37598705  0.22116990  1
  Cl  Cl74  1  0.16397115  0.22116990  0.62401295  1
  Cl  Cl75  1  0.16397115  0.77883010  0.37598705  1
  Cl  Cl76  1  0.83195037  0.97815654  0.37684051  1
  Cl  Cl77  1  0.33195037  0.62315949  0.97815654  1
  Cl  Cl78  1  0.33195037  0.37684051  0.02184346  1
  Cl  Cl79  1  0.83195037  0.02184346  0.62315949  1
  Cl  Cl80  1  0.16804963  0.47815654  0.12315949  1
  Cl  Cl81  1  0.16804963  0.52184346  0.87684051  1
  Cl  Cl82  1  0.66804963  0.87684051  0.47815654  1
  Cl  Cl83  1  0.66804963  0.12315949  0.52184346  1
  Cl  Cl84  1  0.16804963  0.02184346  0.62315949  1
  Cl  Cl85  1  0.66804963  0.37684051  0.02184346  1
  Cl  Cl86  1  0.66804963  0.62315949  0.97815654  1
  Cl  Cl87  1  0.16804963  0.97815654  0.37684051  1
  Cl  Cl88  1  0.83195037  0.52184346  0.87684051  1
  Cl  Cl89  1  0.83195037  0.47815654  0.12315949  1
  Cl  Cl90  1  0.33195037  0.12315949  0.52184346  1
  Cl  Cl91  1  0.33195037  0.87684051  0.47815654  1
  Cl  Cl92  1  0.16584121  0.51253176  0.59878559  1
  Cl  Cl93  1  0.66584121  0.40121441  0.51253176  1
  Cl  Cl94  1  0.66584121  0.59878559  0.48746824  1
  Cl  Cl95  1  0.16584121  0.48746824  0.40121441  1
  Cl  Cl96  1  0.83415879  0.01253176  0.90121441  1
  Cl  Cl97  1  0.83415879  0.98746824  0.09878559  1
  Cl  Cl98  1  0.33415879  0.09878559  0.01253176  1
  Cl  Cl99  1  0.33415879  0.90121441  0.98746824  1
  Cl  Cl100  1  0.83415879  0.48746824  0.40121441  1
  Cl  Cl101  1  0.33415879  0.59878559  0.48746824  1
  Cl  Cl102  1  0.33415879  0.40121441  0.51253176  1
  Cl  Cl103  1  0.83415879  0.51253176  0.59878559  1
  Cl  Cl104  1  0.16584121  0.98746824  0.09878559  1
  Cl  Cl105  1  0.16584121  0.01253176  0.90121441  1
  Cl  Cl106  1  0.66584121  0.90121441  0.98746824  1
  Cl  Cl107  1  0.66584121  0.09878559  0.01253176  1
  Re  Re108  1  0.00000000  0.24804403  0.37394326  1
  Re  Re109  1  0.50000000  0.62605674  0.24804403  1
  Re  Re110  1  0.50000000  0.37394326  0.75195597  1
  Re  Re111  1  0.00000000  0.75195597  0.62605674  1
  Re  Re112  1  0.00000000  0.74804403  0.12605674  1
  Re  Re113  1  0.00000000  0.25195597  0.87394326  1
  Re  Re114  1  0.50000000  0.87394326  0.74804403  1
  Re  Re115  1  0.50000000  0.12605674  0.25195597  1
