# generated using pymatgen
data_Sn2OF5
_symmetry_space_group_name_H-M   'P 1'
_cell_length_a   5.78034932
_cell_length_b   5.78034932
_cell_length_c   8.34883766
_cell_angle_alpha   98.86619072
_cell_angle_beta   108.83663537
_cell_angle_gamma   108.12241806
_symmetry_Int_Tables_number   1
_chemical_formula_structural   Sn2OF5
_chemical_formula_sum   'Sn4 O2 F10'
_cell_volume   240.66083948
_cell_formula_units_Z   2
loop_
 _symmetry_equiv_pos_site_id
 _symmetry_equiv_pos_as_xyz
  1  'x, y, z'
loop_
 _atom_site_type_symbol
 _atom_site_label
 _atom_site_symmetry_multiplicity
 _atom_site_fract_x
 _atom_site_fract_y
 _atom_site_fract_z
 _atom_site_occupancy
  O  O0  1  0.69400344  0.19400344  0.50000000  1
  O  O1  1  0.30599656  0.80599656  0.50000000  1
  F  F2  1  0.35100909  0.79619206  0.14720115  1
  F  F3  1  0.64899091  0.20380794  0.85279885  1
  F  F4  1  0.77822795  0.72344464  0.50167259  1
  F  F5  1  0.22177205  0.27655536  0.49832741  1
  F  F6  1  0.15812185  0.60234100  0.76046285  1
  F  F7  1  0.84187815  0.39765900  0.23953715  1
  F  F8  1  0.67610007  0.70892514  0.80301624  1
  F  F9  1  0.90590890  0.87308383  0.19698376  1
  F  F10  1  0.32389993  0.29107486  0.19698376  1
  F  F11  1  0.09409110  0.12691617  0.80301624  1
  Sn  Sn12  1  0.50000000  0.50000000  0.00000000  1
  Sn  Sn13  1  0.00000000  0.50000000  0.50000000  1
  Sn  Sn14  1  0.29716673  0.02585736  0.32302410  1
  Sn  Sn15  1  0.70283327  0.97414264  0.67697590  1
