# generated using pymatgen
data_Sc7NCl12
_symmetry_space_group_name_H-M   'P 1'
_cell_length_a   8.13753569
_cell_length_b   8.13753569
_cell_length_c   8.13753570
_cell_angle_alpha   107.65243910
_cell_angle_beta   107.65243909
_cell_angle_gamma   107.65243914
_symmetry_Int_Tables_number   1
_chemical_formula_structural   Sc7NCl12
_chemical_formula_sum   'Sc7 N1 Cl12'
_cell_volume   440.53950924
_cell_formula_units_Z   1
loop_
 _symmetry_equiv_pos_site_id
 _symmetry_equiv_pos_as_xyz
  1  'x, y, z'
loop_
 _atom_site_type_symbol
 _atom_site_label
 _atom_site_symmetry_multiplicity
 _atom_site_fract_x
 _atom_site_fract_y
 _atom_site_fract_z
 _atom_site_occupancy
  N  N0  1  0.00000000  0.00000000  0.00000000  1
  Cl  Cl1  1  0.61910280  0.84500015  0.54145570  1
  Cl  Cl2  1  0.84500015  0.54145570  0.61910280  1
  Cl  Cl3  1  0.54145570  0.61910280  0.84500015  1
  Cl  Cl4  1  0.38089720  0.15499985  0.45854430  1
  Cl  Cl5  1  0.15499985  0.45854430  0.38089720  1
  Cl  Cl6  1  0.45854430  0.38089720  0.15499985  1
  Cl  Cl7  1  0.31035849  0.92398961  0.77807748  1
  Cl  Cl8  1  0.77807748  0.31035849  0.92398961  1
  Cl  Cl9  1  0.92398961  0.77807748  0.31035849  1
  Cl  Cl10  1  0.68964151  0.07601039  0.22192252  1
  Cl  Cl11  1  0.22192252  0.68964151  0.07601039  1
  Cl  Cl12  1  0.07601039  0.22192252  0.68964151  1
  Sc  Sc13  1  0.97185681  0.90111202  0.70170676  1
  Sc  Sc14  1  0.90111202  0.70170676  0.97185681  1
  Sc  Sc15  1  0.70170676  0.97185681  0.90111202  1
  Sc  Sc16  1  0.02814319  0.09888798  0.29829324  1
  Sc  Sc17  1  0.09888798  0.29829324  0.02814319  1
  Sc  Sc18  1  0.29829324  0.02814319  0.09888798  1
  Sc  Sc19  1  0.50000000  0.50000000  0.50000000  1
