# generated using pymatgen
data_NaP4N7
_symmetry_space_group_name_H-M   'P 1'
_cell_length_a   5.18245497
_cell_length_b   7.56165086
_cell_length_c   7.56165086
_cell_angle_alpha   69.33807047
_cell_angle_beta   79.76830544
_cell_angle_gamma   79.76830544
_symmetry_Int_Tables_number   1
_chemical_formula_structural   NaP4N7
_chemical_formula_sum   'Na2 P8 N14'
_cell_volume   270.72151882
_cell_formula_units_Z   2
loop_
 _symmetry_equiv_pos_site_id
 _symmetry_equiv_pos_as_xyz
  1  'x, y, z'
loop_
 _atom_site_type_symbol
 _atom_site_label
 _atom_site_symmetry_multiplicity
 _atom_site_fract_x
 _atom_site_fract_y
 _atom_site_fract_z
 _atom_site_occupancy
  N  N0  1  0.39191798  0.73152283  0.63613519  1
  N  N1  1  0.10808202  0.36386481  0.26847717  1
  N  N2  1  0.60808202  0.26847717  0.36386481  1
  N  N3  1  0.89191798  0.63613519  0.73152283  1
  N  N4  1  0.19164364  0.10527029  0.60794120  1
  N  N5  1  0.30835636  0.39205880  0.89472971  1
  N  N6  1  0.80835636  0.89472971  0.39205880  1
  N  N7  1  0.69164364  0.60794120  0.10527029  1
  N  N8  1  0.42917336  0.08345633  0.17899183  1
  N  N9  1  0.07082664  0.82100817  0.91654367  1
  N  N10  1  0.75000000  0.52323248  0.47676752  1
  N  N11  1  0.25000000  0.47676752  0.52323248  1
  N  N12  1  0.92917336  0.17899183  0.08345633  1
  N  N13  1  0.57082664  0.91654367  0.82100817  1
  Na  Na14  1  0.75000000  0.20640544  0.79359456  1
  Na  Na15  1  0.25000000  0.79359456  0.20640544  1
  P  P16  1  0.71267442  0.70446284  0.54038133  1
  P  P17  1  0.78732558  0.45961867  0.29553716  1
  P  P18  1  0.30293147  0.90332004  0.74949850  1
  P  P19  1  0.19706853  0.25050150  0.09667996  1
  P  P20  1  0.69706853  0.09667996  0.25050150  1
  P  P21  1  0.80293147  0.74949850  0.90332004  1
  P  P22  1  0.21267442  0.54038133  0.70446284  1
  P  P23  1  0.28732558  0.29553716  0.45961867  1
