# generated using pymatgen
data_Ta3(Se4Br3)2
_symmetry_space_group_name_H-M   'P 1'
_cell_length_a   7.73034443
_cell_length_b   11.54809833
_cell_length_c   13.04010263
_cell_angle_alpha   71.44410472
_cell_angle_beta   79.71795722
_cell_angle_gamma   82.75816747
_symmetry_Int_Tables_number   1
_chemical_formula_structural   Ta3(Se4Br3)2
_chemical_formula_sum   'Ta6 Se16 Br12'
_cell_volume   1082.86339740
_cell_formula_units_Z   2
loop_
 _symmetry_equiv_pos_site_id
 _symmetry_equiv_pos_as_xyz
  1  'x, y, z'
loop_
 _atom_site_type_symbol
 _atom_site_label
 _atom_site_symmetry_multiplicity
 _atom_site_fract_x
 _atom_site_fract_y
 _atom_site_fract_z
 _atom_site_occupancy
  Se  Se0  1  0.78649336  0.88749466  0.31153393  1
  Se  Se1  1  0.21350664  0.11250534  0.68846607  1
  Se  Se2  1  0.24039040  0.89606595  0.24599274  1
  Se  Se3  1  0.75960960  0.10393405  0.75400726  1
  Se  Se4  1  0.21212227  0.11620642  0.20310646  1
  Se  Se5  1  0.78787773  0.88379358  0.79689354  1
  Se  Se6  1  0.99809765  0.80474009  0.05805652  1
  Se  Se7  1  0.00190235  0.19525991  0.94194348  1
  Se  Se8  1  0.74158186  0.94246521  0.04282309  1
  Se  Se9  1  0.25841814  0.05753479  0.95717691  1
  Se  Se10  1  0.27341647  0.95372070  0.48270361  1
  Se  Se11  1  0.72658353  0.04627930  0.51729639  1
  Se  Se12  1  0.06017711  0.80634653  0.54661680  1
  Se  Se13  1  0.25146270  0.89418818  0.76070935  1
  Se  Se14  1  0.93982289  0.19365347  0.45338320  1
  Se  Se15  1  0.74853730  0.10581182  0.23929065  1
  Br  Br16  1  0.80848748  0.57705600  0.84498272  1
  Br  Br17  1  0.19151252  0.42294400  0.15501728  1
  Br  Br18  1  0.33252038  0.59743021  0.84573148  1
  Br  Br19  1  0.63906089  0.69562512  0.59466059  1
  Br  Br20  1  0.59676955  0.57721404  0.33776970  1
  Br  Br21  1  0.40323045  0.42278596  0.66223030  1
  Br  Br22  1  0.13527381  0.60622071  0.33769206  1
  Br  Br23  1  0.86472619  0.39377929  0.66230794  1
  Br  Br24  1  0.41991263  0.69192496  0.07992442  1
  Br  Br25  1  0.58008737  0.30807504  0.92007558  1
  Br  Br26  1  0.36093911  0.30437488  0.40533941  1
  Br  Br27  1  0.66747962  0.40256979  0.15426852  1
  Ta  Ta28  1  0.39935349  0.50025598  0.24552395  1
  Ta  Ta29  1  0.60064651  0.49974402  0.75447605  1
  Ta  Ta30  1  0.99759995  0.00231380  0.12362103  1
  Ta  Ta31  1  0.00240005  0.99768620  0.87637897  1
  Ta  Ta32  1  0.99858300  0.00155221  0.37488666  1
  Ta  Ta33  1  0.00141700  0.99844779  0.62511334  1
