# generated using pymatgen
data_CaCu3(GeO3)4
_symmetry_space_group_name_H-M   'P 1'
_cell_length_a   6.34336173
_cell_length_b   6.34336172
_cell_length_c   6.34336172
_cell_angle_alpha   109.47122066
_cell_angle_beta   109.47122064
_cell_angle_gamma   109.47122059
_symmetry_Int_Tables_number   1
_chemical_formula_structural   CaCu3(GeO3)4
_chemical_formula_sum   'Ca1 Cu3 Ge4 O12'
_cell_volume   196.48823033
_cell_formula_units_Z   1
loop_
 _symmetry_equiv_pos_site_id
 _symmetry_equiv_pos_as_xyz
  1  'x, y, z'
loop_
 _atom_site_type_symbol
 _atom_site_label
 _atom_site_symmetry_multiplicity
 _atom_site_fract_x
 _atom_site_fract_y
 _atom_site_fract_z
 _atom_site_occupancy
  O  O0  1  0.81694748  0.30065580  0.11760328  1
  O  O1  1  0.18305252  0.69934420  0.88239672  1
  O  O2  1  0.81694748  0.69934420  0.51629169  1
  O  O3  1  0.30065580  0.48370831  0.18305252  1
  O  O4  1  0.48370831  0.18305252  0.30065580  1
  O  O5  1  0.11760328  0.81694748  0.30065580  1
  O  O6  1  0.69934420  0.88239672  0.18305252  1
  O  O7  1  0.51629169  0.81694748  0.69934420  1
  O  O8  1  0.18305252  0.30065580  0.48370831  1
  O  O9  1  0.69934420  0.51629169  0.81694748  1
  O  O10  1  0.88239672  0.18305252  0.69934420  1
  O  O11  1  0.30065580  0.11760328  0.81694748  1
  Ca  Ca12  1  0.00000000  0.00000000  0.00000000  1
  Cu  Cu13  1  0.50000000  0.50000000  0.00000000  1
  Cu  Cu14  1  0.00000000  0.50000000  0.50000000  1
  Cu  Cu15  1  0.50000000  0.00000000  0.50000000  1
  Ge  Ge16  1  0.50000000  0.50000000  0.50000000  1
  Ge  Ge17  1  0.00000000  0.50000000  0.00000000  1
  Ge  Ge18  1  0.00000000  0.00000000  0.50000000  1
  Ge  Ge19  1  0.50000000  0.00000000  0.00000000  1
