# generated using pymatgen
data_LaBN2
_symmetry_space_group_name_H-M   'P 1'
_cell_length_a   6.64884605
_cell_length_b   6.94939254
_cell_length_c   7.82097533
_cell_angle_alpha   105.90805670
_cell_angle_beta   90.58451544
_cell_angle_gamma   116.14807651
_symmetry_Int_Tables_number   1
_chemical_formula_structural   LaBN2
_chemical_formula_sum   'La6 B6 N12'
_cell_volume   308.35264728
_cell_formula_units_Z   6
loop_
 _symmetry_equiv_pos_site_id
 _symmetry_equiv_pos_as_xyz
  1  'x, y, z'
loop_
 _atom_site_type_symbol
 _atom_site_label
 _atom_site_symmetry_multiplicity
 _atom_site_fract_x
 _atom_site_fract_y
 _atom_site_fract_z
 _atom_site_occupancy
  B  B0  1  0.89831012  0.21024924  0.32779014  1
  B  B1  1  0.10170984  0.77742574  0.98565300  1
  B  B2  1  0.89829016  0.22257426  0.01434700  1
  B  B3  1  0.10168988  0.78975076  0.67220986  1
  B  B4  1  0.26635116  0.41869881  0.22542841  1
  B  B5  1  0.73364884  0.58130119  0.77457159  1
  N  N6  1  0.14682381  0.35841828  0.04311650  1
  N  N7  1  0.85317619  0.64158172  0.95688350  1
  N  N8  1  0.22748623  0.78265380  0.82803505  1
  N  N9  1  0.76524283  0.05360345  0.42142374  1
  N  N10  1  0.23475717  0.94639655  0.57857626  1
  N  N11  1  0.77251377  0.21734620  0.17196495  1
  N  N12  1  0.48635702  0.48241192  0.74864535  1
  N  N13  1  0.51364298  0.51758808  0.25135465  1
  N  N14  1  0.76059956  0.09039336  0.83990791  1
  N  N15  1  0.23940044  0.90960664  0.16009209  1
  N  N16  1  0.14489252  0.36702516  0.37855673  1
  N  N17  1  0.85510748  0.63297484  0.62144327  1
  La  La18  1  0.53841484  0.78521913  0.06219245  1
  La  La19  1  0.46158516  0.21478087  0.93780755  1
  La  La20  1  0.46847058  0.21765287  0.42181644  1
  La  La21  1  0.53152942  0.78234713  0.57818356  1
  La  La22  1  0.94210429  0.66574018  0.29837228  1
  La  La23  1  0.05789571  0.33425982  0.70162772  1
