# generated using pymatgen
data_MgAlCr3FeO8
_symmetry_space_group_name_H-M   'P 1'
_cell_length_a   5.91113745
_cell_length_b   6.00412087
_cell_length_c   5.91113745
_cell_angle_alpha   90.00000000
_cell_angle_beta   61.04345944
_cell_angle_gamma   120.52172972
_symmetry_Int_Tables_number   1
_chemical_formula_structural   MgAlCr3FeO8
_chemical_formula_sum   'Mg1 Al1 Cr3 Fe1 O8'
_cell_volume   149.48055254
_cell_formula_units_Z   1
loop_
 _symmetry_equiv_pos_site_id
 _symmetry_equiv_pos_as_xyz
  1  'x, y, z'
loop_
 _atom_site_type_symbol
 _atom_site_label
 _atom_site_symmetry_multiplicity
 _atom_site_fract_x
 _atom_site_fract_y
 _atom_site_fract_z
 _atom_site_occupancy
  Mg  Mg0  1  0.75161829  0.87580915  0.87580915  1
  Al  Al1  1  0.00117764  0.50058882  0.50058882  1
  Cr  Cr2  1  0.49930192  0.99930523  0.49999669  1
  Cr  Cr3  1  0.49930192  0.49999669  0.49999669  1
  Cr  Cr4  1  -0.00000662  0.49999669  0.99930523  1
  Fe  Fe5  1  0.24799239  0.12399619  0.12399619  1
  O  O6  1  0.98033027  0.70926937  0.27106089  1
  O  O7  1  0.98033027  0.27106089  0.27106089  1
  O  O8  1  0.54212178  0.27106089  0.70926937  1
  O  O9  1  0.52045113  0.26022557  0.26022557  1
  O  O10  1  0.01824235  0.28640637  0.73183598  1
  O  O11  1  0.01824235  0.73183598  0.73183598  1
  O  O12  1  0.46367197  0.73183598  0.28640637  1
  O  O13  1  0.47722434  0.73861217  0.73861217  1
