# generated using pymatgen
data_Sr5Bi3
_symmetry_space_group_name_H-M   'P 1'
_cell_length_a   9.77769890
_cell_length_b   9.77769890
_cell_length_c   7.58187243
_cell_angle_alpha   90.00000000
_cell_angle_beta   90.00000000
_cell_angle_gamma   119.99999999
_symmetry_Int_Tables_number   1
_chemical_formula_structural   Sr5Bi3
_chemical_formula_sum   'Sr10 Bi6'
_cell_volume   627.74089624
_cell_formula_units_Z   2
loop_
 _symmetry_equiv_pos_site_id
 _symmetry_equiv_pos_as_xyz
  1  'x, y, z'
loop_
 _atom_site_type_symbol
 _atom_site_label
 _atom_site_symmetry_multiplicity
 _atom_site_fract_x
 _atom_site_fract_y
 _atom_site_fract_z
 _atom_site_occupancy
  Sr  Sr0  1  0.33333333  0.66666667  0.00000000  1
  Sr  Sr1  1  0.66666667  0.33333333  0.50000000  1
  Sr  Sr2  1  0.66666667  0.33333333  0.00000000  1
  Sr  Sr3  1  0.33333333  0.66666667  0.50000000  1
  Sr  Sr4  1  0.74878228  0.00000000  0.25000000  1
  Sr  Sr5  1  0.74878228  0.74878228  0.75000000  1
  Sr  Sr6  1  0.00000000  0.25121772  0.75000000  1
  Sr  Sr7  1  0.00000000  0.74878228  0.25000000  1
  Sr  Sr8  1  0.25121772  0.25121772  0.25000000  1
  Sr  Sr9  1  0.25121772  0.00000000  0.75000000  1
  Bi  Bi10  1  0.39128791  0.00000000  0.25000000  1
  Bi  Bi11  1  0.39128791  0.39128791  0.75000000  1
  Bi  Bi12  1  0.00000000  0.60871209  0.75000000  1
  Bi  Bi13  1  0.00000000  0.39128791  0.25000000  1
  Bi  Bi14  1  0.60871209  0.60871209  0.25000000  1
  Bi  Bi15  1  0.60871209  0.00000000  0.75000000  1
