# generated using pymatgen
data_K4MnBr6
_symmetry_space_group_name_H-M   'P 1'
_cell_length_a   9.09581881
_cell_length_b   9.09581881
_cell_length_c   9.09581881
_cell_angle_alpha   89.82814971
_cell_angle_beta   89.82814969
_cell_angle_gamma   89.82814972
_symmetry_Int_Tables_number   1
_chemical_formula_structural   K4MnBr6
_chemical_formula_sum   'K8 Mn2 Br12'
_cell_volume   752.52260956
_cell_formula_units_Z   2
loop_
 _symmetry_equiv_pos_site_id
 _symmetry_equiv_pos_as_xyz
  1  'x, y, z'
loop_
 _atom_site_type_symbol
 _atom_site_label
 _atom_site_symmetry_multiplicity
 _atom_site_fract_x
 _atom_site_fract_y
 _atom_site_fract_z
 _atom_site_occupancy
  K  K0  1  0.25000000  0.25000000  0.25000000  1
  K  K1  1  0.75000000  0.75000000  0.75000000  1
  K  K2  1  0.62821450  0.87178550  0.25000000  1
  K  K3  1  0.25000000  0.62821450  0.87178550  1
  K  K4  1  0.87178550  0.25000000  0.62821450  1
  K  K5  1  0.37178550  0.12821450  0.75000000  1
  K  K6  1  0.75000000  0.37178550  0.12821450  1
  K  K7  1  0.12821450  0.75000000  0.37178550  1
  Mn  Mn8  1  0.00000000  0.00000000  0.00000000  1
  Mn  Mn9  1  0.50000000  0.50000000  0.50000000  1
  Br  Br10  1  0.28696942  0.94327917  0.06844181  1
  Br  Br11  1  0.06844181  0.28696942  0.94327917  1
  Br  Br12  1  0.94327917  0.06844181  0.28696942  1
  Br  Br13  1  0.55672083  0.21303058  0.43155819  1
  Br  Br14  1  0.43155819  0.55672083  0.21303058  1
  Br  Br15  1  0.21303058  0.43155819  0.55672083  1
  Br  Br16  1  0.71303058  0.05672083  0.93155819  1
  Br  Br17  1  0.93155819  0.71303058  0.05672083  1
  Br  Br18  1  0.05672083  0.93155819  0.71303058  1
  Br  Br19  1  0.44327917  0.78696942  0.56844181  1
  Br  Br20  1  0.56844181  0.44327917  0.78696942  1
  Br  Br21  1  0.78696942  0.56844181  0.44327917  1
