# generated using pymatgen
data_Na4Sn3S8
_symmetry_space_group_name_H-M   'P 1'
_cell_length_a   6.82065369
_cell_length_b   6.82065369
_cell_length_c   17.86213333
_cell_angle_alpha   85.84357472
_cell_angle_beta   85.84357473
_cell_angle_gamma   66.03874470
_symmetry_Int_Tables_number   1
_chemical_formula_structural   Na4Sn3S8
_chemical_formula_sum   'Na8 Sn6 S16'
_cell_volume   756.51491151
_cell_formula_units_Z   2
loop_
 _symmetry_equiv_pos_site_id
 _symmetry_equiv_pos_as_xyz
  1  'x, y, z'
loop_
 _atom_site_type_symbol
 _atom_site_label
 _atom_site_symmetry_multiplicity
 _atom_site_fract_x
 _atom_site_fract_y
 _atom_site_fract_z
 _atom_site_occupancy
  Na  Na0  1  0.90183363  0.57189604  0.62387092  1
  Na  Na1  1  0.09816637  0.42810396  0.37612908  1
  Na  Na2  1  0.57189604  0.90183363  0.12387092  1
  Na  Na3  1  0.42810396  0.09816637  0.87612908  1
  Na  Na4  1  0.51417096  0.76718718  0.33594770  1
  Na  Na5  1  0.23281282  0.48582904  0.16405230  1
  Na  Na6  1  0.76718718  0.51417096  0.83594770  1
  Na  Na7  1  0.48582904  0.23281282  0.66405230  1
  S  S8  1  0.86889016  0.17128251  0.57301515  1
  S  S9  1  0.82871749  0.13110984  0.92698485  1
  S  S10  1  0.66212315  0.29863210  0.35029113  1
  S  S11  1  0.29863210  0.66212315  0.85029113  1
  S  S12  1  0.70136790  0.33787685  0.14970887  1
  S  S13  1  0.33787685  0.70136790  0.64970887  1
  S  S14  1  0.73376814  0.67131209  0.98430911  1
  S  S15  1  0.32868791  0.26623186  0.51569089  1
  S  S16  1  0.26623186  0.32868791  0.01569089  1
  S  S17  1  0.67131209  0.73376814  0.48430911  1
  S  S18  1  0.25315723  0.11265742  0.24731308  1
  S  S19  1  0.88734258  0.74684277  0.25268692  1
  S  S20  1  0.74684277  0.88734258  0.75268692  1
  S  S21  1  0.11265742  0.25315723  0.74731308  1
  S  S22  1  0.13110984  0.82871749  0.42698485  1
  S  S23  1  0.17128251  0.86889016  0.07301515  1
  Sn  Sn24  1  0.73216426  0.06523640  0.46756815  1
  Sn  Sn25  1  0.93476360  0.26783574  0.03243185  1
  Sn  Sn26  1  0.26783574  0.93476360  0.53243185  1
  Sn  Sn27  1  0.06523640  0.73216426  0.96756815  1
  Sn  Sn28  1  0.91659847  0.08340153  0.25000000  1
  Sn  Sn29  1  0.08340153  0.91659847  0.75000000  1
