# generated using pymatgen
data_Rb2ZrTe3
_symmetry_space_group_name_H-M   'P 1'
_cell_length_a   6.99717611
_cell_length_b   9.97171162
_cell_length_c   14.57732439
_cell_angle_alpha   90.00000000
_cell_angle_beta   90.00000000
_cell_angle_gamma   108.00270516
_symmetry_Int_Tables_number   1
_chemical_formula_structural   Rb2ZrTe3
_chemical_formula_sum   'Rb8 Zr4 Te12'
_cell_volume   967.31961909
_cell_formula_units_Z   4
loop_
 _symmetry_equiv_pos_site_id
 _symmetry_equiv_pos_as_xyz
  1  'x, y, z'
loop_
 _atom_site_type_symbol
 _atom_site_label
 _atom_site_symmetry_multiplicity
 _atom_site_fract_x
 _atom_site_fract_y
 _atom_site_fract_z
 _atom_site_occupancy
  Rb  Rb0  1  0.32201222  0.64815599  0.04540955  1
  Rb  Rb1  1  0.17798778  0.35184401  0.54540955  1
  Rb  Rb2  1  0.67798778  0.35184401  0.95459045  1
  Rb  Rb3  1  0.82201222  0.64815599  0.45459045  1
  Rb  Rb4  1  0.92027107  0.90547818  0.13538536  1
  Rb  Rb5  1  0.57972893  0.09452182  0.63538536  1
  Rb  Rb6  1  0.07972893  0.09452182  0.86461464  1
  Rb  Rb7  1  0.42027107  0.90547818  0.36461464  1
  Zr  Zr8  1  0.32944700  0.29664401  0.25165195  1
  Zr  Zr9  1  0.17055300  0.70335599  0.75165195  1
  Zr  Zr10  1  0.67055300  0.70335599  0.74834805  1
  Zr  Zr11  1  0.82944700  0.29664401  0.24834805  1
  Te  Te12  1  0.08962928  0.27337108  0.08798667  1
  Te  Te13  1  0.41037072  0.72662892  0.58798667  1
  Te  Te14  1  0.91037072  0.72662892  0.91201333  1
  Te  Te15  1  0.58962928  0.27337108  0.41201333  1
  Te  Te16  1  0.69897176  0.52659819  0.18828754  1
  Te  Te17  1  0.80102824  0.47340181  0.68828754  1
  Te  Te18  1  0.30102824  0.47340181  0.81171246  1
  Te  Te19  1  0.19897176  0.52659819  0.31171246  1
  Te  Te20  1  0.50678642  0.09496078  0.15087897  1
  Te  Te21  1  0.99321358  0.90503922  0.65087897  1
  Te  Te22  1  0.49321358  0.90503922  0.84912103  1
  Te  Te23  1  0.00678642  0.09496078  0.34912103  1
