# generated using pymatgen
data_PuGa
_symmetry_space_group_name_H-M   'P 1'
_cell_length_a   6.22244051
_cell_length_b   6.22244051
_cell_length_c   6.22244051
_cell_angle_alpha   93.40498603
_cell_angle_beta   118.05399134
_cell_angle_gamma   118.05399128
_symmetry_Int_Tables_number   1
_chemical_formula_structural   PuGa
_chemical_formula_sum   'Pu4 Ga4'
_cell_volume   175.03645436
_cell_formula_units_Z   4
loop_
 _symmetry_equiv_pos_site_id
 _symmetry_equiv_pos_as_xyz
  1  'x, y, z'
loop_
 _atom_site_type_symbol
 _atom_site_label
 _atom_site_symmetry_multiplicity
 _atom_site_fract_x
 _atom_site_fract_y
 _atom_site_fract_z
 _atom_site_occupancy
  Ga  Ga0  1  0.42082426  0.91572389  0.91572389  1
  Ga  Ga1  1  0.00000000  0.91572389  0.49489963  1
  Ga  Ga2  1  0.00000000  0.49489963  0.91572389  1
  Ga  Ga3  1  0.57917574  0.49489963  0.49489963  1
  Pu  Pu4  1  0.50000000  0.95535824  0.45535824  1
  Pu  Pu5  1  0.50000000  0.45535824  0.95535824  1
  Pu  Pu6  1  0.00000000  0.40610497  0.40610497  1
  Pu  Pu7  1  0.00000000  0.00693152  0.00693152  1
