# generated using pymatgen
data_Ba(MgSn)2
_symmetry_space_group_name_H-M   'P 1'
_cell_length_a   4.94840027
_cell_length_b   4.94840027
_cell_length_c   24.48816440
_cell_angle_alpha   90.00000000
_cell_angle_beta   90.00000000
_cell_angle_gamma   90.00000000
_symmetry_Int_Tables_number   1
_chemical_formula_structural   Ba(MgSn)2
_chemical_formula_sum   'Ba4 Mg8 Sn8'
_cell_volume   599.63348381
_cell_formula_units_Z   4
loop_
 _symmetry_equiv_pos_site_id
 _symmetry_equiv_pos_as_xyz
  1  'x, y, z'
loop_
 _atom_site_type_symbol
 _atom_site_label
 _atom_site_symmetry_multiplicity
 _atom_site_fract_x
 _atom_site_fract_y
 _atom_site_fract_z
 _atom_site_occupancy
  Mg  Mg0  1  0.75000000  0.25000000  0.74767848  1
  Mg  Mg1  1  0.25000000  0.75000000  0.74767848  1
  Mg  Mg2  1  0.75000000  0.25000000  0.25232152  1
  Mg  Mg3  1  0.25000000  0.75000000  0.25232152  1
  Mg  Mg4  1  0.25000000  0.75000000  0.00000000  1
  Mg  Mg5  1  0.75000000  0.25000000  0.00000000  1
  Mg  Mg6  1  0.25000000  0.25000000  0.43448643  1
  Mg  Mg7  1  0.75000000  0.75000000  0.56551357  1
  Sn  Sn8  1  0.25000000  0.25000000  0.31824373  1
  Sn  Sn9  1  0.75000000  0.75000000  0.68175627  1
  Sn  Sn10  1  0.75000000  0.25000000  0.50000000  1
  Sn  Sn11  1  0.25000000  0.75000000  0.50000000  1
  Sn  Sn12  1  0.25000000  0.25000000  0.81488624  1
  Sn  Sn13  1  0.75000000  0.75000000  0.18511376  1
  Sn  Sn14  1  0.25000000  0.25000000  0.93405498  1
  Sn  Sn15  1  0.75000000  0.75000000  0.06594502  1
  Ba  Ba16  1  0.75000000  0.75000000  0.37978615  1
  Ba  Ba17  1  0.25000000  0.25000000  0.62021385  1
  Ba  Ba18  1  0.75000000  0.75000000  0.87114974  1
  Ba  Ba19  1  0.25000000  0.25000000  0.12885026  1
