# generated using pymatgen
data_Rb2Zn3O4
_symmetry_space_group_name_H-M   'P 1'
_cell_length_a   5.87011782
_cell_length_b   6.60865383
_cell_length_c   8.41706762
_cell_angle_alpha   113.11479343
_cell_angle_beta   101.03840801
_cell_angle_gamma   90.00000001
_symmetry_Int_Tables_number   1
_chemical_formula_structural   Rb2Zn3O4
_chemical_formula_sum   'Rb4 Zn6 O8'
_cell_volume   293.73482512
_cell_formula_units_Z   2
loop_
 _symmetry_equiv_pos_site_id
 _symmetry_equiv_pos_as_xyz
  1  'x, y, z'
loop_
 _atom_site_type_symbol
 _atom_site_label
 _atom_site_symmetry_multiplicity
 _atom_site_fract_x
 _atom_site_fract_y
 _atom_site_fract_z
 _atom_site_occupancy
  O  O0  1  0.79244696  0.62139931  0.47995622  1
  O  O1  1  0.70755304  0.14144309  0.52004378  1
  O  O2  1  0.20755304  0.37860069  0.52004378  1
  O  O3  1  0.29244696  0.85855691  0.47995622  1
  O  O4  1  0.54289606  0.72138220  0.12758546  1
  O  O5  1  0.95710394  0.59379673  0.87241454  1
  O  O6  1  0.04289606  0.40620327  0.12758546  1
  O  O7  1  0.45710394  0.27861780  0.87241454  1
  Zn  Zn8  1  0.91237310  0.42087280  0.61154477  1
  Zn  Zn9  1  0.58762690  0.80932804  0.38845523  1
  Zn  Zn10  1  0.75000000  0.48180311  0.00000000  1
  Zn  Zn11  1  0.25000000  0.51819689  0.00000000  1
  Zn  Zn12  1  0.08762690  0.57912720  0.38845523  1
  Zn  Zn13  1  0.41237310  0.19067196  0.61154477  1
  Rb  Rb14  1  0.00433965  0.01722965  0.76572036  1
  Rb  Rb15  1  0.49566035  0.25150929  0.23427964  1
  Rb  Rb16  1  0.99566035  0.98277035  0.23427964  1
  Rb  Rb17  1  0.50433965  0.74849071  0.76572036  1
