# generated using pymatgen
data_Ag(TeMo)6
_symmetry_space_group_name_H-M   'P 1'
_cell_length_a   4.61488367
_cell_length_b   9.57212672
_cell_length_c   9.69975864
_cell_angle_alpha   120.61213176
_cell_angle_beta   90.00000000
_cell_angle_gamma   103.94901818
_symmetry_Int_Tables_number   1
_chemical_formula_structural   Ag(TeMo)6
_chemical_formula_sum   'Ag1 Te6 Mo6'
_cell_volume   354.00351376
_cell_formula_units_Z   1
loop_
 _symmetry_equiv_pos_site_id
 _symmetry_equiv_pos_as_xyz
  1  'x, y, z'
loop_
 _atom_site_type_symbol
 _atom_site_label
 _atom_site_symmetry_multiplicity
 _atom_site_fract_x
 _atom_site_fract_y
 _atom_site_fract_z
 _atom_site_occupancy
  Mo  Mo0  1  0.71419393  0.42838786  0.31640141  1
  Mo  Mo1  1  0.28580607  0.57161214  0.68359859  1
  Mo  Mo2  1  0.84601447  0.69202894  0.62226919  1
  Mo  Mo3  1  0.15398553  0.30797106  0.37773081  1
  Mo  Mo4  1  0.68899243  0.37798487  0.56305640  1
  Mo  Mo5  1  0.31100757  0.62201513  0.43694360  1
  Ag  Ag6  1  0.00000000  0.00000000  0.00000000  1
  Te  Te7  1  0.12177604  0.24355208  0.63207466  1
  Te  Te8  1  0.54417859  0.08835718  0.25093684  1
  Te  Te9  1  0.45582141  0.91164282  0.74906316  1
  Te  Te10  1  0.82205634  0.64411269  0.89156589  1
  Te  Te11  1  0.17794366  0.35588731  0.10843411  1
  Te  Te12  1  0.87822396  0.75644792  0.36792534  1
