# generated using pymatgen
data_Te7Pd20
_symmetry_space_group_name_H-M   'P 1'
_cell_length_a   7.91418412
_cell_length_b   7.91418413
_cell_length_c   7.91418413
_cell_angle_alpha   98.97805266
_cell_angle_beta   98.97805264
_cell_angle_gamma   98.97805265
_symmetry_Int_Tables_number   1
_chemical_formula_structural   Te7Pd20
_chemical_formula_sum   'Te7 Pd20'
_cell_volume   475.28724486
_cell_formula_units_Z   1
loop_
 _symmetry_equiv_pos_site_id
 _symmetry_equiv_pos_as_xyz
  1  'x, y, z'
loop_
 _atom_site_type_symbol
 _atom_site_label
 _atom_site_symmetry_multiplicity
 _atom_site_fract_x
 _atom_site_fract_y
 _atom_site_fract_z
 _atom_site_occupancy
  Pd  Pd0  1  0.37982427  0.37982427  0.37982427  1
  Pd  Pd1  1  0.62017573  0.62017573  0.62017573  1
  Pd  Pd2  1  0.33420063  0.00866452  0.22298019  1
  Pd  Pd3  1  0.22298019  0.33420063  0.00866452  1
  Pd  Pd4  1  0.00866452  0.22298019  0.33420063  1
  Pd  Pd5  1  0.66579937  0.99133548  0.77701981  1
  Pd  Pd6  1  0.77701981  0.66579937  0.99133548  1
  Pd  Pd7  1  0.99133548  0.77701981  0.66579937  1
  Pd  Pd8  1  0.14469251  0.68672217  0.98775263  1
  Pd  Pd9  1  0.98775263  0.14469251  0.68672217  1
  Pd  Pd10  1  0.68672217  0.98775263  0.14469251  1
  Pd  Pd11  1  0.85530749  0.31327783  0.01224737  1
  Pd  Pd12  1  0.01224737  0.85530749  0.31327783  1
  Pd  Pd13  1  0.31327783  0.01224737  0.85530749  1
  Pd  Pd14  1  0.67768147  0.21777004  0.46369129  1
  Pd  Pd15  1  0.46369129  0.67768147  0.21777004  1
  Pd  Pd16  1  0.21777004  0.46369129  0.67768147  1
  Pd  Pd17  1  0.32231853  0.78222996  0.53630871  1
  Pd  Pd18  1  0.53630871  0.32231853  0.78222996  1
  Pd  Pd19  1  0.78222996  0.53630871  0.32231853  1
  Te  Te20  1  0.00000000  0.00000000  0.00000000  1
  Te  Te21  1  0.87884319  0.45434339  0.72431015  1
  Te  Te22  1  0.72431015  0.87884319  0.45434339  1
  Te  Te23  1  0.45434339  0.72431015  0.87884319  1
  Te  Te24  1  0.12115681  0.54565661  0.27568985  1
  Te  Te25  1  0.27568985  0.12115681  0.54565661  1
  Te  Te26  1  0.54565661  0.27568985  0.12115681  1
