# generated using pymatgen
data_ZrBi2
_symmetry_space_group_name_H-M   'P 1'
_cell_length_a   4.06119603
_cell_length_b   10.41295148
_cell_length_c   15.69211875
_cell_angle_alpha   90.00000000
_cell_angle_beta   90.00000000
_cell_angle_gamma   90.00000000
_symmetry_Int_Tables_number   1
_chemical_formula_structural   ZrBi2
_chemical_formula_sum   'Zr8 Bi16'
_cell_volume   663.60459374
_cell_formula_units_Z   8
loop_
 _symmetry_equiv_pos_site_id
 _symmetry_equiv_pos_as_xyz
  1  'x, y, z'
loop_
 _atom_site_type_symbol
 _atom_site_label
 _atom_site_symmetry_multiplicity
 _atom_site_fract_x
 _atom_site_fract_y
 _atom_site_fract_z
 _atom_site_occupancy
  Zr  Zr0  1  0.50000000  0.66301926  0.99380974  1
  Zr  Zr1  1  0.50000000  0.33698074  0.00619026  1
  Zr  Zr2  1  0.00000000  0.16301926  0.50619026  1
  Zr  Zr3  1  0.00000000  0.83698074  0.49380974  1
  Zr  Zr4  1  0.00000000  0.97712723  0.75138334  1
  Zr  Zr5  1  0.00000000  0.02287277  0.24861666  1
  Zr  Zr6  1  0.50000000  0.47712723  0.74861666  1
  Zr  Zr7  1  0.50000000  0.52287277  0.25138334  1
  Bi  Bi8  1  0.00000000  0.87687422  0.94294737  1
  Bi  Bi9  1  0.00000000  0.12312578  0.05705263  1
  Bi  Bi10  1  0.50000000  0.37687422  0.55705263  1
  Bi  Bi11  1  0.50000000  0.62312578  0.44294737  1
  Bi  Bi12  1  0.00000000  0.65369727  0.65019265  1
  Bi  Bi13  1  0.00000000  0.34630273  0.34980735  1
  Bi  Bi14  1  0.50000000  0.15369727  0.84980735  1
  Bi  Bi15  1  0.50000000  0.84630273  0.15019265  1
  Bi  Bi16  1  0.50000000  0.76498244  0.79991881  1
  Bi  Bi17  1  0.50000000  0.23501756  0.20008119  1
  Bi  Bi18  1  0.00000000  0.26498244  0.70008119  1
  Bi  Bi19  1  0.00000000  0.73501756  0.29991881  1
  Bi  Bi20  1  0.50000000  0.98707727  0.60592065  1
  Bi  Bi21  1  0.50000000  0.01292273  0.39407935  1
  Bi  Bi22  1  0.00000000  0.48707727  0.89407935  1
  Bi  Bi23  1  0.00000000  0.51292273  0.10592065  1
