# generated using pymatgen
data_BaAg8S5
_symmetry_space_group_name_H-M   'P 1'
_cell_length_a   7.87760803
_cell_length_b   9.08920222
_cell_length_c   17.71365965
_cell_angle_alpha   90.00000000
_cell_angle_beta   90.00000000
_cell_angle_gamma   108.22467926
_symmetry_Int_Tables_number   1
_chemical_formula_structural   BaAg8S5
_chemical_formula_sum   'Ba4 Ag32 S20'
_cell_volume   1204.69666682
_cell_formula_units_Z   4
loop_
 _symmetry_equiv_pos_site_id
 _symmetry_equiv_pos_as_xyz
  1  'x, y, z'
loop_
 _atom_site_type_symbol
 _atom_site_label
 _atom_site_symmetry_multiplicity
 _atom_site_fract_x
 _atom_site_fract_y
 _atom_site_fract_z
 _atom_site_occupancy
  S  S0  1  0.36738281  0.45505176  0.13465568  1
  S  S1  1  0.63261719  0.54494824  0.63465568  1
  S  S2  1  0.63261719  0.54494824  0.86534432  1
  S  S3  1  0.36738281  0.45505176  0.36534432  1
  S  S4  1  0.60549437  0.02747304  0.84652073  1
  S  S5  1  0.39450563  0.97252696  0.34652073  1
  S  S6  1  0.12204823  0.93228131  0.75000000  1
  S  S7  1  0.87795177  0.06771869  0.25000000  1
  S  S8  1  0.77212315  0.35733271  0.06925084  1
  S  S9  1  0.22787685  0.64266729  0.56925084  1
  S  S10  1  0.22787685  0.64266729  0.93074916  1
  S  S11  1  0.77212315  0.35733271  0.43074916  1
  S  S12  1  0.09488027  0.37933365  0.75000000  1
  S  S13  1  0.90511973  0.62066635  0.25000000  1
  S  S14  1  0.76899285  0.79711851  0.07140753  1
  S  S15  1  0.23100715  0.20288149  0.57140753  1
  S  S16  1  0.23100715  0.20288149  0.92859247  1
  S  S17  1  0.76899285  0.79711851  0.42859247  1
  S  S18  1  0.39450563  0.97252696  0.15347927  1
  S  S19  1  0.60549437  0.02747304  0.65347927  1
  Ag  Ag20  1  0.94612582  0.13014623  0.83829335  1
  Ag  Ag21  1  0.05387418  0.86985377  0.16170665  1
  Ag  Ag22  1  0.31421942  0.78875486  0.45097237  1
  Ag  Ag23  1  0.68578058  0.21124514  0.95097237  1
  Ag  Ag24  1  0.68578058  0.21124514  0.54902763  1
  Ag  Ag25  1  0.94612582  0.13014623  0.66170665  1
  Ag  Ag26  1  0.06155899  0.35421775  0.49436163  1
  Ag  Ag27  1  0.93844101  0.64578225  0.99436163  1
  Ag  Ag28  1  0.93844101  0.64578225  0.50563837  1
  Ag  Ag29  1  0.06155899  0.35421775  0.00563837  1
  Ag  Ag30  1  0.37044641  0.15286866  0.44897091  1
  Ag  Ag31  1  0.62955359  0.84713134  0.94897091  1
  Ag  Ag32  1  0.62955359  0.84713134  0.55102909  1
  Ag  Ag33  1  0.37044641  0.15286866  0.05102909  1
  Ag  Ag34  1  0.50000000  0.50000000  0.50000000  1
  Ag  Ag35  1  0.50000000  0.50000000  0.00000000  1
  Ag  Ag36  1  0.74119227  0.07254015  0.09681919  1
  Ag  Ag37  1  0.25880773  0.92745985  0.59681919  1
  Ag  Ag38  1  0.25880773  0.92745985  0.90318081  1
  Ag  Ag39  1  0.74119227  0.07254015  0.40318081  1
  Ag  Ag40  1  0.11235674  0.22033382  0.16314839  1
  Ag  Ag41  1  0.88764326  0.77966618  0.66314839  1
  Ag  Ag42  1  0.88764326  0.77966618  0.83685161  1
  Ag  Ag43  1  0.11235674  0.22033382  0.33685161  1
  Ag  Ag44  1  0.00000000  0.00000000  0.00000000  1
  Ag  Ag45  1  0.00000000  0.00000000  0.50000000  1
  Ag  Ag46  1  0.10107365  0.54215442  0.15974197  1
  Ag  Ag47  1  0.89892635  0.45784558  0.65974197  1
  Ag  Ag48  1  0.89892635  0.45784558  0.84025803  1
  Ag  Ag49  1  0.10107365  0.54215442  0.34025803  1
  Ag  Ag50  1  0.31421942  0.78875486  0.04902763  1
  Ag  Ag51  1  0.05387418  0.86985377  0.33829335  1
  Ba  Ba52  1  0.43891100  0.25303052  0.75000000  1
  Ba  Ba53  1  0.56108900  0.74696948  0.25000000  1
  Ba  Ba54  1  0.40015605  0.71378613  0.75000000  1
  Ba  Ba55  1  0.59984395  0.28621387  0.25000000  1
