# generated using pymatgen
data_NaGe
_symmetry_space_group_name_H-M   'P 1'
_cell_length_a   6.67676903
_cell_length_b   11.44220660
_cell_length_c   11.91909528
_cell_angle_alpha   115.99942953
_cell_angle_beta   90.00000000
_cell_angle_gamma   90.00000000
_symmetry_Int_Tables_number   1
_chemical_formula_structural   NaGe
_chemical_formula_sum   'Na16 Ge16'
_cell_volume   818.43034859
_cell_formula_units_Z   16
loop_
 _symmetry_equiv_pos_site_id
 _symmetry_equiv_pos_as_xyz
  1  'x, y, z'
loop_
 _atom_site_type_symbol
 _atom_site_label
 _atom_site_symmetry_multiplicity
 _atom_site_fract_x
 _atom_site_fract_y
 _atom_site_fract_z
 _atom_site_occupancy
  Na  Na0  1  0.93556789  0.23254118  0.09687579  1
  Na  Na1  1  0.43556789  0.26745882  0.90312421  1
  Na  Na2  1  0.06443211  0.76745882  0.90312421  1
  Na  Na3  1  0.56443211  0.73254118  0.09687579  1
  Na  Na4  1  0.85355674  0.76032421  0.39333352  1
  Na  Na5  1  0.35355674  0.73967579  0.60666648  1
  Na  Na6  1  0.14644326  0.23967579  0.60666648  1
  Na  Na7  1  0.64644326  0.26032421  0.39333352  1
  Na  Na8  1  0.18065233  0.40305428  0.39595989  1
  Na  Na9  1  0.68065233  0.09694572  0.60404011  1
  Na  Na10  1  0.81934767  0.59694572  0.60404011  1
  Na  Na11  1  0.31934767  0.90305428  0.39595989  1
  Na  Na12  1  0.13666686  0.54843087  0.14102535  1
  Na  Na13  1  0.63666686  0.95156913  0.85897465  1
  Na  Na14  1  0.86333314  0.45156913  0.85897465  1
  Na  Na15  1  0.36333314  0.04843087  0.14102535  1
  Ge  Ge16  1  0.47378029  0.34501649  0.19154962  1
  Ge  Ge17  1  0.97378029  0.15498351  0.80845038  1
  Ge  Ge18  1  0.52621971  0.65498351  0.80845038  1
  Ge  Ge19  1  0.02621971  0.84501649  0.19154962  1
  Ge  Ge20  1  0.46016902  0.60032448  0.32443430  1
  Ge  Ge21  1  0.96016902  0.89967552  0.67556570  1
  Ge  Ge22  1  0.53983098  0.39967552  0.67556570  1
  Ge  Ge23  1  0.03983098  0.10032448  0.32443430  1
  Ge  Ge24  1  0.78142436  0.47471210  0.32575098  1
  Ge  Ge25  1  0.28142436  0.02528790  0.67424902  1
  Ge  Ge26  1  0.21857564  0.52528790  0.67424902  1
  Ge  Ge27  1  0.71857564  0.97471210  0.32575098  1
  Ge  Ge28  1  0.68379421  0.49266348  0.12438972  1
  Ge  Ge29  1  0.18379421  0.00733652  0.87561028  1
  Ge  Ge30  1  0.31620579  0.50733652  0.87561028  1
  Ge  Ge31  1  0.81620579  0.99266348  0.12438972  1
