# generated using pymatgen
data_Nb2Cr4Si5
_symmetry_space_group_name_H-M   'P 1'
_cell_length_a   4.85865215
_cell_length_b   7.51148568
_cell_length_c   9.07680746
_cell_angle_alpha   114.44560937
_cell_angle_beta   105.52394240
_cell_angle_gamma   89.99999996
_symmetry_Int_Tables_number   1
_chemical_formula_structural   Nb2Cr4Si5
_chemical_formula_sum   'Nb4 Cr8 Si10'
_cell_volume   288.24070453
_cell_formula_units_Z   2
loop_
 _symmetry_equiv_pos_site_id
 _symmetry_equiv_pos_as_xyz
  1  'x, y, z'
loop_
 _atom_site_type_symbol
 _atom_site_label
 _atom_site_symmetry_multiplicity
 _atom_site_fract_x
 _atom_site_fract_y
 _atom_site_fract_z
 _atom_site_occupancy
  Si  Si0  1  0.75001880  0.00000000  0.00000000  1
  Si  Si1  1  0.24998120  0.00000000  0.00000000  1
  Si  Si2  1  0.43517061  0.35788599  0.87034121  1
  Si  Si3  1  0.56482939  0.64211401  0.12965879  1
  Si  Si4  1  0.21170662  0.00383844  0.42341325  1
  Si  Si5  1  0.78829338  0.99616156  0.57658675  1
  Si  Si6  1  0.28830637  0.58041597  0.57661274  1
  Si  Si7  1  0.71169363  0.41958403  0.42338726  1
  Si  Si8  1  0.93518004  0.51245924  0.87036008  1
  Si  Si9  1  0.06481996  0.48754076  0.12963992  1
  Cr  Cr10  1  0.05769325  0.30770560  0.61538838  1
  Cr  Cr11  1  0.44230486  0.69229440  0.38461162  1
  Cr  Cr12  1  0.06075243  0.80543553  0.12150486  1
  Cr  Cr13  1  0.93924757  0.19456447  0.87849514  1
  Cr  Cr14  1  0.43925593  0.68393982  0.87851186  1
  Cr  Cr15  1  0.56074407  0.31606018  0.12148814  1
  Cr  Cr16  1  0.94230675  0.69229440  0.38461162  1
  Cr  Cr17  1  0.55769514  0.30770560  0.61538838  1
  Nb  Nb18  1  0.35868520  0.97866912  0.71737040  1
  Nb  Nb19  1  0.64131480  0.02133088  0.28262960  1
  Nb  Nb20  1  0.14131264  0.26129933  0.28262528  1
  Nb  Nb21  1  0.85868736  0.73870067  0.71737472  1
