# generated using pymatgen
data_P3N5
_symmetry_space_group_name_H-M   'P 1'
_cell_length_a   2.62908123
_cell_length_b   4.49009398
_cell_length_c   7.02789174
_cell_angle_alpha   108.62516370
_cell_angle_beta   100.78026702
_cell_angle_gamma   90.00567241
_symmetry_Int_Tables_number   1
_chemical_formula_structural   P3N5
_chemical_formula_sum   'P3 N5'
_cell_volume   77.07091009
_cell_formula_units_Z   1
loop_
 _symmetry_equiv_pos_site_id
 _symmetry_equiv_pos_as_xyz
  1  'x, y, z'
loop_
 _atom_site_type_symbol
 _atom_site_label
 _atom_site_symmetry_multiplicity
 _atom_site_fract_x
 _atom_site_fract_y
 _atom_site_fract_z
 _atom_site_occupancy
  N  N0  1  0.22640100  0.49105787  0.45271874  1
  N  N1  1  0.77375880  0.03831823  0.54726119  1
  N  N2  1  0.89629101  0.81881347  0.79238805  1
  N  N3  1  0.49988146  0.50629375  0.00003641  1
  N  N4  1  0.10370384  0.02646519  0.20759766  1
  P  P5  1  0.31736447  0.85870517  0.63431674  1
  P  P6  1  0.68274000  0.22440338  0.36566455  1
  P  P7  1  0.99985942  0.70234294  0.00001665  1
