# generated using pymatgen
data_KAuBr4
_symmetry_space_group_name_H-M   'P 1'
_cell_length_a   6.85680104
_cell_length_b   9.60952754
_cell_length_c   13.14638803
_cell_angle_alpha   97.70292787
_cell_angle_beta   90.00000000
_cell_angle_gamma   90.00000000
_symmetry_Int_Tables_number   1
_chemical_formula_structural   KAuBr4
_chemical_formula_sum   'K4 Au4 Br16'
_cell_volume   858.40713930
_cell_formula_units_Z   4
loop_
 _symmetry_equiv_pos_site_id
 _symmetry_equiv_pos_as_xyz
  1  'x, y, z'
loop_
 _atom_site_type_symbol
 _atom_site_label
 _atom_site_symmetry_multiplicity
 _atom_site_fract_x
 _atom_site_fract_y
 _atom_site_fract_z
 _atom_site_occupancy
  K  K0  1  0.55620729  0.78894825  0.81675341  1
  K  K1  1  0.94379271  0.78894825  0.31675341  1
  K  K2  1  0.44379271  0.21105175  0.18324659  1
  K  K3  1  0.05620729  0.21105175  0.68324659  1
  Br  Br4  1  0.23965756  0.33796359  0.42631359  1
  Br  Br5  1  0.26034244  0.33796359  0.92631359  1
  Br  Br6  1  0.76034244  0.66203641  0.57368641  1
  Br  Br7  1  0.73965756  0.66203641  0.07368641  1
  Br  Br8  1  0.70684213  0.12865536  0.95313796  1
  Br  Br9  1  0.20684213  0.87134464  0.54686204  1
  Br  Br10  1  0.29315787  0.87134464  0.04686204  1
  Br  Br11  1  0.79315787  0.12865536  0.45313796  1
  Br  Br12  1  0.05577983  0.90973332  0.81637466  1
  Br  Br13  1  0.55577983  0.09026668  0.68362534  1
  Br  Br14  1  0.94422017  0.09026668  0.18362534  1
  Br  Br15  1  0.44422017  0.90973332  0.31637466  1
  Br  Br16  1  0.84907134  0.49510436  0.82845475  1
  Br  Br17  1  0.34907134  0.50489564  0.67154525  1
  Br  Br18  1  0.15092866  0.50489564  0.17154525  1
  Br  Br19  1  0.65092866  0.49510436  0.32845475  1
  Au  Au20  1  0.50000000  0.50000000  0.50000000  1
  Au  Au21  1  0.00000000  0.50000000  0.00000000  1
  Au  Au22  1  0.50000000  0.00000000  0.50000000  1
  Au  Au23  1  0.00000000  0.00000000  0.00000000  1
