# generated using pymatgen
data_Tl2Te2O5
_symmetry_space_group_name_H-M   'P 1'
_cell_length_a   7.49402473
_cell_length_b   8.93144807
_cell_length_c   12.26095016
_cell_angle_alpha   90.00000000
_cell_angle_beta   90.00000000
_cell_angle_gamma   115.97642221
_symmetry_Int_Tables_number   1
_chemical_formula_structural   Tl2Te2O5
_chemical_formula_sum   'Tl8 Te8 O20'
_cell_volume   737.74866748
_cell_formula_units_Z   4
loop_
 _symmetry_equiv_pos_site_id
 _symmetry_equiv_pos_as_xyz
  1  'x, y, z'
loop_
 _atom_site_type_symbol
 _atom_site_label
 _atom_site_symmetry_multiplicity
 _atom_site_fract_x
 _atom_site_fract_y
 _atom_site_fract_z
 _atom_site_occupancy
  O  O0  1  0.11432813  0.98625830  0.35102448  1
  O  O1  1  0.38567187  0.51374170  0.85102448  1
  O  O2  1  0.88567187  0.01374170  0.64897552  1
  O  O3  1  0.61432813  0.48625830  0.14897552  1
  O  O4  1  0.51522333  0.23973651  0.37263019  1
  O  O5  1  0.98477667  0.26026349  0.87263019  1
  O  O6  1  0.48477667  0.76026349  0.62736981  1
  O  O7  1  0.01522333  0.73973651  0.12736981  1
  O  O8  1  0.48465725  0.43289855  0.59566049  1
  O  O9  1  0.01534275  0.06710145  0.09566049  1
  O  O10  1  0.51534275  0.56710145  0.40433951  1
  O  O11  1  0.98465725  0.93289855  0.90433951  1
  O  O12  1  0.12641422  0.39890430  0.67209013  1
  O  O13  1  0.37358578  0.10109570  0.17209013  1
  O  O14  1  0.87358578  0.60109570  0.32790987  1
  O  O15  1  0.62641422  0.89890430  0.82790987  1
  O  O16  1  0.65576322  0.76746047  0.04430496  1
  O  O17  1  0.84423678  0.73253953  0.54430496  1
  O  O18  1  0.34423678  0.23253953  0.95569504  1
  O  O19  1  0.15576322  0.26746047  0.45569504  1
  Te  Te20  1  0.27706965  0.20412278  0.29827190  1
  Te  Te21  1  0.22293035  0.29587722  0.79827190  1
  Te  Te22  1  0.72293035  0.79587722  0.70172810  1
  Te  Te23  1  0.77706965  0.70412278  0.20172810  1
  Te  Te24  1  0.28214337  0.48183503  0.52916564  1
  Te  Te25  1  0.21785663  0.01816497  0.02916564  1
  Te  Te26  1  0.71785663  0.51816497  0.47083436  1
  Te  Te27  1  0.78214337  0.98183503  0.97083436  1
  Tl  Tl28  1  0.77044014  0.97804263  0.44067296  1
  Tl  Tl29  1  0.72955986  0.52195737  0.94067296  1
  Tl  Tl30  1  0.22955986  0.02195737  0.55932704  1
  Tl  Tl31  1  0.27044014  0.47804263  0.05932704  1
  Tl  Tl32  1  0.26207159  0.78686018  0.28619946  1
  Tl  Tl33  1  0.23792841  0.71313982  0.78619946  1
  Tl  Tl34  1  0.73792841  0.21313982  0.71380054  1
  Tl  Tl35  1  0.76207159  0.28686018  0.21380054  1
