# generated using pymatgen
data_La3SiBr3
_symmetry_space_group_name_H-M   'P 1'
_cell_length_a   10.64249198
_cell_length_b   10.64249198
_cell_length_c   10.64249198
_cell_angle_alpha   109.47122064
_cell_angle_beta   109.47122066
_cell_angle_gamma   109.47122060
_symmetry_Int_Tables_number   1
_chemical_formula_structural   La3SiBr3
_chemical_formula_sum   'La12 Si4 Br12'
_cell_volume   927.91480520
_cell_formula_units_Z   4
loop_
 _symmetry_equiv_pos_site_id
 _symmetry_equiv_pos_as_xyz
  1  'x, y, z'
loop_
 _atom_site_type_symbol
 _atom_site_label
 _atom_site_symmetry_multiplicity
 _atom_site_fract_x
 _atom_site_fract_y
 _atom_site_fract_z
 _atom_site_occupancy
  Si  Si0  1  0.50000000  0.00000000  0.25000000  1
  Si  Si1  1  0.00000000  0.25000000  0.50000000  1
  Si  Si2  1  0.25000000  0.50000000  0.00000000  1
  Si  Si3  1  0.25000000  0.25000000  0.25000000  1
  Br  Br4  1  0.25000000  0.75427282  0.74572718  1
  Br  Br5  1  0.99572718  0.50427282  0.25000000  1
  Br  Br6  1  0.50427282  0.25000000  0.99572718  1
  Br  Br7  1  0.75427282  0.50854564  0.50427282  1
  Br  Br8  1  0.74572718  0.99572718  0.99145436  1
  Br  Br9  1  0.99145436  0.74572718  0.99572718  1
  Br  Br10  1  0.50854564  0.50427282  0.75427282  1
  Br  Br11  1  0.50427282  0.75427282  0.50854564  1
  Br  Br12  1  0.25000000  0.99572718  0.50427282  1
  Br  Br13  1  0.99572718  0.99145436  0.74572718  1
  Br  Br14  1  0.74572718  0.25000000  0.75427282  1
  Br  Br15  1  0.75427282  0.74572718  0.25000000  1
  La  La16  1  0.02011910  0.26005955  0.01005955  1
  La  La17  1  0.01005955  0.02011910  0.26005955  1
  La  La18  1  0.01005955  0.48994045  0.75000000  1
  La  La19  1  0.26005955  0.75000000  0.23994045  1
  La  La20  1  0.26005955  0.01005955  0.02011910  1
  La  La21  1  0.75000000  0.01005955  0.48994045  1
  La  La22  1  0.75000000  0.23994045  0.26005955  1
  La  La23  1  0.23994045  0.26005955  0.75000000  1
  La  La24  1  0.48994045  0.23994045  0.47988090  1
  La  La25  1  0.23994045  0.47988090  0.48994045  1
  La  La26  1  0.48994045  0.75000000  0.01005955  1
  La  La27  1  0.47988090  0.48994045  0.23994045  1
