# generated using pymatgen
data_CsSbSe2
_symmetry_space_group_name_H-M   'P 1'
_cell_length_a   7.59010997
_cell_length_b   10.26352562
_cell_length_c   16.14178464
_cell_angle_alpha   90.00000000
_cell_angle_beta   102.47638188
_cell_angle_gamma   90.00000000
_symmetry_Int_Tables_number   1
_chemical_formula_structural   CsSbSe2
_chemical_formula_sum   'Cs8 Sb8 Se16'
_cell_volume   1227.77094053
_cell_formula_units_Z   8
loop_
 _symmetry_equiv_pos_site_id
 _symmetry_equiv_pos_as_xyz
  1  'x, y, z'
loop_
 _atom_site_type_symbol
 _atom_site_label
 _atom_site_symmetry_multiplicity
 _atom_site_fract_x
 _atom_site_fract_y
 _atom_site_fract_z
 _atom_site_occupancy
  Se  Se0  1  0.19761832  0.07505264  0.08764589  1
  Se  Se1  1  0.30238168  0.57505264  0.91235411  1
  Se  Se2  1  0.80238168  0.92494736  0.91235411  1
  Se  Se3  1  0.69761832  0.42494736  0.08764589  1
  Se  Se4  1  0.19651614  0.07515784  0.58834345  1
  Se  Se5  1  0.30348386  0.57515784  0.41165655  1
  Se  Se6  1  0.80348386  0.92484216  0.41165655  1
  Se  Se7  1  0.69651614  0.42484216  0.58834345  1
  Se  Se8  1  0.04408722  0.24848269  0.34441995  1
  Se  Se9  1  0.45591278  0.74848269  0.65558005  1
  Se  Se10  1  0.95591278  0.75151731  0.65558005  1
  Se  Se11  1  0.54432098  0.25162778  0.84447619  1
  Se  Se12  1  0.04432098  0.24837222  0.84447619  1
  Se  Se13  1  0.45567902  0.74837222  0.15552381  1
  Se  Se14  1  0.95567902  0.75162778  0.15552381  1
  Se  Se15  1  0.54408722  0.25151731  0.34441995  1
  Sb  Sb16  1  0.86499675  0.16522449  0.95565145  1
  Sb  Sb17  1  0.13539819  0.83503961  0.54453068  1
  Sb  Sb18  1  0.63539819  0.66496039  0.54453068  1
  Sb  Sb19  1  0.86460181  0.16496039  0.45546932  1
  Sb  Sb20  1  0.36499675  0.33477551  0.95565145  1
  Sb  Sb21  1  0.13500325  0.83477551  0.04434855  1
  Sb  Sb22  1  0.63500325  0.66522449  0.04434855  1
  Sb  Sb23  1  0.36460181  0.33503961  0.45546932  1
  Cs  Cs24  1  0.28591233  0.93647136  0.32691930  1
  Cs  Cs25  1  0.21408767  0.43647136  0.67308070  1
  Cs  Cs26  1  0.71408767  0.06352864  0.67308070  1
  Cs  Cs27  1  0.78591233  0.56352864  0.32691930  1
  Cs  Cs28  1  0.28614863  0.93649225  0.82719813  1
  Cs  Cs29  1  0.21385137  0.43649225  0.17280187  1
  Cs  Cs30  1  0.71385137  0.06350775  0.17280187  1
  Cs  Cs31  1  0.78614863  0.56350775  0.82719813  1
