# generated using pymatgen
data_Rb2AgCl3
_symmetry_space_group_name_H-M   'P 1'
_cell_length_a   4.54375675
_cell_length_b   9.38475904
_cell_length_c   18.21182310
_cell_angle_alpha   90.00000000
_cell_angle_beta   90.00000000
_cell_angle_gamma   90.00000000
_symmetry_Int_Tables_number   1
_chemical_formula_structural   Rb2AgCl3
_chemical_formula_sum   'Rb8 Ag4 Cl12'
_cell_volume   776.58969405
_cell_formula_units_Z   4
loop_
 _symmetry_equiv_pos_site_id
 _symmetry_equiv_pos_as_xyz
  1  'x, y, z'
loop_
 _atom_site_type_symbol
 _atom_site_label
 _atom_site_symmetry_multiplicity
 _atom_site_fract_x
 _atom_site_fract_y
 _atom_site_fract_z
 _atom_site_occupancy
  Cl  Cl0  1  0.75000000  0.00537879  0.90152941  1
  Cl  Cl1  1  0.25000000  0.99462121  0.09847059  1
  Cl  Cl2  1  0.75000000  0.50537879  0.59847059  1
  Cl  Cl3  1  0.25000000  0.49462121  0.40152941  1
  Cl  Cl4  1  0.25000000  0.81696120  0.72751042  1
  Cl  Cl5  1  0.75000000  0.18303880  0.27248958  1
  Cl  Cl6  1  0.25000000  0.31696120  0.77248958  1
  Cl  Cl7  1  0.75000000  0.68303880  0.22751042  1
  Cl  Cl8  1  0.25000000  0.62355053  0.92718810  1
  Cl  Cl9  1  0.75000000  0.87644947  0.42718810  1
  Cl  Cl10  1  0.25000000  0.12355053  0.57281190  1
  Cl  Cl11  1  0.75000000  0.37644947  0.07281190  1
  Rb  Rb12  1  0.75000000  0.07844215  0.71349607  1
  Rb  Rb13  1  0.75000000  0.73944144  0.04322123  1
  Rb  Rb14  1  0.25000000  0.76055856  0.54322123  1
  Rb  Rb15  1  0.75000000  0.23944144  0.45677877  1
  Rb  Rb16  1  0.75000000  0.57844215  0.78650393  1
  Rb  Rb17  1  0.25000000  0.42155785  0.21349607  1
  Rb  Rb18  1  0.25000000  0.92155785  0.28650393  1
  Rb  Rb19  1  0.25000000  0.26055856  0.95677877  1
  Ag  Ag20  1  0.25000000  0.87722420  0.86853275  1
  Ag  Ag21  1  0.75000000  0.12277580  0.13146725  1
  Ag  Ag22  1  0.25000000  0.37722420  0.63146725  1
  Ag  Ag23  1  0.75000000  0.62277580  0.36853275  1
