# generated using pymatgen
data_Na4GeO4
_symmetry_space_group_name_H-M   'P 1'
_cell_length_a   5.74997963
_cell_length_b   5.76672374
_cell_length_c   8.70238208
_cell_angle_alpha   81.57189974
_cell_angle_beta   71.40412703
_cell_angle_gamma   68.17583655
_symmetry_Int_Tables_number   1
_chemical_formula_structural   Na4GeO4
_chemical_formula_sum   'Na8 Ge2 O8'
_cell_volume   253.76284735
_cell_formula_units_Z   2
loop_
 _symmetry_equiv_pos_site_id
 _symmetry_equiv_pos_as_xyz
  1  'x, y, z'
loop_
 _atom_site_type_symbol
 _atom_site_label
 _atom_site_symmetry_multiplicity
 _atom_site_fract_x
 _atom_site_fract_y
 _atom_site_fract_z
 _atom_site_occupancy
  O  O0  1  0.33714401  0.96817802  0.86041016  1
  O  O1  1  0.79562398  0.52663736  0.87421142  1
  O  O2  1  0.20437602  0.47336264  0.12578858  1
  O  O3  1  0.85847768  0.96858378  0.69494188  1
  O  O4  1  0.14152232  0.03141622  0.30505812  1
  O  O5  1  0.64752299  0.65488850  0.57163574  1
  O  O6  1  0.66285599  0.03182198  0.13958984  1
  O  O7  1  0.35247701  0.34511150  0.42836426  1
  Na  Na8  1  0.98008254  0.23509626  0.06555829  1
  Na  Na9  1  0.44663655  0.74193630  0.10227419  1
  Na  Na10  1  0.89125554  0.77213910  0.32054315  1
  Na  Na11  1  0.25931528  0.74339528  0.51211997  1
  Na  Na12  1  0.74068472  0.25660472  0.48788003  1
  Na  Na13  1  0.55336345  0.25806370  0.89772581  1
  Na  Na14  1  0.01991746  0.76490374  0.93444171  1
  Na  Na15  1  0.10874446  0.22786090  0.67945685  1
  Ge  Ge16  1  0.34333328  0.22176229  0.25624165  1
  Ge  Ge17  1  0.65666672  0.77823771  0.74375835  1
