# generated using pymatgen
data_La5Sb3Br
_symmetry_space_group_name_H-M   'P 1'
_cell_length_a   9.67083635
_cell_length_b   9.67083634
_cell_length_c   6.80231181
_cell_angle_alpha   90.00000000
_cell_angle_beta   90.00000000
_cell_angle_gamma   119.99999999
_symmetry_Int_Tables_number   1
_chemical_formula_structural   La5Sb3Br
_chemical_formula_sum   'La10 Sb6 Br2'
_cell_volume   550.95386683
_cell_formula_units_Z   2
loop_
 _symmetry_equiv_pos_site_id
 _symmetry_equiv_pos_as_xyz
  1  'x, y, z'
loop_
 _atom_site_type_symbol
 _atom_site_label
 _atom_site_symmetry_multiplicity
 _atom_site_fract_x
 _atom_site_fract_y
 _atom_site_fract_z
 _atom_site_occupancy
  Br  Br0  1  0.00000000  0.00000000  0.50000000  1
  Br  Br1  1  0.00000000  0.00000000  0.00000000  1
  Sb  Sb2  1  0.61699909  0.61699909  0.75000000  1
  Sb  Sb3  1  0.00000000  0.61699909  0.25000000  1
  Sb  Sb4  1  0.61699909  0.00000000  0.25000000  1
  Sb  Sb5  1  0.38300091  0.00000000  0.75000000  1
  Sb  Sb6  1  0.00000000  0.38300091  0.75000000  1
  Sb  Sb7  1  0.38300091  0.38300091  0.25000000  1
  La  La8  1  0.27466209  0.00000000  0.25000000  1
  La  La9  1  0.00000000  0.72533791  0.75000000  1
  La  La10  1  0.72533791  0.72533791  0.25000000  1
  La  La11  1  0.27466209  0.27466209  0.75000000  1
  La  La12  1  0.72533791  0.00000000  0.75000000  1
  La  La13  1  0.00000000  0.27466209  0.25000000  1
  La  La14  1  0.66666667  0.33333333  0.50000000  1
  La  La15  1  0.33333333  0.66666667  0.00000000  1
  La  La16  1  0.33333333  0.66666667  0.50000000  1
  La  La17  1  0.66666667  0.33333333  0.00000000  1
