# generated using pymatgen
data_Ge3Cl8
_symmetry_space_group_name_H-M   'P 1'
_cell_length_a   13.07925672
_cell_length_b   13.07925672
_cell_length_c   13.07925672
_cell_angle_alpha   59.99999999
_cell_angle_beta   60.00000000
_cell_angle_gamma   60.00000001
_symmetry_Int_Tables_number   1
_chemical_formula_structural   Ge3Cl8
_chemical_formula_sum   'Ge12 Cl32'
_cell_volume   1582.10096188
_cell_formula_units_Z   4
loop_
 _symmetry_equiv_pos_site_id
 _symmetry_equiv_pos_as_xyz
  1  'x, y, z'
loop_
 _atom_site_type_symbol
 _atom_site_label
 _atom_site_symmetry_multiplicity
 _atom_site_fract_x
 _atom_site_fract_y
 _atom_site_fract_z
 _atom_site_occupancy
  Cl  Cl0  1  0.28710626  0.98283312  0.55332735  1
  Cl  Cl1  1  0.98283312  0.55332735  0.28710626  1
  Cl  Cl2  1  0.55332735  0.28710626  0.98283312  1
  Cl  Cl3  1  0.28710626  0.55332735  0.17673326  1
  Cl  Cl4  1  0.28710626  0.17673326  0.98283312  1
  Cl  Cl5  1  0.17673326  0.55332735  0.98283312  1
  Cl  Cl6  1  0.05332735  0.78710626  0.67673326  1
  Cl  Cl7  1  0.67673326  0.48283312  0.05332735  1
  Cl  Cl8  1  0.48283312  0.67673326  0.78710626  1
  Cl  Cl9  1  0.78710626  0.67673326  0.05332735  1
  Cl  Cl10  1  0.78710626  0.48283312  0.67673326  1
  Cl  Cl11  1  0.48283312  0.05332735  0.67673326  1
  Cl  Cl12  1  0.93338235  0.93338235  0.19985294  1
  Cl  Cl13  1  0.43338235  0.69985294  0.43338235  1
  Cl  Cl14  1  0.43338235  0.43338235  0.43338235  1
  Cl  Cl15  1  0.69985294  0.43338235  0.43338235  1
  Cl  Cl16  1  0.19985294  0.93338235  0.93338235  1
  Cl  Cl17  1  0.93338235  0.19985294  0.93338235  1
  Cl  Cl18  1  0.93338235  0.93338235  0.93338235  1
  Cl  Cl19  1  0.43338235  0.43338235  0.69985294  1
  Cl  Cl20  1  0.78710626  0.05332735  0.48283312  1
  Cl  Cl21  1  0.55332735  0.98283312  0.17673326  1
  Cl  Cl22  1  0.17673326  0.28710626  0.55332735  1
  Cl  Cl23  1  0.55332735  0.17673326  0.28710626  1
  Cl  Cl24  1  0.98283312  0.28710626  0.17673326  1
  Cl  Cl25  1  0.98283312  0.17673326  0.55332735  1
  Cl  Cl26  1  0.17673326  0.98283312  0.28710626  1
  Cl  Cl27  1  0.48283312  0.78710626  0.05332735  1
  Cl  Cl28  1  0.05332735  0.48283312  0.78710626  1
  Cl  Cl29  1  0.67673326  0.78710626  0.48283312  1
  Cl  Cl30  1  0.05332735  0.67673326  0.48283312  1
  Cl  Cl31  1  0.67673326  0.05332735  0.78710626  1
  Ge  Ge32  1  0.17249331  0.48252006  0.17249331  1
  Ge  Ge33  1  0.67249331  0.67249331  0.67249331  1
  Ge  Ge34  1  0.98252006  0.67249331  0.67249331  1
  Ge  Ge35  1  0.67249331  0.67249331  0.98252006  1
  Ge  Ge36  1  0.17249331  0.17249331  0.17249331  1
  Ge  Ge37  1  0.17249331  0.17249331  0.48252006  1
  Ge  Ge38  1  0.48252006  0.17249331  0.17249331  1
  Ge  Ge39  1  0.67249331  0.98252006  0.67249331  1
  Ge  Ge40  1  0.25000000  0.25000000  0.25000000  1
  Ge  Ge41  1  0.75000000  0.75000000  0.75000000  1
  Ge  Ge42  1  0.50000000  0.50000000  0.50000000  1
  Ge  Ge43  1  0.00000000  0.00000000  0.00000000  1
