# generated using pymatgen
data_Na2Tl
_symmetry_space_group_name_H-M   'P 1'
_cell_length_a   8.37910311
_cell_length_b   8.37910311
_cell_length_c   11.80683338
_cell_angle_alpha   90.00000000
_cell_angle_beta   90.00000000
_cell_angle_gamma   114.98518834
_symmetry_Int_Tables_number   1
_chemical_formula_structural   Na2Tl
_chemical_formula_sum   'Na16 Tl8'
_cell_volume   751.37467039
_cell_formula_units_Z   8
loop_
 _symmetry_equiv_pos_site_id
 _symmetry_equiv_pos_as_xyz
  1  'x, y, z'
loop_
 _atom_site_type_symbol
 _atom_site_label
 _atom_site_symmetry_multiplicity
 _atom_site_fract_x
 _atom_site_fract_y
 _atom_site_fract_z
 _atom_site_occupancy
  Na  Na0  1  0.07064338  0.92935662  0.00000000  1
  Na  Na1  1  0.92935662  0.07064338  0.50000000  1
  Na  Na2  1  0.59325026  0.59325026  0.25000000  1
  Na  Na3  1  0.40674974  0.40674974  0.75000000  1
  Na  Na4  1  0.49003261  0.89845705  0.42231669  1
  Na  Na5  1  0.50996739  0.10154295  0.92231669  1
  Na  Na6  1  0.89845705  0.49003261  0.07768331  1
  Na  Na7  1  0.10154295  0.50996739  0.57768331  1
  Na  Na8  1  0.40282683  0.15647500  0.20963365  1
  Na  Na9  1  0.59717317  0.84352500  0.70963365  1
  Na  Na10  1  0.15647500  0.40282683  0.29036635  1
  Na  Na11  1  0.84352500  0.59717317  0.79036635  1
  Na  Na12  1  0.77870216  0.04375386  0.16784565  1
  Na  Na13  1  0.22129784  0.95624614  0.66784565  1
  Na  Na14  1  0.04375386  0.77870216  0.33215435  1
  Na  Na15  1  0.95624614  0.22129784  0.83215435  1
  Tl  Tl16  1  0.33135661  0.76532474  0.13446941  1
  Tl  Tl17  1  0.66864339  0.23467526  0.63446941  1
  Tl  Tl18  1  0.76532474  0.33135661  0.36553059  1
  Tl  Tl19  1  0.23467526  0.66864339  0.86553059  1
  Tl  Tl20  1  0.72550152  0.63157157  0.52720908  1
  Tl  Tl21  1  0.27449848  0.36842843  0.02720908  1
  Tl  Tl22  1  0.63157157  0.72550152  0.97279092  1
  Tl  Tl23  1  0.36842843  0.27449848  0.47279092  1
