# generated using pymatgen
data_Na15Sn4
_symmetry_space_group_name_H-M   'P 1'
_cell_length_a   11.40724227
_cell_length_b   11.40724227
_cell_length_c   11.40724227
_cell_angle_alpha   109.47122063
_cell_angle_beta   109.47122064
_cell_angle_gamma   109.47122065
_symmetry_Int_Tables_number   1
_chemical_formula_structural   Na15Sn4
_chemical_formula_sum   'Na30 Sn8'
_cell_volume   1142.66810457
_cell_formula_units_Z   2
loop_
 _symmetry_equiv_pos_site_id
 _symmetry_equiv_pos_as_xyz
  1  'x, y, z'
loop_
 _atom_site_type_symbol
 _atom_site_label
 _atom_site_symmetry_multiplicity
 _atom_site_fract_x
 _atom_site_fract_y
 _atom_site_fract_z
 _atom_site_occupancy
  Na  Na0  1  0.25000000  0.62500000  0.37500000  1
  Na  Na1  1  0.37500000  0.25000000  0.62500000  1
  Na  Na2  1  0.12500000  0.75000000  0.87500000  1
  Na  Na3  1  0.87500000  0.12500000  0.75000000  1
  Na  Na4  1  0.62500000  0.37500000  0.25000000  1
  Na  Na5  1  0.75000000  0.87500000  0.12500000  1
  Na  Na6  1  0.11581582  0.08534044  0.27739290  1
  Na  Na7  1  0.91465956  0.69205245  0.03047538  1
  Na  Na8  1  0.16157708  0.88418418  0.46952462  1
  Na  Na9  1  0.46952462  0.16157708  0.88418418  1
  Na  Na10  1  0.72260710  0.33842292  0.80794755  1
  Na  Na11  1  0.80794755  0.72260710  0.33842292  1
  Na  Na12  1  0.69205245  0.03047538  0.91465956  1
  Na  Na13  1  0.83842292  0.22260710  0.30794755  1
  Na  Na14  1  0.53047538  0.19205245  0.41465956  1
  Na  Na15  1  0.66157708  0.96952462  0.38418418  1
  Na  Na16  1  0.22260710  0.30794755  0.83842292  1
  Na  Na17  1  0.41465956  0.53047538  0.19205245  1
  Na  Na18  1  0.96952462  0.38418418  0.66157708  1
  Na  Na19  1  0.27739290  0.11581582  0.08534044  1
  Na  Na20  1  0.08534044  0.27739290  0.11581582  1
  Na  Na21  1  0.30794755  0.83842292  0.22260710  1
  Na  Na22  1  0.19205245  0.41465956  0.53047538  1
  Na  Na23  1  0.38418418  0.66157708  0.96952462  1
  Na  Na24  1  0.58534044  0.61581582  0.77739290  1
  Na  Na25  1  0.77739290  0.58534044  0.61581582  1
  Na  Na26  1  0.61581582  0.77739290  0.58534044  1
  Na  Na27  1  0.33842292  0.80794755  0.72260710  1
  Na  Na28  1  0.03047538  0.91465956  0.69205245  1
  Na  Na29  1  0.88418418  0.46952462  0.16157708  1
  Sn  Sn30  1  0.41816937  0.41816937  0.41816937  1
  Sn  Sn31  1  0.58183063  0.50000000  0.00000000  1
  Sn  Sn32  1  0.00000000  0.58183063  0.50000000  1
  Sn  Sn33  1  0.50000000  0.00000000  0.58183063  1
  Sn  Sn34  1  0.00000000  0.08183063  0.50000000  1
  Sn  Sn35  1  0.50000000  0.00000000  0.08183063  1
  Sn  Sn36  1  0.08183063  0.50000000  0.00000000  1
  Sn  Sn37  1  0.91816937  0.91816937  0.91816937  1
