# generated using pymatgen
data_PrAu2
_symmetry_space_group_name_H-M   'P 1'
_cell_length_a   4.72600334
_cell_length_b   6.01498859
_cell_length_c   6.01498859
_cell_angle_alpha   73.89132743
_cell_angle_beta   66.86790984
_cell_angle_gamma   66.86790977
_symmetry_Int_Tables_number   1
_chemical_formula_structural   PrAu2
_chemical_formula_sum   'Pr2 Au4'
_cell_volume   143.05741004
_cell_formula_units_Z   2
loop_
 _symmetry_equiv_pos_site_id
 _symmetry_equiv_pos_as_xyz
  1  'x, y, z'
loop_
 _atom_site_type_symbol
 _atom_site_label
 _atom_site_symmetry_multiplicity
 _atom_site_fract_x
 _atom_site_fract_y
 _atom_site_fract_z
 _atom_site_occupancy
  Pr  Pr0  1  0.53459855  0.71540145  0.21540145  1
  Pr  Pr1  1  0.46540145  0.28459855  0.78459855  1
  Au  Au2  1  0.16352119  0.30344132  0.36951629  1
  Au  Au3  1  0.83647881  0.69655868  0.63048371  1
  Au  Au4  1  0.16352119  0.86951629  0.80344132  1
  Au  Au5  1  0.83647881  0.13048371  0.19655868  1
