# generated using pymatgen
data_NaPb
_symmetry_space_group_name_H-M   'P 1'
_cell_length_a   10.67360895
_cell_length_b   10.67360895
_cell_length_c   11.76823405
_cell_angle_alpha   116.96797323
_cell_angle_beta   116.96797327
_cell_angle_gamma   89.99999998
_symmetry_Int_Tables_number   1
_chemical_formula_structural   NaPb
_chemical_formula_sum   'Na16 Pb16'
_cell_volume   1028.67207651
_cell_formula_units_Z   16
loop_
 _symmetry_equiv_pos_site_id
 _symmetry_equiv_pos_as_xyz
  1  'x, y, z'
loop_
 _atom_site_type_symbol
 _atom_site_label
 _atom_site_symmetry_multiplicity
 _atom_site_fract_x
 _atom_site_fract_y
 _atom_site_fract_z
 _atom_site_occupancy
  Na  Na0  1  0.25000000  0.36860236  0.00000000  1
  Na  Na1  1  0.13139764  0.25000000  0.50000000  1
  Na  Na2  1  0.36860236  0.75000000  0.50000000  1
  Na  Na3  1  0.75000000  0.13139764  0.00000000  1
  Na  Na4  1  0.75000000  0.63139764  0.00000000  1
  Na  Na5  1  0.86860236  0.75000000  0.50000000  1
  Na  Na6  1  0.63139764  0.25000000  0.50000000  1
  Na  Na7  1  0.25000000  0.86860236  0.00000000  1
  Na  Na8  1  0.75022832  1.00022832  0.25000000  1
  Na  Na9  1  0.74977168  0.75022832  0.75000000  1
  Na  Na10  1  1.00022832  0.49977168  0.75000000  1
  Na  Na11  1  0.49977168  0.74977168  0.25000000  1
  Na  Na12  1  0.24977168  -0.00022832  0.75000000  1
  Na  Na13  1  0.25022832  0.24977168  0.25000000  1
  Na  Na14  1  -0.00022832  0.50022832  0.25000000  1
  Na  Na15  1  0.50022832  0.25022832  0.75000000  1
  Pb  Pb16  1  0.00899092  0.05714742  0.87769452  1
  Pb  Pb17  1  0.32054710  0.00899092  0.37769452  1
  Pb  Pb18  1  0.05714742  0.86870360  0.37769452  1
  Pb  Pb19  1  0.63129640  0.44285258  0.12230548  1
  Pb  Pb20  1  0.49100908  0.17945290  0.12230548  1
  Pb  Pb21  1  0.17945290  0.63129640  0.62230548  1
  Pb  Pb22  1  0.44285258  0.49100908  0.62230548  1
  Pb  Pb23  1  0.86870360  0.32054710  0.87769452  1
  Pb  Pb24  1  0.99100908  0.94285258  0.12230548  1
  Pb  Pb25  1  0.67945290  0.99100908  0.62230548  1
  Pb  Pb26  1  0.94285258  0.13129640  0.62230548  1
  Pb  Pb27  1  0.36870360  0.55714742  0.87769452  1
  Pb  Pb28  1  0.50899092  0.82054710  0.87769452  1
  Pb  Pb29  1  0.82054710  0.36870360  0.37769452  1
  Pb  Pb30  1  0.55714742  0.50899092  0.37769452  1
  Pb  Pb31  1  0.13129640  0.67945290  0.12230548  1
