# generated using pymatgen
data_Ho3(AlNi3)2
_symmetry_space_group_name_H-M   'P 1'
_cell_length_a   7.69297894
_cell_length_b   7.69297894
_cell_length_c   7.69297894
_cell_angle_alpha   109.47122062
_cell_angle_beta   109.47122061
_cell_angle_gamma   109.47122066
_symmetry_Int_Tables_number   1
_chemical_formula_structural   Ho3(AlNi3)2
_chemical_formula_sum   'Ho6 Al4 Ni12'
_cell_volume   350.47878907
_cell_formula_units_Z   2
loop_
 _symmetry_equiv_pos_site_id
 _symmetry_equiv_pos_as_xyz
  1  'x, y, z'
loop_
 _atom_site_type_symbol
 _atom_site_label
 _atom_site_symmetry_multiplicity
 _atom_site_fract_x
 _atom_site_fract_y
 _atom_site_fract_z
 _atom_site_occupancy
  Al  Al0  1  0.50000000  0.50000000  0.50000000  1
  Al  Al1  1  0.50000000  0.00000000  0.00000000  1
  Al  Al2  1  0.00000000  0.50000000  0.00000000  1
  Al  Al3  1  0.00000000  0.00000000  0.50000000  1
  Ni  Ni4  1  0.33472551  0.66527449  0.00000000  1
  Ni  Ni5  1  0.66945102  0.33472551  0.33472551  1
  Ni  Ni6  1  0.33472551  0.66945102  0.33472551  1
  Ni  Ni7  1  0.66527449  0.00000000  0.33472551  1
  Ni  Ni8  1  0.33472551  0.00000000  0.66527449  1
  Ni  Ni9  1  0.33472551  0.33472551  0.66945102  1
  Ni  Ni10  1  0.33054898  0.66527449  0.66527449  1
  Ni  Ni11  1  0.66527449  0.66527449  0.33054898  1
  Ni  Ni12  1  0.66527449  0.33054898  0.66527449  1
  Ni  Ni13  1  0.00000000  0.66527449  0.33472551  1
  Ni  Ni14  1  0.66527449  0.33472551  0.00000000  1
  Ni  Ni15  1  0.00000000  0.33472551  0.66527449  1
  Ho  Ho16  1  0.00000000  0.29284488  0.29284488  1
  Ho  Ho17  1  0.00000000  0.70715512  0.70715512  1
  Ho  Ho18  1  0.29284488  0.29284488  0.00000000  1
  Ho  Ho19  1  0.70715512  0.70715512  0.00000000  1
  Ho  Ho20  1  0.70715512  0.00000000  0.70715512  1
  Ho  Ho21  1  0.29284488  0.00000000  0.29284488  1
