# generated using pymatgen
data_BeAl2O4
_symmetry_space_group_name_H-M   'P 1'
_cell_length_a   4.46147368
_cell_length_b   5.52789863
_cell_length_c   9.49986473
_cell_angle_alpha   90.00000000
_cell_angle_beta   90.00000000
_cell_angle_gamma   90.00000000
_symmetry_Int_Tables_number   1
_chemical_formula_structural   BeAl2O4
_chemical_formula_sum   'Be4 Al8 O16'
_cell_volume   234.29111921
_cell_formula_units_Z   4
loop_
 _symmetry_equiv_pos_site_id
 _symmetry_equiv_pos_as_xyz
  1  'x, y, z'
loop_
 _atom_site_type_symbol
 _atom_site_label
 _atom_site_symmetry_multiplicity
 _atom_site_fract_x
 _atom_site_fract_y
 _atom_site_fract_z
 _atom_site_occupancy
  Be  Be0  1  0.06696849  0.25000000  0.59245131  1
  Be  Be1  1  0.93303151  0.75000000  0.40754869  1
  Be  Be2  1  0.43303151  0.25000000  0.09245131  1
  Be  Be3  1  0.56696849  0.75000000  0.90754869  1
  O  O4  1  0.75748535  0.51611454  0.33691804  1
  O  O5  1  0.25748535  0.48388546  0.16308196  1
  O  O6  1  0.24251465  0.01611454  0.66308196  1
  O  O7  1  0.74251465  0.98388546  0.83691804  1
  O  O8  1  0.25748535  0.01611454  0.16308196  1
  O  O9  1  0.24251465  0.48388546  0.66308196  1
  O  O10  1  0.75748535  0.98388546  0.33691804  1
  O  O11  1  0.74251465  0.51611454  0.83691804  1
  O  O12  1  0.21344882  0.75000000  0.90956259  1
  O  O13  1  0.71344882  0.25000000  0.59043741  1
  O  O14  1  0.78655118  0.25000000  0.09043741  1
  O  O15  1  0.28655118  0.75000000  0.40956259  1
  O  O16  1  0.75934598  0.75000000  0.56645348  1
  O  O17  1  0.25934598  0.25000000  0.93354652  1
  O  O18  1  0.24065402  0.25000000  0.43354652  1
  O  O19  1  0.74065402  0.75000000  0.06645348  1
  Al  Al20  1  0.49474434  0.75000000  0.22715462  1
  Al  Al21  1  0.99474434  0.25000000  0.27284538  1
  Al  Al22  1  0.50525566  0.25000000  0.77284538  1
  Al  Al23  1  0.00525566  0.75000000  0.72715462  1
  Al  Al24  1  0.50000000  0.50000000  0.50000000  1
  Al  Al25  1  0.00000000  0.50000000  0.00000000  1
  Al  Al26  1  0.50000000  0.00000000  0.50000000  1
  Al  Al27  1  0.00000000  0.00000000  0.00000000  1
