# generated using pymatgen
data_Sr2Pb
_symmetry_space_group_name_H-M   'P 1'
_cell_length_a   5.49078284
_cell_length_b   8.49613944
_cell_length_c   10.26853893
_cell_angle_alpha   90.00000000
_cell_angle_beta   90.00000000
_cell_angle_gamma   90.00000000
_symmetry_Int_Tables_number   1
_chemical_formula_structural   Sr2Pb
_chemical_formula_sum   'Sr8 Pb4'
_cell_volume   479.03203015
_cell_formula_units_Z   4
loop_
 _symmetry_equiv_pos_site_id
 _symmetry_equiv_pos_as_xyz
  1  'x, y, z'
loop_
 _atom_site_type_symbol
 _atom_site_label
 _atom_site_symmetry_multiplicity
 _atom_site_fract_x
 _atom_site_fract_y
 _atom_site_fract_z
 _atom_site_occupancy
  Sr  Sr0  1  0.25000000  0.48068311  0.81825956  1
  Sr  Sr1  1  0.75000000  0.51931689  0.18174044  1
  Sr  Sr2  1  0.25000000  0.98068311  0.68174044  1
  Sr  Sr3  1  0.75000000  0.01931689  0.31825956  1
  Sr  Sr4  1  0.75000000  0.15703054  0.92575304  1
  Sr  Sr5  1  0.25000000  0.84296946  0.07424696  1
  Sr  Sr6  1  0.75000000  0.65703054  0.57424696  1
  Sr  Sr7  1  0.25000000  0.34296946  0.42575304  1
  Pb  Pb8  1  0.25000000  0.75075997  0.39471788  1
  Pb  Pb9  1  0.75000000  0.24924003  0.60528212  1
  Pb  Pb10  1  0.25000000  0.25075997  0.10528212  1
  Pb  Pb11  1  0.75000000  0.74924003  0.89471788  1
