# generated using pymatgen
data_SrSn3Pd
_symmetry_space_group_name_H-M   'P 1'
_cell_length_a   4.88611219
_cell_length_b   4.88611219
_cell_length_c   6.65036931
_cell_angle_alpha   111.55267514
_cell_angle_beta   111.55267503
_cell_angle_gamma   90.00000007
_symmetry_Int_Tables_number   1
_chemical_formula_structural   SrSn3Pd
_chemical_formula_sum   'Sr1 Sn3 Pd1'
_cell_volume   135.66360440
_cell_formula_units_Z   1
loop_
 _symmetry_equiv_pos_site_id
 _symmetry_equiv_pos_as_xyz
  1  'x, y, z'
loop_
 _atom_site_type_symbol
 _atom_site_label
 _atom_site_symmetry_multiplicity
 _atom_site_fract_x
 _atom_site_fract_y
 _atom_site_fract_z
 _atom_site_occupancy
  Sr  Sr0  1  0.99771614  0.99771614  0.99543229  1
  Pd  Pd1  1  0.64157328  0.64157328  0.28314655  1
  Sn  Sn2  1  0.40958291  0.40958291  0.81916583  1
  Sn  Sn3  1  0.74606383  0.24606383  0.49212767  1
  Sn  Sn4  1  0.24606383  0.74606383  0.49212767  1
