# generated using pymatgen
data_Th7Ni3
_symmetry_space_group_name_H-M   'P 1'
_cell_length_a   9.82636822
_cell_length_b   9.82636822
_cell_length_c   6.21455900
_cell_angle_alpha   90.00000000
_cell_angle_beta   90.00000000
_cell_angle_gamma   120.00000002
_symmetry_Int_Tables_number   1
_chemical_formula_structural   Th7Ni3
_chemical_formula_sum   'Th14 Ni6'
_cell_volume   519.66924527
_cell_formula_units_Z   2
loop_
 _symmetry_equiv_pos_site_id
 _symmetry_equiv_pos_as_xyz
  1  'x, y, z'
loop_
 _atom_site_type_symbol
 _atom_site_label
 _atom_site_symmetry_multiplicity
 _atom_site_fract_x
 _atom_site_fract_y
 _atom_site_fract_z
 _atom_site_occupancy
  Ni  Ni0  1  0.81355768  0.18644232  0.30692388  1
  Ni  Ni1  1  0.62711536  0.81355768  0.80692388  1
  Ni  Ni2  1  0.18644232  0.37288464  0.80692388  1
  Ni  Ni3  1  0.81355768  0.62711536  0.30692388  1
  Ni  Ni4  1  0.37288464  0.18644232  0.30692388  1
  Ni  Ni5  1  0.18644232  0.81355768  0.80692388  1
  Th  Th6  1  0.33333333  0.66666667  0.07034699  1
  Th  Th7  1  0.66666667  0.33333333  0.57034699  1
  Th  Th8  1  0.12695967  0.87304033  0.24101350  1
  Th  Th9  1  0.25391935  0.12695967  0.74101350  1
  Th  Th10  1  0.87304033  0.74608065  0.74101350  1
  Th  Th11  1  0.12695967  0.25391935  0.24101350  1
  Th  Th12  1  0.74608065  0.87304033  0.24101350  1
  Th  Th13  1  0.87304033  0.12695967  0.74101350  1
  Th  Th14  1  0.54433492  0.45566508  0.03861362  1
  Th  Th15  1  0.08866983  0.54433492  0.53861362  1
  Th  Th16  1  0.45566508  0.91133017  0.53861362  1
  Th  Th17  1  0.54433492  0.08866983  0.03861362  1
  Th  Th18  1  0.91133017  0.45566508  0.03861362  1
  Th  Th19  1  0.45566508  0.54433492  0.53861362  1
