# generated using pymatgen
data_NdZn11
_symmetry_space_group_name_H-M   'P 1'
_cell_length_a   6.84723409
_cell_length_b   8.28118097
_cell_length_c   8.28118096
_cell_angle_alpha   80.15884780
_cell_angle_beta   65.58005909
_cell_angle_gamma   65.58005911
_symmetry_Int_Tables_number   1
_chemical_formula_structural   NdZn11
_chemical_formula_sum   'Nd2 Zn22'
_cell_volume   389.31185030
_cell_formula_units_Z   2
loop_
 _symmetry_equiv_pos_site_id
 _symmetry_equiv_pos_as_xyz
  1  'x, y, z'
loop_
 _atom_site_type_symbol
 _atom_site_label
 _atom_site_symmetry_multiplicity
 _atom_site_fract_x
 _atom_site_fract_y
 _atom_site_fract_z
 _atom_site_occupancy
  Zn  Zn0  1  0.55549515  0.57699836  0.66623327  1
  Zn  Zn1  1  0.79872678  0.92300164  0.83376673  1
  Zn  Zn2  1  0.87500000  0.25000000  0.75000000  1
  Zn  Zn3  1  0.12500000  0.75000000  0.25000000  1
  Zn  Zn4  1  0.00000000  0.50000000  0.50000000  1
  Zn  Zn5  1  0.00000000  0.00000000  0.50000000  1
  Zn  Zn6  1  0.50000000  0.50000000  0.00000000  1
  Zn  Zn7  1  0.00000000  0.00000000  0.00000000  1
  Zn  Zn8  1  0.79872678  0.33376673  0.42300164  1
  Zn  Zn9  1  0.72172842  0.07699836  0.33376673  1
  Zn  Zn10  1  0.13249351  0.42300164  0.16623327  1
  Zn  Zn11  1  0.55549515  0.16623327  0.07699836  1
  Zn  Zn12  1  0.86750649  0.33376673  0.07699836  1
  Zn  Zn13  1  0.27827158  0.16623327  0.42300164  1
  Zn  Zn14  1  0.20127322  0.07699836  0.16623327  1
  Zn  Zn15  1  0.44450485  0.42300164  0.33376673  1
  Zn  Zn16  1  0.20127322  0.66623327  0.57699836  1
  Zn  Zn17  1  0.27827158  0.92300164  0.66623327  1
  Zn  Zn18  1  0.86750649  0.57699836  0.83376673  1
  Zn  Zn19  1  0.44450485  0.83376673  0.92300164  1
  Zn  Zn20  1  0.13249351  0.66623327  0.92300164  1
  Zn  Zn21  1  0.72172842  0.83376673  0.57699836  1
  Nd  Nd22  1  0.62500000  0.75000000  0.25000000  1
  Nd  Nd23  1  0.37500000  0.25000000  0.75000000  1
