# generated using pymatgen
data_Tl2Pt3
_symmetry_space_group_name_H-M   'P 1'
_cell_length_a   5.73629595
_cell_length_b   5.73411674
_cell_length_c   14.25910633
_cell_angle_alpha   89.99958900
_cell_angle_beta   90.00020549
_cell_angle_gamma   119.98743644
_symmetry_Int_Tables_number   1
_chemical_formula_structural   Tl2Pt3
_chemical_formula_sum   'Tl8 Pt12'
_cell_volume   406.23373587
_cell_formula_units_Z   4
loop_
 _symmetry_equiv_pos_site_id
 _symmetry_equiv_pos_as_xyz
  1  'x, y, z'
loop_
 _atom_site_type_symbol
 _atom_site_label
 _atom_site_symmetry_multiplicity
 _atom_site_fract_x
 _atom_site_fract_y
 _atom_site_fract_z
 _atom_site_occupancy
  Tl  Tl0  1  0.00001882  0.00000941  0.75000000  1
  Tl  Tl1  1  0.99998118  0.99999059  0.25000000  1
  Tl  Tl2  1  0.66661720  0.33330860  0.75000000  1
  Tl  Tl3  1  0.33338280  0.66669140  0.25000000  1
  Tl  Tl4  1  0.66663113  0.33331636  0.41067021  1
  Tl  Tl5  1  0.33336887  0.66668523  0.91067021  1
  Tl  Tl6  1  0.33336887  0.66668364  0.58932979  1
  Tl  Tl7  1  0.66663113  0.33331477  0.08932979  1
  Pt  Pt8  1  0.83469704  0.16546634  0.58722941  1
  Pt  Pt9  1  0.83462222  0.66922952  0.58722720  1
  Pt  Pt10  1  0.33089093  0.16540633  0.58724088  1
  Pt  Pt11  1  0.16530296  0.33076930  0.08722941  1
  Pt  Pt12  1  0.66910907  0.83451540  0.08724088  1
  Pt  Pt13  1  0.16537778  0.83460730  0.08722720  1
  Pt  Pt14  1  0.16530296  0.83453366  0.41277059  1
  Pt  Pt15  1  0.16537778  0.33077048  0.41277280  1
  Pt  Pt16  1  0.66910907  0.83459367  0.41275912  1
  Pt  Pt17  1  0.83469704  0.66923070  0.91277059  1
  Pt  Pt18  1  0.33089093  0.16548460  0.91275912  1
  Pt  Pt19  1  0.83462222  0.16539270  0.91277280  1
