# generated using pymatgen
data_Sr7Pt3
_symmetry_space_group_name_H-M   'P 1'
_cell_length_a   7.16346858
_cell_length_b   8.03082049
_cell_length_c   24.62316162
_cell_angle_alpha   90.00000000
_cell_angle_beta   90.00000000
_cell_angle_gamma   90.00000000
_symmetry_Int_Tables_number   1
_chemical_formula_structural   Sr7Pt3
_chemical_formula_sum   'Sr28 Pt12'
_cell_volume   1416.53429815
_cell_formula_units_Z   4
loop_
 _symmetry_equiv_pos_site_id
 _symmetry_equiv_pos_as_xyz
  1  'x, y, z'
loop_
 _atom_site_type_symbol
 _atom_site_label
 _atom_site_symmetry_multiplicity
 _atom_site_fract_x
 _atom_site_fract_y
 _atom_site_fract_z
 _atom_site_occupancy
  Sr  Sr0  1  0.31659267  0.81295187  0.17430354  1
  Sr  Sr1  1  0.18340733  0.31295187  0.32569646  1
  Sr  Sr2  1  0.68340733  0.18704813  0.67430354  1
  Sr  Sr3  1  0.81659267  0.68704813  0.82569646  1
  Sr  Sr4  1  0.68340733  0.18704813  0.82569646  1
  Sr  Sr5  1  0.81659267  0.68704813  0.67430354  1
  Sr  Sr6  1  0.31659267  0.81295187  0.32569646  1
  Sr  Sr7  1  0.18340733  0.31295187  0.17430354  1
  Sr  Sr8  1  0.32196440  0.83197749  0.02271558  1
  Sr  Sr9  1  0.17803560  0.33197749  0.47728442  1
  Sr  Sr10  1  0.67803560  0.16802251  0.52271558  1
  Sr  Sr11  1  0.82196440  0.66802251  0.97728442  1
  Sr  Sr12  1  0.67803560  0.16802251  0.97728442  1
  Sr  Sr13  1  0.82196440  0.66802251  0.52271558  1
  Sr  Sr14  1  0.32196440  0.83197749  0.47728442  1
  Sr  Sr15  1  0.17803560  0.33197749  0.02271558  1
  Sr  Sr16  1  0.85176443  0.67216785  0.25000000  1
  Sr  Sr17  1  0.64823557  0.17216785  0.25000000  1
  Sr  Sr18  1  0.14823557  0.32783215  0.75000000  1
  Sr  Sr19  1  0.35176443  0.82783215  0.75000000  1
  Sr  Sr20  1  0.84394584  0.95316074  0.11764082  1
  Sr  Sr21  1  0.65605416  0.45316074  0.38235918  1
  Sr  Sr22  1  0.15605416  0.04683926  0.61764082  1
  Sr  Sr23  1  0.34394584  0.54683926  0.88235918  1
  Sr  Sr24  1  0.15605416  0.04683926  0.88235918  1
  Sr  Sr25  1  0.34394584  0.54683926  0.61764082  1
  Sr  Sr26  1  0.84394584  0.95316074  0.38235918  1
  Sr  Sr27  1  0.65605416  0.45316074  0.11764082  1
  Pt  Pt28  1  0.46286299  0.51450703  0.25000000  1
  Pt  Pt29  1  0.03713701  0.01450703  0.25000000  1
  Pt  Pt30  1  0.53713701  0.48549297  0.75000000  1
  Pt  Pt31  1  0.96286299  0.98549297  0.75000000  1
  Pt  Pt32  1  0.03793313  0.61959537  0.09429417  1
  Pt  Pt33  1  0.46206687  0.11959537  0.40570583  1
  Pt  Pt34  1  0.96206687  0.38040463  0.59429417  1
  Pt  Pt35  1  0.53793313  0.88040463  0.90570583  1
  Pt  Pt36  1  0.96206687  0.38040463  0.90570583  1
  Pt  Pt37  1  0.53793313  0.88040463  0.59429417  1
  Pt  Pt38  1  0.03793313  0.61959537  0.40570583  1
  Pt  Pt39  1  0.46206687  0.11959537  0.09429417  1
