# generated using pymatgen
data_ThPd
_symmetry_space_group_name_H-M   'P 1'
_cell_length_a   4.58962085
_cell_length_b   5.89789496
_cell_length_c   7.28961802
_cell_angle_alpha   90.00000000
_cell_angle_beta   90.00000000
_cell_angle_gamma   90.00000000
_symmetry_Int_Tables_number   1
_chemical_formula_structural   ThPd
_chemical_formula_sum   'Th4 Pd4'
_cell_volume   197.32341139
_cell_formula_units_Z   4
loop_
 _symmetry_equiv_pos_site_id
 _symmetry_equiv_pos_as_xyz
  1  'x, y, z'
loop_
 _atom_site_type_symbol
 _atom_site_label
 _atom_site_symmetry_multiplicity
 _atom_site_fract_x
 _atom_site_fract_y
 _atom_site_fract_z
 _atom_site_occupancy
  Pd  Pd0  1  0.25000000  0.64976136  0.04660448  1
  Pd  Pd1  1  0.75000000  0.35023864  0.95339552  1
  Pd  Pd2  1  0.75000000  0.14976136  0.45339552  1
  Pd  Pd3  1  0.25000000  0.85023864  0.54660448  1
  Th  Th4  1  0.25000000  0.14141053  0.17875862  1
  Th  Th5  1  0.75000000  0.85858947  0.82124138  1
  Th  Th6  1  0.75000000  0.64141053  0.32124138  1
  Th  Th7  1  0.25000000  0.35858947  0.67875862  1
