# generated using pymatgen
data_UPt2
_symmetry_space_group_name_H-M   'P 1'
_cell_length_a   4.14967581
_cell_length_b   5.34529260
_cell_length_c   5.66647247
_cell_angle_alpha   90.00000000
_cell_angle_beta   90.00000000
_cell_angle_gamma   112.84016382
_symmetry_Int_Tables_number   1
_chemical_formula_structural   UPt2
_chemical_formula_sum   'U2 Pt4'
_cell_volume   115.83419706
_cell_formula_units_Z   2
loop_
 _symmetry_equiv_pos_site_id
 _symmetry_equiv_pos_as_xyz
  1  'x, y, z'
loop_
 _atom_site_type_symbol
 _atom_site_label
 _atom_site_symmetry_multiplicity
 _atom_site_fract_x
 _atom_site_fract_y
 _atom_site_fract_z
 _atom_site_occupancy
  Pt  Pt0  1  0.00000000  0.00000000  0.00000000  1
  Pt  Pt1  1  0.00000000  0.00000000  0.50000000  1
  Pt  Pt2  1  0.63709884  0.27419767  0.75000000  1
  Pt  Pt3  1  0.36290116  0.72580233  0.25000000  1
  U  U4  1  0.32947464  0.65894929  0.75000000  1
  U  U5  1  0.67052536  0.34105071  0.25000000  1
