# generated using pymatgen
data_CeSi2Pt
_symmetry_space_group_name_H-M   'P 1'
_cell_length_a   4.24702052
_cell_length_b   4.26930231
_cell_length_c   8.59967223
_cell_angle_alpha   104.37248462
_cell_angle_beta   90.00000000
_cell_angle_gamma   90.00000000
_symmetry_Int_Tables_number   1
_chemical_formula_structural   CeSi2Pt
_chemical_formula_sum   'Ce2 Si4 Pt2'
_cell_volume   151.04751242
_cell_formula_units_Z   2
loop_
 _symmetry_equiv_pos_site_id
 _symmetry_equiv_pos_as_xyz
  1  'x, y, z'
loop_
 _atom_site_type_symbol
 _atom_site_label
 _atom_site_symmetry_multiplicity
 _atom_site_fract_x
 _atom_site_fract_y
 _atom_site_fract_z
 _atom_site_occupancy
  Si  Si0  1  0.25000000  0.96552665  0.93105330  1
  Si  Si1  1  0.75000000  0.03447335  0.06894670  1
  Si  Si2  1  0.75000000  0.74925788  0.49851577  1
  Si  Si3  1  0.25000000  0.25074212  0.50148423  1
  Ce  Ce4  1  0.25000000  0.60358278  0.20716557  1
  Ce  Ce5  1  0.75000000  0.39641722  0.79283443  1
  Pt  Pt6  1  0.75000000  0.17898040  0.35796080  1
  Pt  Pt7  1  0.25000000  0.82101960  0.64203920  1
