# generated using pymatgen
data_TbMnGe
_symmetry_space_group_name_H-M   'P 1'
_cell_length_a   4.12519756
_cell_length_b   7.10728712
_cell_length_c   7.96190414
_cell_angle_alpha   90.00000000
_cell_angle_beta   90.00000000
_cell_angle_gamma   90.00000000
_symmetry_Int_Tables_number   1
_chemical_formula_structural   TbMnGe
_chemical_formula_sum   'Tb4 Mn4 Ge4'
_cell_volume   233.43477676
_cell_formula_units_Z   4
loop_
 _symmetry_equiv_pos_site_id
 _symmetry_equiv_pos_as_xyz
  1  'x, y, z'
loop_
 _atom_site_type_symbol
 _atom_site_label
 _atom_site_symmetry_multiplicity
 _atom_site_fract_x
 _atom_site_fract_y
 _atom_site_fract_z
 _atom_site_occupancy
  Mn  Mn0  1  0.75000000  0.36719423  0.55507030  1
  Mn  Mn1  1  0.25000000  0.13280577  0.05507030  1
  Mn  Mn2  1  0.75000000  0.86719423  0.94492970  1
  Mn  Mn3  1  0.25000000  0.63280577  0.44492970  1
  Ge  Ge4  1  0.25000000  0.27657257  0.38188184  1
  Ge  Ge5  1  0.75000000  0.22342743  0.88188184  1
  Ge  Ge6  1  0.25000000  0.77657257  0.11811816  1
  Ge  Ge7  1  0.75000000  0.72342743  0.61811816  1
  Tb  Tb8  1  0.25000000  0.52311238  0.81859731  1
  Tb  Tb9  1  0.75000000  0.47688762  0.18140269  1
  Tb  Tb10  1  0.25000000  0.02311238  0.68140269  1
  Tb  Tb11  1  0.75000000  0.97688762  0.31859731  1
