# generated using pymatgen
data_Sc57Rh13
_symmetry_space_group_name_H-M   'P 1'
_cell_length_a   14.44288825
_cell_length_b   14.44288825
_cell_length_c   14.44288825
_cell_angle_alpha   90.00000000
_cell_angle_beta   90.00000000
_cell_angle_gamma   90.00000000
_symmetry_Int_Tables_number   1
_chemical_formula_structural   Sc57Rh13
_chemical_formula_sum   'Sc114 Rh26'
_cell_volume   3012.74346361
_cell_formula_units_Z   2
loop_
 _symmetry_equiv_pos_site_id
 _symmetry_equiv_pos_as_xyz
  1  'x, y, z'
loop_
 _atom_site_type_symbol
 _atom_site_label
 _atom_site_symmetry_multiplicity
 _atom_site_fract_x
 _atom_site_fract_y
 _atom_site_fract_z
 _atom_site_occupancy
  Sc  Sc0  1  0.37538497  0.00000000  0.00000000  1
  Sc  Sc1  1  0.00000000  0.37538497  0.00000000  1
  Sc  Sc2  1  0.00000000  0.00000000  0.37538497  1
  Sc  Sc3  1  0.00000000  0.62461503  0.00000000  1
  Sc  Sc4  1  0.00000000  0.00000000  0.62461503  1
  Sc  Sc5  1  0.62461503  0.00000000  0.00000000  1
  Sc  Sc6  1  0.22964061  0.50000000  0.00000000  1
  Sc  Sc7  1  0.00000000  0.22964061  0.50000000  1
  Sc  Sc8  1  0.50000000  0.00000000  0.22964061  1
  Sc  Sc9  1  0.00000000  0.77035939  0.50000000  1
  Sc  Sc10  1  0.50000000  0.00000000  0.77035939  1
  Sc  Sc11  1  0.77035939  0.50000000  0.00000000  1
  Sc  Sc12  1  0.86194064  0.50000000  0.50000000  1
  Sc  Sc13  1  0.50000000  0.86194064  0.50000000  1
  Sc  Sc14  1  0.50000000  0.50000000  0.86194064  1
  Sc  Sc15  1  0.50000000  0.13805936  0.50000000  1
  Sc  Sc16  1  0.50000000  0.50000000  0.13805936  1
  Sc  Sc17  1  0.13805936  0.50000000  0.50000000  1
  Sc  Sc18  1  0.00000000  0.39327232  0.36795186  1
  Sc  Sc19  1  0.36795186  0.00000000  0.39327232  1
  Sc  Sc20  1  0.39327232  0.36795186  0.00000000  1
  Sc  Sc21  1  0.60672768  0.63204814  0.00000000  1
  Sc  Sc22  1  0.36795186  0.00000000  0.60672768  1
  Sc  Sc23  1  0.60672768  0.36795186  0.00000000  1
  Sc  Sc24  1  0.63204814  0.00000000  0.39327232  1
  Sc  Sc25  1  0.63204814  0.00000000  0.60672768  1
  Sc  Sc26  1  0.39327232  0.63204814  0.00000000  1
  Sc  Sc27  1  0.00000000  0.60672768  0.63204814  1
  Sc  Sc28  1  0.00000000  0.39327232  0.63204814  1
  Sc  Sc29  1  0.00000000  0.60672768  0.36795186  1
  Sc  Sc30  1  0.00000000  0.17849073  0.10717835  1
  Sc  Sc31  1  0.10717835  0.00000000  0.17849073  1
  Sc  Sc32  1  0.17849073  0.10717835  0.00000000  1
  Sc  Sc33  1  0.82150927  0.89282165  0.00000000  1
  Sc  Sc34  1  0.10717835  0.00000000  0.82150927  1
  Sc  Sc35  1  0.82150927  0.10717835  0.00000000  1
  Sc  Sc36  1  0.89282165  0.00000000  0.17849073  1
  Sc  Sc37  1  0.89282165  0.00000000  0.82150927  1
  Sc  Sc38  1  0.17849073  0.89282165  0.00000000  1
  Sc  Sc39  1  0.00000000  0.82150927  0.89282165  1
  Sc  Sc40  1  0.00000000  0.17849073  0.89282165  1
  Sc  Sc41  1  0.00000000  0.82150927  0.10717835  1
  Sc  Sc42  1  0.50000000  0.82565635  0.89687353  1
  Sc  Sc43  1  0.89687353  0.50000000  0.82565635  1
  Sc  Sc44  1  0.82565635  0.89687353  0.50000000  1
  Sc  Sc45  1  0.17434365  0.10312647  0.50000000  1
  Sc  Sc46  1  0.89687353  0.50000000  0.17434365  1
  Sc  Sc47  1  0.17434365  0.89687353  0.50000000  1
  Sc  Sc48  1  0.10312647  0.50000000  0.82565635  1
  Sc  Sc49  1  0.10312647  0.50000000  0.17434365  1
  Sc  Sc50  1  0.82565635  0.10312647  0.50000000  1
  Sc  Sc51  1  0.50000000  0.17434365  0.10312647  1
  Sc  Sc52  1  0.50000000  0.82565635  0.10312647  1
  Sc  Sc53  1  0.50000000  0.17434365  0.89687353  1
  Sc  Sc54  1  0.50000000  0.67485300  0.60879862  1
  Sc  Sc55  1  0.60879862  0.50000000  0.67485300  1
  Sc  Sc56  1  0.67485300  0.60879862  0.50000000  1
  Sc  Sc57  1  0.32514700  0.39120138  0.50000000  1
  Sc  Sc58  1  0.60879862  0.50000000  0.32514700  1
  Sc  Sc59  1  0.32514700  0.60879862  0.50000000  1
  Sc  Sc60  1  0.39120138  0.50000000  0.67485300  1
  Sc  Sc61  1  0.39120138  0.50000000  0.32514700  1
  Sc  Sc62  1  0.67485300  0.39120138  0.50000000  1
  Sc  Sc63  1  0.50000000  0.32514700  0.39120138  1
  Sc  Sc64  1  0.50000000  0.67485300  0.39120138  1
  Sc  Sc65  1  0.50000000  0.32514700  0.60879862  1
  Sc  Sc66  1  0.11098363  0.18952537  0.29677957  1
  Sc  Sc67  1  0.29677957  0.11098363  0.18952537  1
  Sc  Sc68  1  0.18952537  0.29677957  0.11098363  1
  Sc  Sc69  1  0.81047463  0.70322043  0.11098363  1
  Sc  Sc70  1  0.29677957  0.88901637  0.81047463  1
  Sc  Sc71  1  0.81047463  0.29677957  0.88901637  1
  Sc  Sc72  1  0.70322043  0.88901637  0.18952537  1
  Sc  Sc73  1  0.70322043  0.11098363  0.81047463  1
  Sc  Sc74  1  0.18952537  0.70322043  0.88901637  1
  Sc  Sc75  1  0.11098363  0.81047463  0.70322043  1
  Sc  Sc76  1  0.88901637  0.18952537  0.70322043  1
  Sc  Sc77  1  0.88901637  0.81047463  0.29677957  1
  Sc  Sc78  1  0.88901637  0.81047463  0.70322043  1
  Sc  Sc79  1  0.70322043  0.88901637  0.81047463  1
  Sc  Sc80  1  0.81047463  0.70322043  0.88901637  1
  Sc  Sc81  1  0.18952537  0.29677957  0.88901637  1
  Sc  Sc82  1  0.70322043  0.11098363  0.18952537  1
  Sc  Sc83  1  0.18952537  0.70322043  0.11098363  1
  Sc  Sc84  1  0.29677957  0.11098363  0.81047463  1
  Sc  Sc85  1  0.29677957  0.88901637  0.18952537  1
  Sc  Sc86  1  0.81047463  0.29677957  0.11098363  1
  Sc  Sc87  1  0.88901637  0.18952537  0.29677957  1
  Sc  Sc88  1  0.11098363  0.81047463  0.29677957  1
  Sc  Sc89  1  0.11098363  0.18952537  0.70322043  1
  Sc  Sc90  1  0.61466497  0.67893565  0.79191654  1
  Sc  Sc91  1  0.79191654  0.61466497  0.67893565  1
  Sc  Sc92  1  0.67893565  0.79191654  0.61466497  1
  Sc  Sc93  1  0.32106435  0.20808346  0.61466497  1
  Sc  Sc94  1  0.79191654  0.38533503  0.32106435  1
  Sc  Sc95  1  0.32106435  0.79191654  0.38533503  1
  Sc  Sc96  1  0.20808346  0.38533503  0.67893565  1
  Sc  Sc97  1  0.20808346  0.61466497  0.32106435  1
  Sc  Sc98  1  0.67893565  0.20808346  0.38533503  1
  Sc  Sc99  1  0.61466497  0.32106435  0.20808346  1
  Sc  Sc100  1  0.38533503  0.67893565  0.20808346  1
  Sc  Sc101  1  0.38533503  0.32106435  0.79191654  1
  Sc  Sc102  1  0.38533503  0.32106435  0.20808346  1
  Sc  Sc103  1  0.20808346  0.38533503  0.32106435  1
  Sc  Sc104  1  0.32106435  0.20808346  0.38533503  1
  Sc  Sc105  1  0.67893565  0.79191654  0.38533503  1
  Sc  Sc106  1  0.20808346  0.61466497  0.67893565  1
  Sc  Sc107  1  0.67893565  0.20808346  0.61466497  1
  Sc  Sc108  1  0.79191654  0.61466497  0.32106435  1
  Sc  Sc109  1  0.79191654  0.38533503  0.67893565  1
  Sc  Sc110  1  0.32106435  0.79191654  0.61466497  1
  Sc  Sc111  1  0.38533503  0.67893565  0.79191654  1
  Sc  Sc112  1  0.61466497  0.32106435  0.79191654  1
  Sc  Sc113  1  0.61466497  0.67893565  0.20808346  1
  Rh  Rh114  1  0.00000000  0.00000000  0.00000000  1
  Rh  Rh115  1  0.50000000  0.50000000  0.50000000  1
  Rh  Rh116  1  0.00000000  0.33288870  0.20221242  1
  Rh  Rh117  1  0.20221242  0.00000000  0.33288870  1
  Rh  Rh118  1  0.33288870  0.20221242  0.00000000  1
  Rh  Rh119  1  0.66711130  0.79778758  0.00000000  1
  Rh  Rh120  1  0.20221242  0.00000000  0.66711130  1
  Rh  Rh121  1  0.66711130  0.20221242  0.00000000  1
  Rh  Rh122  1  0.79778758  0.00000000  0.33288870  1
  Rh  Rh123  1  0.79778758  0.00000000  0.66711130  1
  Rh  Rh124  1  0.33288870  0.79778758  0.00000000  1
  Rh  Rh125  1  0.00000000  0.66711130  0.79778758  1
  Rh  Rh126  1  0.00000000  0.33288870  0.79778758  1
  Rh  Rh127  1  0.00000000  0.66711130  0.20221242  1
  Rh  Rh128  1  0.50000000  0.83193906  0.70036746  1
  Rh  Rh129  1  0.70036746  0.50000000  0.83193906  1
  Rh  Rh130  1  0.83193906  0.70036746  0.50000000  1
  Rh  Rh131  1  0.16806094  0.29963254  0.50000000  1
  Rh  Rh132  1  0.70036746  0.50000000  0.16806094  1
  Rh  Rh133  1  0.16806094  0.70036746  0.50000000  1
  Rh  Rh134  1  0.29963254  0.50000000  0.83193906  1
  Rh  Rh135  1  0.29963254  0.50000000  0.16806094  1
  Rh  Rh136  1  0.83193906  0.29963254  0.50000000  1
  Rh  Rh137  1  0.50000000  0.16806094  0.29963254  1
  Rh  Rh138  1  0.50000000  0.83193906  0.29963254  1
  Rh  Rh139  1  0.50000000  0.16806094  0.70036746  1
