# generated using pymatgen
data_AgTe4Au
_symmetry_space_group_name_H-M   'P 1'
_cell_length_a   4.57816843
_cell_length_b   9.06789910
_cell_length_c   9.15328028
_cell_angle_alpha   111.34417632
_cell_angle_beta   90.00000000
_cell_angle_gamma   90.00000000
_symmetry_Int_Tables_number   1
_chemical_formula_structural   AgTe4Au
_chemical_formula_sum   'Ag2 Te8 Au2'
_cell_volume   353.92929512
_cell_formula_units_Z   2
loop_
 _symmetry_equiv_pos_site_id
 _symmetry_equiv_pos_as_xyz
  1  'x, y, z'
loop_
 _atom_site_type_symbol
 _atom_site_label
 _atom_site_symmetry_multiplicity
 _atom_site_fract_x
 _atom_site_fract_y
 _atom_site_fract_z
 _atom_site_occupancy
  Ag  Ag0  1  0.51998790  0.25000000  0.75000000  1
  Ag  Ag1  1  0.48001210  0.75000000  0.25000000  1
  Te  Te2  1  0.60046134  0.73854105  0.54521516  1
  Te  Te3  1  0.60046134  0.76145895  0.95478484  1
  Te  Te4  1  0.03111047  0.99810516  0.29492710  1
  Te  Te5  1  0.03111047  0.50189484  0.20507290  1
  Te  Te6  1  0.96888953  0.00189484  0.70507290  1
  Te  Te7  1  0.96888953  0.49810516  0.79492710  1
  Te  Te8  1  0.39953866  0.23854105  0.04521516  1
  Te  Te9  1  0.39953866  0.26145895  0.45478484  1
  Au  Au10  1  0.00000000  0.50000000  0.50000000  1
  Au  Au11  1  0.00000000  0.00000000  0.00000000  1
