# generated using pymatgen
data_Y2Sn5Rh3
_symmetry_space_group_name_H-M   'P 1'
_cell_length_a   4.46252538
_cell_length_b   7.24563408
_cell_length_c   13.49043771
_cell_angle_alpha   90.00000000
_cell_angle_beta   99.52023217
_cell_angle_gamma   90.00000000
_symmetry_Int_Tables_number   1
_chemical_formula_structural   Y2Sn5Rh3
_chemical_formula_sum   'Y4 Sn10 Rh6'
_cell_volume   430.18983003
_cell_formula_units_Z   2
loop_
 _symmetry_equiv_pos_site_id
 _symmetry_equiv_pos_as_xyz
  1  'x, y, z'
loop_
 _atom_site_type_symbol
 _atom_site_label
 _atom_site_symmetry_multiplicity
 _atom_site_fract_x
 _atom_site_fract_y
 _atom_site_fract_z
 _atom_site_occupancy
  Y  Y0  1  0.47645634  0.23761258  0.95291268  1
  Y  Y1  1  0.17184332  0.25702637  0.34368664  1
  Y  Y2  1  0.52354366  0.73761258  0.04708732  1
  Y  Y3  1  0.82815668  0.75702637  0.65631336  1
  Rh  Rh4  1  0.39404223  0.98255977  0.78808447  1
  Rh  Rh5  1  0.77723679  0.26522174  0.55447359  1
  Rh  Rh6  1  0.22276321  0.76522174  0.44552641  1
  Rh  Rh7  1  0.05014885  0.01766840  0.10029770  1
  Rh  Rh8  1  0.60595777  0.48255977  0.21191553  1
  Rh  Rh9  1  0.94985115  0.51766840  0.89970230  1
  Sn  Sn10  1  0.70500293  0.54903035  0.41000585  1
  Sn  Sn11  1  0.59665542  0.10941364  0.19331084  1
  Sn  Sn12  1  0.04757844  0.40213824  0.09515688  1
  Sn  Sn13  1  0.95242156  0.90213824  0.90484312  1
  Sn  Sn14  1  0.70981468  0.97739293  0.41962937  1
  Sn  Sn15  1  0.29018532  0.47739293  0.58037063  1
  Sn  Sn16  1  0.29499707  0.04903035  0.58999415  1
  Sn  Sn17  1  0.87974341  0.23383597  0.75948682  1
  Sn  Sn18  1  0.12025659  0.73383597  0.24051318  1
  Sn  Sn19  1  0.40334458  0.60941364  0.80668916  1
