# generated using pymatgen
data_RbNbO3
_symmetry_space_group_name_H-M   'P 1'
_cell_length_a   5.18070630
_cell_length_b   8.62019899
_cell_length_c   9.16663841
_cell_angle_alpha   115.04157135
_cell_angle_beta   93.48353356
_cell_angle_gamma   94.48014709
_symmetry_Int_Tables_number   1
_chemical_formula_structural   RbNbO3
_chemical_formula_sum   'Rb4 Nb4 O12'
_cell_volume   367.75628962
_cell_formula_units_Z   4
loop_
 _symmetry_equiv_pos_site_id
 _symmetry_equiv_pos_as_xyz
  1  'x, y, z'
loop_
 _atom_site_type_symbol
 _atom_site_label
 _atom_site_symmetry_multiplicity
 _atom_site_fract_x
 _atom_site_fract_y
 _atom_site_fract_z
 _atom_site_occupancy
  O  O0  1  0.14975542  0.43934200  0.23197750  1
  O  O1  1  0.85024458  0.56065800  0.76802250  1
  O  O2  1  0.59686676  0.89147856  0.31314987  1
  O  O3  1  0.40313324  0.10852144  0.68685013  1
  O  O4  1  0.21983615  0.78356636  0.03908037  1
  O  O5  1  0.78016385  0.21643364  0.96091963  1
  O  O6  1  0.71812039  0.21854567  0.27447500  1
  O  O7  1  0.28187961  0.78145433  0.72552500  1
  O  O8  1  0.79407537  0.87451028  0.70487262  1
  O  O9  1  0.20592463  0.12548972  0.29512738  1
  O  O10  1  0.73735380  0.92422148  0.00832900  1
  O  O11  1  0.26264620  0.07577852  0.99167100  1
  Rb  Rb12  1  0.50000000  0.50000000  0.00000000  1
  Rb  Rb13  1  0.50000000  0.50000000  0.50000000  1
  Rb  Rb14  1  0.90964980  0.20249882  0.59659367  1
  Rb  Rb15  1  0.09035020  0.79750118  0.40340633  1
  Nb  Nb16  1  0.99783033  0.78345924  0.85505256  1
  Nb  Nb17  1  0.00216967  0.21654076  0.14494744  1
  Nb  Nb18  1  0.47443964  0.98851831  0.18524071  1
  Nb  Nb19  1  0.52556036  0.01148169  0.81475929  1
