# generated using pymatgen
data_Hf23Se25
_symmetry_space_group_name_H-M   'P 1'
_cell_length_a   17.70158411
_cell_length_b   16.22231752
_cell_length_c   7.94003502
_cell_angle_alpha   28.89676379
_cell_angle_beta   116.44213426
_cell_angle_gamma   109.08153312
_symmetry_Int_Tables_number   1
_chemical_formula_structural   Hf23Se25
_chemical_formula_sum   'Hf23 Se25'
_cell_volume   976.04468359
_cell_formula_units_Z   1
loop_
 _symmetry_equiv_pos_site_id
 _symmetry_equiv_pos_as_xyz
  1  'x, y, z'
loop_
 _atom_site_type_symbol
 _atom_site_label
 _atom_site_symmetry_multiplicity
 _atom_site_fract_x
 _atom_site_fract_y
 _atom_site_fract_z
 _atom_site_occupancy
  Hf  Hf0  1  0.08022468  0.93154787  0.50045561  1
  Hf  Hf1  1  0.11883686  0.73420353  0.50022172  1
  Hf  Hf2  1  0.27858040  0.94145690  0.48991103  1
  Hf  Hf3  1  0.16344554  0.53440256  0.50036169  1
  Hf  Hf4  1  0.03538122  0.12920418  0.49605200  1
  Hf  Hf5  1  0.31955231  0.72989621  0.50027735  1
  Hf  Hf6  1  0.20518371  0.33689471  0.50392020  1
  Hf  Hf7  1  0.35986257  0.53342326  0.50024512  1
  Hf  Hf8  1  0.24157096  0.13209838  0.49975696  1
  Hf  Hf9  1  0.51565712  0.72909581  0.49616695  1
  Hf  Hf10  1  0.40111648  0.33365553  0.49934395  1
  Hf  Hf11  1  0.68296127  0.93797172  0.49945056  1
  Hf  Hf12  1  0.56040752  0.53149154  0.50134371  1
  Hf  Hf13  1  0.43706310  0.12978512  0.50886857  1
  Hf  Hf14  1  0.59800586  0.33470898  0.49876202  1
  Hf  Hf15  1  0.72114879  0.73461808  0.49873437  1
  Hf  Hf16  1  0.76157458  0.53503604  0.49786783  1
  Hf  Hf17  1  0.64370664  0.13339336  0.50141442  1
  Hf  Hf18  1  0.88031339  0.93386732  0.50082973  1
  Hf  Hf19  1  0.92227391  0.73305735  0.50236081  1
  Hf  Hf20  1  0.79864897  0.33715979  0.49517760  1
  Hf  Hf21  1  0.83864793  0.12982242  0.50093081  1
  Hf  Hf22  1  0.95570937  0.52894390  0.50853065  1
  Se  Se23  1  0.04005688  0.79263395  0.01287224  1
  Se  Se24  1  0.07931143  0.59712162  0.00558205  1
  Se  Se25  1  0.23977655  0.80119168  0.99673253  1
  Se  Se26  1  0.11905356  0.39808399  0.00401002  1
  Se  Se27  1  0.00031020  0.00357410  0.99497667  1
  Se  Se28  1  0.28078388  0.60617042  0.98772591  1
  Se  Se29  1  0.15651708  0.20196742  0.99325853  1
  Se  Se30  1  0.44075528  0.79868644  0.99580087  1
  Se  Se31  1  0.32066143  0.39893682  0.00312531  1
  Se  Se32  1  0.19937139  0.00312378  0.99492053  1
  Se  Se33  1  0.36323953  0.19766654  0.00460660  1
  Se  Se34  1  0.47993591  0.60402106  0.99436413  1
  Se  Se35  1  0.63843070  0.79910037  0.00079018  1
  Se  Se36  1  0.40053289  0.00058195  0.00586372  1
  Se  Se37  1  0.52052663  0.39304711  0.01183577  1
  Se  Se38  1  0.55833393  0.19703432  0.00533353  1
  Se  Se39  1  0.67730359  0.60554673  0.98792072  1
  Se  Se40  1  0.84072231  0.79891815  0.00371962  1
  Se  Se41  1  0.72174572  0.40061502  0.00144566  1
  Se  Se42  1  0.59926070  0.99904929  0.00205536  1
  Se  Se43  1  0.75907627  0.20266648  0.99284726  1
  Se  Se44  1  0.88107122  0.59948637  0.99954984  1
  Se  Se45  1  0.92080248  0.40029737  0.00736941  1
  Se  Se46  1  0.80187100  0.00290588  0.99654361  1
  Se  Se47  1  0.96067627  0.19849757  0.99576628  1
