# generated using pymatgen
data_Zr7Sb4
_symmetry_space_group_name_H-M   'P 1'
_cell_length_a   8.55706232
_cell_length_b   11.19419210
_cell_length_c   11.25079314
_cell_angle_alpha   90.00000000
_cell_angle_beta   90.00000000
_cell_angle_gamma   111.74560299
_symmetry_Int_Tables_number   1
_chemical_formula_structural   Zr7Sb4
_chemical_formula_sum   'Zr28 Sb16'
_cell_volume   1001.01493901
_cell_formula_units_Z   4
loop_
 _symmetry_equiv_pos_site_id
 _symmetry_equiv_pos_as_xyz
  1  'x, y, z'
loop_
 _atom_site_type_symbol
 _atom_site_label
 _atom_site_symmetry_multiplicity
 _atom_site_fract_x
 _atom_site_fract_y
 _atom_site_fract_z
 _atom_site_occupancy
  Sb  Sb0  1  0.28555946  0.75198874  0.68324649  1
  Sb  Sb1  1  0.28555946  0.25198874  0.81675351  1
  Sb  Sb2  1  0.01208301  0.66165930  0.34604275  1
  Sb  Sb3  1  0.77335766  0.93841609  0.49235003  1
  Sb  Sb4  1  0.68038661  0.57899384  0.67648618  1
  Sb  Sb5  1  0.01208301  0.16165930  0.15395725  1
  Sb  Sb6  1  0.77335766  0.43841609  0.00764997  1
  Sb  Sb7  1  0.31961339  0.92100616  0.17648618  1
  Sb  Sb8  1  0.68038661  0.07899384  0.82351382  1
  Sb  Sb9  1  0.22664234  0.56158391  0.99235003  1
  Sb  Sb10  1  0.31961339  0.42100616  0.32351382  1
  Sb  Sb11  1  0.22664234  0.06158391  0.50764997  1
  Sb  Sb12  1  0.71444054  0.74801126  0.18324649  1
  Sb  Sb13  1  0.71444054  0.24801126  0.31675351  1
  Sb  Sb14  1  0.98791699  0.83834070  0.84604275  1
  Sb  Sb15  1  0.98791699  0.33834070  0.65395725  1
  Zr  Zr16  1  0.39849343  0.84092325  0.94019541  1
  Zr  Zr17  1  0.39849343  0.34092325  0.55980459  1
  Zr  Zr18  1  0.66040095  0.98200317  0.26147847  1
  Zr  Zr19  1  0.01372720  0.93035062  0.29439992  1
  Zr  Zr20  1  0.64602604  0.82788828  0.72320118  1
  Zr  Zr21  1  0.01118395  0.71054027  0.07829498  1
  Zr  Zr22  1  0.63396398  0.63474543  0.94133069  1
  Zr  Zr23  1  0.20285394  0.05526260  1.00007284  1
  Zr  Zr24  1  0.66040095  0.48200317  0.23852153  1
  Zr  Zr25  1  0.01372720  0.43035062  0.20560008  1
  Zr  Zr26  1  0.64602604  0.32788828  0.77679882  1
  Zr  Zr27  1  0.01118395  0.21054027  0.42170502  1
  Zr  Zr28  1  0.63396398  0.13474543  0.55866931  1
  Zr  Zr29  1  0.20285394  0.55526260  0.49992716  1
  Zr  Zr30  1  0.79714606  0.44473740  0.50007284  1
  Zr  Zr31  1  0.36603602  0.86525457  0.44133069  1
  Zr  Zr32  1  0.98881605  0.78945973  0.57829498  1
  Zr  Zr33  1  0.35397396  0.67211172  0.22320118  1
  Zr  Zr34  1  0.98627280  0.56964938  0.79439992  1
  Zr  Zr35  1  0.33959905  0.51799683  0.76147847  1
  Zr  Zr36  1  0.79714606  0.94473740  -0.00007284  1
  Zr  Zr37  1  0.36603602  0.36525457  0.05866931  1
  Zr  Zr38  1  0.98881605  0.28945973  0.92170502  1
  Zr  Zr39  1  0.35397396  0.17211172  0.27679882  1
  Zr  Zr40  1  0.98627280  0.06964938  0.70560008  1
  Zr  Zr41  1  0.33959905  0.01799683  0.73852153  1
  Zr  Zr42  1  0.60150657  0.65907675  0.44019541  1
  Zr  Zr43  1  0.60150657  0.15907675  0.05980459  1
