# generated using pymatgen
data_Li10Zn4O9
_symmetry_space_group_name_H-M   'P 1'
_cell_length_a   4.70913532
_cell_length_b   9.83332999
_cell_length_c   9.83332999
_cell_angle_alpha   90.00000000
_cell_angle_beta   90.00000000
_cell_angle_gamma   90.00000000
_symmetry_Int_Tables_number   1
_chemical_formula_structural   Li10Zn4O9
_chemical_formula_sum   'Li20 Zn8 O18'
_cell_volume   455.34691395
_cell_formula_units_Z   2
loop_
 _symmetry_equiv_pos_site_id
 _symmetry_equiv_pos_as_xyz
  1  'x, y, z'
loop_
 _atom_site_type_symbol
 _atom_site_label
 _atom_site_symmetry_multiplicity
 _atom_site_fract_x
 _atom_site_fract_y
 _atom_site_fract_z
 _atom_site_occupancy
  Li  Li0  1  0.53963908  0.93757079  0.89383157  1
  Li  Li1  1  0.53963908  0.56242921  0.60616843  1
  Li  Li2  1  0.03963908  0.89383157  0.56242921  1
  Li  Li3  1  0.03963908  0.60616843  0.93757079  1
  Li  Li4  1  0.96036092  0.39383157  0.43757079  1
  Li  Li5  1  0.46036092  0.06242921  0.39383157  1
  Li  Li6  1  0.46036092  0.43757079  0.10616843  1
  Li  Li7  1  0.96036092  0.10616843  0.06242921  1
  Li  Li8  1  0.96036092  0.10616843  0.43757079  1
  Li  Li9  1  0.96036092  0.39383157  0.06242921  1
  Li  Li10  1  0.03963908  0.60616843  0.56242921  1
  Li  Li11  1  0.53963908  0.93757079  0.60616843  1
  Li  Li12  1  0.53963908  0.56242921  0.89383157  1
  Li  Li13  1  0.03963908  0.89383157  0.93757079  1
  Li  Li14  1  0.41905307  0.25000000  0.25000000  1
  Li  Li15  1  0.91905307  0.25000000  0.25000000  1
  Li  Li16  1  0.58094693  0.75000000  0.75000000  1
  Li  Li17  1  0.08094693  0.75000000  0.75000000  1
  Li  Li18  1  0.46036092  0.43757079  0.39383157  1
  Li  Li19  1  0.46036092  0.06242921  0.10616843  1
  O  O20  1  0.75000000  0.92342050  0.42342050  1
  O  O21  1  0.25000000  0.42342050  0.57657950  1
  O  O22  1  0.75000000  0.92342050  0.07657950  1
  O  O23  1  0.25000000  0.42342050  0.92342050  1
  O  O24  1  0.25000000  0.07657950  0.57657950  1
  O  O25  1  0.75000000  0.57657950  0.42342050  1
  O  O26  1  0.75000000  0.25000000  0.75000000  1
  O  O27  1  0.25000000  0.75000000  0.25000000  1
  O  O28  1  0.32051839  0.75000000  0.90740877  1
  O  O29  1  0.32051839  0.75000000  0.59259123  1
  O  O30  1  0.82051839  0.90740877  0.75000000  1
  O  O31  1  0.82051839  0.59259123  0.75000000  1
  O  O32  1  0.17948161  0.40740877  0.25000000  1
  O  O33  1  0.67948161  0.25000000  0.40740877  1
  O  O34  1  0.67948161  0.25000000  0.09259123  1
  O  O35  1  0.17948161  0.09259123  0.25000000  1
  O  O36  1  0.25000000  0.07657950  0.92342050  1
  O  O37  1  0.75000000  0.57657950  0.07657950  1
  Zn  Zn38  1  0.48145548  0.25000000  0.91194085  1
  Zn  Zn39  1  0.48145548  0.25000000  0.58805915  1
  Zn  Zn40  1  0.98145548  0.91194085  0.25000000  1
  Zn  Zn41  1  0.98145548  0.58805915  0.25000000  1
  Zn  Zn42  1  0.01854452  0.41194085  0.75000000  1
  Zn  Zn43  1  0.51854452  0.75000000  0.41194085  1
  Zn  Zn44  1  0.51854452  0.75000000  0.08805915  1
  Zn  Zn45  1  0.01854452  0.08805915  0.75000000  1
