# generated using pymatgen
data_SrUO4
_symmetry_space_group_name_H-M   'P 1'
_cell_length_a   5.59088703
_cell_length_b   8.03664236
_cell_length_c   8.18862337
_cell_angle_alpha   90.00000000
_cell_angle_beta   90.00000000
_cell_angle_gamma   90.00000000
_symmetry_Int_Tables_number   1
_chemical_formula_structural   SrUO4
_chemical_formula_sum   'Sr4 U4 O16'
_cell_volume   367.93089391
_cell_formula_units_Z   4
loop_
 _symmetry_equiv_pos_site_id
 _symmetry_equiv_pos_as_xyz
  1  'x, y, z'
loop_
 _atom_site_type_symbol
 _atom_site_label
 _atom_site_symmetry_multiplicity
 _atom_site_fract_x
 _atom_site_fract_y
 _atom_site_fract_z
 _atom_site_occupancy
  O  O0  1  0.13358778  0.96619591  0.75000000  1
  O  O1  1  0.13358778  0.53380409  0.25000000  1
  O  O2  1  0.86641222  0.46619591  0.75000000  1
  O  O3  1  0.86641222  0.03380409  0.25000000  1
  O  O4  1  0.16738233  0.25000000  0.50000000  1
  O  O5  1  0.83261767  0.75000000  0.00000000  1
  O  O6  1  0.83261767  0.75000000  0.50000000  1
  O  O7  1  0.16738233  0.25000000  0.00000000  1
  O  O8  1  0.30172982  0.91949822  0.07958816  1
  O  O9  1  0.30172982  0.58050178  0.92041184  1
  O  O10  1  0.69827018  0.41949822  0.42041184  1
  O  O11  1  0.69827018  0.08050178  0.57958816  1
  O  O12  1  0.69827018  0.08050178  0.92041184  1
  O  O13  1  0.69827018  0.41949822  0.07958816  1
  O  O14  1  0.30172982  0.58050178  0.57958816  1
  O  O15  1  0.30172982  0.91949822  0.42041184  1
  Sr  Sr16  1  0.48069465  0.19734373  0.25000000  1
  Sr  Sr17  1  0.48069465  0.30265627  0.75000000  1
  Sr  Sr18  1  0.51930535  0.69734373  0.25000000  1
  Sr  Sr19  1  0.51930535  0.80265627  0.75000000  1
  U  U20  1  0.00000000  0.00000000  0.00000000  1
  U  U21  1  0.00000000  0.50000000  0.00000000  1
  U  U22  1  0.00000000  0.50000000  0.50000000  1
  U  U23  1  0.00000000  0.00000000  0.50000000  1
