# generated using pymatgen
data_Cs(SbSe2)2
_symmetry_space_group_name_H-M   'P 1'
_cell_length_a   6.98987974
_cell_length_b   7.11194719
_cell_length_c   10.11657242
_cell_angle_alpha   80.08473014
_cell_angle_beta   87.62764004
_cell_angle_gamma   75.38619511
_symmetry_Int_Tables_number   1
_chemical_formula_structural   Cs(SbSe2)2
_chemical_formula_sum   'Cs2 Sb4 Se8'
_cell_volume   479.37172891
_cell_formula_units_Z   2
loop_
 _symmetry_equiv_pos_site_id
 _symmetry_equiv_pos_as_xyz
  1  'x, y, z'
loop_
 _atom_site_type_symbol
 _atom_site_label
 _atom_site_symmetry_multiplicity
 _atom_site_fract_x
 _atom_site_fract_y
 _atom_site_fract_z
 _atom_site_occupancy
  Se  Se0  1  0.71025604  0.34307803  0.40213211  1
  Se  Se1  1  0.28974396  0.65692197  0.59786789  1
  Se  Se2  1  0.58094237  0.97982803  0.71288313  1
  Se  Se3  1  0.41905763  0.02017197  0.28711687  1
  Se  Se4  1  0.08958150  0.91811238  0.91291639  1
  Se  Se5  1  0.91041850  0.08188762  0.08708361  1
  Se  Se6  1  0.19448453  0.56719531  0.23593682  1
  Se  Se7  1  0.80551547  0.43280469  0.76406318  1
  Sb  Sb8  1  0.64708410  0.68836564  0.54310359  1
  Sb  Sb9  1  0.35291590  0.31163436  0.45689641  1
  Sb  Sb10  1  0.90607357  0.10138081  0.66987805  1
  Sb  Sb11  1  0.09392643  0.89861919  0.33012195  1
  Cs  Cs12  1  0.68850682  0.67042003  0.07028426  1
  Cs  Cs13  1  0.31149318  0.32957997  0.92971574  1
