# generated using pymatgen
data_Ca11Al14O32
_symmetry_space_group_name_H-M   'P 1'
_cell_length_a   10.48794699
_cell_length_b   10.48794636
_cell_length_c   10.48665502
_cell_angle_alpha   109.07116202
_cell_angle_beta   109.81350706
_cell_angle_gamma   109.53484219
_symmetry_Int_Tables_number   1
_chemical_formula_structural   Ca11Al14O32
_chemical_formula_sum   'Ca11 Al14 O32'
_cell_volume   887.87276474
_cell_formula_units_Z   1
loop_
 _symmetry_equiv_pos_site_id
 _symmetry_equiv_pos_as_xyz
  1  'x, y, z'
loop_
 _atom_site_type_symbol
 _atom_site_label
 _atom_site_symmetry_multiplicity
 _atom_site_fract_x
 _atom_site_fract_y
 _atom_site_fract_z
 _atom_site_occupancy
  Al  Al0  1  0.12439494  0.87439494  0.25000000  1
  Al  Al1  1  0.49963388  0.99917050  0.96567223  1
  Al  Al2  1  0.24906428  0.12556338  0.87273562  1
  Al  Al3  1  0.37137563  0.62137563  0.75000000  1
  Al  Al4  1  0.49958456  0.99974871  0.46608872  1
  Al  Al5  1  0.03365999  0.03349584  0.03391128  1
  Al  Al6  1  0.53349827  0.53396166  0.53432777  1
  Al  Al7  1  0.62615775  0.75124079  0.37656740  1
  Al  Al8  1  0.46413041  0.50069792  0.99816294  1
  Al  Al9  1  0.75282776  0.37632866  0.62726438  1
  Al  Al10  1  0.99706801  0.95950462  0.49046028  1
  Al  Al11  1  0.00253498  0.46596746  0.50183706  1
  Al  Al12  1  0.87467339  0.24959035  0.12343260  1
  Al  Al13  1  0.96904434  0.50660773  0.00953972  1
  Ca  Ca14  1  0.24824226  0.85919785  0.61421832  1
  Ca  Ca15  1  0.13321062  0.25163120  0.38709948  1
  Ca  Ca16  1  0.36453172  0.74611114  0.11290052  1
  Ca  Ca17  1  0.24975745  0.38831297  0.12879356  1
  Ca  Ca18  1  0.63263099  0.88263099  0.75000000  1
  Ca  Ca19  1  0.74497954  0.63402394  0.88578168  1
  Ca  Ca20  1  0.61346398  0.25056990  0.86341311  1
  Ca  Ca21  1  0.38578113  0.13578113  0.25000000  1
  Ca  Ca22  1  0.88715679  0.75005087  0.63658689  1
  Ca  Ca23  1  0.86048962  0.61048962  0.25000000  1
  Ca  Ca24  1  0.75951941  0.12096389  0.37120644  1
  O  O25  1  0.09324301  0.98270495  0.68113867  1
  O  O26  1  0.09351635  0.87763395  0.40559992  1
  O  O27  1  0.19203941  0.48950945  0.57851814  1
  O  O28  1  0.40866903  0.81410574  0.79600434  1
  O  O29  1  0.30598649  0.31751127  0.92377664  1
  O  O30  1  0.41099130  0.61352127  0.92148186  1
  O  O31  1  0.31466558  0.90993775  0.29391682  1
  O  O32  1  0.01813507  0.20417105  0.10865221  1
  O  O33  1  0.15303956  0.53323290  0.05679797  1
  O  O34  1  0.11602093  0.02074876  0.20608318  1
  O  O35  1  0.51810141  0.61266469  0.70399566  1
  O  O36  1  0.40332734  0.08726843  0.88108412  1
  O  O37  1  0.37141731  0.36719935  0.36534278  1
  O  O38  1  0.59551884  0.90948287  0.39134779  1
  O  O39  1  0.20084931  0.10185386  0.01257144  1
  O  O40  1  0.61402057  0.70678188  0.52175315  1
  O  O41  1  0.48521637  0.59708054  0.18793587  1
  O  O42  1  0.49820968  0.99623030  0.63107094  1
  O  O43  1  0.86515936  0.86713874  0.86892906  1
  O  O44  1  0.68502873  0.09226742  0.97824685  1
  O  O45  1  0.70618430  0.52224321  0.61891588  1
  O  O46  1  0.58928241  0.18827786  0.48742856  1
  O  O47  1  0.80156629  0.41210434  0.81886133  1
  O  O48  1  0.81419497  0.78766141  0.41032941  1
  O  O49  1  0.50185657  0.00607453  0.13465722  1
  O  O50  1  0.63060401  0.49623276  0.99776894  1
  O  O51  1  0.89373463  0.38220984  0.57622336  1
  O  O52  1  0.99846382  0.63283508  0.50223106  1
  O  O53  1  0.90914468  0.29728051  0.31206413  1
  O  O54  1  0.97203403  0.68791643  0.09440008  1
  O  O55  1  0.87733200  0.40386557  0.08967059  1
  O  O56  1  0.97643493  0.09624159  0.44320203  1
