# generated using pymatgen
data_Tm2Sn2O7
_symmetry_space_group_name_H-M   'P 1'
_cell_length_a   7.36538682
_cell_length_b   7.36538682
_cell_length_c   7.36538682
_cell_angle_alpha   60.00000001
_cell_angle_beta   60.00000002
_cell_angle_gamma   60.00000003
_symmetry_Int_Tables_number   1
_chemical_formula_structural   Tm2Sn2O7
_chemical_formula_sum   'Tm4 Sn4 O14'
_cell_volume   282.53462826
_cell_formula_units_Z   2
loop_
 _symmetry_equiv_pos_site_id
 _symmetry_equiv_pos_as_xyz
  1  'x, y, z'
loop_
 _atom_site_type_symbol
 _atom_site_label
 _atom_site_symmetry_multiplicity
 _atom_site_fract_x
 _atom_site_fract_y
 _atom_site_fract_z
 _atom_site_occupancy
  O  O0  1  0.62500000  0.62500000  0.62500000  1
  O  O1  1  0.37500000  0.37500000  0.37500000  1
  O  O2  1  0.34143079  0.90856921  0.90856921  1
  O  O3  1  0.09143079  0.65856921  0.65856921  1
  O  O4  1  0.90856921  0.34143079  0.90856921  1
  O  O5  1  0.90856921  0.90856921  0.34143079  1
  O  O6  1  0.34143079  0.34143079  0.90856921  1
  O  O7  1  0.34143079  0.90856921  0.34143079  1
  O  O8  1  0.90856921  0.34143079  0.34143079  1
  O  O9  1  0.65856921  0.65856921  0.09143079  1
  O  O10  1  0.09143079  0.09143079  0.65856921  1
  O  O11  1  0.65856921  0.09143079  0.09143079  1
  O  O12  1  0.65856921  0.09143079  0.65856921  1
  O  O13  1  0.09143079  0.65856921  0.09143079  1
  Sn  Sn14  1  0.00000000  0.50000000  0.00000000  1
  Sn  Sn15  1  0.50000000  0.00000000  0.00000000  1
  Sn  Sn16  1  0.00000000  0.00000000  0.50000000  1
  Sn  Sn17  1  0.00000000  0.00000000  0.00000000  1
  Tm  Tm18  1  0.50000000  0.00000000  0.50000000  1
  Tm  Tm19  1  0.00000000  0.50000000  0.50000000  1
  Tm  Tm20  1  0.50000000  0.50000000  0.00000000  1
  Tm  Tm21  1  0.50000000  0.50000000  0.50000000  1
