# generated using pymatgen
data_Ce(NiGe)2
_symmetry_space_group_name_H-M   'P 1'
_cell_length_a   4.13588006
_cell_length_b   4.13588006
_cell_length_c   5.68757034
_cell_angle_alpha   111.32079486
_cell_angle_beta   111.32079483
_cell_angle_gamma   90.00000005
_symmetry_Int_Tables_number   1
_chemical_formula_structural   Ce(NiGe)2
_chemical_formula_sum   'Ce1 Ni2 Ge2'
_cell_volume   83.44208645
_cell_formula_units_Z   1
loop_
 _symmetry_equiv_pos_site_id
 _symmetry_equiv_pos_as_xyz
  1  'x, y, z'
loop_
 _atom_site_type_symbol
 _atom_site_label
 _atom_site_symmetry_multiplicity
 _atom_site_fract_x
 _atom_site_fract_y
 _atom_site_fract_z
 _atom_site_occupancy
  Ni  Ni0  1  0.75000000  0.25000000  0.50000000  1
  Ni  Ni1  1  0.25000000  0.75000000  0.50000000  1
  Ge  Ge2  1  0.63007379  0.63007379  0.26014759  1
  Ge  Ge3  1  0.36992621  0.36992621  0.73985241  1
  Ce  Ce4  1  0.00000000  0.00000000  0.00000000  1
