# generated using pymatgen
data_Tl(WO3)6
_symmetry_space_group_name_H-M   'P 1'
_cell_length_a   7.52089820
_cell_length_b   7.52089902
_cell_length_c   7.73007585
_cell_angle_alpha   90.00000000
_cell_angle_beta   90.00000000
_cell_angle_gamma   120.00000136
_symmetry_Int_Tables_number   1
_chemical_formula_structural   Tl(WO3)6
_chemical_formula_sum   'Tl1 W6 O18'
_cell_volume   378.66385267
_cell_formula_units_Z   1
loop_
 _symmetry_equiv_pos_site_id
 _symmetry_equiv_pos_as_xyz
  1  'x, y, z'
loop_
 _atom_site_type_symbol
 _atom_site_label
 _atom_site_symmetry_multiplicity
 _atom_site_fract_x
 _atom_site_fract_y
 _atom_site_fract_z
 _atom_site_occupancy
  Tl  Tl0  1  -0.00000000  0.00000000  0.49981068  1
  W  W1  1  1.00000000  0.50307771  0.75004669  1
  W  W2  1  0.49692229  0.49692229  0.75004669  1
  W  W3  1  0.50273321  0.50273321  0.24897261  1
  W  W4  1  0.49726679  1.00000000  0.24897261  1
  W  W5  1  0.50307771  0.00000000  0.75004669  1
  W  W6  1  0.00000000  0.49726679  0.24897261  1
  O  O7  1  0.21163612  0.78737303  0.25117509  1
  O  O8  1  0.21278372  0.78853821  0.74784123  1
  O  O9  1  0.21146179  0.42424451  0.74784123  1
  O  O10  1  0.21262697  0.42426310  0.25117509  1
  O  O11  1  0.57573690  0.78836388  0.25117509  1
  O  O12  1  0.57575549  0.78721628  0.74784123  1
  O  O13  1  0.49979436  0.49979436  0.49950758  1
  O  O14  1  0.49980879  0.49980879  0.99950160  1
  O  O15  1  0.42426310  0.21262697  0.25117509  1
  O  O16  1  0.42424451  0.21146179  0.74784123  1
  O  O17  1  0.50019121  0.00000000  0.99950160  1
  O  O18  1  0.78721628  0.57575549  0.74784123  1
  O  O19  1  0.78836388  0.57573690  0.25117509  1
  O  O20  1  0.50020564  0.00000000  0.49950758  1
  O  O21  1  0.78737303  0.21163612  0.25117509  1
  O  O22  1  0.78853821  0.21278372  0.74784123  1
  O  O23  1  1.00000000  0.50020564  0.49950758  1
  O  O24  1  1.00000000  0.50019121  0.99950160  1
