# generated using pymatgen
data_NaGaO2
_symmetry_space_group_name_H-M   'P 1'
_cell_length_a   5.38957585
_cell_length_b   5.61379465
_cell_length_c   7.23771294
_cell_angle_alpha   90.00000000
_cell_angle_beta   90.00000000
_cell_angle_gamma   90.00000000
_symmetry_Int_Tables_number   1
_chemical_formula_structural   NaGaO2
_chemical_formula_sum   'Na4 Ga4 O8'
_cell_volume   218.98404058
_cell_formula_units_Z   4
loop_
 _symmetry_equiv_pos_site_id
 _symmetry_equiv_pos_as_xyz
  1  'x, y, z'
loop_
 _atom_site_type_symbol
 _atom_site_label
 _atom_site_symmetry_multiplicity
 _atom_site_fract_x
 _atom_site_fract_y
 _atom_site_fract_z
 _atom_site_occupancy
  O  O0  1  0.15614763  0.45946720  0.58876406  1
  O  O1  1  0.65614763  0.54053280  0.41123594  1
  O  O2  1  0.65614763  0.04053280  0.08876406  1
  O  O3  1  0.15614763  0.95946720  0.91123594  1
  O  O4  1  0.08061579  0.88507670  0.33689320  1
  O  O5  1  0.08061579  0.38507670  0.16310680  1
  O  O6  1  0.58061579  0.61492330  0.83689320  1
  O  O7  1  0.58061579  0.11492330  0.66310680  1
  Na  Na8  1  0.01314502  0.07030055  0.62255724  1
  Na  Na9  1  0.51314502  0.42969945  0.12255724  1
  Na  Na10  1  0.51314502  0.92969945  0.37744276  1
  Na  Na11  1  0.01314502  0.57030055  0.87744276  1
  Ga  Ga12  1  0.99959156  0.06295242  0.12611632  1
  Ga  Ga13  1  0.49959156  0.93704758  0.87388368  1
  Ga  Ga14  1  0.49959156  0.43704758  0.62611632  1
  Ga  Ga15  1  0.99959156  0.56295242  0.37388368  1
