# generated using pymatgen
data_BCl
_symmetry_space_group_name_H-M   'P 1'
_cell_length_a   8.26791660
_cell_length_b   13.56922558
_cell_length_c   14.58882497
_cell_angle_alpha   90.00000000
_cell_angle_beta   90.00000000
_cell_angle_gamma   90.00000000
_symmetry_Int_Tables_number   1
_chemical_formula_structural   BCl
_chemical_formula_sum   'B32 Cl32'
_cell_volume   1636.70897320
_cell_formula_units_Z   32
loop_
 _symmetry_equiv_pos_site_id
 _symmetry_equiv_pos_as_xyz
  1  'x, y, z'
loop_
 _atom_site_type_symbol
 _atom_site_label
 _atom_site_symmetry_multiplicity
 _atom_site_fract_x
 _atom_site_fract_y
 _atom_site_fract_z
 _atom_site_occupancy
  B  B0  1  0.48636538  0.06267298  0.35325334  1
  B  B1  1  0.98636538  0.43732702  0.64674666  1
  B  B2  1  0.51363462  0.56267298  0.14674666  1
  B  B3  1  0.01363462  0.93732702  0.85325334  1
  B  B4  1  0.62398366  0.10187138  0.43171575  1
  B  B5  1  0.12398366  0.39812862  0.56828425  1
  B  B6  1  0.37601634  0.60187138  0.06828425  1
  B  B7  1  0.87601634  0.89812862  0.93171575  1
  B  B8  1  0.86404061  0.11120585  0.93079012  1
  B  B9  1  0.36404061  0.38879415  0.06920988  1
  B  B10  1  0.13595939  0.61120585  0.56920988  1
  B  B11  1  0.63595939  0.88879415  0.43079012  1
  B  B12  1  0.74304626  0.07168744  0.84409011  1
  B  B13  1  0.24304626  0.42831256  0.15590989  1
  B  B14  1  0.25695374  0.57168744  0.65590989  1
  B  B15  1  0.75695374  0.92831256  0.34409011  1
  B  B16  1  0.98737320  0.00525714  0.95508883  1
  B  B17  1  0.48737320  0.49474286  0.04491117  1
  B  B18  1  0.01262680  0.50525714  0.54491117  1
  B  B19  1  0.51262680  0.99474286  0.45508883  1
  B  B20  1  0.69351398  0.05376529  0.32706206  1
  B  B21  1  0.19351398  0.44623471  0.67293794  1
  B  B22  1  0.30648602  0.55376529  0.17293794  1
  B  B23  1  0.80648602  0.94623471  0.82706206  1
  B  B24  1  0.74797380  0.00389709  0.94680263  1
  B  B25  1  0.24797380  0.49610291  0.05319737  1
  B  B26  1  0.25202620  0.50389709  0.55319737  1
  B  B27  1  0.75202620  0.99610291  0.44680263  1
  B  B28  1  0.95376595  0.06254047  0.83132192  1
  B  B29  1  0.45376595  0.43745953  0.16867808  1
  B  B30  1  0.04623405  0.56254047  0.66867808  1
  B  B31  1  0.54623405  0.93745953  0.33132192  1
  Cl  Cl32  1  0.32475867  0.12482102  0.30545942  1
  Cl  Cl33  1  0.82475867  0.37517898  0.69454058  1
  Cl  Cl34  1  0.67524133  0.62482102  0.19454058  1
  Cl  Cl35  1  0.17524133  0.87517898  0.80545942  1
  Cl  Cl36  1  0.64009312  0.21535175  0.48454267  1
  Cl  Cl37  1  0.14009312  0.28464825  0.51545733  1
  Cl  Cl38  1  0.35990688  0.71535175  0.01545733  1
  Cl  Cl39  1  0.85990688  0.78464825  0.98454267  1
  Cl  Cl40  1  0.87108833  0.22489952  0.98376697  1
  Cl  Cl41  1  0.37108833  0.27510048  0.01623303  1
  Cl  Cl42  1  0.12891167  0.72489952  0.51623303  1
  Cl  Cl43  1  0.62891167  0.77510048  0.48376697  1
  Cl  Cl44  1  0.59210815  0.13380104  0.78592736  1
  Cl  Cl45  1  0.09210815  0.36619896  0.21407264  1
  Cl  Cl46  1  0.40789185  0.63380104  0.71407264  1
  Cl  Cl47  1  0.90789185  0.86619896  0.28592736  1
  Cl  Cl48  1  0.12724385  0.02599875  0.04417483  1
  Cl  Cl49  1  0.62724385  0.47400125  0.95582517  1
  Cl  Cl50  1  0.87275615  0.52599875  0.45582517  1
  Cl  Cl51  1  0.37275615  0.97400125  0.54417483  1
  Cl  Cl52  1  0.80490743  0.11401234  0.24070189  1
  Cl  Cl53  1  0.30490743  0.38598766  0.75929811  1
  Cl  Cl54  1  0.19509257  0.61401234  0.25929811  1
  Cl  Cl55  1  0.69509257  0.88598766  0.74070189  1
  Cl  Cl56  1  0.91046974  0.01783341  0.52488563  1
  Cl  Cl57  1  0.41046974  0.48216659  0.47511437  1
  Cl  Cl58  1  0.08953026  0.51783341  0.97511437  1
  Cl  Cl59  1  0.58953026  0.98216659  0.02488563  1
  Cl  Cl60  1  0.08170004  0.12165159  0.75194987  1
  Cl  Cl61  1  0.58170004  0.37834841  0.24805013  1
  Cl  Cl62  1  0.91829996  0.62165159  0.74805013  1
  Cl  Cl63  1  0.41829996  0.87834841  0.25194987  1
