# generated using pymatgen
data_BaAl2O4
_symmetry_space_group_name_H-M   'P 1'
_cell_length_a   10.58473620
_cell_length_b   10.58473620
_cell_length_c   8.87405972
_cell_angle_alpha   90.00000000
_cell_angle_beta   90.00000000
_cell_angle_gamma   120.00000001
_symmetry_Int_Tables_number   1
_chemical_formula_structural   BaAl2O4
_chemical_formula_sum   'Ba8 Al16 O32'
_cell_volume   861.01963646
_cell_formula_units_Z   8
loop_
 _symmetry_equiv_pos_site_id
 _symmetry_equiv_pos_as_xyz
  1  'x, y, z'
loop_
 _atom_site_type_symbol
 _atom_site_label
 _atom_site_symmetry_multiplicity
 _atom_site_fract_x
 _atom_site_fract_y
 _atom_site_fract_z
 _atom_site_occupancy
  O  O0  1  0.66666667  0.33333333  0.24707847  1
  O  O1  1  0.33333333  0.66666667  0.74707847  1
  O  O2  1  0.88957897  0.67858238  0.75773110  1
  O  O3  1  0.21099659  0.88957897  0.25773110  1
  O  O4  1  0.67858238  0.78900341  0.25773110  1
  O  O5  1  0.32141762  0.21099659  0.75773110  1
  O  O6  1  0.78900341  0.11042103  0.75773110  1
  O  O7  1  0.11042103  0.32141762  0.25773110  1
  O  O8  1  0.81970014  0.49934571  0.50215327  1
  O  O9  1  0.32035443  0.81970014  0.00215327  1
  O  O10  1  0.49934571  0.67964557  0.00215327  1
  O  O11  1  0.50065429  0.32035443  0.50215327  1
  O  O12  1  0.67964557  0.18029986  0.50215327  1
  O  O13  1  0.18029986  0.50065429  0.00215327  1
  O  O14  1  0.50263826  0.81715961  0.48953482  1
  O  O15  1  0.68547865  0.50263826  0.98953482  1
  O  O16  1  0.81715961  0.31452135  0.98953482  1
  O  O17  1  0.18284039  0.68547865  0.48953482  1
  O  O18  1  0.31452135  0.49736174  0.48953482  1
  O  O19  1  0.49736174  0.18284039  0.98953482  1
  O  O20  1  0.31278140  0.00049349  0.54755985  1
  O  O21  1  0.31228791  0.31278140  0.04755985  1
  O  O22  1  0.00049349  0.68771209  0.04755985  1
  O  O23  1  0.99950651  0.31228791  0.54755985  1
  O  O24  1  0.17860287  0.99735319  0.98028741  1
  O  O25  1  0.18124969  0.17860287  0.48028741  1
  O  O26  1  0.99735319  0.81875031  0.48028741  1
  O  O27  1  0.00264681  0.18124969  0.98028741  1
  O  O28  1  0.81875031  0.82139713  0.98028741  1
  O  O29  1  0.82139713  0.00264681  0.48028741  1
  O  O30  1  0.68721860  0.99950651  0.04755985  1
  O  O31  1  0.68771209  0.68721860  0.54755985  1
  Al  Al32  1  0.66666667  0.33333333  0.04658711  1
  Al  Al33  1  0.33333333  0.66666667  0.54658711  1
  Al  Al34  1  0.66666667  0.33333333  0.44767576  1
  Al  Al35  1  0.33333333  0.66666667  0.94767576  1
  Al  Al36  1  0.84629044  0.67173259  0.95094261  1
  Al  Al37  1  0.17455785  0.84629044  0.45094261  1
  Al  Al38  1  0.67173259  0.82544215  0.45094261  1
  Al  Al39  1  0.32826741  0.17455785  0.95094261  1
  Al  Al40  1  0.82544215  0.15370956  0.95094261  1
  Al  Al41  1  0.15370956  0.32826741  0.45094261  1
  Al  Al42  1  0.84518532  0.66912598  0.56448937  1
  Al  Al43  1  0.17605935  0.84518532  0.06448937  1
  Al  Al44  1  0.66912598  0.82394065  0.06448937  1
  Al  Al45  1  0.33087402  0.17605935  0.56448937  1
  Al  Al46  1  0.82394065  0.15481468  0.56448937  1
  Al  Al47  1  0.15481468  0.33087402  0.06448937  1
  Ba  Ba48  1  0.49261208  0.99165014  0.75782253  1
  Ba  Ba49  1  0.50096194  0.49261208  0.25782253  1
  Ba  Ba50  1  0.99165014  0.49903806  0.25782253  1
  Ba  Ba51  1  0.00834986  0.50096194  0.75782253  1
  Ba  Ba52  1  0.49903806  0.50738792  0.75782253  1
  Ba  Ba53  1  0.50738792  0.00834986  0.25782253  1
  Ba  Ba54  1  0.00000000  0.00000000  0.74809578  1
  Ba  Ba55  1  0.00000000  0.00000000  0.24809578  1
