# generated using pymatgen
data_Tm9(FeGe)10
_symmetry_space_group_name_H-M   'P 1'
_cell_length_a   5.35953549
_cell_length_b   9.98585190
_cell_length_c   9.98585190
_cell_angle_alpha   83.00955853
_cell_angle_beta   74.43351067
_cell_angle_gamma   74.43351068
_symmetry_Int_Tables_number   1
_chemical_formula_structural   Tm9(FeGe)10
_chemical_formula_sum   'Tm9 Fe10 Ge10'
_cell_volume   495.23895984
_cell_formula_units_Z   1
loop_
 _symmetry_equiv_pos_site_id
 _symmetry_equiv_pos_as_xyz
  1  'x, y, z'
loop_
 _atom_site_type_symbol
 _atom_site_label
 _atom_site_symmetry_multiplicity
 _atom_site_fract_x
 _atom_site_fract_y
 _atom_site_fract_z
 _atom_site_occupancy
  Fe  Fe0  1  0.59301969  0.40698031  0.40698031  1
  Fe  Fe1  1  0.40698031  0.59301969  0.59301969  1
  Fe  Fe2  1  0.41138494  0.20206124  0.48926145  1
  Fe  Fe3  1  0.10270762  0.79793876  0.51073855  1
  Fe  Fe4  1  0.58861506  0.51073855  0.79793876  1
  Fe  Fe5  1  0.89729238  0.48926145  0.20206124  1
  Fe  Fe6  1  0.58861506  0.79793876  0.51073855  1
  Fe  Fe7  1  0.89729238  0.20206124  0.48926145  1
  Fe  Fe8  1  0.41138494  0.48926145  0.20206124  1
  Fe  Fe9  1  0.10270762  0.51073855  0.79793876  1
  Ge  Ge10  1  0.75229236  0.00000000  0.00000000  1
  Ge  Ge11  1  0.24770764  0.00000000  0.00000000  1
  Ge  Ge12  1  0.50000000  0.67187627  0.32812373  1
  Ge  Ge13  1  0.50000000  0.32812373  0.67187627  1
  Ge  Ge14  1  0.20827718  0.29172282  0.29172282  1
  Ge  Ge15  1  0.79172282  0.70827718  0.70827718  1
  Ge  Ge16  1  0.79488584  0.99299091  0.41723741  1
  Ge  Ge17  1  0.20511416  0.00700909  0.58276259  1
  Ge  Ge18  1  0.20511416  0.58276259  0.00700909  1
  Ge  Ge19  1  0.79488584  0.41723741  0.99299091  1
  Tm  Tm20  1  0.00000000  0.50000000  0.50000000  1
  Tm  Tm21  1  0.00000000  0.77946585  0.22053415  1
  Tm  Tm22  1  0.00000000  0.22053415  0.77946585  1
  Tm  Tm23  1  0.80324528  0.19675472  0.19675472  1
  Tm  Tm24  1  0.19675472  0.80324528  0.80324528  1
  Tm  Tm25  1  0.36483415  0.98858329  0.28174841  1
  Tm  Tm26  1  0.63516585  0.01141671  0.71825159  1
  Tm  Tm27  1  0.63516585  0.71825159  0.01141671  1
  Tm  Tm28  1  0.36483415  0.28174841  0.98858329  1
