# generated using pymatgen
data_RbSO3
_symmetry_space_group_name_H-M   'P 1'
_cell_length_a   10.33246682
_cell_length_b   10.33246682
_cell_length_c   6.68497863
_cell_angle_alpha   90.00000000
_cell_angle_beta   90.00000000
_cell_angle_gamma   120.00000000
_symmetry_Int_Tables_number   1
_chemical_formula_structural   RbSO3
_chemical_formula_sum   'Rb6 S6 O18'
_cell_volume   618.07146503
_cell_formula_units_Z   6
loop_
 _symmetry_equiv_pos_site_id
 _symmetry_equiv_pos_as_xyz
  1  'x, y, z'
loop_
 _atom_site_type_symbol
 _atom_site_label
 _atom_site_symmetry_multiplicity
 _atom_site_fract_x
 _atom_site_fract_y
 _atom_site_fract_z
 _atom_site_occupancy
  O  O0  1  0.21037787  0.51783401  0.20733282  1
  O  O1  1  0.48216599  0.69254386  0.20733282  1
  O  O2  1  0.30745614  0.78962213  0.20733282  1
  O  O3  1  0.69254386  0.48216599  0.79266718  1
  O  O4  1  0.78962213  0.30745614  0.79266718  1
  O  O5  1  0.51783401  0.21037787  0.79266718  1
  O  O6  1  0.17817143  0.62056792  0.64960342  1
  O  O7  1  0.37943208  0.55760352  0.64960342  1
  O  O8  1  0.44239648  0.82182857  0.64960342  1
  O  O9  1  0.55760352  0.37943208  0.35039658  1
  O  O10  1  0.82182857  0.44239648  0.35039658  1
  O  O11  1  0.62056792  0.17817143  0.35039658  1
  O  O12  1  0.15185252  0.11643803  0.22414634  1
  O  O13  1  0.88356197  0.03541450  0.22414634  1
  O  O14  1  0.96458550  0.84814748  0.22414634  1
  O  O15  1  0.03541450  0.88356197  0.77585366  1
  O  O16  1  0.84814748  0.96458550  0.77585366  1
  O  O17  1  0.11643803  0.15185252  0.77585366  1
  S  S18  1  0.00000000  0.00000000  0.16692572  1
  S  S19  1  0.00000000  0.00000000  0.83307428  1
  S  S20  1  0.33333333  0.66666667  0.59648376  1
  S  S21  1  0.66666667  0.33333333  0.40351624  1
  S  S22  1  0.33333333  0.66666667  0.26533935  1
  S  S23  1  0.66666667  0.33333333  0.73466065  1
  Rb  Rb24  1  0.29501109  0.00000000  0.50000000  1
  Rb  Rb25  1  0.00000000  0.29501109  0.50000000  1
  Rb  Rb26  1  0.70498891  0.70498891  0.50000000  1
  Rb  Rb27  1  0.61918451  0.00000000  0.00000000  1
  Rb  Rb28  1  0.00000000  0.61918451  0.00000000  1
  Rb  Rb29  1  0.38081549  0.38081549  0.00000000  1
