# generated using pymatgen
data_Lu2Fe14B
_symmetry_space_group_name_H-M   'P 1'
_cell_length_a   8.70044721
_cell_length_b   8.70044721
_cell_length_c   11.77481773
_cell_angle_alpha   90.00000000
_cell_angle_beta   90.00000000
_cell_angle_gamma   90.00000000
_symmetry_Int_Tables_number   1
_chemical_formula_structural   Lu2Fe14B
_chemical_formula_sum   'Lu8 Fe56 B4'
_cell_volume   891.32758154
_cell_formula_units_Z   4
loop_
 _symmetry_equiv_pos_site_id
 _symmetry_equiv_pos_as_xyz
  1  'x, y, z'
loop_
 _atom_site_type_symbol
 _atom_site_label
 _atom_site_symmetry_multiplicity
 _atom_site_fract_x
 _atom_site_fract_y
 _atom_site_fract_z
 _atom_site_occupancy
  B  B0  1  0.62540197  0.37459803  0.00000000  1
  B  B1  1  0.12540197  0.12540197  0.50000000  1
  B  B2  1  0.87459803  0.87459803  0.50000000  1
  B  B3  1  0.37459803  0.62540197  0.00000000  1
  Fe  Fe4  1  0.35798518  0.03728148  0.17379456  1
  Fe  Fe5  1  0.64201482  0.96271852  0.17379456  1
  Fe  Fe6  1  0.03728148  0.35798518  0.82620544  1
  Fe  Fe7  1  0.53728148  0.14201482  0.67379456  1
  Fe  Fe8  1  0.46271852  0.85798518  0.67379456  1
  Fe  Fe9  1  0.14201482  0.53728148  0.32620544  1
  Fe  Fe10  1  0.85798518  0.46271852  0.32620544  1
  Fe  Fe11  1  0.96271852  0.64201482  0.82620544  1
  Fe  Fe12  1  0.64201482  0.96271852  0.82620544  1
  Fe  Fe13  1  0.35798518  0.03728148  0.82620544  1
  Fe  Fe14  1  0.96271852  0.64201482  0.17379456  1
  Fe  Fe15  1  0.46271852  0.85798518  0.32620544  1
  Fe  Fe16  1  0.53728148  0.14201482  0.32620544  1
  Fe  Fe17  1  0.85798518  0.46271852  0.67379456  1
  Fe  Fe18  1  0.14201482  0.53728148  0.67379456  1
  Fe  Fe19  1  0.03728148  0.35798518  0.17379456  1
  Fe  Fe20  1  0.56564580  0.22426997  0.12559611  1
  Fe  Fe21  1  0.43435420  0.77573003  0.12559611  1
  Fe  Fe22  1  0.22426997  0.56564580  0.87440389  1
  Fe  Fe23  1  0.72426997  0.93435420  0.62559611  1
  Fe  Fe24  1  0.27573003  0.06564580  0.62559611  1
  Fe  Fe25  1  0.93435420  0.72426997  0.37440389  1
  Fe  Fe26  1  0.06564580  0.27573003  0.37440389  1
  Fe  Fe27  1  0.77573003  0.43435420  0.87440389  1
  Fe  Fe28  1  0.43435420  0.77573003  0.87440389  1
  Fe  Fe29  1  0.56564580  0.22426997  0.87440389  1
  Fe  Fe30  1  0.77573003  0.43435420  0.12559611  1
  Fe  Fe31  1  0.27573003  0.06564580  0.37440389  1
  Fe  Fe32  1  0.72426997  0.93435420  0.37440389  1
  Fe  Fe33  1  0.06564580  0.27573003  0.62559611  1
  Fe  Fe34  1  0.93435420  0.72426997  0.62559611  1
  Fe  Fe35  1  0.22426997  0.56564580  0.12559611  1
  Fe  Fe36  1  0.68321454  0.68321454  0.75401198  1
  Fe  Fe37  1  0.31678546  0.31678546  0.75401198  1
  Fe  Fe38  1  0.68321454  0.68321454  0.24598802  1
  Fe  Fe39  1  0.18321454  0.81678546  0.25401198  1
  Fe  Fe40  1  0.81678546  0.18321454  0.25401198  1
  Fe  Fe41  1  0.81678546  0.18321454  0.74598802  1
  Fe  Fe42  1  0.18321454  0.81678546  0.74598802  1
  Fe  Fe43  1  0.31678546  0.31678546  0.24598802  1
  Fe  Fe44  1  0.90313018  0.90313018  0.80191637  1
  Fe  Fe45  1  0.09686982  0.09686982  0.80191637  1
  Fe  Fe46  1  0.90313018  0.90313018  0.19808363  1
  Fe  Fe47  1  0.40313018  0.59686982  0.30191637  1
  Fe  Fe48  1  0.59686982  0.40313018  0.30191637  1
  Fe  Fe49  1  0.59686982  0.40313018  0.69808363  1
  Fe  Fe50  1  0.40313018  0.59686982  0.69808363  1
  Fe  Fe51  1  0.09686982  0.09686982  0.19808363  1
  Fe  Fe52  1  0.00000000  0.00000000  0.38383137  1
  Fe  Fe53  1  0.50000000  0.50000000  0.88383137  1
  Fe  Fe54  1  0.50000000  0.50000000  0.11616863  1
  Fe  Fe55  1  0.00000000  0.00000000  0.61616863  1
  Fe  Fe56  1  0.50000000  0.00000000  0.00000000  1
  Fe  Fe57  1  0.50000000  0.00000000  0.50000000  1
  Fe  Fe58  1  0.00000000  0.50000000  0.50000000  1
  Fe  Fe59  1  0.00000000  0.50000000  0.00000000  1
  Lu  Lu60  1  0.85654010  0.14345990  0.00000000  1
  Lu  Lu61  1  0.35654010  0.35654010  0.50000000  1
  Lu  Lu62  1  0.64345990  0.64345990  0.50000000  1
  Lu  Lu63  1  0.14345990  0.85654010  0.00000000  1
  Lu  Lu64  1  0.73399960  0.73399960  0.00000000  1
  Lu  Lu65  1  0.76600040  0.23399960  0.50000000  1
  Lu  Lu66  1  0.23399960  0.76600040  0.50000000  1
  Lu  Lu67  1  0.26600040  0.26600040  0.00000000  1
