# generated using pymatgen
data_K3Sn2S3ClO12
_symmetry_space_group_name_H-M   'P 1'
_cell_length_a   10.28750742
_cell_length_b   10.46874499
_cell_length_c   7.67659470
_cell_angle_alpha   90.00000000
_cell_angle_beta   90.00000000
_cell_angle_gamma   119.83995896
_symmetry_Int_Tables_number   1
_chemical_formula_structural   K3Sn2S3ClO12
_chemical_formula_sum   'K6 Sn4 S6 Cl2 O24'
_cell_volume   717.13702847
_cell_formula_units_Z   2
loop_
 _symmetry_equiv_pos_site_id
 _symmetry_equiv_pos_as_xyz
  1  'x, y, z'
loop_
 _atom_site_type_symbol
 _atom_site_label
 _atom_site_symmetry_multiplicity
 _atom_site_fract_x
 _atom_site_fract_y
 _atom_site_fract_z
 _atom_site_occupancy
  Cl  Cl0  1  0.01751964  0.02074890  0.99743068  1
  Cl  Cl1  1  0.98248036  0.97925110  0.49743068  1
  K  K2  1  0.34710065  0.66842101  0.02433089  1
  K  K3  1  0.33346415  0.66185749  0.50891736  1
  K  K4  1  0.24271544  0.25056133  0.28051286  1
  K  K5  1  0.75728456  0.74943867  0.78051286  1
  K  K6  1  0.65289935  0.33157899  0.52433089  1
  K  K7  1  0.66653585  0.33814251  0.00891736  1
  O  O8  1  0.09935504  0.74492247  0.89670695  1
  O  O9  1  0.07749420  0.70709998  0.58322734  1
  O  O10  1  0.10586519  0.53442723  0.77140142  1
  O  O11  1  0.12997931  0.45984703  0.27320748  1
  O  O12  1  0.35723692  0.86306617  0.25974749  1
  O  O13  1  0.41720889  0.89212368  0.76225391  1
  O  O14  1  0.25638098  0.36476266  0.92956983  1
  O  O15  1  0.25602266  0.35173644  0.61709615  1
  O  O16  1  0.62944243  0.93553150  0.58160405  1
  O  O17  1  0.45886998  0.56514706  0.76573241  1
  O  O18  1  0.64597534  0.92680202  0.89744327  1
  O  O19  1  0.55199355  0.67288162  0.28153747  1
  O  O20  1  0.44800645  0.32711838  0.78153747  1
  O  O21  1  0.35402466  0.07319798  0.39744327  1
  O  O22  1  0.54113002  0.43485294  0.26573241  1
  O  O23  1  0.37055757  0.06446850  0.08160405  1
  O  O24  1  0.74397734  0.64826356  0.11709615  1
  O  O25  1  0.74361902  0.63523734  0.42956983  1
  O  O26  1  0.58279111  0.10787632  0.26225391  1
  O  O27  1  0.64276308  0.13693383  0.75974749  1
  O  O28  1  0.87002069  0.54015297  0.77320748  1
  O  O29  1  0.89413481  0.46557277  0.27140142  1
  O  O30  1  0.92250580  0.29290002  0.08322734  1
  O  O31  1  0.90064496  0.25507753  0.39670695  1
  S  S32  1  0.03363880  0.62690098  0.75553572  1
  S  S33  1  0.58802237  0.97758605  0.75440327  1
  S  S34  1  0.36066704  0.40369198  0.76968931  1
  S  S35  1  0.63933296  0.59630802  0.26968931  1
  S  S36  1  0.41197763  0.02241395  0.25440327  1
  S  S37  1  0.96636120  0.37309902  0.25553572  1
  Sn  Sn38  1  0.25712960  0.98666722  0.81432462  1
  Sn  Sn39  1  0.02181756  0.25523084  0.81502753  1
  Sn  Sn40  1  0.97818244  0.74476916  0.31502753  1
  Sn  Sn41  1  0.74287040  0.01333278  0.31432462  1
