# generated using pymatgen
data_Nd(AgGe)2
_symmetry_space_group_name_H-M   'P 1'
_cell_length_a   4.31421272
_cell_length_b   4.31421271
_cell_length_c   6.36943567
_cell_angle_alpha   109.79557315
_cell_angle_beta   109.79557313
_cell_angle_gamma   89.99999997
_symmetry_Int_Tables_number   1
_chemical_formula_structural   Nd(AgGe)2
_chemical_formula_sum   'Nd1 Ag2 Ge2'
_cell_volume   104.06911780
_cell_formula_units_Z   1
loop_
 _symmetry_equiv_pos_site_id
 _symmetry_equiv_pos_as_xyz
  1  'x, y, z'
loop_
 _atom_site_type_symbol
 _atom_site_label
 _atom_site_symmetry_multiplicity
 _atom_site_fract_x
 _atom_site_fract_y
 _atom_site_fract_z
 _atom_site_occupancy
  Ge  Ge0  1  0.60991862  0.60991862  0.21983724  1
  Ge  Ge1  1  0.39008138  0.39008138  0.78016276  1
  Ag  Ag2  1  0.25000000  0.75000000  0.50000000  1
  Ag  Ag3  1  0.75000000  0.25000000  0.50000000  1
  Nd  Nd4  1  0.00000000  0.00000000  0.00000000  1
