# generated using pymatgen
data_K4Gd2C3O9F4
_symmetry_space_group_name_H-M   'P 1'
_cell_length_a   7.00350917
_cell_length_b   14.05090869
_cell_length_c   10.65804609
_cell_angle_alpha   40.66515460
_cell_angle_beta   79.12384090
_cell_angle_gamma   81.77129671
_symmetry_Int_Tables_number   1
_chemical_formula_structural   K4Gd2C3O9F4
_chemical_formula_sum   'K8 Gd4 C6 O18 F8'
_cell_volume   671.16850987
_cell_formula_units_Z   2
loop_
 _symmetry_equiv_pos_site_id
 _symmetry_equiv_pos_as_xyz
  1  'x, y, z'
loop_
 _atom_site_type_symbol
 _atom_site_label
 _atom_site_symmetry_multiplicity
 _atom_site_fract_x
 _atom_site_fract_y
 _atom_site_fract_z
 _atom_site_occupancy
  C  C0  1  0.98946875  0.14247825  0.35053594  1
  C  C1  1  0.01053125  0.64247825  0.36450756  1
  C  C2  1  0.35312027  0.17758468  0.64372295  1
  C  C3  1  0.64797254  0.17580671  0.01213199  1
  C  C4  1  0.35202746  0.67580671  0.63625459  1
  C  C5  1  0.64687973  0.67758468  1.00110770  1
  F  F6  1  0.19205981  0.50001033  0.19359728  1
  F  F7  1  0.19701374  1.00298156  0.19094163  1
  F  F8  1  0.40922621  0.10742988  0.44025531  1
  F  F9  1  0.42783124  0.38169323  0.65583281  1
  F  F10  1  0.59077379  0.60742988  0.34488492  1
  F  F11  1  0.57216876  0.88169323  0.58078074  1
  F  F12  1  0.80794019  0.00001033  0.80638206  1
  F  F13  1  0.80298626  0.50298156  0.80309525  1
  Gd  Gd14  1  0.35581941  0.49375398  0.36140927  1
  Gd  Gd15  1  0.35602875  0.00341344  0.35467487  1
  Gd  Gd16  1  0.64418059  0.99375398  0.65108276  1
  Gd  Gd17  1  0.64397125  0.50341344  0.63849825  1
  K  K18  1  0.00054947  0.99967669  1.00034773  1
  K  K19  1  0.99945053  0.49967669  0.00029889  1
  K  K20  1  0.11957482  0.31145713  0.87617577  1
  K  K21  1  0.13587160  0.81716352  0.86920832  1
  K  K22  1  0.49835336  0.37821352  0.12333706  1
  K  K23  1  0.50164664  0.87821352  0.12023591  1
  K  K24  1  0.86412840  0.31716352  0.49646465  1
  K  K25  1  0.88042518  0.81145713  0.50090996  1
  O  O26  1  0.00213693  0.00002646  0.49949623  1
  O  O27  1  0.12682482  0.21393619  0.20767006  1
  O  O28  1  0.99786307  0.50002646  0.50045086  1
  O  O29  1  0.16285982  0.70648690  0.23452599  1
  O  O30  1  0.20112770  0.24584963  0.63456888  1
  O  O31  1  0.51264565  0.24244879  0.02575236  1
  O  O32  1  0.35990139  0.03597977  0.77739519  1
  O  O33  1  0.22746093  0.75100531  0.64088695  1
  O  O34  1  0.65269503  0.03380264  0.15742463  1
  O  O35  1  0.50447439  0.25390141  0.51439990  1
  O  O36  1  0.49552561  0.75390141  0.97779728  1
  O  O37  1  0.34730497  0.53380264  0.77497009  1
  O  O38  1  0.64009861  0.53597977  0.15064527  1
  O  O39  1  0.48735435  0.74244879  0.48935006  1
  O  O40  1  0.83714018  0.20648690  0.35250021  1
  O  O41  1  0.77253907  0.25100531  0.85710243  1
  O  O42  1  0.87317518  0.71393619  0.36445757  1
  O  O43  1  0.79887230  0.74584963  0.87373187  1
