# generated using pymatgen
data_V3H4NO8
_symmetry_space_group_name_H-M   'P 1'
_cell_length_a   5.09855346
_cell_length_b   8.05296886
_cell_length_c   8.58215527
_cell_angle_alpha   90.00000000
_cell_angle_beta   90.00000000
_cell_angle_gamma   96.43113222
_symmetry_Int_Tables_number   1
_chemical_formula_structural   V3H4NO8
_chemical_formula_sum   'V6 H8 N2 O16'
_cell_volume   350.15296113
_cell_formula_units_Z   2
loop_
 _symmetry_equiv_pos_site_id
 _symmetry_equiv_pos_as_xyz
  1  'x, y, z'
loop_
 _atom_site_type_symbol
 _atom_site_label
 _atom_site_symmetry_multiplicity
 _atom_site_fract_x
 _atom_site_fract_y
 _atom_site_fract_z
 _atom_site_occupancy
  H  H0  1  0.45532624  0.37373548  0.34644136  1
  H  H1  1  0.54467444  0.62626478  0.84644110  1
  H  H2  1  0.54467444  0.62626478  0.65355928  1
  H  H3  1  0.45532624  0.37373548  0.15355955  1
  H  H4  1  0.50025699  0.44325631  0.74999960  1
  H  H5  1  0.49974348  0.55674270  0.24999987  1
  H  H6  1  0.25732079  0.56876236  0.74999960  1
  H  H7  1  0.74267968  0.43123665  0.24999987  1
  N  N8  1  0.54123528  0.43422237  0.24999987  1
  N  N9  1  0.45876519  0.56577664  0.74999960  1
  O  O10  1  0.93559833  0.67377455  0.56313093  1
  O  O11  1  0.38990144  0.07759096  0.24999987  1
  O  O12  1  0.06440213  0.32622446  0.06313119  1
  O  O13  1  0.61006594  0.22304102  0.89904462  1
  O  O14  1  0.61006594  0.22304102  0.60095576  1
  O  O15  1  0.38993475  0.77695924  0.10095485  1
  O  O16  1  0.61009924  0.92240930  0.74999960  1
  O  O17  1  0.82066715  0.99488113  0.08793808  1
  O  O18  1  0.82066715  0.99488113  0.41206283  1
  O  O19  1  0.17933354  0.00511913  0.91206256  1
  O  O20  1  0.92071467  0.74928027  0.24999987  1
  O  O21  1  0.07928404  0.25071998  0.74999960  1
  O  O22  1  0.06440213  0.32622446  0.43686855  1
  O  O23  1  0.93559833  0.67377455  0.93686828  1
  O  O24  1  0.38993475  0.77695924  0.39904489  1
  O  O25  1  0.17933354  0.00511913  0.58793782  1
  V  V26  1  0.57700227  0.92665293  0.24999987  1
  V  V27  1  0.42299842  0.07334733  0.74999960  1
  V  V28  1  0.06210861  0.82038637  0.05499572  1
  V  V29  1  0.93789208  0.17961389  0.55499546  1
  V  V30  1  0.93789208  0.17961389  0.94500375  1
  V  V31  1  0.06210861  0.82038637  0.44500401  1
