# generated using pymatgen
data_SrTeO4
_symmetry_space_group_name_H-M   'P 1'
_cell_length_a   5.10352708
_cell_length_b   5.66068896
_cell_length_c   13.28230052
_cell_angle_alpha   90.00000000
_cell_angle_beta   90.00000000
_cell_angle_gamma   90.00000000
_symmetry_Int_Tables_number   1
_chemical_formula_structural   SrTeO4
_chemical_formula_sum   'Sr4 Te4 O16'
_cell_volume   383.71874724
_cell_formula_units_Z   4
loop_
 _symmetry_equiv_pos_site_id
 _symmetry_equiv_pos_as_xyz
  1  'x, y, z'
loop_
 _atom_site_type_symbol
 _atom_site_label
 _atom_site_symmetry_multiplicity
 _atom_site_fract_x
 _atom_site_fract_y
 _atom_site_fract_z
 _atom_site_occupancy
  O  O0  1  0.13113256  0.28561230  0.66742362  1
  O  O1  1  0.63113256  0.21438770  0.83257638  1
  O  O2  1  0.86886744  0.78561230  0.83257638  1
  O  O3  1  0.36886744  0.71438770  0.66742362  1
  O  O4  1  0.86886744  0.71438770  0.33257638  1
  O  O5  1  0.36886744  0.78561230  0.16742362  1
  O  O6  1  0.13113256  0.21438770  0.16742362  1
  O  O7  1  0.63113256  0.28561230  0.33257638  1
  O  O8  1  0.57163912  0.31094810  0.54238868  1
  O  O9  1  0.07163912  0.18905190  0.95761132  1
  O  O10  1  0.42836088  0.81094810  0.95761132  1
  O  O11  1  0.92836088  0.68905190  0.54238868  1
  O  O12  1  0.42836088  0.68905190  0.45761132  1
  O  O13  1  0.92836088  0.81094810  0.04238868  1
  O  O14  1  0.57163912  0.18905190  0.04238868  1
  O  O15  1  0.07163912  0.31094810  0.45761132  1
  Sr  Sr16  1  0.75000000  0.00000000  0.66654782  1
  Sr  Sr17  1  0.25000000  0.50000000  0.83345218  1
  Sr  Sr18  1  0.25000000  0.00000000  0.33345218  1
  Sr  Sr19  1  0.75000000  0.50000000  0.16654782  1
  Te  Te20  1  0.75000000  0.50000000  0.43008737  1
  Te  Te21  1  0.25000000  0.00000000  0.06991263  1
  Te  Te22  1  0.25000000  0.50000000  0.56991263  1
  Te  Te23  1  0.75000000  0.00000000  0.93008737  1
