# generated using pymatgen
data_Er(CuSi)2
_symmetry_space_group_name_H-M   'P 1'
_cell_length_a   3.94238944
_cell_length_b   3.94238944
_cell_length_c   5.72452600
_cell_angle_alpha   110.14163411
_cell_angle_beta   110.14163407
_cell_angle_gamma   90.00000003
_symmetry_Int_Tables_number   1
_chemical_formula_structural   Er(CuSi)2
_chemical_formula_sum   'Er1 Si2 Cu2'
_cell_volume   77.71058811
_cell_formula_units_Z   1
loop_
 _symmetry_equiv_pos_site_id
 _symmetry_equiv_pos_as_xyz
  1  'x, y, z'
loop_
 _atom_site_type_symbol
 _atom_site_label
 _atom_site_symmetry_multiplicity
 _atom_site_fract_x
 _atom_site_fract_y
 _atom_site_fract_z
 _atom_site_occupancy
  Si  Si0  1  0.61663430  0.61663430  0.23326859  1
  Si  Si1  1  0.38336570  0.38336570  0.76673141  1
  Cu  Cu2  1  0.25000000  0.75000000  0.50000000  1
  Cu  Cu3  1  0.75000000  0.25000000  0.50000000  1
  Er  Er4  1  0.00000000  0.00000000  0.00000000  1
