# generated using pymatgen
data_HoAgSn
_symmetry_space_group_name_H-M   'P 1'
_cell_length_a   4.73319689
_cell_length_b   4.73319689
_cell_length_c   7.38769692
_cell_angle_alpha   90.00000000
_cell_angle_beta   90.00000000
_cell_angle_gamma   119.99999993
_symmetry_Int_Tables_number   1
_chemical_formula_structural   HoAgSn
_chemical_formula_sum   'Ho2 Ag2 Sn2'
_cell_volume   143.33387534
_cell_formula_units_Z   2
loop_
 _symmetry_equiv_pos_site_id
 _symmetry_equiv_pos_as_xyz
  1  'x, y, z'
loop_
 _atom_site_type_symbol
 _atom_site_label
 _atom_site_symmetry_multiplicity
 _atom_site_fract_x
 _atom_site_fract_y
 _atom_site_fract_z
 _atom_site_occupancy
  Ag  Ag0  1  0.66666667  0.33333333  0.54170238  1
  Ag  Ag1  1  0.33333333  0.66666667  0.04170238  1
  Sn  Sn2  1  0.33333333  0.66666667  0.44790799  1
  Sn  Sn3  1  0.66666667  0.33333333  0.94790799  1
  Ho  Ho4  1  0.00000000  0.00000000  0.72738964  1
  Ho  Ho5  1  0.00000000  0.00000000  0.22738964  1
