# generated using pymatgen
data_Zr(SO4)2
_symmetry_space_group_name_H-M   'P 1'
_cell_length_a   5.54780116
_cell_length_b   8.74441772
_cell_length_c   11.16453579
_cell_angle_alpha   90.00000000
_cell_angle_beta   90.00000000
_cell_angle_gamma   90.00000000
_symmetry_Int_Tables_number   1
_chemical_formula_structural   Zr(SO4)2
_chemical_formula_sum   'Zr4 S8 O32'
_cell_volume   541.61720656
_cell_formula_units_Z   4
loop_
 _symmetry_equiv_pos_site_id
 _symmetry_equiv_pos_as_xyz
  1  'x, y, z'
loop_
 _atom_site_type_symbol
 _atom_site_label
 _atom_site_symmetry_multiplicity
 _atom_site_fract_x
 _atom_site_fract_y
 _atom_site_fract_z
 _atom_site_occupancy
  O  O0  1  0.25000000  0.93123089  0.53308895  1
  O  O1  1  0.75000000  0.06876911  0.46691105  1
  O  O2  1  0.25000000  0.43123089  0.96691105  1
  O  O3  1  0.75000000  0.56876911  0.03308895  1
  O  O4  1  0.25000000  0.89798857  0.75140268  1
  O  O5  1  0.75000000  0.10201143  0.24859732  1
  O  O6  1  0.25000000  0.39798857  0.74859732  1
  O  O7  1  0.75000000  0.60201143  0.25140268  1
  O  O8  1  0.96876538  0.16742077  0.97999328  1
  O  O9  1  0.46876538  0.83257923  0.02000672  1
  O  O10  1  0.53123462  0.66742077  0.52000672  1
  O  O11  1  0.03123462  0.33257923  0.47999328  1
  O  O12  1  0.46481001  0.60779624  0.84114029  1
  O  O13  1  0.96481001  0.39220376  0.15885971  1
  O  O14  1  0.03518999  0.10779624  0.65885971  1
  O  O15  1  0.53518999  0.89220376  0.34114029  1
  O  O16  1  0.53518999  0.39220376  0.15885971  1
  O  O17  1  0.03518999  0.60779624  0.84114029  1
  O  O18  1  0.96481001  0.89220376  0.34114029  1
  O  O19  1  0.46481001  0.10779624  0.65885971  1
  O  O20  1  0.75000000  0.75621898  0.69419767  1
  O  O21  1  0.25000000  0.24378102  0.30580233  1
  O  O22  1  0.75000000  0.25621898  0.80580233  1
  O  O23  1  0.25000000  0.74378102  0.19419767  1
  O  O24  1  0.75000000  0.98597261  0.85879684  1
  O  O25  1  0.25000000  0.01402739  0.14120316  1
  O  O26  1  0.75000000  0.48597261  0.64120316  1
  O  O27  1  0.25000000  0.51402739  0.35879684  1
  O  O28  1  0.96876538  0.66742077  0.52000672  1
  O  O29  1  0.46876538  0.33257923  0.47999328  1
  O  O30  1  0.53123462  0.16742077  0.97999328  1
  O  O31  1  0.03123462  0.83257923  0.02000672  1
  S  S32  1  0.75000000  0.99599057  0.34637577  1
  S  S33  1  0.25000000  0.00400943  0.65362423  1
  S  S34  1  0.75000000  0.49599057  0.15362423  1
  S  S35  1  0.25000000  0.50400943  0.84637577  1
  S  S36  1  0.25000000  0.85422954  0.09394647  1
  S  S37  1  0.75000000  0.14577046  0.90605353  1
  S  S38  1  0.25000000  0.35422954  0.40605353  1
  S  S39  1  0.75000000  0.64577046  0.59394647  1
  Zr  Zr40  1  0.25000000  0.75559958  0.39974825  1
  Zr  Zr41  1  0.75000000  0.24440042  0.60025175  1
  Zr  Zr42  1  0.25000000  0.25559958  0.10025175  1
  Zr  Zr43  1  0.75000000  0.74440042  0.89974825  1
