# generated using pymatgen
data_LiSnP2O7
_symmetry_space_group_name_H-M   'P 1'
_cell_length_a   5.22393912
_cell_length_b   7.16281716
_cell_length_c   8.67333562
_cell_angle_alpha   67.52745500
_cell_angle_beta   87.99206392
_cell_angle_gamma   87.79654704
_symmetry_Int_Tables_number   1
_chemical_formula_structural   LiSnP2O7
_chemical_formula_sum   'Li2 Sn2 P4 O14'
_cell_volume   299.60080098
_cell_formula_units_Z   2
loop_
 _symmetry_equiv_pos_site_id
 _symmetry_equiv_pos_as_xyz
  1  'x, y, z'
loop_
 _atom_site_type_symbol
 _atom_site_label
 _atom_site_symmetry_multiplicity
 _atom_site_fract_x
 _atom_site_fract_y
 _atom_site_fract_z
 _atom_site_occupancy
  Li  Li0  1  0.28891307  0.83481714  0.00030122  1
  Li  Li1  1  0.75292615  0.16447769  0.43070135  1
  Sn  Sn2  1  0.75169851  0.78451234  0.27398327  1
  Sn  Sn3  1  0.24379440  0.24430999  0.72011203  1
  P  P4  1  0.78252877  0.88651804  0.82052867  1
  P  P5  1  0.26294342  0.44179838  0.30080400  1
  P  P6  1  0.22681811  0.11506444  0.17916671  1
  P  P7  1  0.73238549  0.55615550  0.69379875  1
  O  O8  1  0.54706731  0.44074221  0.33888555  1
  O  O9  1  0.07123041  0.93111835  0.80624185  1
  O  O10  1  0.95383410  0.05291408  0.25236707  1
  O  O11  1  0.44503594  0.52468039  0.68399711  1
  O  O12  1  0.14893478  0.65841746  0.21479496  1
  O  O13  1  0.26213506  0.11270148  0.00510332  1
  O  O14  1  0.85111312  0.70219614  0.52891550  1
  O  O15  1  0.76386781  0.65787354  0.82760762  1
  O  O16  1  0.43774971  0.99467458  0.29990143  1
  O  O17  1  0.66142376  0.86334185  0.99111200  1
  O  O18  1  0.88149015  0.35392628  0.76801367  1
  O  O19  1  0.10146485  0.30991955  0.45353116  1
  O  O20  1  0.24055526  0.34849064  0.15806266  1
  O  O21  1  0.63157584  0.03311992  0.67323211  1
