# generated using pymatgen
data_Na3Al3Si3AgBrO12
_symmetry_space_group_name_H-M   'P 1'
_cell_length_a   9.03909893
_cell_length_b   9.03907650
_cell_length_c   9.04081309
_cell_angle_alpha   90.00448748
_cell_angle_beta   89.98871002
_cell_angle_gamma   89.97050703
_symmetry_Int_Tables_number   1
_chemical_formula_structural   Na3Al3Si3AgBrO12
_chemical_formula_sum   'Na6 Al6 Si6 Ag2 Br2 O24'
_cell_volume   738.68048391
_cell_formula_units_Z   2
loop_
 _symmetry_equiv_pos_site_id
 _symmetry_equiv_pos_as_xyz
  1  'x, y, z'
loop_
 _atom_site_type_symbol
 _atom_site_label
 _atom_site_symmetry_multiplicity
 _atom_site_fract_x
 _atom_site_fract_y
 _atom_site_fract_z
 _atom_site_occupancy
  Ag  Ag0  1  0.16476740  0.16486087  0.16403534  1
  Ag  Ag1  1  0.33510896  0.33522095  0.66405057  1
  Al  Al2  1  0.00034050  0.49856615  0.25023224  1
  Al  Al3  1  0.25010607  0.00174862  0.49891995  1
  Al  Al4  1  0.50007935  0.75002855  -0.00005477  1
  Al  Al5  1  0.49824885  0.24989667  0.99891696  1
  Al  Al6  1  0.74997450  -0.00007651  0.49993481  1
  Al  Al7  1  0.00144327  0.49964916  0.75023045  1
  Br  Br8  1  0.99745229  0.99735142  0.99923222  1
  Br  Br9  1  0.50274572  0.50263662  0.49914133  1
  Na  Na10  1  0.19075257  0.81172064  0.80920256  1
  Na  Na11  1  0.30918090  0.68916952  0.31017601  1
  Na  Na12  1  0.68826943  0.30926155  0.30920916  1
  Na  Na13  1  0.69048510  0.68972913  0.69064314  1
  Na  Na14  1  0.81081730  0.19083435  0.81016651  1
  Na  Na15  1  0.81026170  0.80950620  0.19065321  1
  O  O16  1  0.05663363  0.34813839  0.64111719  1
  O  O17  1  0.05628196  0.65080245  0.35835650  1
  O  O18  1  0.13811542  0.14952239  0.43957572  1
  O  O19  1  0.14077048  0.85031999  0.55545670  1
  O  O20  1  0.15185169  0.44335064  0.14112248  1
  O  O21  1  0.14800519  0.56054240  0.86213545  1
  O  O22  1  0.35047574  0.36188489  0.93958479  1
  O  O23  1  0.34959844  0.64094504  0.05700058  1
  O  O24  1  0.35895415  0.05632805  0.65106433  1
  O  O25  1  0.36211381  0.94094958  0.35190440  1
  O  O26  1  0.44365676  0.14104357  0.15106283  1
  O  O27  1  0.44362359  0.85819305  0.84845722  1
  O  O28  1  0.55904126  0.13788464  0.85190301  1
  O  O29  1  0.55670618  0.85919636  0.15051595  1
  O  O30  1  0.64179801  0.05637030  0.34844992  1
  O  O31  1  0.64080932  0.94329251  0.65052205  1
  O  O32  1  0.64967444  0.35922234  0.05545637  1
  O  O33  1  0.65160972  0.64152148  0.94393093  1
  O  O34  1  0.84919792  0.44371218  0.85835444  1
  O  O35  1  0.84951533  0.55525259  0.14070542  1
  O  O36  1  0.85904901  0.15038882  0.55700264  1
  O  O37  1  0.85848274  0.84839444  0.44392675  1
  O  O38  1  0.93944668  0.35198919  0.36214004  1
  O  O39  1  0.94474381  0.65048056  0.64071855  1
  Si  Si40  1  -0.00065999  0.25010360  0.49941732  1
  Si  Si41  1  0.24988718  0.50065366  0.99943961  1
  Si  Si42  1  0.50017341  0.00002494  0.75030293  1
  Si  Si43  1  0.49997189  0.99982137  0.25030247  1
  Si  Si44  1  0.75002312  0.49958964  0.99969846  1
  Si  Si45  1  0.00041521  0.74997703  0.49968526  1
