# generated using pymatgen
data_TbPO4
_symmetry_space_group_name_H-M   'P 1'
_cell_length_a   5.80620127
_cell_length_b   5.80620127
_cell_length_c   5.80620127
_cell_angle_alpha   105.92861852
_cell_angle_beta   105.92861842
_cell_angle_gamma   116.81562101
_symmetry_Int_Tables_number   1
_chemical_formula_structural   TbPO4
_chemical_formula_sum   'Tb2 P2 O8'
_cell_volume   148.80009492
_cell_formula_units_Z   2
loop_
 _symmetry_equiv_pos_site_id
 _symmetry_equiv_pos_as_xyz
  1  'x, y, z'
loop_
 _atom_site_type_symbol
 _atom_site_label
 _atom_site_symmetry_multiplicity
 _atom_site_fract_x
 _atom_site_fract_y
 _atom_site_fract_z
 _atom_site_occupancy
  O  O0  1  0.78435532  0.36052580  0.07617048  1
  O  O1  1  0.70818484  0.78435532  0.92382952  1
  O  O2  1  0.36052580  0.78435532  0.57617048  1
  O  O3  1  0.78435532  0.70818484  0.42382952  1
  O  O4  1  0.29181516  0.21564468  0.07617048  1
  O  O5  1  0.21564468  0.63947420  0.92382952  1
  O  O6  1  0.21564468  0.29181516  0.57617048  1
  O  O7  1  0.63947420  0.21564468  0.42382952  1
  P  P8  1  0.37500000  0.62500000  0.75000000  1
  P  P9  1  0.62500000  0.37500000  0.25000000  1
  Tb  Tb10  1  0.12500000  0.87500000  0.25000000  1
  Tb  Tb11  1  0.87500000  0.12500000  0.75000000  1
