# generated using pymatgen
data_Cr2CdS4
_symmetry_space_group_name_H-M   'P 1'
_cell_length_a   7.30109508
_cell_length_b   7.30109508
_cell_length_c   7.30109508
_cell_angle_alpha   60.00000001
_cell_angle_beta   60.00000002
_cell_angle_gamma   59.99999997
_symmetry_Int_Tables_number   1
_chemical_formula_structural   Cr2CdS4
_chemical_formula_sum   'Cr4 Cd2 S8'
_cell_volume   275.20037100
_cell_formula_units_Z   2
loop_
 _symmetry_equiv_pos_site_id
 _symmetry_equiv_pos_as_xyz
  1  'x, y, z'
loop_
 _atom_site_type_symbol
 _atom_site_label
 _atom_site_symmetry_multiplicity
 _atom_site_fract_x
 _atom_site_fract_y
 _atom_site_fract_z
 _atom_site_occupancy
  S  S0  1  0.73380797  0.73380797  0.73380797  1
  S  S1  1  0.26619203  0.26619203  0.70142390  1
  S  S2  1  0.26619203  0.70142390  0.26619203  1
  S  S3  1  0.70142390  0.26619203  0.26619203  1
  S  S4  1  0.73380797  0.29857610  0.73380797  1
  S  S5  1  0.29857610  0.73380797  0.73380797  1
  S  S6  1  0.26619203  0.26619203  0.26619203  1
  S  S7  1  0.73380797  0.73380797  0.29857610  1
  Cr  Cr8  1  0.50000000  0.00000000  0.50000000  1
  Cr  Cr9  1  0.00000000  0.50000000  0.50000000  1
  Cr  Cr10  1  0.50000000  0.50000000  0.00000000  1
  Cr  Cr11  1  0.50000000  0.50000000  0.50000000  1
  Cd  Cd12  1  0.12500000  0.12500000  0.12500000  1
  Cd  Cd13  1  0.87500000  0.87500000  0.87500000  1
