# generated using pymatgen
data_La2(SeO3)3
_symmetry_space_group_name_H-M   'P 1'
_cell_length_a   7.16708939
_cell_length_b   8.57315653
_cell_length_c   14.45654518
_cell_angle_alpha   90.00000000
_cell_angle_beta   90.00000000
_cell_angle_gamma   90.00000000
_symmetry_Int_Tables_number   1
_chemical_formula_structural   La2(SeO3)3
_chemical_formula_sum   'La8 Se12 O36'
_cell_volume   888.27633534
_cell_formula_units_Z   4
loop_
 _symmetry_equiv_pos_site_id
 _symmetry_equiv_pos_as_xyz
  1  'x, y, z'
loop_
 _atom_site_type_symbol
 _atom_site_label
 _atom_site_symmetry_multiplicity
 _atom_site_fract_x
 _atom_site_fract_y
 _atom_site_fract_z
 _atom_site_occupancy
  O  O0  1  0.73942496  0.94294459  0.84564160  1
  O  O1  1  0.23942496  0.55705541  0.15435840  1
  O  O2  1  0.76057504  0.44294459  0.65435840  1
  O  O3  1  0.26057504  0.05705541  0.34564160  1
  O  O4  1  0.26057504  0.05705541  0.15435840  1
  O  O5  1  0.76057504  0.44294459  0.84564160  1
  O  O6  1  0.23942496  0.55705541  0.34564160  1
  O  O7  1  0.73942496  0.94294459  0.65435840  1
  O  O8  1  0.43238986  0.84416969  0.25000000  1
  O  O9  1  0.93238986  0.65583031  0.75000000  1
  O  O10  1  0.06761014  0.34416969  0.25000000  1
  O  O11  1  0.56761014  0.15583031  0.75000000  1
  O  O12  1  0.09097058  0.88033447  0.92268441  1
  O  O13  1  0.59097058  0.61966553  0.07731559  1
  O  O14  1  0.40902942  0.38033447  0.57731559  1
  O  O15  1  0.90902942  0.11966553  0.42268441  1
  O  O16  1  0.02943297  0.19853250  0.59612930  1
  O  O17  1  0.52943297  0.30146750  0.40387070  1
  O  O18  1  0.47056703  0.69853250  0.90387070  1
  O  O19  1  0.97056703  0.80146750  0.09612930  1
  O  O20  1  0.97056703  0.80146750  0.40387070  1
  O  O21  1  0.47056703  0.69853250  0.59612930  1
  O  O22  1  0.52943297  0.30146750  0.09612930  1
  O  O23  1  0.02943297  0.19853250  0.90387070  1
  O  O24  1  0.35007019  0.07457396  0.53914963  1
  O  O25  1  0.85007019  0.42542604  0.46085037  1
  O  O26  1  0.14992981  0.57457396  0.96085037  1
  O  O27  1  0.64992981  0.92542604  0.03914963  1
  O  O28  1  0.64992981  0.92542604  0.46085037  1
  O  O29  1  0.14992981  0.57457396  0.53914963  1
  O  O30  1  0.85007019  0.42542604  0.03914963  1
  O  O31  1  0.35007019  0.07457396  0.96085037  1
  O  O32  1  0.09097058  0.88033447  0.57731559  1
  O  O33  1  0.59097058  0.61966553  0.42268441  1
  O  O34  1  0.40902942  0.38033447  0.92268441  1
  O  O35  1  0.90902942  0.11966553  0.07731559  1
  Se  Se36  1  0.17942557  0.04783393  0.87544493  1
  Se  Se37  1  0.67942557  0.45216607  0.12455507  1
  Se  Se38  1  0.32057443  0.54783393  0.62455507  1
  Se  Se39  1  0.82057443  0.95216607  0.37544493  1
  Se  Se40  1  0.59367840  0.95620202  0.75000000  1
  Se  Se41  1  0.09367840  0.54379798  0.25000000  1
  Se  Se42  1  0.90632160  0.45620202  0.75000000  1
  Se  Se43  1  0.40632160  0.04379798  0.25000000  1
  Se  Se44  1  0.82057443  0.95216607  0.12455507  1
  Se  Se45  1  0.32057443  0.54783393  0.87544493  1
  Se  Se46  1  0.67942557  0.45216607  0.37544493  1
  Se  Se47  1  0.17942557  0.04783393  0.62455507  1
  La  La48  1  0.17912887  0.30025127  0.06388820  1
  La  La49  1  0.67912887  0.19974873  0.93611180  1
  La  La50  1  0.32087113  0.80025127  0.43611180  1
  La  La51  1  0.82087113  0.69974873  0.56388820  1
  La  La52  1  0.82087113  0.69974873  0.93611180  1
  La  La53  1  0.32087113  0.80025127  0.06388820  1
  La  La54  1  0.67912887  0.19974873  0.56388820  1
  La  La55  1  0.17912887  0.30025127  0.43611180  1
