# generated using pymatgen
data_TbAl4Ni
_symmetry_space_group_name_H-M   'P 1'
_cell_length_a   4.06746712
_cell_length_b   6.61164703
_cell_length_c   8.00065089
_cell_angle_alpha   90.00000000
_cell_angle_beta   104.72595039
_cell_angle_gamma   90.00000000
_symmetry_Int_Tables_number   1
_chemical_formula_structural   TbAl4Ni
_chemical_formula_sum   'Tb2 Al8 Ni2'
_cell_volume   208.09137988
_cell_formula_units_Z   2
loop_
 _symmetry_equiv_pos_site_id
 _symmetry_equiv_pos_as_xyz
  1  'x, y, z'
loop_
 _atom_site_type_symbol
 _atom_site_label
 _atom_site_symmetry_multiplicity
 _atom_site_fract_x
 _atom_site_fract_y
 _atom_site_fract_z
 _atom_site_occupancy
  Al  Al0  1  0.68896047  0.44721018  0.37792095  1
  Al  Al1  1  0.31103953  0.55278982  0.62207905  1
  Al  Al2  1  0.31103953  0.94721018  0.62207905  1
  Al  Al3  1  0.68896047  0.05278982  0.37792095  1
  Al  Al4  1  0.50000000  0.00000000  0.00000000  1
  Al  Al5  1  0.50000000  0.50000000  0.00000000  1
  Al  Al6  1  0.07680804  0.25000000  0.15361607  1
  Al  Al7  1  0.92319196  0.75000000  0.84638393  1
  Ni  Ni8  1  0.77366129  0.75000000  0.54732257  1
  Ni  Ni9  1  0.22633871  0.25000000  0.45267743  1
  Tb  Tb10  1  0.11670501  0.75000000  0.23341002  1
  Tb  Tb11  1  0.88329499  0.25000000  0.76658998  1
