# generated using pymatgen
data_K2B2S7
_symmetry_space_group_name_H-M   'P 1'
_cell_length_a   6.98261102
_cell_length_b   8.33589776
_cell_length_c   10.65554992
_cell_angle_alpha   77.93128708
_cell_angle_beta   70.87371501
_cell_angle_gamma   65.23939789
_symmetry_Int_Tables_number   1
_chemical_formula_structural   K2B2S7
_chemical_formula_sum   'K4 B4 S14'
_cell_volume   530.24194935
_cell_formula_units_Z   2
loop_
 _symmetry_equiv_pos_site_id
 _symmetry_equiv_pos_as_xyz
  1  'x, y, z'
loop_
 _atom_site_type_symbol
 _atom_site_label
 _atom_site_symmetry_multiplicity
 _atom_site_fract_x
 _atom_site_fract_y
 _atom_site_fract_z
 _atom_site_occupancy
  B  B0  1  0.84216977  0.61908567  0.14847383  1
  B  B1  1  0.60972926  0.88091433  0.35152617  1
  B  B2  1  0.15783023  0.38091433  0.85152617  1
  B  B3  1  0.39027074  0.11908567  0.64847383  1
  S  S4  1  0.54965468  0.75000000  0.25000000  1
  S  S5  1  0.10025483  0.11780165  0.72742337  1
  S  S6  1  0.94547985  0.38219835  0.77257663  1
  S  S7  1  0.89974517  0.88219835  0.27257663  1
  S  S8  1  0.43295826  0.24881007  0.47765145  1
  S  S9  1  0.45034532  0.25000000  0.75000000  1
  S  S10  1  0.15941979  0.25118993  0.02234855  1
  S  S11  1  0.56704174  0.75118993  0.52234855  1
  S  S12  1  0.84058021  0.74881007  0.97765145  1
  S  S13  1  0.60167067  0.88240404  0.65748183  1
  S  S14  1  0.85844347  0.38240404  0.15748183  1
  S  S15  1  0.39832933  0.11759596  0.34251817  1
  S  S16  1  0.14155653  0.61759596  0.84251817  1
  S  S17  1  0.05452015  0.61780165  0.22742337  1
  K  K18  1  0.66627891  0.18117029  0.02518435  1
  K  K19  1  0.12736646  0.68117029  0.52518435  1
  K  K20  1  0.33372109  0.81882971  0.97481565  1
  K  K21  1  0.87263354  0.31882971  0.47481565  1
