# generated using pymatgen
data_BaAlF5
_symmetry_space_group_name_H-M   'P 1'
_cell_length_a   5.09060859
_cell_length_b   5.68272172
_cell_length_c   13.94057883
_cell_angle_alpha   90.00000000
_cell_angle_beta   90.00000000
_cell_angle_gamma   90.00000000
_symmetry_Int_Tables_number   1
_chemical_formula_structural   BaAlF5
_chemical_formula_sum   'Ba4 Al4 F20'
_cell_volume   403.28020200
_cell_formula_units_Z   4
loop_
 _symmetry_equiv_pos_site_id
 _symmetry_equiv_pos_as_xyz
  1  'x, y, z'
loop_
 _atom_site_type_symbol
 _atom_site_label
 _atom_site_symmetry_multiplicity
 _atom_site_fract_x
 _atom_site_fract_y
 _atom_site_fract_z
 _atom_site_occupancy
  F  F0  1  0.21504413  0.91787950  0.74560519  1
  F  F1  1  0.71504413  0.08212050  0.75439481  1
  F  F2  1  0.28495587  0.41787950  0.25439481  1
  F  F3  1  0.78495587  0.58212050  0.24560519  1
  F  F4  1  0.17599144  0.10300571  0.57552062  1
  F  F5  1  0.67599144  0.89699429  0.92447938  1
  F  F6  1  0.32400856  0.60300571  0.42447938  1
  F  F7  1  0.82400856  0.39699429  0.07552062  1
  F  F8  1  0.17227798  0.85582818  0.27810673  1
  F  F9  1  0.67227798  0.14417182  0.22189327  1
  F  F10  1  0.32772202  0.35582818  0.72189327  1
  F  F11  1  0.82772202  0.64417182  0.77810673  1
  F  F12  1  0.86191356  0.76709170  0.41885622  1
  F  F13  1  0.36191356  0.23290830  0.08114378  1
  F  F14  1  0.63808644  0.26709170  0.58114378  1
  F  F15  1  0.13808644  0.73290830  0.91885622  1
  F  F16  1  0.45303940  0.67722693  0.10923063  1
  F  F17  1  0.95303940  0.32277307  0.39076937  1
  F  F18  1  0.04696060  0.17722693  0.89076937  1
  F  F19  1  0.54696060  0.82277307  0.60923063  1
  Al  Al20  1  0.44222070  0.09362140  0.66359923  1
  Al  Al21  1  0.94222070  0.90637860  0.83640077  1
  Al  Al22  1  0.05777930  0.59362140  0.33640077  1
  Al  Al23  1  0.55777930  0.40637860  0.16359923  1
  Ba  Ba24  1  0.01516021  0.58930734  0.59564583  1
  Ba  Ba25  1  0.51516021  0.41069266  0.90435417  1
  Ba  Ba26  1  0.48483979  0.08930734  0.40435417  1
  Ba  Ba27  1  0.98483979  0.91069266  0.09564583  1
