# generated using pymatgen
data_Cs4U5O17
_symmetry_space_group_name_H-M   'P 1'
_cell_length_a   7.11951114
_cell_length_b   15.39805658
_cell_length_c   19.03863241
_cell_angle_alpha   90.00000000
_cell_angle_beta   90.00000000
_cell_angle_gamma   90.00000000
_symmetry_Int_Tables_number   1
_chemical_formula_structural   Cs4U5O17
_chemical_formula_sum   'Cs16 U20 O68'
_cell_volume   2087.14121288
_cell_formula_units_Z   4
loop_
 _symmetry_equiv_pos_site_id
 _symmetry_equiv_pos_as_xyz
  1  'x, y, z'
loop_
 _atom_site_type_symbol
 _atom_site_label
 _atom_site_symmetry_multiplicity
 _atom_site_fract_x
 _atom_site_fract_y
 _atom_site_fract_z
 _atom_site_occupancy
  O  O0  1  0.89051443  0.21614246  0.41922957  1
  O  O1  1  0.89051443  0.28385754  0.58077043  1
  O  O2  1  0.60948557  0.71614246  0.08077043  1
  O  O3  1  0.60948557  0.78385754  0.91922957  1
  O  O4  1  0.10948557  0.78385754  0.58077043  1
  O  O5  1  0.10948557  0.71614246  0.41922957  1
  O  O6  1  0.39051443  0.28385754  0.91922957  1
  O  O7  1  0.39051443  0.21614246  0.08077043  1
  O  O8  1  0.50715949  0.31159956  0.20697945  1
  O  O9  1  0.50715949  0.18840044  0.79302055  1
  O  O10  1  0.99284051  0.81159956  0.29302055  1
  O  O11  1  0.99284051  0.68840044  0.70697945  1
  O  O12  1  0.49284051  0.68840044  0.79302055  1
  O  O13  1  0.49284051  0.81159956  0.20697945  1
  O  O14  1  0.00715949  0.18840044  0.70697945  1
  O  O15  1  0.00715949  0.31159956  0.29302055  1
  O  O16  1  0.54048516  0.07269270  0.17893274  1
  O  O17  1  0.54048516  0.42730730  0.82106726  1
  O  O18  1  0.95951484  0.57269270  0.32106726  1
  O  O19  1  0.95951484  0.92730730  0.67893274  1
  O  O20  1  0.45951484  0.92730730  0.82106726  1
  O  O21  1  0.45951484  0.57269270  0.17893274  1
  O  O22  1  0.04048516  0.42730730  0.67893274  1
  O  O23  1  0.04048516  0.07269270  0.32106726  1
  O  O24  1  0.62762272  0.36461735  0.02933762  1
  O  O25  1  0.23857681  0.78987404  0.88431179  1
  O  O26  1  0.62762272  0.13538265  0.97066238  1
  O  O27  1  0.87237728  0.63538265  0.52933762  1
  O  O28  1  0.37237728  0.63538265  0.97066238  1
  O  O29  1  0.37237728  0.86461735  0.02933762  1
  O  O30  1  0.12762272  0.13538265  0.52933762  1
  O  O31  1  0.12762272  0.36461735  0.47066238  1
  O  O32  1  0.76142319  0.21012596  0.11568821  1
  O  O33  1  0.76142319  0.28987404  0.88431179  1
  O  O34  1  0.73857681  0.71012596  0.38431179  1
  O  O35  1  0.73857681  0.78987404  0.61568821  1
  O  O36  1  0.96051962  0.25000000  0.00000000  1
  O  O37  1  0.53948038  0.75000000  0.50000000  1
  O  O38  1  0.03948038  0.75000000  0.00000000  1
  O  O39  1  0.46051962  0.25000000  0.50000000  1
  O  O40  1  0.07277332  0.09360771  0.08027049  1
  O  O41  1  0.07277332  0.40639229  0.91972951  1
  O  O42  1  0.42722668  0.59360771  0.41972951  1
  O  O43  1  0.42722668  0.90639229  0.58027049  1
  O  O44  1  0.92722668  0.90639229  0.91972951  1
  O  O45  1  0.92722668  0.59360771  0.08027049  1
  O  O46  1  0.57277332  0.40639229  0.58027049  1
  O  O47  1  0.57277332  0.09360771  0.41972951  1
  O  O48  1  0.08056244  0.32950053  0.12708013  1
  O  O49  1  0.08056244  0.17049947  0.87291987  1
  O  O50  1  0.41943756  0.82950053  0.37291987  1
  O  O51  1  0.41943756  0.67049947  0.62708013  1
  O  O52  1  0.91943756  0.67049947  0.87291987  1
  O  O53  1  0.91943756  0.82950053  0.12708013  1
  O  O54  1  0.58056244  0.17049947  0.62708013  1
  O  O55  1  0.58056244  0.32950053  0.37291987  1
  O  O56  1  0.20372662  0.17996497  0.21001480  1
  O  O57  1  0.20372662  0.32003503  0.78998520  1
  O  O58  1  0.29627338  0.67996497  0.28998520  1
  O  O59  1  0.29627338  0.82003503  0.71001480  1
  O  O60  1  0.79627338  0.82003503  0.78998520  1
  O  O61  1  0.79627338  0.67996497  0.21001480  1
  O  O62  1  0.70372662  0.32003503  0.71001480  1
  O  O63  1  0.70372662  0.17996497  0.28998520  1
  O  O64  1  0.26142319  0.21012596  0.38431179  1
  O  O65  1  0.26142319  0.28987404  0.61568821  1
  O  O66  1  0.23857681  0.71012596  0.11568821  1
  O  O67  1  0.87237728  0.86461735  0.47066238  1
  Cs  Cs68  1  0.29948920  0.45026929  0.30846799  1
  Cs  Cs69  1  0.29948920  0.04973071  0.69153201  1
  Cs  Cs70  1  0.20051080  0.95026929  0.19153201  1
  Cs  Cs71  1  0.20051080  0.54973071  0.80846799  1
  Cs  Cs72  1  0.70051080  0.54973071  0.69153201  1
  Cs  Cs73  1  0.70051080  0.95026929  0.30846799  1
  Cs  Cs74  1  0.79948920  0.04973071  0.80846799  1
  Cs  Cs75  1  0.79948920  0.45026929  0.19153201  1
  Cs  Cs76  1  0.27015638  0.47543909  0.05701404  1
  Cs  Cs77  1  0.27015638  0.02456091  0.94298596  1
  Cs  Cs78  1  0.22984362  0.97543909  0.44298596  1
  Cs  Cs79  1  0.22984362  0.52456091  0.55701404  1
  Cs  Cs80  1  0.72984362  0.52456091  0.94298596  1
  Cs  Cs81  1  0.72984362  0.97543909  0.05701404  1
  Cs  Cs82  1  0.77015638  0.02456091  0.55701404  1
  Cs  Cs83  1  0.77015638  0.47543909  0.44298596  1
  U  U84  1  0.62644273  0.25000000  0.00000000  1
  U  U85  1  0.87355727  0.75000000  0.50000000  1
  U  U86  1  0.37355727  0.75000000  0.00000000  1
  U  U87  1  0.12644273  0.25000000  0.50000000  1
  U  U88  1  0.07540949  0.21240393  0.10281904  1
  U  U89  1  0.07540949  0.28759607  0.89718096  1
  U  U90  1  0.42459051  0.71240393  0.39718096  1
  U  U91  1  0.42459051  0.78759607  0.60281904  1
  U  U92  1  0.92459051  0.78759607  0.89718096  1
  U  U93  1  0.92459051  0.71240393  0.10281904  1
  U  U94  1  0.57540949  0.28759607  0.60281904  1
  U  U95  1  0.57540949  0.21240393  0.39718096  1
  U  U96  1  0.02573681  0.19372377  0.31146557  1
  U  U97  1  0.02573681  0.30627623  0.68853443  1
  U  U98  1  0.47426319  0.69372377  0.18853443  1
  U  U99  1  0.47426319  0.80627623  0.81146557  1
  U  U100  1  0.97426319  0.80627623  0.68853443  1
  U  U101  1  0.97426319  0.69372377  0.31146557  1
  U  U102  1  0.52573681  0.30627623  0.81146557  1
  U  U103  1  0.52573681  0.19372377  0.18853443  1
