# generated using pymatgen
data_La(CoP)2
_symmetry_space_group_name_H-M   'P 1'
_cell_length_a   3.73257652
_cell_length_b   3.73257682
_cell_length_c   6.28409680
_cell_angle_alpha   106.84034468
_cell_angle_beta   106.84034978
_cell_angle_gamma   90.18742065
_symmetry_Int_Tables_number   1
_chemical_formula_structural   La(CoP)2
_chemical_formula_sum   'La1 Co2 P2'
_cell_volume   79.83855780
_cell_formula_units_Z   1
loop_
 _symmetry_equiv_pos_site_id
 _symmetry_equiv_pos_as_xyz
  1  'x, y, z'
loop_
 _atom_site_type_symbol
 _atom_site_label
 _atom_site_symmetry_multiplicity
 _atom_site_fract_x
 _atom_site_fract_y
 _atom_site_fract_z
 _atom_site_occupancy
  La  La0  1  0.00000000  0.00000000  0.00000000  1
  Co  Co1  1  0.25093476  0.74906524  0.50000000  1
  Co  Co2  1  0.74906524  0.25093476  0.50000000  1
  P  P3  1  0.35310265  0.35310265  0.70832091  1
  P  P4  1  0.64689735  0.64689735  0.29167909  1
