# generated using pymatgen
data_Sr(AsRu)2
_symmetry_space_group_name_H-M   'P 1'
_cell_length_a   4.21694637
_cell_length_b   4.21694637
_cell_length_c   6.40376451
_cell_angle_alpha   109.22357941
_cell_angle_beta   109.22357939
_cell_angle_gamma   89.99999994
_symmetry_Int_Tables_number   1
_chemical_formula_structural   Sr(AsRu)2
_chemical_formula_sum   'Sr1 As2 Ru2'
_cell_volume   100.77732823
_cell_formula_units_Z   1
loop_
 _symmetry_equiv_pos_site_id
 _symmetry_equiv_pos_as_xyz
  1  'x, y, z'
loop_
 _atom_site_type_symbol
 _atom_site_label
 _atom_site_symmetry_multiplicity
 _atom_site_fract_x
 _atom_site_fract_y
 _atom_site_fract_z
 _atom_site_occupancy
  As  As0  1  0.64141930  0.64141930  0.28283859  1
  As  As1  1  0.35858070  0.35858070  0.71716141  1
  Sr  Sr2  1  0.00000000  0.00000000  0.00000000  1
  Ru  Ru3  1  0.75000000  0.25000000  0.50000000  1
  Ru  Ru4  1  0.25000000  0.75000000  0.50000000  1
