# generated using pymatgen
data_TbScGe
_symmetry_space_group_name_H-M   'P 1'
_cell_length_a   4.25241152
_cell_length_b   4.25241152
_cell_length_c   8.36418618
_cell_angle_alpha   104.72639641
_cell_angle_beta   104.72639645
_cell_angle_gamma   90.00000004
_symmetry_Int_Tables_number   1
_chemical_formula_structural   TbScGe
_chemical_formula_sum   'Tb2 Sc2 Ge2'
_cell_volume   141.13794092
_cell_formula_units_Z   2
loop_
 _symmetry_equiv_pos_site_id
 _symmetry_equiv_pos_as_xyz
  1  'x, y, z'
loop_
 _atom_site_type_symbol
 _atom_site_label
 _atom_site_symmetry_multiplicity
 _atom_site_fract_x
 _atom_site_fract_y
 _atom_site_fract_z
 _atom_site_occupancy
  Sc  Sc0  1  0.00000000  0.50000000  0.00000000  1
  Sc  Sc1  1  0.50000000  0.00000000  0.00000000  1
  Ge  Ge2  1  0.12825507  0.12825507  0.25651015  1
  Ge  Ge3  1  0.87174493  0.87174493  0.74348985  1
  Tb  Tb4  1  0.67674053  0.67674053  0.35348106  1
  Tb  Tb5  1  0.32325947  0.32325947  0.64651894  1
