# generated using pymatgen
data_Al2(SO4)3
_symmetry_space_group_name_H-M   'P 1'
_cell_length_a   8.61411676
_cell_length_b   8.61411676
_cell_length_c   8.61411676
_cell_angle_alpha   56.40408938
_cell_angle_beta   56.40408934
_cell_angle_gamma   56.40408939
_symmetry_Int_Tables_number   1
_chemical_formula_structural   Al2(SO4)3
_chemical_formula_sum   'Al4 S6 O24'
_cell_volume   414.39514877
_cell_formula_units_Z   2
loop_
 _symmetry_equiv_pos_site_id
 _symmetry_equiv_pos_as_xyz
  1  'x, y, z'
loop_
 _atom_site_type_symbol
 _atom_site_label
 _atom_site_symmetry_multiplicity
 _atom_site_fract_x
 _atom_site_fract_y
 _atom_site_fract_z
 _atom_site_occupancy
  O  O0  1  0.54925110  0.18772641  0.47044964  1
  O  O1  1  0.18772641  0.47044964  0.54925110  1
  O  O2  1  0.47044964  0.54925110  0.18772641  1
  O  O3  1  0.45074890  0.81227359  0.52955036  1
  O  O4  1  0.81227359  0.52955036  0.45074890  1
  O  O5  1  0.52955036  0.45074890  0.81227359  1
  O  O6  1  0.89934246  0.10689352  0.26668302  1
  O  O7  1  0.10689352  0.26668302  0.89934246  1
  O  O8  1  0.26668302  0.89934246  0.10689352  1
  O  O9  1  0.10065754  0.89310648  0.73331698  1
  O  O10  1  0.37713837  0.20953964  0.99158606  1
  O  O11  1  0.99158606  0.37713837  0.20953964  1
  O  O12  1  0.20953964  0.99158606  0.37713837  1
  O  O13  1  0.62286163  0.79046036  0.00841394  1
  O  O14  1  0.00841394  0.62286163  0.79046036  1
  O  O15  1  0.79046036  0.00841394  0.62286163  1
  O  O16  1  0.51894078  0.23230865  0.15391421  1
  O  O17  1  0.15391421  0.51894078  0.23230865  1
  O  O18  1  0.23230865  0.15391421  0.51894078  1
  O  O19  1  0.48105922  0.76769135  0.84608579  1
  O  O20  1  0.84608579  0.48105922  0.76769135  1
  O  O21  1  0.76769135  0.84608579  0.48105922  1
  O  O22  1  0.73331698  0.10065754  0.89310648  1
  O  O23  1  0.89310648  0.73331698  0.10065754  1
  Al  Al24  1  0.14419133  0.14419133  0.14419133  1
  Al  Al25  1  0.85580867  0.85580867  0.85580867  1
  Al  Al26  1  0.35166323  0.35166323  0.35166323  1
  Al  Al27  1  0.64833677  0.64833677  0.64833677  1
  S  S28  1  0.96332065  0.53926304  0.24867450  1
  S  S29  1  0.53926304  0.24867450  0.96332065  1
  S  S30  1  0.24867450  0.96332065  0.53926304  1
  S  S31  1  0.46073696  0.75132550  0.03667935  1
  S  S32  1  0.03667935  0.46073696  0.75132550  1
  S  S33  1  0.75132550  0.03667935  0.46073696  1
