# generated using pymatgen
data_CaSO4
_symmetry_space_group_name_H-M   'P 1'
_cell_length_a   4.74450865
_cell_length_b   4.74450864
_cell_length_c   7.09405654
_cell_angle_alpha   90.00000000
_cell_angle_beta   90.00000000
_cell_angle_gamma   96.93140159
_symmetry_Int_Tables_number   1
_chemical_formula_structural   CaSO4
_chemical_formula_sum   'Ca2 S2 O8'
_cell_volume   158.52266614
_cell_formula_units_Z   2
loop_
 _symmetry_equiv_pos_site_id
 _symmetry_equiv_pos_as_xyz
  1  'x, y, z'
loop_
 _atom_site_type_symbol
 _atom_site_label
 _atom_site_symmetry_multiplicity
 _atom_site_fract_x
 _atom_site_fract_y
 _atom_site_fract_z
 _atom_site_occupancy
  O  O0  1  0.15289765  0.81500765  0.75000000  1
  O  O1  1  0.84710235  0.18499235  0.25000000  1
  O  O2  1  0.81500765  0.15289765  0.75000000  1
  O  O3  1  0.18499235  0.84710235  0.25000000  1
  O  O4  1  0.29895665  0.29895665  0.08226062  1
  O  O5  1  0.70104335  0.70104335  0.58226062  1
  O  O6  1  0.29895665  0.29895665  0.41773938  1
  O  O7  1  0.70104335  0.70104335  0.91773938  1
  S  S8  1  0.84380649  0.84380649  0.75000000  1
  S  S9  1  0.15619351  0.15619351  0.25000000  1
  Ca  Ca10  1  0.34845132  0.34845132  0.75000000  1
  Ca  Ca11  1  0.65154868  0.65154868  0.25000000  1
