# generated using pymatgen
data_Ho6FeSb2
_symmetry_space_group_name_H-M   'P 1'
_cell_length_a   8.18433139
_cell_length_b   8.18433138
_cell_length_c   4.12875324
_cell_angle_alpha   90.00000000
_cell_angle_beta   90.00000000
_cell_angle_gamma   119.99999999
_symmetry_Int_Tables_number   1
_chemical_formula_structural   Ho6FeSb2
_chemical_formula_sum   'Ho6 Fe1 Sb2'
_cell_volume   239.50576458
_cell_formula_units_Z   1
loop_
 _symmetry_equiv_pos_site_id
 _symmetry_equiv_pos_as_xyz
  1  'x, y, z'
loop_
 _atom_site_type_symbol
 _atom_site_label
 _atom_site_symmetry_multiplicity
 _atom_site_fract_x
 _atom_site_fract_y
 _atom_site_fract_z
 _atom_site_occupancy
  Fe  Fe0  1  0.00000000  0.00000000  0.50000000  1
  Sb  Sb1  1  0.33333333  0.66666667  0.00000000  1
  Sb  Sb2  1  0.66666667  0.33333333  0.00000000  1
  Ho  Ho3  1  0.23415046  0.00000000  0.00000000  1
  Ho  Ho4  1  0.76584954  0.76584954  0.00000000  1
  Ho  Ho5  1  0.00000000  0.23415046  0.00000000  1
  Ho  Ho6  1  0.60252768  0.00000000  0.50000000  1
  Ho  Ho7  1  0.39747232  0.39747232  0.50000000  1
  Ho  Ho8  1  0.00000000  0.60252768  0.50000000  1
