# generated using pymatgen
data_Li2Fe(PO4)2
_symmetry_space_group_name_H-M   'P 1'
_cell_length_a   8.54858425
_cell_length_b   10.39187683
_cell_length_c   8.69252684
_cell_angle_alpha   90.00000000
_cell_angle_beta   107.14346185
_cell_angle_gamma   90.00000000
_symmetry_Int_Tables_number   1
_chemical_formula_structural   Li2Fe(PO4)2
_chemical_formula_sum   'Li8 Fe4 P8 O32'
_cell_volume   737.89844495
_cell_formula_units_Z   4
loop_
 _symmetry_equiv_pos_site_id
 _symmetry_equiv_pos_as_xyz
  1  'x, y, z'
loop_
 _atom_site_type_symbol
 _atom_site_label
 _atom_site_symmetry_multiplicity
 _atom_site_fract_x
 _atom_site_fract_y
 _atom_site_fract_z
 _atom_site_occupancy
  Li  Li0  1  0.10023724  0.67599958  0.61065938  1
  Li  Li1  1  0.89976211  0.32400043  0.38934072  1
  Li  Li2  1  0.83545206  0.86019461  0.36984612  1
  Li  Li3  1  0.66454867  0.36019411  0.63015473  1
  Li  Li4  1  0.60023735  0.82399994  0.61065862  1
  Li  Li5  1  0.16454853  0.13980540  0.63015432  1
  Li  Li6  1  0.33545192  0.63980589  0.36984571  1
  Li  Li7  1  0.39976197  0.17600006  0.38934031  1
  O  O8  1  0.19215304  0.10403060  0.41076573  1
  O  O9  1  0.03047577  0.53694979  0.72027513  1
  O  O10  1  0.93526964  0.68339737  0.39648883  1
  O  O11  1  0.99955032  0.93379229  0.24208695  1
  O  O12  1  0.00045026  0.06620772  0.75791350  1
  O  O13  1  0.06472968  0.31660263  0.60351010  1
  O  O14  1  0.96952359  0.46305022  0.27972496  1
  O  O15  1  0.10546412  0.85726074  0.67668411  1
  O  O16  1  0.20466230  0.36210924  0.89746582  1
  O  O17  1  0.05362557  0.13914389  0.11237232  1
  O  O18  1  0.09987665  0.66132392  0.19966731  1
  O  O19  1  0.50045040  0.43379179  0.75791391  1
  O  O20  1  0.30784740  0.60403109  0.58923431  1
  O  O21  1  0.40012257  0.16132343  0.80033238  1
  O  O22  1  0.44637487  0.63914439  0.88762772  1
  O  O23  1  0.79533706  0.63789076  0.10253428  1
  O  O24  1  0.39453509  0.35726025  0.32331557  1
  O  O25  1  0.53047563  0.96305071  0.72027472  1
  O  O26  1  0.89453524  0.14273926  0.32331598  1
  O  O27  1  0.43526954  0.81660215  0.39648959  1
  O  O28  1  0.56472982  0.18339786  0.60351051  1
  O  O29  1  0.49955018  0.56620821  0.24208654  1
  O  O30  1  0.46952369  0.03694930  0.27972420  1
  O  O31  1  0.60546422  0.64273976  0.67668335  1
  O  O32  1  0.70466244  0.13789125  0.89746623  1
  O  O33  1  0.55362572  0.36085562  0.11237273  1
  O  O34  1  0.59987679  0.83867658  0.19966772  1
  O  O35  1  0.69215315  0.39596891  0.41076497  1
  O  O36  1  0.80784631  0.89596941  0.58923437  1
  O  O37  1  0.90012267  0.33867609  0.80033161  1
  O  O38  1  0.94637498  0.86085611  0.88762696  1
  O  O39  1  0.29533691  0.86210876  0.10253387  1
  P  P40  1  0.55114412  0.10655832  0.74950481  1
  P  P41  1  0.44885646  0.89344168  0.25049563  1
  P  P42  1  0.53446664  0.41729374  0.27230027  1
  P  P43  1  0.96553282  0.91729325  0.72769907  1
  P  P44  1  0.05114398  0.39344217  0.74950440  1
  P  P45  1  0.03446653  0.08270675  0.27230103  1
  P  P46  1  0.46553268  0.58270627  0.72769866  1
  P  P47  1  0.94885660  0.60655783  0.25049605  1
  Fe  Fe48  1  0.92123626  0.17235241  0.90196894  1
  Fe  Fe49  1  0.57876323  0.67235290  0.09803156  1
  Fe  Fe50  1  0.42123735  0.32764710  0.90196888  1
  Fe  Fe51  1  0.07876309  0.82764760  0.09803115  1
