# generated using pymatgen
data_Li4SeO5
_symmetry_space_group_name_H-M   'P 1'
_cell_length_a   5.29568604
_cell_length_b   5.29568603
_cell_length_c   7.95303255
_cell_angle_alpha   83.25207708
_cell_angle_beta   83.25207711
_cell_angle_gamma   66.85740559
_symmetry_Int_Tables_number   1
_chemical_formula_structural   Li4SeO5
_chemical_formula_sum   'Li8 Se2 O10'
_cell_volume   203.04639581
_cell_formula_units_Z   2
loop_
 _symmetry_equiv_pos_site_id
 _symmetry_equiv_pos_as_xyz
  1  'x, y, z'
loop_
 _atom_site_type_symbol
 _atom_site_label
 _atom_site_symmetry_multiplicity
 _atom_site_fract_x
 _atom_site_fract_y
 _atom_site_fract_z
 _atom_site_occupancy
  Li  Li0  1  0.36207992  0.03492257  0.35385522  1
  Li  Li1  1  0.96507743  0.63792008  0.14614478  1
  Li  Li2  1  0.56791558  0.22302511  0.94334851  1
  Li  Li3  1  0.77697489  0.43208442  0.55665149  1
  Li  Li4  1  0.43208442  0.77697489  0.05665149  1
  Li  Li5  1  0.22302511  0.56791558  0.44334851  1
  Li  Li6  1  0.63792008  0.96507743  0.64614478  1
  Li  Li7  1  0.03492257  0.36207992  0.85385522  1
  O  O8  1  0.00549654  0.34972943  0.33988685  1
  O  O9  1  0.65027057  0.99450346  0.16011315  1
  O  O10  1  0.87161437  0.12838563  0.75000000  1
  O  O11  1  0.12838563  0.87161437  0.25000000  1
  O  O12  1  0.41084541  0.76698827  0.57347929  1
  O  O13  1  0.23301173  0.58915459  0.92652071  1
  O  O14  1  0.58915459  0.23301173  0.42652071  1
  O  O15  1  0.76698827  0.41084541  0.07347929  1
  O  O16  1  0.34972943  0.00549654  0.83988685  1
  O  O17  1  0.99450346  0.65027057  0.66011315  1
  Se  Se18  1  0.82795713  0.17204287  0.25000000  1
  Se  Se19  1  0.17204287  0.82795713  0.75000000  1
