# generated using pymatgen
data_Ta2Pt3Se8
_symmetry_space_group_name_H-M   'P 1'
_cell_length_a   3.61757604
_cell_length_b   11.20904094
_cell_length_c   15.44409340
_cell_angle_alpha   90.00000000
_cell_angle_beta   90.00000000
_cell_angle_gamma   90.00000000
_symmetry_Int_Tables_number   1
_chemical_formula_structural   Ta2Pt3Se8
_chemical_formula_sum   'Ta4 Pt6 Se16'
_cell_volume   626.25116009
_cell_formula_units_Z   2
loop_
 _symmetry_equiv_pos_site_id
 _symmetry_equiv_pos_as_xyz
  1  'x, y, z'
loop_
 _atom_site_type_symbol
 _atom_site_label
 _atom_site_symmetry_multiplicity
 _atom_site_fract_x
 _atom_site_fract_y
 _atom_site_fract_z
 _atom_site_occupancy
  Se  Se0  1  0.50000000  0.92604809  0.37207964  1
  Se  Se1  1  0.50000000  0.07395191  0.62792036  1
  Se  Se2  1  0.50000000  0.42604809  0.12792036  1
  Se  Se3  1  0.50000000  0.57395191  0.87207964  1
  Se  Se4  1  0.50000000  0.72695533  0.20760543  1
  Se  Se5  1  0.50000000  0.27304467  0.79239457  1
  Se  Se6  1  0.50000000  0.22695533  0.29239457  1
  Se  Se7  1  0.50000000  0.77304467  0.70760543  1
  Se  Se8  1  0.00000000  0.52617030  0.34138397  1
  Se  Se9  1  0.00000000  0.47382970  0.65861603  1
  Se  Se10  1  0.00000000  0.77970029  0.99719347  1
  Se  Se11  1  0.00000000  0.22029971  0.00280653  1
  Se  Se12  1  0.00000000  0.27970029  0.50280653  1
  Se  Se13  1  0.00000000  0.72029971  0.49719347  1
  Se  Se14  1  0.00000000  0.97382970  0.84138397  1
  Se  Se15  1  0.00000000  0.02617030  0.15861603  1
  Ta  Ta16  1  0.50000000  0.69456311  0.37377003  1
  Ta  Ta17  1  0.50000000  0.30543689  0.62622997  1
  Ta  Ta18  1  0.50000000  0.19456311  0.12622997  1
  Ta  Ta19  1  0.50000000  0.80543689  0.87377003  1
  Pt  Pt20  1  0.00000000  0.84903941  0.27550848  1
  Pt  Pt21  1  0.00000000  0.15096059  0.72449152  1
  Pt  Pt22  1  0.00000000  0.34903941  0.22449152  1
  Pt  Pt23  1  0.00000000  0.65096059  0.77550848  1
  Pt  Pt24  1  0.00000000  0.50000000  0.50000000  1
  Pt  Pt25  1  0.00000000  0.00000000  0.00000000  1
