# generated using pymatgen
data_LaTaO4
_symmetry_space_group_name_H-M   'P 1'
_cell_length_a   5.59302088
_cell_length_b   7.76694255
_cell_length_c   7.86197711
_cell_angle_alpha   101.12778307
_cell_angle_beta   90.00000000
_cell_angle_gamma   90.00000000
_symmetry_Int_Tables_number   1
_chemical_formula_structural   LaTaO4
_chemical_formula_sum   'La4 Ta4 O16'
_cell_volume   335.10853665
_cell_formula_units_Z   4
loop_
 _symmetry_equiv_pos_site_id
 _symmetry_equiv_pos_as_xyz
  1  'x, y, z'
loop_
 _atom_site_type_symbol
 _atom_site_label
 _atom_site_symmetry_multiplicity
 _atom_site_fract_x
 _atom_site_fract_y
 _atom_site_fract_z
 _atom_site_occupancy
  O  O0  1  0.50702418  0.66676307  0.13497408  1
  O  O1  1  0.00702418  0.33323693  0.36502592  1
  O  O2  1  0.49297582  0.33323693  0.86502592  1
  O  O3  1  0.99297582  0.66676307  0.63497408  1
  O  O4  1  0.98323380  0.61845284  0.16943354  1
  O  O5  1  0.48323380  0.38154716  0.33056646  1
  O  O6  1  0.01676620  0.38154716  0.83056646  1
  O  O7  1  0.51676620  0.61845284  0.66943354  1
  O  O8  1  0.83759428  0.83076052  0.94696301  1
  O  O9  1  0.33759428  0.16923948  0.55303699  1
  O  O10  1  0.16240572  0.16923948  0.05303699  1
  O  O11  1  0.66240572  0.83076052  0.44696301  1
  O  O12  1  0.41820322  0.94795590  0.79083465  1
  O  O13  1  0.91820322  0.05204410  0.70916535  1
  O  O14  1  0.58179678  0.05204410  0.20916535  1
  O  O15  1  0.08179678  0.94795590  0.29083465  1
  La  La16  1  0.22523202  0.65203321  0.90022134  1
  La  La17  1  0.72523202  0.34796679  0.59977866  1
  La  La18  1  0.77476798  0.34796679  0.09977866  1
  La  La19  1  0.27476798  0.65203321  0.40022134  1
  Ta  Ta20  1  0.73460861  0.83385688  0.69508165  1
  Ta  Ta21  1  0.23460861  0.16614312  0.80491835  1
  Ta  Ta22  1  0.26539139  0.16614312  0.30491835  1
  Ta  Ta23  1  0.76539139  0.83385688  0.19508165  1
