# generated using pymatgen
data_UPS
_symmetry_space_group_name_H-M   'P 1'
_cell_length_a   3.76291256
_cell_length_b   3.76291256
_cell_length_c   7.96303735
_cell_angle_alpha   90.00000000
_cell_angle_beta   90.00000000
_cell_angle_gamma   90.00000000
_symmetry_Int_Tables_number   1
_chemical_formula_structural   UPS
_chemical_formula_sum   'U2 P2 S2'
_cell_volume   112.75271443
_cell_formula_units_Z   2
loop_
 _symmetry_equiv_pos_site_id
 _symmetry_equiv_pos_as_xyz
  1  'x, y, z'
loop_
 _atom_site_type_symbol
 _atom_site_label
 _atom_site_symmetry_multiplicity
 _atom_site_fract_x
 _atom_site_fract_y
 _atom_site_fract_z
 _atom_site_occupancy
  P  P0  1  0.75000000  0.25000000  0.00000000  1
  P  P1  1  0.25000000  0.75000000  0.00000000  1
  S  S2  1  0.25000000  0.25000000  0.36320332  1
  S  S3  1  0.75000000  0.75000000  0.63679668  1
  U  U4  1  0.75000000  0.75000000  0.27775476  1
  U  U5  1  0.25000000  0.25000000  0.72224524  1
