# generated using pymatgen
data_Er(MnGe)2
_symmetry_space_group_name_H-M   'P 1'
_cell_length_a   3.91830979
_cell_length_b   3.91830979
_cell_length_c   6.08850436
_cell_angle_alpha   108.77056577
_cell_angle_beta   108.77056579
_cell_angle_gamma   90.00000003
_symmetry_Int_Tables_number   1
_chemical_formula_structural   Er(MnGe)2
_chemical_formula_sum   'Er1 Mn2 Ge2'
_cell_volume   83.23802788
_cell_formula_units_Z   1
loop_
 _symmetry_equiv_pos_site_id
 _symmetry_equiv_pos_as_xyz
  1  'x, y, z'
loop_
 _atom_site_type_symbol
 _atom_site_label
 _atom_site_symmetry_multiplicity
 _atom_site_fract_x
 _atom_site_fract_y
 _atom_site_fract_z
 _atom_site_occupancy
  Mn  Mn0  1  0.25000000  0.75000000  0.50000000  1
  Mn  Mn1  1  0.75000000  0.25000000  0.50000000  1
  Ge  Ge2  1  0.61805711  0.61805711  0.23611422  1
  Ge  Ge3  1  0.38194289  0.38194289  0.76388578  1
  Er  Er4  1  0.00000000  0.00000000  0.00000000  1
