# generated using pymatgen
data_CuSbS2
_symmetry_space_group_name_H-M   'P 1'
_cell_length_a   3.82490859
_cell_length_b   6.11957047
_cell_length_c   14.44988482
_cell_angle_alpha   90.00000000
_cell_angle_beta   90.00000000
_cell_angle_gamma   90.00000000
_symmetry_Int_Tables_number   1
_chemical_formula_structural   CuSbS2
_chemical_formula_sum   'Cu4 Sb4 S8'
_cell_volume   338.22553016
_cell_formula_units_Z   4
loop_
 _symmetry_equiv_pos_site_id
 _symmetry_equiv_pos_as_xyz
  1  'x, y, z'
loop_
 _atom_site_type_symbol
 _atom_site_label
 _atom_site_symmetry_multiplicity
 _atom_site_fract_x
 _atom_site_fract_y
 _atom_site_fract_z
 _atom_site_occupancy
  S  S0  1  0.25000000  0.12677244  0.40317137  1
  S  S1  1  0.75000000  0.87322756  0.59682863  1
  S  S2  1  0.25000000  0.62677244  0.09682863  1
  S  S3  1  0.75000000  0.37322756  0.90317137  1
  S  S4  1  0.75000000  0.62606088  0.32265979  1
  S  S5  1  0.25000000  0.87393912  0.82265979  1
  S  S6  1  0.75000000  0.12606088  0.17734021  1
  S  S7  1  0.25000000  0.37393912  0.67734021  1
  Cu  Cu8  1  0.25000000  0.24885158  0.82808364  1
  Cu  Cu9  1  0.25000000  0.74885158  0.67191636  1
  Cu  Cu10  1  0.75000000  0.75114842  0.17191636  1
  Cu  Cu11  1  0.75000000  0.25114842  0.32808364  1
  Sb  Sb12  1  0.25000000  0.72927769  0.43800370  1
  Sb  Sb13  1  0.75000000  0.27072231  0.56199630  1
  Sb  Sb14  1  0.25000000  0.22927769  0.06199630  1
  Sb  Sb15  1  0.75000000  0.77072231  0.93800370  1
