# generated using pymatgen
data_La2Mo2O7
_symmetry_space_group_name_H-M   'P 1'
_cell_length_a   4.00693507
_cell_length_b   6.10335472
_cell_length_c   12.39231975
_cell_angle_alpha   90.00000000
_cell_angle_beta   90.00000000
_cell_angle_gamma   90.00000000
_symmetry_Int_Tables_number   1
_chemical_formula_structural   La2Mo2O7
_chemical_formula_sum   'La4 Mo4 O14'
_cell_volume   303.06342505
_cell_formula_units_Z   2
loop_
 _symmetry_equiv_pos_site_id
 _symmetry_equiv_pos_as_xyz
  1  'x, y, z'
loop_
 _atom_site_type_symbol
 _atom_site_label
 _atom_site_symmetry_multiplicity
 _atom_site_fract_x
 _atom_site_fract_y
 _atom_site_fract_z
 _atom_site_occupancy
  O  O0  1  0.49999946  0.26794512  0.04302574  1
  O  O1  1  0.49999946  0.73205599  0.95697499  1
  O  O2  1  0.00000000  0.76794403  0.45697422  1
  O  O3  1  0.00000000  0.23205544  0.54302570  1
  O  O4  1  0.49999946  0.11545502  0.38257584  1
  O  O5  1  0.49999946  0.88454445  0.61742408  1
  O  O6  1  0.00000000  0.61545558  0.11742412  1
  O  O7  1  0.00000000  0.38454389  0.88257580  1
  O  O8  1  0.00000000  0.00000000  0.00000000  1
  O  O9  1  0.49999946  0.50000056  0.49999996  1
  O  O10  1  0.00000000  0.14967749  0.20219525  1
  O  O11  1  0.49999946  0.35032307  0.70219521  1
  O  O12  1  0.49999946  0.64967805  0.29780471  1
  O  O13  1  0.00000000  0.85032198  0.79780467  1
  Mo  Mo14  1  0.49999946  0.18597744  0.55169715  1
  Mo  Mo15  1  0.49999946  0.81402368  0.44830277  1
  Mo  Mo16  1  0.00000000  0.68597635  0.94830273  1
  Mo  Mo17  1  0.00000000  0.31402312  0.05169719  1
  La  La18  1  0.49999946  0.09504918  0.84359367  1
  La  La19  1  0.49999946  0.90495029  0.15640625  1
  La  La20  1  0.00000000  0.59504974  0.65640621  1
  La  La21  1  0.00000000  0.40495138  0.34359371  1
