# generated using pymatgen
data_Li2SO4
_symmetry_space_group_name_H-M   'P 1'
_cell_length_a   5.02946244
_cell_length_b   8.38130137
_cell_length_c   8.58567855
_cell_angle_alpha   107.66707575
_cell_angle_beta   90.00000000
_cell_angle_gamma   90.00000000
_symmetry_Int_Tables_number   1
_chemical_formula_structural   Li2SO4
_chemical_formula_sum   'Li8 S4 O16'
_cell_volume   344.84650024
_cell_formula_units_Z   4
loop_
 _symmetry_equiv_pos_site_id
 _symmetry_equiv_pos_as_xyz
  1  'x, y, z'
loop_
 _atom_site_type_symbol
 _atom_site_label
 _atom_site_symmetry_multiplicity
 _atom_site_fract_x
 _atom_site_fract_y
 _atom_site_fract_z
 _atom_site_occupancy
  Li  Li0  1  0.07244372  0.93478381  0.12896125  1
  Li  Li1  1  0.57244372  0.56521619  0.87103875  1
  Li  Li2  1  0.92755628  0.06521619  0.87103875  1
  Li  Li3  1  0.42755628  0.43478381  0.12896125  1
  Li  Li4  1  0.06760747  0.69498252  0.37868066  1
  Li  Li5  1  0.56760747  0.80501748  0.62131934  1
  Li  Li6  1  0.93239253  0.30501748  0.62131934  1
  Li  Li7  1  0.43239253  0.19498252  0.37868066  1
  O  O8  1  0.44652019  0.77277976  0.39780409  1
  O  O9  1  0.55347981  0.22722024  0.60219591  1
  O  O10  1  0.94652019  0.72722024  0.60219591  1
  O  O11  1  0.35309281  0.66351305  0.72653570  1
  O  O12  1  0.64690719  0.33648695  0.27346430  1
  O  O13  1  0.14690719  0.16351305  0.72653570  1
  O  O14  1  0.06690449  0.46038783  0.22882282  1
  O  O15  1  0.85309281  0.83648695  0.27346430  1
  O  O16  1  0.56690449  0.03961217  0.77117718  1
  O  O17  1  0.93309551  0.53961217  0.77117718  1
  O  O18  1  0.99598239  0.16213884  0.10616781  1
  O  O19  1  0.43309551  0.96038783  0.22882282  1
  O  O20  1  0.50401761  0.66213884  0.10616781  1
  O  O21  1  0.00401761  0.83786116  0.89383219  1
  O  O22  1  0.49598239  0.33786116  0.89383219  1
  O  O23  1  0.05347981  0.27277976  0.39780409  1
  S  S24  1  0.56114422  0.80874392  0.25141620  1
  S  S25  1  0.43885578  0.19125608  0.74858380  1
  S  S26  1  0.93885578  0.30874392  0.25141620  1
  S  S27  1  0.06114422  0.69125608  0.74858380  1
