# generated using pymatgen
data_Ho(CuGe)2
_symmetry_space_group_name_H-M   'P 1'
_cell_length_a   4.03563809
_cell_length_b   4.03563809
_cell_length_c   5.91274968
_cell_angle_alpha   109.95401006
_cell_angle_beta   109.95401010
_cell_angle_gamma   89.99999998
_symmetry_Int_Tables_number   1
_chemical_formula_structural   Ho(CuGe)2
_chemical_formula_sum   'Ho1 Cu2 Ge2'
_cell_volume   84.33987118
_cell_formula_units_Z   1
loop_
 _symmetry_equiv_pos_site_id
 _symmetry_equiv_pos_as_xyz
  1  'x, y, z'
loop_
 _atom_site_type_symbol
 _atom_site_label
 _atom_site_symmetry_multiplicity
 _atom_site_fract_x
 _atom_site_fract_y
 _atom_site_fract_z
 _atom_site_occupancy
  Cu  Cu0  1  0.25000000  0.75000000  0.50000000  1
  Cu  Cu1  1  0.75000000  0.25000000  0.50000000  1
  Ge  Ge2  1  0.61859242  0.61859242  0.23718484  1
  Ge  Ge3  1  0.38140758  0.38140758  0.76281516  1
  Ho  Ho4  1  0.00000000  0.00000000  0.00000000  1
