# generated using pymatgen
data_Cd2SiO4
_symmetry_space_group_name_H-M   'P 1'
_cell_length_a   5.86719981
_cell_length_b   5.86719981
_cell_length_c   6.73449090
_cell_angle_alpha   103.64109743
_cell_angle_beta   103.64109743
_cell_angle_gamma   117.29667024
_symmetry_Int_Tables_number   1
_chemical_formula_structural   Cd2SiO4
_chemical_formula_sum   'Cd4 Si2 O8'
_cell_volume   183.63279535
_cell_formula_units_Z   2
loop_
 _symmetry_equiv_pos_site_id
 _symmetry_equiv_pos_as_xyz
  1  'x, y, z'
loop_
 _atom_site_type_symbol
 _atom_site_label
 _atom_site_symmetry_multiplicity
 _atom_site_fract_x
 _atom_site_fract_y
 _atom_site_fract_z
 _atom_site_occupancy
  O  O0  1  0.25054426  0.20699997  0.89749755  1
  O  O1  1  0.30950243  0.85304672  0.60250245  1
  O  O2  1  0.79300003  0.74945574  0.60250245  1
  O  O3  1  0.14695328  0.69049757  0.89749755  1
  O  O4  1  0.74945574  0.79300003  0.10250245  1
  O  O5  1  0.69049757  0.14695328  0.39749755  1
  O  O6  1  0.85304672  0.30950243  0.10250245  1
  O  O7  1  0.20699997  0.25054426  0.39749755  1
  Si  Si8  1  0.12500000  0.87500000  0.75000000  1
  Si  Si9  1  0.87500000  0.12500000  0.25000000  1
  Cd  Cd10  1  0.81083917  0.18916083  0.75000000  1
  Cd  Cd11  1  0.43916083  0.56083917  0.75000000  1
  Cd  Cd12  1  0.18916083  0.81083917  0.25000000  1
  Cd  Cd13  1  0.56083917  0.43916083  0.25000000  1
