# generated using pymatgen
data_Tb(CuGe)2
_symmetry_space_group_name_H-M   'P 1'
_cell_length_a   4.05936996
_cell_length_b   4.05936996
_cell_length_c   5.91637720
_cell_angle_alpha   110.06354592
_cell_angle_beta   110.06354592
_cell_angle_gamma   89.99999995
_symmetry_Int_Tables_number   1
_chemical_formula_structural   Tb(CuGe)2
_chemical_formula_sum   'Tb1 Cu2 Ge2'
_cell_volume   85.25012501
_cell_formula_units_Z   1
loop_
 _symmetry_equiv_pos_site_id
 _symmetry_equiv_pos_as_xyz
  1  'x, y, z'
loop_
 _atom_site_type_symbol
 _atom_site_label
 _atom_site_symmetry_multiplicity
 _atom_site_fract_x
 _atom_site_fract_y
 _atom_site_fract_z
 _atom_site_occupancy
  Cu  Cu0  1  0.25000000  0.75000000  0.50000000  1
  Cu  Cu1  1  0.75000000  0.25000000  0.50000000  1
  Ge  Ge2  1  0.61936985  0.61936985  0.23873969  1
  Ge  Ge3  1  0.38063015  0.38063015  0.76126031  1
  Tb  Tb4  1  0.00000000  0.00000000  0.00000000  1
