# generated using pymatgen
data_La2TeO2
_symmetry_space_group_name_H-M   'P 1'
_cell_length_a   4.13514823
_cell_length_b   4.13514823
_cell_length_c   7.21803240
_cell_angle_alpha   106.64528247
_cell_angle_beta   106.64528250
_cell_angle_gamma   89.99999996
_symmetry_Int_Tables_number   1
_chemical_formula_structural   La2TeO2
_chemical_formula_sum   'La2 Te1 O2'
_cell_volume   112.84376594
_cell_formula_units_Z   1
loop_
 _symmetry_equiv_pos_site_id
 _symmetry_equiv_pos_as_xyz
  1  'x, y, z'
loop_
 _atom_site_type_symbol
 _atom_site_label
 _atom_site_symmetry_multiplicity
 _atom_site_fract_x
 _atom_site_fract_y
 _atom_site_fract_z
 _atom_site_occupancy
  O  O0  1  0.25000000  0.75000000  0.50000000  1
  O  O1  1  0.75000000  0.25000000  0.50000000  1
  Te  Te2  1  0.00000000  0.00000000  0.00000000  1
  La  La3  1  0.65920292  0.65920292  0.31840584  1
  La  La4  1  0.34079708  0.34079708  0.68159416  1
