# generated using pymatgen
data_Ba4Nb14O23
_symmetry_space_group_name_H-M   'P 1'
_cell_length_a   4.20490877
_cell_length_b   12.27569404
_cell_length_c   12.27569404
_cell_angle_alpha   118.20071415
_cell_angle_beta   90.00000000
_cell_angle_gamma   90.00000000
_symmetry_Int_Tables_number   1
_chemical_formula_structural   Ba4Nb14O23
_chemical_formula_sum   'Ba4 Nb14 O23'
_cell_volume   558.43323518
_cell_formula_units_Z   1
loop_
 _symmetry_equiv_pos_site_id
 _symmetry_equiv_pos_as_xyz
  1  'x, y, z'
loop_
 _atom_site_type_symbol
 _atom_site_label
 _atom_site_symmetry_multiplicity
 _atom_site_fract_x
 _atom_site_fract_y
 _atom_site_fract_z
 _atom_site_occupancy
  O  O0  1  0.50000000  0.33797253  0.33797253  1
  O  O1  1  0.50000000  0.66202747  0.66202747  1
  O  O2  1  0.00000000  0.50000000  0.50000000  1
  O  O3  1  0.50000000  0.59599081  0.40400919  1
  O  O4  1  0.50000000  0.40400919  0.59599081  1
  O  O5  1  0.50000000  0.13601557  0.53204949  1
  O  O6  1  0.50000000  0.86398443  0.46795051  1
  O  O7  1  0.50000000  0.53204949  0.13601557  1
  O  O8  1  0.50000000  0.46795051  0.86398443  1
  O  O9  1  0.00000000  0.03013853  0.63631298  1
  O  O10  1  0.00000000  0.96986147  0.36368702  1
  O  O11  1  0.00000000  0.63631298  0.03013853  1
  O  O12  1  0.00000000  0.36368702  0.96986147  1
  O  O13  1  0.50000000  0.93021563  0.73052395  1
  O  O14  1  0.50000000  0.06978437  0.26947605  1
  O  O15  1  0.50000000  0.73052395  0.93021563  1
  O  O16  1  0.50000000  0.26947605  0.06978437  1
  O  O17  1  0.00000000  0.82978850  0.82978850  1
  O  O18  1  0.00000000  0.10040797  0.89959203  1
  O  O19  1  0.00000000  0.89959203  0.10040797  1
  O  O20  1  0.00000000  0.30390180  0.69609820  1
  O  O21  1  0.00000000  0.69609820  0.30390180  1
  O  O22  1  0.00000000  0.17021150  0.17021150  1
  Nb  Nb23  1  0.50000000  0.50000000  0.50000000  1
  Nb  Nb24  1  0.50000000  0.04015751  0.63829823  1
  Nb  Nb25  1  0.50000000  0.95984249  0.36170177  1
  Nb  Nb26  1  0.50000000  0.63829823  0.04015751  1
  Nb  Nb27  1  0.50000000  0.36170177  0.95984249  1
  Nb  Nb28  1  0.50000000  0.83713697  0.83713697  1
  Nb  Nb29  1  0.50000000  0.16286303  0.16286303  1
  Nb  Nb30  1  0.50000000  0.70206269  0.29793731  1
  Nb  Nb31  1  0.50000000  0.29793731  0.70206269  1
  Nb  Nb32  1  0.00000000  0.79630714  0.20369286  1
  Nb  Nb33  1  0.00000000  0.20369286  0.79630714  1
  Nb  Nb34  1  0.50000000  0.90033205  0.09966795  1
  Nb  Nb35  1  0.50000000  0.09966795  0.90033205  1
  Nb  Nb36  1  0.00000000  0.00000000  0.00000000  1
  Ba  Ba37  1  0.00000000  0.77120856  0.56805967  1
  Ba  Ba38  1  0.00000000  0.22879144  0.43194033  1
  Ba  Ba39  1  0.00000000  0.56805967  0.77120856  1
  Ba  Ba40  1  0.00000000  0.43194033  0.22879144  1
