# generated using pymatgen
data_Sr2GeS4
_symmetry_space_group_name_H-M   'P 1'
_cell_length_a   6.79484941
_cell_length_b   6.77126830
_cell_length_c   8.28602434
_cell_angle_alpha   90.00000000
_cell_angle_beta   107.97041486
_cell_angle_gamma   90.00000000
_symmetry_Int_Tables_number   1
_chemical_formula_structural   Sr2GeS4
_chemical_formula_sum   'Sr4 Ge2 S8'
_cell_volume   362.63956793
_cell_formula_units_Z   2
loop_
 _symmetry_equiv_pos_site_id
 _symmetry_equiv_pos_as_xyz
  1  'x, y, z'
loop_
 _atom_site_type_symbol
 _atom_site_label
 _atom_site_symmetry_multiplicity
 _atom_site_fract_x
 _atom_site_fract_y
 _atom_site_fract_z
 _atom_site_occupancy
  S  S0  1  0.50962703  0.49727864  0.74147077  1
  S  S1  1  0.49037297  0.99727864  0.25852923  1
  S  S2  1  0.49037297  0.50272136  0.25852923  1
  S  S3  1  0.50962703  0.00272136  0.74147077  1
  S  S4  1  0.07749655  0.25000000  0.37319048  1
  S  S5  1  0.92250345  0.75000000  0.62680952  1
  S  S6  1  0.90499807  0.75000000  0.07688492  1
  S  S7  1  0.09500193  0.25000000  0.92311508  1
  Ge  Ge8  1  0.26954806  0.25000000  0.19812432  1
  Ge  Ge9  1  0.73045194  0.75000000  0.80187568  1
  Sr  Sr10  1  0.76174305  0.25000000  0.56544667  1
  Sr  Sr11  1  0.23825695  0.75000000  0.43455333  1
  Sr  Sr12  1  0.72202038  0.25000000  0.05328777  1
  Sr  Sr13  1  0.27797962  0.75000000  0.94671223  1
