# generated using pymatgen
data_DyNiC2
_symmetry_space_group_name_H-M   'P 1'
_cell_length_a   3.59419180
_cell_length_b   3.75669104
_cell_length_c   3.75669105
_cell_angle_alpha   106.09985546
_cell_angle_beta   90.00000000
_cell_angle_gamma   90.00000000
_symmetry_Int_Tables_number   1
_chemical_formula_structural   DyNiC2
_chemical_formula_sum   'Dy1 Ni1 C2'
_cell_volume   48.73445303
_cell_formula_units_Z   1
loop_
 _symmetry_equiv_pos_site_id
 _symmetry_equiv_pos_as_xyz
  1  'x, y, z'
loop_
 _atom_site_type_symbol
 _atom_site_label
 _atom_site_symmetry_multiplicity
 _atom_site_fract_x
 _atom_site_fract_y
 _atom_site_fract_z
 _atom_site_occupancy
  C  C0  1  0.50000000  0.15007298  0.54579992  1
  C  C1  1  0.50000000  0.45420008  0.84992702  1
  Ni  Ni2  1  0.50000000  0.61360577  0.38639423  1
  Dy  Dy3  1  0.00000000  0.00212117  0.99787883  1
