# generated using pymatgen
data_NdRhO3
_symmetry_space_group_name_H-M   'P 1'
_cell_length_a   5.40954820
_cell_length_b   5.90936374
_cell_length_c   7.84659213
_cell_angle_alpha   90.00000000
_cell_angle_beta   90.00000000
_cell_angle_gamma   90.00000000
_symmetry_Int_Tables_number   1
_chemical_formula_structural   NdRhO3
_chemical_formula_sum   'Nd4 Rh4 O12'
_cell_volume   250.83191633
_cell_formula_units_Z   4
loop_
 _symmetry_equiv_pos_site_id
 _symmetry_equiv_pos_as_xyz
  1  'x, y, z'
loop_
 _atom_site_type_symbol
 _atom_site_label
 _atom_site_symmetry_multiplicity
 _atom_site_fract_x
 _atom_site_fract_y
 _atom_site_fract_z
 _atom_site_occupancy
  O  O0  1  0.81692364  0.19505453  0.44469000  1
  O  O1  1  0.31692364  0.30494547  0.55531000  1
  O  O2  1  0.68307636  0.69505453  0.05531000  1
  O  O3  1  0.18307636  0.80494547  0.94469000  1
  O  O4  1  0.18307636  0.80494547  0.55531000  1
  O  O5  1  0.68307636  0.69505453  0.44469000  1
  O  O6  1  0.31692364  0.30494547  0.94469000  1
  O  O7  1  0.81692364  0.19505453  0.05531000  1
  O  O8  1  0.38414564  0.03832948  0.25000000  1
  O  O9  1  0.88414564  0.46167052  0.75000000  1
  O  O10  1  0.11585436  0.53832948  0.25000000  1
  O  O11  1  0.61585436  0.96167052  0.75000000  1
  Rh  Rh12  1  0.50000000  0.00000000  0.50000000  1
  Rh  Rh13  1  0.00000000  0.50000000  0.50000000  1
  Rh  Rh14  1  0.00000000  0.50000000  0.00000000  1
  Rh  Rh15  1  0.50000000  0.00000000  0.00000000  1
  Nd  Nd16  1  0.47334349  0.57903157  0.75000000  1
  Nd  Nd17  1  0.97334349  0.92096843  0.25000000  1
  Nd  Nd18  1  0.02665651  0.07903157  0.75000000  1
  Nd  Nd19  1  0.52665651  0.42096843  0.25000000  1
