# generated using pymatgen
data_Tl3BO3
_symmetry_space_group_name_H-M   'P 1'
_cell_length_a   9.42539625
_cell_length_b   9.42539624
_cell_length_c   3.88735161
_cell_angle_alpha   90.00000000
_cell_angle_beta   90.00000000
_cell_angle_gamma   120.00000004
_symmetry_Int_Tables_number   1
_chemical_formula_structural   Tl3BO3
_chemical_formula_sum   'Tl6 B2 O6'
_cell_volume   299.07746445
_cell_formula_units_Z   2
loop_
 _symmetry_equiv_pos_site_id
 _symmetry_equiv_pos_as_xyz
  1  'x, y, z'
loop_
 _atom_site_type_symbol
 _atom_site_label
 _atom_site_symmetry_multiplicity
 _atom_site_fract_x
 _atom_site_fract_y
 _atom_site_fract_z
 _atom_site_occupancy
  B  B0  1  0.33333333  0.66666667  0.75000000  1
  B  B1  1  0.66666667  0.33333333  0.25000000  1
  O  O2  1  0.43476682  0.83674285  0.75000000  1
  O  O3  1  0.59802396  0.43476682  0.25000000  1
  O  O4  1  0.83674285  0.40197604  0.25000000  1
  O  O5  1  0.16325715  0.59802396  0.75000000  1
  O  O6  1  0.56523318  0.16325715  0.25000000  1
  O  O7  1  0.40197604  0.56523318  0.75000000  1
  Tl  Tl8  1  0.69683519  0.64565624  0.75000000  1
  Tl  Tl9  1  0.05117895  0.69683519  0.25000000  1
  Tl  Tl10  1  0.64565624  0.94882105  0.25000000  1
  Tl  Tl11  1  0.35434376  0.05117895  0.75000000  1
  Tl  Tl12  1  0.94882105  0.30316481  0.75000000  1
  Tl  Tl13  1  0.30316481  0.35434376  0.25000000  1
