# generated using pymatgen
data_PrPO4
_symmetry_space_group_name_H-M   'P 1'
_cell_length_a   6.48784102
_cell_length_b   6.88805511
_cell_length_c   7.08696247
_cell_angle_alpha   90.00000000
_cell_angle_beta   90.00000000
_cell_angle_gamma   103.84433380
_symmetry_Int_Tables_number   1
_chemical_formula_structural   PrPO4
_chemical_formula_sum   'Pr4 P4 O16'
_cell_volume   307.50596964
_cell_formula_units_Z   4
loop_
 _symmetry_equiv_pos_site_id
 _symmetry_equiv_pos_as_xyz
  1  'x, y, z'
loop_
 _atom_site_type_symbol
 _atom_site_label
 _atom_site_symmetry_multiplicity
 _atom_site_fract_x
 _atom_site_fract_y
 _atom_site_fract_z
 _atom_site_occupancy
  O  O0  1  0.20889614  0.62602255  0.28880082  1
  O  O1  1  0.29110386  0.87397745  0.78880082  1
  O  O2  1  0.79110386  0.37397745  0.71119918  1
  O  O3  1  0.70889614  0.12602255  0.21119918  1
  O  O4  1  0.30675243  0.97003324  0.39784149  1
  O  O5  1  0.19324757  0.52996676  0.89784149  1
  O  O6  1  0.69324757  0.02996676  0.60215851  1
  O  O7  1  0.80675243  0.47003324  0.10215851  1
  O  O8  1  0.43890496  0.24943436  0.00508274  1
  O  O9  1  0.06109504  0.25056564  0.50508274  1
  O  O10  1  0.56109504  0.75056564  0.99491726  1
  O  O11  1  0.93890496  0.74943436  0.49491726  1
  O  O12  1  0.49822607  0.38113787  0.33029417  1
  O  O13  1  0.00177393  0.11886213  0.83029417  1
  O  O14  1  0.50177393  0.61886213  0.66970583  1
  O  O15  1  0.99822607  0.88113787  0.16970583  1
  P  P16  1  0.11082984  0.80294995  0.33897417  1
  P  P17  1  0.38917016  0.69705005  0.83897417  1
  P  P18  1  0.88917016  0.19705005  0.66102583  1
  P  P19  1  0.61082984  0.30294995  0.16102583  1
  Pr  Pr20  1  0.59777933  0.78441236  0.34252961  1
  Pr  Pr21  1  0.90222067  0.71558764  0.84252961  1
  Pr  Pr22  1  0.40222067  0.21558764  0.65747039  1
  Pr  Pr23  1  0.09777933  0.28441236  0.15747039  1
