# generated using pymatgen
data_SrNb2O6
_symmetry_space_group_name_H-M   'P 1'
_cell_length_a   5.65793952
_cell_length_b   7.85003157
_cell_length_c   11.22009046
_cell_angle_alpha   90.30983924
_cell_angle_beta   90.00000000
_cell_angle_gamma   90.00000000
_symmetry_Int_Tables_number   1
_chemical_formula_structural   SrNb2O6
_chemical_formula_sum   'Sr4 Nb8 O24'
_cell_volume   498.33307435
_cell_formula_units_Z   4
loop_
 _symmetry_equiv_pos_site_id
 _symmetry_equiv_pos_as_xyz
  1  'x, y, z'
loop_
 _atom_site_type_symbol
 _atom_site_label
 _atom_site_symmetry_multiplicity
 _atom_site_fract_x
 _atom_site_fract_y
 _atom_site_fract_z
 _atom_site_occupancy
  O  O0  1  0.64214820  0.24839928  0.37183397  1
  O  O1  1  0.14214820  0.75160072  0.12816603  1
  O  O2  1  0.35785180  0.75160072  0.62816603  1
  O  O3  1  0.85785180  0.24839928  0.87183397  1
  O  O4  1  0.46391460  0.74923771  0.35395757  1
  O  O5  1  0.96391460  0.25076229  0.14604243  1
  O  O6  1  0.53608540  0.25076229  0.64604243  1
  O  O7  1  0.03608540  0.74923771  0.85395757  1
  O  O8  1  0.64378148  0.55243088  0.78626644  1
  O  O9  1  0.14378148  0.44756912  0.71373356  1
  O  O10  1  0.35621852  0.44756912  0.21373356  1
  O  O11  1  0.85621852  0.55243088  0.28626644  1
  O  O12  1  0.77911651  0.96622474  0.02526657  1
  O  O13  1  0.27911651  0.03377526  0.47473343  1
  O  O14  1  0.22088349  0.03377526  0.97473343  1
  O  O15  1  0.72088349  0.96622474  0.52526657  1
  O  O16  1  0.72161355  0.53364963  0.52526701  1
  O  O17  1  0.22161355  0.46635037  0.97473299  1
  O  O18  1  0.27838645  0.46635037  0.47473299  1
  O  O19  1  0.77838645  0.53364963  0.02526701  1
  O  O20  1  0.63812812  0.95118822  0.78741982  1
  O  O21  1  0.13812812  0.04881178  0.71258018  1
  O  O22  1  0.36187188  0.04881178  0.21258018  1
  O  O23  1  0.86187188  0.95118822  0.28741982  1
  Sr  Sr24  1  0.46478696  0.75008640  0.96021548  1
  Sr  Sr25  1  0.96478696  0.24991360  0.53978452  1
  Sr  Sr26  1  0.53521304  0.24991360  0.03978452  1
  Sr  Sr27  1  0.03521304  0.75008640  0.46021548  1
  Nb  Nb28  1  0.52387171  0.98569159  0.35620414  1
  Nb  Nb29  1  0.02387171  0.01430841  0.14379586  1
  Nb  Nb30  1  0.47612829  0.01430841  0.64379586  1
  Nb  Nb31  1  0.97612829  0.98569159  0.85620414  1
  Nb  Nb32  1  0.53323397  0.47396464  0.35770875  1
  Nb  Nb33  1  0.03323397  0.52603536  0.14229125  1
  Nb  Nb34  1  0.46676603  0.52603536  0.64229125  1
  Nb  Nb35  1  0.96676603  0.47396464  0.85770875  1
