# generated using pymatgen
data_Sr4PtO6
_symmetry_space_group_name_H-M   'P 1'
_cell_length_a   6.96296879
_cell_length_b   6.96296879
_cell_length_c   6.96296880
_cell_angle_alpha   90.19060980
_cell_angle_beta   90.19060977
_cell_angle_gamma   90.19060980
_symmetry_Int_Tables_number   1
_chemical_formula_structural   Sr4PtO6
_chemical_formula_sum   'Sr8 Pt2 O12'
_cell_volume   337.57954308
_cell_formula_units_Z   2
loop_
 _symmetry_equiv_pos_site_id
 _symmetry_equiv_pos_as_xyz
  1  'x, y, z'
loop_
 _atom_site_type_symbol
 _atom_site_label
 _atom_site_symmetry_multiplicity
 _atom_site_fract_x
 _atom_site_fract_y
 _atom_site_fract_z
 _atom_site_occupancy
  O  O0  1  0.78627747  0.57216852  0.44263408  1
  O  O1  1  0.57216852  0.44263408  0.78627747  1
  O  O2  1  0.44263408  0.78627747  0.57216852  1
  O  O3  1  0.05736592  0.92783148  0.71372253  1
  O  O4  1  0.92783148  0.71372253  0.05736592  1
  O  O5  1  0.71372253  0.05736592  0.92783148  1
  O  O6  1  0.21372253  0.42783148  0.55736592  1
  O  O7  1  0.42783148  0.55736592  0.21372253  1
  O  O8  1  0.55736592  0.21372253  0.42783148  1
  O  O9  1  0.94263408  0.07216852  0.28627747  1
  O  O10  1  0.28627747  0.94263408  0.07216852  1
  O  O11  1  0.07216852  0.28627747  0.94263408  1
  Sr  Sr12  1  0.11821347  0.75000000  0.38178653  1
  Sr  Sr13  1  0.75000000  0.38178653  0.11821347  1
  Sr  Sr14  1  0.38178653  0.11821347  0.75000000  1
  Sr  Sr15  1  0.88178653  0.25000000  0.61821347  1
  Sr  Sr16  1  0.25000000  0.61821347  0.88178653  1
  Sr  Sr17  1  0.61821347  0.88178653  0.25000000  1
  Sr  Sr18  1  0.75000000  0.75000000  0.75000000  1
  Sr  Sr19  1  0.25000000  0.25000000  0.25000000  1
  Pt  Pt20  1  0.50000000  0.50000000  0.50000000  1
  Pt  Pt21  1  0.00000000  0.00000000  0.00000000  1
