# generated using pymatgen
data_Rb2SeO4
_symmetry_space_group_name_H-M   'P 1'
_cell_length_a   6.32223262
_cell_length_b   8.15737582
_cell_length_c   11.05610287
_cell_angle_alpha   90.00000000
_cell_angle_beta   90.00000000
_cell_angle_gamma   90.00000000
_symmetry_Int_Tables_number   1
_chemical_formula_structural   Rb2SeO4
_chemical_formula_sum   'Rb8 Se4 O16'
_cell_volume   570.19448617
_cell_formula_units_Z   4
loop_
 _symmetry_equiv_pos_site_id
 _symmetry_equiv_pos_as_xyz
  1  'x, y, z'
loop_
 _atom_site_type_symbol
 _atom_site_label
 _atom_site_symmetry_multiplicity
 _atom_site_fract_x
 _atom_site_fract_y
 _atom_site_fract_z
 _atom_site_occupancy
  O  O0  1  0.96718165  0.78913387  0.84351401  1
  O  O1  1  0.46718165  0.21086613  0.15648599  1
  O  O2  1  0.53281835  0.28913387  0.65648599  1
  O  O3  1  0.03281835  0.71086613  0.34351401  1
  O  O4  1  0.03281835  0.21086613  0.15648599  1
  O  O5  1  0.53281835  0.78913387  0.84351401  1
  O  O6  1  0.46718165  0.71086613  0.34351401  1
  O  O7  1  0.96718165  0.28913387  0.65648599  1
  O  O8  1  0.25000000  0.19102815  0.94340022  1
  O  O9  1  0.75000000  0.80897185  0.05659978  1
  O  O10  1  0.25000000  0.69102815  0.55659978  1
  O  O11  1  0.75000000  0.30897185  0.44340022  1
  O  O12  1  0.75000000  0.02052320  0.57392586  1
  O  O13  1  0.25000000  0.97947680  0.42607414  1
  O  O14  1  0.75000000  0.52052320  0.92607414  1
  O  O15  1  0.25000000  0.47947680  0.07392586  1
  Se  Se16  1  0.25000000  0.27509209  0.08271210  1
  Se  Se17  1  0.75000000  0.72490791  0.91728790  1
  Se  Se18  1  0.25000000  0.77509209  0.41728790  1
  Se  Se19  1  0.75000000  0.22490791  0.58271210  1
  Rb  Rb20  1  0.25000000  0.50068810  0.79546061  1
  Rb  Rb21  1  0.75000000  0.49931190  0.20453939  1
  Rb  Rb22  1  0.25000000  0.00068810  0.70453939  1
  Rb  Rb23  1  0.75000000  0.99931190  0.29546061  1
  Rb  Rb24  1  0.25000000  0.82749062  0.08129359  1
  Rb  Rb25  1  0.75000000  0.17250938  0.91870641  1
  Rb  Rb26  1  0.25000000  0.32749062  0.41870641  1
  Rb  Rb27  1  0.75000000  0.67250938  0.58129359  1
