# generated using pymatgen
data_SrTl2O4
_symmetry_space_group_name_H-M   'P 1'
_cell_length_a   3.47501257
_cell_length_b   10.21677767
_cell_length_c   11.93750904
_cell_angle_alpha   90.00000000
_cell_angle_beta   90.00000000
_cell_angle_gamma   90.00000000
_symmetry_Int_Tables_number   1
_chemical_formula_structural   SrTl2O4
_chemical_formula_sum   'Sr4 Tl8 O16'
_cell_volume   423.82252646
_cell_formula_units_Z   4
loop_
 _symmetry_equiv_pos_site_id
 _symmetry_equiv_pos_as_xyz
  1  'x, y, z'
loop_
 _atom_site_type_symbol
 _atom_site_label
 _atom_site_symmetry_multiplicity
 _atom_site_fract_x
 _atom_site_fract_y
 _atom_site_fract_z
 _atom_site_occupancy
  O  O0  1  0.25000000  0.08778819  0.07413348  1
  O  O1  1  0.75000000  0.91221181  0.92586652  1
  O  O2  1  0.25000000  0.58778819  0.42586652  1
  O  O3  1  0.75000000  0.41221181  0.57413348  1
  O  O4  1  0.25000000  0.97875696  0.72042960  1
  O  O5  1  0.75000000  0.02124304  0.27957040  1
  O  O6  1  0.25000000  0.47875696  0.77957040  1
  O  O7  1  0.75000000  0.52124304  0.22042960  1
  O  O8  1  0.25000000  0.37510780  0.02512332  1
  O  O9  1  0.75000000  0.62489220  0.97487668  1
  O  O10  1  0.25000000  0.87510780  0.47487668  1
  O  O11  1  0.75000000  0.12489220  0.52512332  1
  O  O12  1  0.75000000  0.21069792  0.82058475  1
  O  O13  1  0.25000000  0.78930208  0.17941525  1
  O  O14  1  0.75000000  0.71069792  0.67941525  1
  O  O15  1  0.25000000  0.28930208  0.32058475  1
  Sr  Sr16  1  0.25000000  0.74546178  0.84829004  1
  Sr  Sr17  1  0.75000000  0.25453822  0.15170996  1
  Sr  Sr18  1  0.25000000  0.24546178  0.65170996  1
  Sr  Sr19  1  0.75000000  0.75453822  0.34829004  1
  Tl  Tl20  1  0.25000000  0.07990056  0.39240027  1
  Tl  Tl21  1  0.75000000  0.92009944  0.60759973  1
  Tl  Tl22  1  0.25000000  0.57990056  0.10759973  1
  Tl  Tl23  1  0.75000000  0.42009944  0.89240027  1
  Tl  Tl24  1  0.25000000  0.07519528  0.89024408  1
  Tl  Tl25  1  0.75000000  0.92480472  0.10975592  1
  Tl  Tl26  1  0.25000000  0.57519528  0.60975592  1
  Tl  Tl27  1  0.75000000  0.42480472  0.39024408  1
