# generated using pymatgen
data_PdSe2O5
_symmetry_space_group_name_H-M   'P 1'
_cell_length_a   5.89836218
_cell_length_b   6.99528064
_cell_length_c   7.48924249
_cell_angle_alpha   105.29369064
_cell_angle_beta   90.00000000
_cell_angle_gamma   114.93537944
_symmetry_Int_Tables_number   1
_chemical_formula_structural   PdSe2O5
_chemical_formula_sum   'Pd2 Se4 O10'
_cell_volume   268.09012658
_cell_formula_units_Z   2
loop_
 _symmetry_equiv_pos_site_id
 _symmetry_equiv_pos_as_xyz
  1  'x, y, z'
loop_
 _atom_site_type_symbol
 _atom_site_label
 _atom_site_symmetry_multiplicity
 _atom_site_fract_x
 _atom_site_fract_y
 _atom_site_fract_z
 _atom_site_occupancy
  O  O0  1  0.65753135  0.74986494  0.37272677  1
  O  O1  1  0.90766641  0.25013506  0.12727323  1
  O  O2  1  0.34246865  0.25013506  0.62727323  1
  O  O3  1  0.09233359  0.74986494  0.87272677  1
  O  O4  1  0.46914275  0.00000000  0.25000000  1
  O  O5  1  0.53085725  0.00000000  0.75000000  1
  O  O6  1  0.09540782  0.75042040  0.50255253  1
  O  O7  1  0.34498743  0.24957960  0.99744747  1
  O  O8  1  0.90459218  0.24957960  0.49744747  1
  O  O9  1  0.65501257  0.75042040  0.00255253  1
  Se  Se10  1  0.25377972  0.73169399  0.68463688  1
  Se  Se11  1  0.52208574  0.26830601  0.81536312  1
  Se  Se12  1  0.47791426  0.73169399  0.18463688  1
  Se  Se13  1  0.74622028  0.26830601  0.31536312  1
  Pd  Pd14  1  0.00000000  0.00000000  0.50000000  1
  Pd  Pd15  1  0.00000000  0.00000000  0.00000000  1
