# generated using pymatgen
data_Sr3(PO4)2
_symmetry_space_group_name_H-M   'P 1'
_cell_length_a   5.46055105
_cell_length_b   5.46055105
_cell_length_c   7.38666304
_cell_angle_alpha   68.30767709
_cell_angle_beta   68.30767709
_cell_angle_gamma   60.00000741
_symmetry_Int_Tables_number   1
_chemical_formula_structural   Sr3(PO4)2
_chemical_formula_sum   'Sr3 P2 O8'
_cell_volume   172.49870865
_cell_formula_units_Z   1
loop_
 _symmetry_equiv_pos_site_id
 _symmetry_equiv_pos_as_xyz
  1  'x, y, z'
loop_
 _atom_site_type_symbol
 _atom_site_label
 _atom_site_symmetry_multiplicity
 _atom_site_fract_x
 _atom_site_fract_y
 _atom_site_fract_z
 _atom_site_occupancy
  Sr  Sr0  1  0.00000000  0.00000000  0.00000000  1
  Sr  Sr1  1  0.79217839  0.79217839  0.62346483  1
  Sr  Sr2  1  0.20782161  0.20782161  0.37653517  1
  P  P3  1  0.59367750  0.59367750  0.21896751  1
  P  P4  1  0.40632250  0.40632250  0.78103249  1
  O  O5  1  0.67080057  0.67080057  0.98759830  1
  O  O6  1  0.32919943  0.32919943  0.01240170  1
  O  O7  1  0.25597301  0.72296669  0.29809360  1
  O  O8  1  0.72296669  0.72296669  0.29809360  1
  O  O9  1  0.72296669  0.25597301  0.29809360  1
  O  O10  1  0.74402699  0.27703331  0.70190640  1
  O  O11  1  0.27703331  0.27703331  0.70190640  1
  O  O12  1  0.27703331  0.74402699  0.70190640  1
