# generated using pymatgen
data_Li2BeF4
_symmetry_space_group_name_H-M   'P 1'
_cell_length_a   8.37445720
_cell_length_b   8.37445720
_cell_length_c   8.37445720
_cell_angle_alpha   107.78321183
_cell_angle_beta   107.78321182
_cell_angle_gamma   107.78321186
_symmetry_Int_Tables_number   1
_chemical_formula_structural   Li2BeF4
_chemical_formula_sum   'Li12 Be6 F24'
_cell_volume   478.28554151
_cell_formula_units_Z   6
loop_
 _symmetry_equiv_pos_site_id
 _symmetry_equiv_pos_as_xyz
  1  'x, y, z'
loop_
 _atom_site_type_symbol
 _atom_site_label
 _atom_site_symmetry_multiplicity
 _atom_site_fract_x
 _atom_site_fract_y
 _atom_site_fract_z
 _atom_site_occupancy
  Li  Li0  1  0.27701836  0.09974331  0.87783177  1
  Li  Li1  1  0.09974331  0.87783177  0.27701836  1
  Li  Li2  1  0.87783177  0.27701836  0.09974331  1
  Li  Li3  1  0.72298164  0.90025669  0.12216823  1
  Li  Li4  1  0.90025669  0.12216823  0.72298164  1
  Li  Li5  1  0.12216823  0.72298164  0.90025669  1
  Li  Li6  1  0.61243444  0.43895482  0.20440105  1
  Li  Li7  1  0.43895482  0.20440105  0.61243444  1
  Li  Li8  1  0.20440105  0.61243444  0.43895482  1
  Li  Li9  1  0.38756556  0.56104518  0.79559895  1
  Li  Li10  1  0.56104518  0.79559895  0.38756556  1
  Li  Li11  1  0.79559895  0.38756556  0.56104518  1
  Be  Be12  1  0.94687567  0.76489502  0.54011580  1
  Be  Be13  1  0.76489502  0.54011580  0.94687567  1
  Be  Be14  1  0.54011580  0.94687567  0.76489502  1
  Be  Be15  1  0.05312433  0.23510498  0.45988420  1
  Be  Be16  1  0.23510498  0.45988420  0.05312433  1
  Be  Be17  1  0.45988420  0.05312433  0.23510498  1
  F  F18  1  0.59938451  0.26409817  0.31115121  1
  F  F19  1  0.31115121  0.59938451  0.26409817  1
  F  F20  1  0.26409817  0.31115121  0.59938451  1
  F  F21  1  0.40061549  0.73590183  0.68884879  1
  F  F22  1  0.68884879  0.40061549  0.73590183  1
  F  F23  1  0.73590183  0.68884879  0.40061549  1
  F  F24  1  0.02464798  0.96915165  0.69204775  1
  F  F25  1  0.96915165  0.69204775  0.02464798  1
  F  F26  1  0.69204775  0.02464798  0.96915165  1
  F  F27  1  0.97535202  0.03084835  0.30795225  1
  F  F28  1  0.03084835  0.30795225  0.97535202  1
  F  F29  1  0.30795225  0.97535202  0.03084835  1
  F  F30  1  0.06695429  0.75582579  0.42891505  1
  F  F31  1  0.75582579  0.42891505  0.06695429  1
  F  F32  1  0.42891505  0.06695429  0.75582579  1
  F  F33  1  0.93304571  0.24417421  0.57108495  1
  F  F34  1  0.24417421  0.57108495  0.93304571  1
  F  F35  1  0.57108495  0.93304571  0.24417421  1
  F  F36  1  0.96418174  0.63804309  0.64354331  1
  F  F37  1  0.63804309  0.64354331  0.96418174  1
  F  F38  1  0.64354331  0.96418174  0.63804309  1
  F  F39  1  0.03581826  0.36195691  0.35645669  1
  F  F40  1  0.36195691  0.35645669  0.03581826  1
  F  F41  1  0.35645669  0.03581826  0.36195691  1
