# generated using pymatgen
data_Cd(PO3)2
_symmetry_space_group_name_H-M   'P 1'
_cell_length_a   7.16787272
_cell_length_b   9.82219361
_cell_length_c   13.86604777
_cell_angle_alpha   90.00000000
_cell_angle_beta   90.00000000
_cell_angle_gamma   90.00000000
_symmetry_Int_Tables_number   1
_chemical_formula_structural   Cd(PO3)2
_chemical_formula_sum   'Cd8 P16 O48'
_cell_volume   976.22846669
_cell_formula_units_Z   8
loop_
 _symmetry_equiv_pos_site_id
 _symmetry_equiv_pos_as_xyz
  1  'x, y, z'
loop_
 _atom_site_type_symbol
 _atom_site_label
 _atom_site_symmetry_multiplicity
 _atom_site_fract_x
 _atom_site_fract_y
 _atom_site_fract_z
 _atom_site_occupancy
  O  O0  1  0.65635707  0.13760722  0.00295946  1
  O  O1  1  0.15635707  0.36239278  0.99704054  1
  O  O2  1  0.34364293  0.63760722  0.49704054  1
  O  O3  1  0.84364293  0.86239278  0.50295946  1
  O  O4  1  0.34364293  0.86239278  0.99704054  1
  O  O5  1  0.84364293  0.63760722  0.00295946  1
  O  O6  1  0.65635707  0.36239278  0.50295946  1
  O  O7  1  0.15635707  0.13760722  0.49704054  1
  O  O8  1  0.85846714  0.31387861  0.08796663  1
  O  O9  1  0.35846714  0.18612139  0.91203337  1
  O  O10  1  0.14153286  0.81387861  0.41203337  1
  O  O11  1  0.64153286  0.68612139  0.58796663  1
  O  O12  1  0.14153286  0.68612139  0.91203337  1
  O  O13  1  0.64153286  0.81387861  0.08796663  1
  O  O14  1  0.85846714  0.18612139  0.58796663  1
  O  O15  1  0.35846714  0.31387861  0.41203337  1
  O  O16  1  0.13767845  0.15404363  0.10546202  1
  O  O17  1  0.13839897  0.40265834  0.17429561  1
  O  O18  1  0.63767845  0.34595637  0.89453798  1
  O  O19  1  0.36232155  0.84595637  0.60546202  1
  O  O20  1  0.86232155  0.84595637  0.89453798  1
  O  O21  1  0.36232155  0.65404363  0.10546202  1
  O  O22  1  0.13767845  0.34595637  0.60546202  1
  O  O23  1  0.63767845  0.15404363  0.39453798  1
  O  O24  1  0.01936733  0.29866031  0.37206707  1
  O  O25  1  0.51936733  0.20133969  0.62793293  1
  O  O26  1  0.98063267  0.79866031  0.12793293  1
  O  O27  1  0.48063267  0.70133969  0.87206707  1
  O  O28  1  0.98063267  0.70133969  0.62793293  1
  O  O29  1  0.48063267  0.79866031  0.37206707  1
  O  O30  1  0.01936733  0.20133969  0.87206707  1
  O  O31  1  0.51936733  0.29866031  0.12793293  1
  O  O32  1  0.24101786  0.10097497  0.32373396  1
  O  O33  1  0.74101786  0.39902503  0.67626604  1
  O  O34  1  0.75898214  0.60097497  0.17626604  1
  O  O35  1  0.25898214  0.89902503  0.82373396  1
  O  O36  1  0.75898214  0.89902503  0.67626604  1
  O  O37  1  0.25898214  0.60097497  0.32373396  1
  O  O38  1  0.24101786  0.39902503  0.82373396  1
  O  O39  1  0.74101786  0.10097497  0.17626604  1
  O  O40  1  0.63839897  0.40265834  0.32570439  1
  O  O41  1  0.13839897  0.09734166  0.67429561  1
  O  O42  1  0.36160103  0.90265834  0.17429561  1
  O  O43  1  0.86160103  0.59734166  0.82570439  1
  O  O44  1  0.36160103  0.59734166  0.67429561  1
  O  O45  1  0.86160103  0.90265834  0.32570439  1
  O  O46  1  0.63839897  0.09734166  0.82570439  1
  O  O47  1  0.86232155  0.65404363  0.39453798  1
  P  P48  1  0.08242261  0.30031553  0.09749163  1
  P  P49  1  0.58242261  0.19968447  0.90250837  1
  P  P50  1  0.91757739  0.80031553  0.40250837  1
  P  P51  1  0.41757739  0.69968447  0.59749163  1
  P  P52  1  0.91757739  0.69968447  0.90250837  1
  P  P53  1  0.41757739  0.80031553  0.09749163  1
  P  P54  1  0.08242261  0.19968447  0.59749163  1
  P  P55  1  0.58242261  0.30031553  0.40250837  1
  P  P56  1  0.68539032  0.21210678  0.10607890  1
  P  P57  1  0.18539032  0.28789322  0.89392110  1
  P  P58  1  0.31460968  0.71210678  0.39392110  1
  P  P59  1  0.81460968  0.78789322  0.60607890  1
  P  P60  1  0.31460968  0.78789322  0.89392110  1
  P  P61  1  0.81460968  0.71210678  0.10607890  1
  P  P62  1  0.68539032  0.28789322  0.60607890  1
  P  P63  1  0.18539032  0.21210678  0.39392110  1
  Cd  Cd64  1  0.55089986  0.99239321  0.29367029  1
  Cd  Cd65  1  0.05089986  0.50760679  0.70632971  1
  Cd  Cd66  1  0.44910014  0.49239321  0.20632971  1
  Cd  Cd67  1  0.94910014  0.00760679  0.79367029  1
  Cd  Cd68  1  0.44910014  0.00760679  0.70632971  1
  Cd  Cd69  1  0.94910014  0.49239321  0.29367029  1
  Cd  Cd70  1  0.55089986  0.50760679  0.79367029  1
  Cd  Cd71  1  0.05089986  0.99239321  0.20632971  1
