# generated using pymatgen
data_Li5GaO4
_symmetry_space_group_name_H-M   'P 1'
_cell_length_a   9.19600448
_cell_length_b   9.26996408
_cell_length_c   9.29323621
_cell_angle_alpha   90.00000000
_cell_angle_beta   90.00000000
_cell_angle_gamma   90.00000000
_symmetry_Int_Tables_number   1
_chemical_formula_structural   Li5GaO4
_chemical_formula_sum   'Li40 Ga8 O32'
_cell_volume   792.21707993
_cell_formula_units_Z   8
loop_
 _symmetry_equiv_pos_site_id
 _symmetry_equiv_pos_as_xyz
  1  'x, y, z'
loop_
 _atom_site_type_symbol
 _atom_site_label
 _atom_site_symmetry_multiplicity
 _atom_site_fract_x
 _atom_site_fract_y
 _atom_site_fract_z
 _atom_site_occupancy
  Li  Li0  1  0.89659445  0.38130933  0.15698583  1
  Li  Li1  1  0.39659445  0.61869067  0.34301417  1
  Li  Li2  1  0.60340555  0.88130933  0.84301417  1
  Li  Li3  1  0.10340555  0.11869067  0.65698583  1
  Li  Li4  1  0.10340555  0.61869067  0.84301417  1
  Li  Li5  1  0.60340555  0.38130933  0.65698583  1
  Li  Li6  1  0.39659445  0.11869067  0.15698583  1
  Li  Li7  1  0.89659445  0.88130933  0.34301417  1
  Li  Li8  1  0.89645766  0.12635954  0.85324932  1
  Li  Li9  1  0.39645766  0.87364046  0.64675068  1
  Li  Li10  1  0.60354234  0.62635954  0.14675068  1
  Li  Li11  1  0.10354234  0.37364046  0.35324932  1
  Li  Li12  1  0.10354234  0.87364046  0.14675068  1
  Li  Li13  1  0.60354234  0.12635954  0.35324932  1
  Li  Li14  1  0.39645766  0.37364046  0.85324932  1
  Li  Li15  1  0.89645766  0.62635954  0.64675068  1
  Li  Li16  1  0.85923166  0.38799940  0.89350537  1
  Li  Li17  1  0.35923166  0.61200060  0.60649463  1
  Li  Li18  1  0.64076834  0.88799940  0.10649463  1
  Li  Li19  1  0.83648881  0.60748895  0.38047918  1
  Li  Li20  1  0.14076834  0.61200060  0.10649463  1
  Li  Li21  1  0.64076834  0.38799940  0.39350537  1
  Li  Li22  1  0.35923166  0.11200060  0.89350537  1
  Li  Li23  1  0.85923166  0.88799940  0.60649463  1
  Li  Li24  1  0.87257981  0.14623509  0.37907472  1
  Li  Li25  1  0.37257981  0.85376491  0.12092528  1
  Li  Li26  1  0.62742019  0.64623509  0.62092528  1
  Li  Li27  1  0.12742019  0.35376491  0.87907472  1
  Li  Li28  1  0.12742019  0.85376491  0.62092528  1
  Li  Li29  1  0.62742019  0.14623509  0.87907472  1
  Li  Li30  1  0.37257981  0.35376491  0.37907472  1
  Li  Li31  1  0.87257981  0.64623509  0.12092528  1
  Li  Li32  1  0.83648881  0.10748895  0.11952082  1
  Li  Li33  1  0.33648881  0.89251105  0.38047918  1
  Li  Li34  1  0.66351119  0.60748895  0.88047918  1
  Li  Li35  1  0.16351119  0.39251105  0.61952082  1
  Li  Li36  1  0.16351119  0.89251105  0.88047918  1
  Li  Li37  1  0.66351119  0.10748895  0.61952082  1
  Li  Li38  1  0.33648881  0.39251105  0.11952082  1
  Li  Li39  1  0.14076834  0.11200060  0.39350537  1
  O  O40  1  0.76214904  0.25080876  0.74491393  1
  O  O41  1  0.26214904  0.74919124  0.75508607  1
  O  O42  1  0.73785096  0.75080876  0.25508607  1
  O  O43  1  0.23785096  0.24919124  0.24491393  1
  O  O44  1  0.23785096  0.74919124  0.25508607  1
  O  O45  1  0.73785096  0.25080876  0.24491393  1
  O  O46  1  0.26214904  0.24919124  0.74491393  1
  O  O47  1  0.76214904  0.75080876  0.75508607  1
  O  O48  1  0.75589499  0.49095153  0.53440167  1
  O  O49  1  0.25589499  0.50904847  0.96559833  1
  O  O50  1  0.74410501  0.99095153  0.46559833  1
  O  O51  1  0.24410501  0.00904847  0.03440167  1
  O  O52  1  0.24410501  0.50904847  0.46559833  1
  O  O53  1  0.74410501  0.49095153  0.03440167  1
  O  O54  1  0.25589499  0.00904847  0.53440167  1
  O  O55  1  0.75589499  0.99095153  0.96559833  1
  O  O56  1  0.00035860  0.46666124  0.74434085  1
  O  O57  1  0.50035860  0.53333876  0.75565915  1
  O  O58  1  0.49964140  0.96666124  0.25565915  1
  O  O59  1  0.99964140  0.03333876  0.24434085  1
  O  O60  1  0.01258437  0.75044539  0.99454338  1
  O  O61  1  0.49964140  0.46666124  0.24434085  1
  O  O62  1  0.50035860  0.03333876  0.74434085  1
  O  O63  1  0.00035860  0.96666124  0.75565915  1
  O  O64  1  0.01258437  0.25044539  0.50545662  1
  O  O65  1  0.51258437  0.74955461  0.99454338  1
  O  O66  1  0.48741563  0.75044539  0.49454338  1
  O  O67  1  0.98741563  0.24955461  0.00545662  1
  O  O68  1  0.98741563  0.74955461  0.49454338  1
  O  O69  1  0.48741563  0.25044539  0.00545662  1
  O  O70  1  0.51258437  0.24955461  0.50545662  1
  O  O71  1  0.99964140  0.53333876  0.25565915  1
  Ga  Ga72  1  0.88272406  0.35472086  0.61802699  1
  Ga  Ga73  1  0.38272406  0.64527914  0.88197301  1
  Ga  Ga74  1  0.61727594  0.85472086  0.38197301  1
  Ga  Ga75  1  0.11727594  0.14527914  0.11802699  1
  Ga  Ga76  1  0.11727594  0.64527914  0.38197301  1
  Ga  Ga77  1  0.61727594  0.35472086  0.11802699  1
  Ga  Ga78  1  0.38272406  0.14527914  0.61802699  1
  Ga  Ga79  1  0.88272406  0.85472086  0.88197301  1
