# generated using pymatgen
data_La3(B3Ru4)2
_symmetry_space_group_name_H-M   'P 1'
_cell_length_a   5.58773321
_cell_length_b   5.65958438
_cell_length_c   9.24147954
_cell_angle_alpha   81.41711306
_cell_angle_beta   72.40311258
_cell_angle_gamma   60.41908209
_symmetry_Int_Tables_number   1
_chemical_formula_structural   La3(B3Ru4)2
_chemical_formula_sum   'La3 B6 Ru8'
_cell_volume   242.26917583
_cell_formula_units_Z   1
loop_
 _symmetry_equiv_pos_site_id
 _symmetry_equiv_pos_as_xyz
  1  'x, y, z'
loop_
 _atom_site_type_symbol
 _atom_site_label
 _atom_site_symmetry_multiplicity
 _atom_site_fract_x
 _atom_site_fract_y
 _atom_site_fract_z
 _atom_site_occupancy
  B  B0  1  0.33083937  0.33832127  0.00000000  1
  B  B1  1  0.66916063  0.66167873  0.00000000  1
  B  B2  1  0.83500552  0.67192830  0.65806066  1
  B  B3  1  0.50693382  0.32807170  0.65806066  1
  B  B4  1  0.16499448  0.32807170  0.34193934  1
  B  B5  1  0.49306618  0.67192830  0.34193934  1
  Ru  Ru6  1  0.08581406  0.50000000  0.82837187  1
  Ru  Ru7  1  0.58681976  0.00000000  0.82636049  1
  Ru  Ru8  1  0.41318024  0.00000000  0.17363951  1
  Ru  Ru9  1  0.75000000  0.50000000  0.50000000  1
  Ru  Ru10  1  0.25000000  0.50000000  0.50000000  1
  Ru  Ru11  1  0.91418594  0.50000000  0.17162813  1
  Ru  Ru12  1  0.41418594  0.50000000  0.17162813  1
  Ru  Ru13  1  0.58581406  0.50000000  0.82837187  1
  La  La14  1  0.00000000  0.00000000  0.00000000  1
  La  La15  1  0.18200972  0.00000000  0.63598055  1
  La  La16  1  0.81799028  0.00000000  0.36401945  1
