# generated using pymatgen
data_Yb2CdPd2
_symmetry_space_group_name_H-M   'P 1'
_cell_length_a   3.94656541
_cell_length_b   7.49467553
_cell_length_c   7.49467553
_cell_angle_alpha   90.00000000
_cell_angle_beta   90.00000000
_cell_angle_gamma   90.00000000
_symmetry_Int_Tables_number   1
_chemical_formula_structural   Yb2CdPd2
_chemical_formula_sum   'Yb4 Cd2 Pd4'
_cell_volume   221.67921566
_cell_formula_units_Z   2
loop_
 _symmetry_equiv_pos_site_id
 _symmetry_equiv_pos_as_xyz
  1  'x, y, z'
loop_
 _atom_site_type_symbol
 _atom_site_label
 _atom_site_symmetry_multiplicity
 _atom_site_fract_x
 _atom_site_fract_y
 _atom_site_fract_z
 _atom_site_occupancy
  Pd  Pd0  1  0.00000000  0.13393170  0.36606830  1
  Pd  Pd1  1  0.00000000  0.36606830  0.86606830  1
  Pd  Pd2  1  0.00000000  0.63393170  0.13393170  1
  Pd  Pd3  1  0.00000000  0.86606830  0.63393170  1
  Cd  Cd4  1  0.00000000  0.00000000  0.00000000  1
  Cd  Cd5  1  0.00000000  0.50000000  0.50000000  1
  Yb  Yb6  1  0.50000000  0.83382224  0.33382224  1
  Yb  Yb7  1  0.50000000  0.66617776  0.83382224  1
  Yb  Yb8  1  0.50000000  0.33382224  0.16617776  1
  Yb  Yb9  1  0.50000000  0.16617776  0.66617776  1
