# generated using pymatgen
data_TbPS4
_symmetry_space_group_name_H-M   'P 1'
_cell_length_a   10.83140284
_cell_length_b   10.83140284
_cell_length_c   12.25727988
_cell_angle_alpha   116.22105222
_cell_angle_beta   116.22105224
_cell_angle_gamma   89.99999998
_symmetry_Int_Tables_number   1
_chemical_formula_structural   TbPS4
_chemical_formula_sum   'Tb8 P8 S32'
_cell_volume   1122.72330779
_cell_formula_units_Z   8
loop_
 _symmetry_equiv_pos_site_id
 _symmetry_equiv_pos_as_xyz
  1  'x, y, z'
loop_
 _atom_site_type_symbol
 _atom_site_label
 _atom_site_symmetry_multiplicity
 _atom_site_fract_x
 _atom_site_fract_y
 _atom_site_fract_z
 _atom_site_occupancy
  P  P0  1  0.28809303  0.25000000  0.50000000  1
  P  P1  1  0.78809303  0.25000000  0.50000000  1
  P  P2  1  0.75000000  0.78809303  0.00000000  1
  P  P3  1  0.25000000  0.71190697  0.00000000  1
  P  P4  1  0.71190697  0.75000000  0.50000000  1
  P  P5  1  0.21190697  0.75000000  0.50000000  1
  P  P6  1  0.25000000  0.21190697  0.00000000  1
  P  P7  1  0.75000000  0.28809303  0.00000000  1
  S  S8  1  0.08539693  0.61142949  0.99485964  1
  S  S9  1  0.90946271  0.88343015  0.99485964  1
  S  S10  1  0.61142949  0.90946271  0.49485964  1
  S  S11  1  0.88343015  0.08539693  0.49485964  1
  S  S12  1  0.41460307  0.61656985  0.00514036  1
  S  S13  1  0.59053729  0.88857051  0.00514036  1
  S  S14  1  0.88857051  0.41460307  0.50514036  1
  S  S15  1  0.61656985  0.59053729  0.50514036  1
  S  S16  1  0.34291906  0.40415665  0.17933475  1
  S  S17  1  0.27517810  0.34291906  0.67933475  1
  S  S18  1  0.40415665  0.83641569  0.67933475  1
  S  S19  1  0.66358431  0.09584335  0.82066525  1
  S  S20  1  0.15708094  0.22482190  0.82066525  1
  S  S21  1  0.22482190  0.66358431  0.32066525  1
  S  S22  1  0.09584335  0.15708094  0.32066525  1
  S  S23  1  0.83641569  0.27517810  0.17933475  1
  S  S24  1  0.65708094  0.59584335  0.82066525  1
  S  S25  1  0.72482190  0.65708094  0.32066525  1
  S  S26  1  0.59584335  0.16358431  0.32066525  1
  S  S27  1  0.33641569  0.90415665  0.17933475  1
  S  S28  1  0.84291906  0.77517810  0.17933475  1
  S  S29  1  0.77517810  0.33641569  0.67933475  1
  S  S30  1  0.90415665  0.84291906  0.67933475  1
  S  S31  1  0.16358431  0.72482190  0.82066525  1
  S  S32  1  0.09053729  0.11656985  0.00514036  1
  S  S33  1  0.38857051  0.09053729  0.50514036  1
  S  S34  1  0.11656985  0.91460307  0.50514036  1
  S  S35  1  0.58539693  0.38343015  0.99485964  1
  S  S36  1  0.40946271  0.11142949  0.99485964  1
  S  S37  1  0.11142949  0.58539693  0.49485964  1
  S  S38  1  0.38343015  0.40946271  0.49485964  1
  S  S39  1  0.91460307  0.38857051  0.00514036  1
  Tb  Tb40  1  0.87500000  0.12500000  0.75000000  1
  Tb  Tb41  1  0.12500000  0.87500000  0.25000000  1
  Tb  Tb42  1  0.62500000  0.37500000  0.25000000  1
  Tb  Tb43  1  0.37500000  0.62500000  0.75000000  1
  Tb  Tb44  1  0.62500000  0.87500000  0.25000000  1
  Tb  Tb45  1  0.87500000  0.62500000  0.75000000  1
  Tb  Tb46  1  0.37500000  0.12500000  0.75000000  1
  Tb  Tb47  1  0.12500000  0.37500000  0.25000000  1
