# generated using pymatgen
data_ZrSnRh
_symmetry_space_group_name_H-M   'P 1'
_cell_length_a   7.42338995
_cell_length_b   7.42338995
_cell_length_c   7.31129890
_cell_angle_alpha   90.00000000
_cell_angle_beta   90.00000000
_cell_angle_gamma   120.00000003
_symmetry_Int_Tables_number   1
_chemical_formula_structural   ZrSnRh
_chemical_formula_sum   'Zr6 Sn6 Rh6'
_cell_volume   348.92309818
_cell_formula_units_Z   6
loop_
 _symmetry_equiv_pos_site_id
 _symmetry_equiv_pos_as_xyz
  1  'x, y, z'
loop_
 _atom_site_type_symbol
 _atom_site_label
 _atom_site_symmetry_multiplicity
 _atom_site_fract_x
 _atom_site_fract_y
 _atom_site_fract_z
 _atom_site_occupancy
  Zr  Zr0  1  0.59382218  0.98216625  0.75000000  1
  Zr  Zr1  1  0.38834407  0.40617782  0.75000000  1
  Zr  Zr2  1  0.01783375  0.61165593  0.75000000  1
  Zr  Zr3  1  0.61165593  0.01783375  0.25000000  1
  Zr  Zr4  1  0.40617782  0.38834407  0.25000000  1
  Zr  Zr5  1  0.98216625  0.59382218  0.25000000  1
  Rh  Rh6  1  0.66666667  0.33333333  0.96431687  1
  Rh  Rh7  1  0.66666667  0.33333333  0.53568313  1
  Rh  Rh8  1  0.33333333  0.66666667  0.03568313  1
  Rh  Rh9  1  0.33333333  0.66666667  0.46431687  1
  Rh  Rh10  1  0.00000000  0.00000000  0.75000000  1
  Rh  Rh11  1  0.00000000  0.00000000  0.25000000  1
  Sn  Sn12  1  0.27018277  0.00000000  0.00000000  1
  Sn  Sn13  1  0.72981723  0.72981723  0.50000000  1
  Sn  Sn14  1  0.00000000  0.27018277  0.50000000  1
  Sn  Sn15  1  0.00000000  0.27018277  0.00000000  1
  Sn  Sn16  1  0.72981723  0.72981723  0.00000000  1
  Sn  Sn17  1  0.27018277  0.00000000  0.50000000  1
