# generated using pymatgen
data_La3MnGaS7
_symmetry_space_group_name_H-M   'P 1'
_cell_length_a   10.26502383
_cell_length_b   10.26502339
_cell_length_c   6.07469527
_cell_angle_alpha   90.00000000
_cell_angle_beta   90.00000000
_cell_angle_gamma   120.00000143
_symmetry_Int_Tables_number   1
_chemical_formula_structural   La3MnGaS7
_chemical_formula_sum   'La6 Mn2 Ga2 S14'
_cell_volume   554.33848100
_cell_formula_units_Z   2
loop_
 _symmetry_equiv_pos_site_id
 _symmetry_equiv_pos_as_xyz
  1  'x, y, z'
loop_
 _atom_site_type_symbol
 _atom_site_label
 _atom_site_symmetry_multiplicity
 _atom_site_fract_x
 _atom_site_fract_y
 _atom_site_fract_z
 _atom_site_occupancy
  La  La0  1  0.13928070  0.37428858  0.00059559  1
  La  La1  1  0.76499212  0.13928070  0.50059559  1
  La  La2  1  0.37428858  0.23500788  0.50059559  1
  La  La3  1  0.62571142  0.76499212  0.00059559  1
  La  La4  1  0.23500788  0.86071930  0.00059559  1
  La  La5  1  0.86071930  0.62571142  0.50059559  1
  Ga  Ga6  1  0.66666700  0.33333300  0.08124186  1
  Ga  Ga7  1  0.33333300  0.66666700  0.58124186  1
  Mn  Mn8  1  0.00000000  0.00000000  0.22706794  1
  Mn  Mn9  1  0.00000000  0.00000000  0.72706794  1
  S  S10  1  0.23469126  0.14619292  0.96535119  1
  S  S11  1  0.08849833  0.23469126  0.46535119  1
  S  S12  1  0.14619292  0.91150167  0.46535119  1
  S  S13  1  0.85380708  0.08849833  0.96535119  1
  S  S14  1  0.91150167  0.76530874  0.96535119  1
  S  S15  1  0.76530874  0.85380708  0.46535119  1
  S  S16  1  0.51711507  0.09872474  0.23144124  1
  S  S17  1  0.41839033  0.51711507  0.73144124  1
  S  S18  1  0.09872474  0.58160967  0.73144124  1
  S  S19  1  0.90127526  0.41839033  0.23144124  1
  S  S20  1  0.58160967  0.48288493  0.23144124  1
  S  S21  1  0.48288493  0.90127526  0.73144124  1
  S  S22  1  0.33333300  0.66666700  0.21022616  1
  S  S23  1  0.66666700  0.33333300  0.71022616  1
