# generated using pymatgen
data_K4GeS4
_symmetry_space_group_name_H-M   'P 1'
_cell_length_a   12.92572365
_cell_length_b   12.92572365
_cell_length_c   12.92572365
_cell_angle_alpha   90.00000000
_cell_angle_beta   90.00000000
_cell_angle_gamma   90.00000000
_symmetry_Int_Tables_number   1
_chemical_formula_structural   K4GeS4
_chemical_formula_sum   'K32 Ge8 S32'
_cell_volume   2159.55664284
_cell_formula_units_Z   8
loop_
 _symmetry_equiv_pos_site_id
 _symmetry_equiv_pos_as_xyz
  1  'x, y, z'
loop_
 _atom_site_type_symbol
 _atom_site_label
 _atom_site_symmetry_multiplicity
 _atom_site_fract_x
 _atom_site_fract_y
 _atom_site_fract_z
 _atom_site_occupancy
  K  K0  1  0.36556787  0.15079729  0.41394890  1
  K  K1  1  0.15079729  0.58605110  0.63443213  1
  K  K2  1  0.91394890  0.34920271  0.13443213  1
  K  K3  1  0.65206965  0.65206965  0.65206965  1
  K  K4  1  0.15206965  0.84793035  0.84793035  1
  K  K5  1  0.63443213  0.84920271  0.41394890  1
  K  K6  1  0.86556787  0.08605110  0.34920271  1
  K  K7  1  0.41394890  0.36556787  0.15079729  1
  K  K8  1  0.84920271  0.58605110  0.36556787  1
  K  K9  1  0.65079729  0.13443213  0.08605110  1
  K  K10  1  0.84793035  0.15206965  0.84793035  1
  K  K11  1  0.84920271  0.41394890  0.63443213  1
  K  K12  1  0.65206965  0.34793035  0.34793035  1
  K  K13  1  0.65079729  0.86556787  0.91394890  1
  K  K14  1  0.13443213  0.08605110  0.65079729  1
  K  K15  1  0.15079729  0.41394890  0.36556787  1
  K  K16  1  0.15206965  0.15206965  0.15206965  1
  K  K17  1  0.34793035  0.34793035  0.65206965  1
  K  K18  1  0.63443213  0.15079729  0.58605110  1
  K  K19  1  0.34920271  0.86556787  0.08605110  1
  K  K20  1  0.34920271  0.13443213  0.91394890  1
  K  K21  1  0.08605110  0.34920271  0.86556787  1
  K  K22  1  0.41394890  0.63443213  0.84920271  1
  K  K23  1  0.36556787  0.84920271  0.58605110  1
  K  K24  1  0.13443213  0.91394890  0.34920271  1
  K  K25  1  0.86556787  0.91394890  0.65079729  1
  K  K26  1  0.34793035  0.65206965  0.34793035  1
  K  K27  1  0.91394890  0.65079729  0.86556787  1
  K  K28  1  0.58605110  0.36556787  0.84920271  1
  K  K29  1  0.08605110  0.65079729  0.13443213  1
  K  K30  1  0.58605110  0.63443213  0.15079729  1
  K  K31  1  0.84793035  0.84793035  0.15206965  1
  Ge  Ge32  1  0.00000000  0.75000000  0.50000000  1
  Ge  Ge33  1  0.50000000  0.00000000  0.25000000  1
  Ge  Ge34  1  0.50000000  0.00000000  0.75000000  1
  Ge  Ge35  1  0.25000000  0.50000000  0.00000000  1
  Ge  Ge36  1  0.00000000  0.25000000  0.50000000  1
  Ge  Ge37  1  0.75000000  0.50000000  0.00000000  1
  Ge  Ge38  1  0.00000000  0.00000000  0.00000000  1
  Ge  Ge39  1  0.50000000  0.50000000  0.50000000  1
  S  S40  1  0.84489262  0.59569134  0.11009521  1
  S  S41  1  0.89981090  0.10018910  0.10018910  1
  S  S42  1  0.38990479  0.09569134  0.65510738  1
  S  S43  1  0.65510738  0.38990479  0.09569134  1
  S  S44  1  0.89981090  0.89981090  0.89981090  1
  S  S45  1  0.60018910  0.39981090  0.60018910  1
  S  S46  1  0.34489262  0.61009521  0.09569134  1
  S  S47  1  0.11009521  0.15510738  0.40430866  1
  S  S48  1  0.09569134  0.65510738  0.38990479  1
  S  S49  1  0.34489262  0.38990479  0.90430866  1
  S  S50  1  0.88990479  0.84489262  0.40430866  1
  S  S51  1  0.11009521  0.84489262  0.59569134  1
  S  S52  1  0.59569134  0.88990479  0.15510738  1
  S  S53  1  0.61009521  0.90430866  0.65510738  1
  S  S54  1  0.15510738  0.40430866  0.11009521  1
  S  S55  1  0.90430866  0.34489262  0.38990479  1
  S  S56  1  0.61009521  0.09569134  0.34489262  1
  S  S57  1  0.40430866  0.11009521  0.15510738  1
  S  S58  1  0.39981090  0.39981090  0.39981090  1
  S  S59  1  0.59569134  0.11009521  0.84489262  1
  S  S60  1  0.88990479  0.15510738  0.59569134  1
  S  S61  1  0.39981090  0.60018910  0.60018910  1
  S  S62  1  0.65510738  0.61009521  0.90430866  1
  S  S63  1  0.10018910  0.89981090  0.10018910  1
  S  S64  1  0.90430866  0.65510738  0.61009521  1
  S  S65  1  0.10018910  0.10018910  0.89981090  1
  S  S66  1  0.84489262  0.40430866  0.88990479  1
  S  S67  1  0.38990479  0.90430866  0.34489262  1
  S  S68  1  0.09569134  0.34489262  0.61009521  1
  S  S69  1  0.40430866  0.88990479  0.84489262  1
  S  S70  1  0.15510738  0.59569134  0.88990479  1
  S  S71  1  0.60018910  0.60018910  0.39981090  1
