# generated using pymatgen
data_Tb10Ti6O27
_symmetry_space_group_name_H-M   'P 1'
_cell_length_a   7.46916925
_cell_length_b   7.30840275
_cell_length_c   14.58187262
_cell_angle_alpha   59.92071664
_cell_angle_beta   59.16612274
_cell_angle_gamma   60.70948812
_symmetry_Int_Tables_number   1
_chemical_formula_structural   Tb10Ti6O27
_chemical_formula_sum   'Tb10 Ti6 O27'
_cell_volume   561.77935178
_cell_formula_units_Z   1
loop_
 _symmetry_equiv_pos_site_id
 _symmetry_equiv_pos_as_xyz
  1  'x, y, z'
loop_
 _atom_site_type_symbol
 _atom_site_label
 _atom_site_symmetry_multiplicity
 _atom_site_fract_x
 _atom_site_fract_y
 _atom_site_fract_z
 _atom_site_occupancy
  Tb  Tb0  1  0.55267805  0.99676459  0.23080304  1
  Tb  Tb1  1  0.55267805  0.48895227  0.23080304  1
  Tb  Tb2  1  0.53867760  0.98338389  0.49727781  1
  Tb  Tb3  1  0.46229497  0.52789793  0.49095408  1
  Tb  Tb4  1  0.50650901  0.98926149  0.75338594  1
  Tb  Tb5  1  0.50650901  0.49745763  0.75338594  1
  Tb  Tb6  1  0.00000205  0.48256126  0.26743722  1
  Tb  Tb7  1  0.53456252  0.47989148  0.00282676  1
  Tb  Tb8  1  0.01401973  0.96731696  0.77567317  1
  Tb  Tb9  1  0.99169266  0.52095795  0.73319572  1
  Ti  Ti10  1  0.02882620  0.99692024  0.99445864  1
  Ti  Ti11  1  0.02882620  0.48533527  0.99445864  1
  Ti  Ti12  1  0.50330822  0.99165681  0.00668858  1
  Ti  Ti13  1  0.99693064  0.99353230  0.25800288  1
  Ti  Ti14  1  0.01770161  0.00056540  0.50403216  1
  Ti  Ti15  1  0.01770161  0.47366967  0.50403216  1
  O  O16  1  0.97962904  0.08040932  0.36222050  1
  O  O17  1  0.03541095  0.77426360  0.95803143  1
  O  O18  1  0.36488877  0.37796817  0.18958795  1
  O  O19  1  0.66126239  0.08263592  0.03746100  1
  O  O20  1  0.97962904  0.71551963  0.36222050  1
  O  O21  1  0.32335967  0.35832696  0.44388312  1
  O  O22  1  0.13255115  0.15608424  0.81774233  1
  O  O23  1  0.30980187  0.92195514  0.17314442  1
  O  O24  1  0.07563385  0.67216177  0.54002130  1
  O  O25  1  0.66126239  0.68118068  0.03746100  1
  O  O26  1  0.67632745  0.11592280  0.29591248  1
  O  O27  1  0.93842841  0.37675565  0.15934880  1
  O  O28  1  0.60997879  0.15850126  0.56490995  1
  O  O29  1  0.62844687  0.62456608  0.31121049  1
  O  O30  1  0.32335967  0.93054713  0.44388312  1
  O  O31  1  0.13255115  0.57587896  0.81774233  1
  O  O32  1  0.37246975  0.87588358  0.68788104  1
  O  O33  1  0.32172619  0.34395574  0.97645121  1
  O  O34  1  0.61838972  0.09781802  0.84298762  1
  O  O35  1  0.60997879  0.60170105  0.56490995  1
  O  O36  1  0.97466852  0.31040718  0.45225906  1
  O  O37  1  0.93842841  0.86611835  0.15934880  1
  O  O38  1  0.92325021  0.33749041  0.66268893  1
  O  O39  1  0.64096595  0.61476735  0.81474918  1
  O  O40  1  0.32172619  0.88141465  0.97645121  1
  O  O41  1  0.92325021  0.91388053  0.66268893  1
  O  O42  1  0.89470446  0.30276171  0.99988656  1
