# generated using pymatgen
data_Rb3Nd2(NO3)9
_symmetry_space_group_name_H-M   'P 1'
_cell_length_a   13.91875815
_cell_length_b   13.91875815
_cell_length_c   13.91875815
_cell_angle_alpha   90.00000000
_cell_angle_beta   90.00000000
_cell_angle_gamma   90.00000000
_symmetry_Int_Tables_number   1
_chemical_formula_structural   Rb3Nd2(NO3)9
_chemical_formula_sum   'Rb12 Nd8 N36 O108'
_cell_volume   2696.50646599
_cell_formula_units_Z   4
loop_
 _symmetry_equiv_pos_site_id
 _symmetry_equiv_pos_as_xyz
  1  'x, y, z'
loop_
 _atom_site_type_symbol
 _atom_site_label
 _atom_site_symmetry_multiplicity
 _atom_site_fract_x
 _atom_site_fract_y
 _atom_site_fract_z
 _atom_site_occupancy
  Rb  Rb0  1  0.87500000  0.80402549  0.55402549  1
  Rb  Rb1  1  0.55402549  0.87500000  0.80402549  1
  Rb  Rb2  1  0.30402549  0.94597451  0.12500000  1
  Rb  Rb3  1  0.94597451  0.12500000  0.30402549  1
  Rb  Rb4  1  0.69597451  0.44597451  0.37500000  1
  Rb  Rb5  1  0.12500000  0.30402549  0.94597451  1
  Rb  Rb6  1  0.05402549  0.62500000  0.19597451  1
  Rb  Rb7  1  0.80402549  0.55402549  0.87500000  1
  Rb  Rb8  1  0.19597451  0.05402549  0.62500000  1
  Rb  Rb9  1  0.37500000  0.69597451  0.44597451  1
  Rb  Rb10  1  0.44597451  0.37500000  0.69597451  1
  Rb  Rb11  1  0.62500000  0.19597451  0.05402549  1
  Nd  Nd12  1  0.44439775  0.55560225  0.05560225  1
  Nd  Nd13  1  0.30560225  0.30560225  0.30560225  1
  Nd  Nd14  1  0.55560225  0.05560225  0.44439775  1
  Nd  Nd15  1  0.94439775  0.94439775  0.94439775  1
  Nd  Nd16  1  0.80560225  0.19439775  0.69439775  1
  Nd  Nd17  1  0.69439775  0.80560225  0.19439775  1
  Nd  Nd18  1  0.19439775  0.69439775  0.80560225  1
  Nd  Nd19  1  0.05560225  0.44439775  0.55560225  1
  N  N20  1  0.73280793  0.87500000  0.98280793  1
  N  N21  1  0.07584973  0.86135699  0.09534934  1
  N  N22  1  0.36135699  0.40465066  0.92415027  1
  N  N23  1  0.32584973  0.84534934  0.88864301  1
  N  N24  1  0.34534934  0.61135699  0.67415027  1
  N  N25  1  0.87500000  0.98280793  0.73280793  1
  N  N26  1  0.67415027  0.34534934  0.61135699  1
  N  N27  1  0.62500000  0.01719207  0.23280793  1
  N  N28  1  0.63864301  0.90465066  0.57584973  1
  N  N29  1  0.48280793  0.76719207  0.12500000  1
  N  N30  1  0.13864301  0.59534934  0.42415027  1
  N  N31  1  0.01719207  0.23280793  0.62500000  1
  N  N32  1  0.84534934  0.88864301  0.32584973  1
  N  N33  1  0.37500000  0.51719207  0.26719207  1
  N  N34  1  0.12500000  0.48280793  0.76719207  1
  N  N35  1  0.17415027  0.15465066  0.38864301  1
  N  N36  1  0.90465066  0.57584973  0.63864301  1
  N  N37  1  0.40465066  0.92415027  0.36135699  1
  N  N38  1  0.92415027  0.36135699  0.40465066  1
  N  N39  1  0.98280793  0.73280793  0.87500000  1
  N  N40  1  0.65465066  0.11135699  0.82584973  1
  N  N41  1  0.51719207  0.26719207  0.37500000  1
  N  N42  1  0.09534934  0.07584973  0.86135699  1
  N  N43  1  0.76719207  0.12500000  0.48280793  1
  N  N44  1  0.61135699  0.67415027  0.34534934  1
  N  N45  1  0.88864301  0.32584973  0.84534934  1
  N  N46  1  0.23280793  0.62500000  0.01719207  1
  N  N47  1  0.57584973  0.63864301  0.90465066  1
  N  N48  1  0.15465066  0.38864301  0.17415027  1
  N  N49  1  0.38864301  0.17415027  0.15465066  1
  N  N50  1  0.82584973  0.65465066  0.11135699  1
  N  N51  1  0.26719207  0.37500000  0.51719207  1
  N  N52  1  0.59534934  0.42415027  0.13864301  1
  N  N53  1  0.86135699  0.09534934  0.07584973  1
  N  N54  1  0.42415027  0.13864301  0.59534934  1
  N  N55  1  0.11135699  0.82584973  0.65465066  1
  O  O56  1  0.84278352  0.63002747  0.67353500  1
  O  O57  1  0.42353500  0.11997253  0.09278352  1
  O  O58  1  0.92529049  0.24350598  0.82691727  1
  O  O59  1  0.45375021  0.89985443  0.43551901  1
  O  O60  1  0.24524516  0.40381801  0.59982842  1
  O  O61  1  0.00649402  0.32470951  0.42308273  1
  O  O62  1  0.13002747  0.82646500  0.15721648  1
  O  O63  1  0.15017158  0.65381801  0.99524516  1
  O  O64  1  0.84982842  0.15381801  0.50475484  1
  O  O65  1  0.37500000  0.45162657  0.20162657  1
  O  O66  1  0.06448099  0.54624979  0.39985443  1
  O  O67  1  0.95375021  0.60014557  0.56448099  1
  O  O68  1  0.17308273  0.42529049  0.25649402  1
  O  O69  1  0.59278352  0.07646500  0.88002747  1
  O  O70  1  0.32691727  0.57470951  0.75649402  1
  O  O71  1  0.40381801  0.59982842  0.24524516  1
  O  O72  1  0.07470951  0.74350598  0.67308273  1
  O  O73  1  0.09278352  0.42353500  0.11997253  1
  O  O74  1  0.49524516  0.34982842  0.34618199  1
  O  O75  1  0.39985443  0.06448099  0.54624979  1
  O  O76  1  0.57646500  0.61997253  0.40721648  1
  O  O77  1  0.67308273  0.07470951  0.74350598  1
  O  O78  1  0.79624979  0.81448099  0.35014557  1
  O  O79  1  0.42529049  0.25649402  0.17308273  1
  O  O80  1  0.81448099  0.35014557  0.79624979  1
  O  O81  1  0.49350598  0.67529049  0.92308273  1
  O  O82  1  0.42308273  0.00649402  0.32470951  1
  O  O83  1  0.54837343  0.70162657  0.12500000  1
  O  O84  1  0.09982842  0.25475484  0.59618199  1
  O  O85  1  0.17529049  0.57691727  0.50649402  1
  O  O86  1  0.40017158  0.74524516  0.09618199  1
  O  O87  1  0.57691727  0.50649402  0.17529049  1
  O  O88  1  0.65017158  0.84618199  0.00475484  1
  O  O89  1  0.62500000  0.95162657  0.29837343  1
  O  O90  1  0.56448099  0.95375021  0.60014557  1
  O  O91  1  0.86997253  0.32646500  0.34278352  1
  O  O92  1  0.15381801  0.50475484  0.84982842  1
  O  O93  1  0.87500000  0.04837343  0.79837343  1
  O  O94  1  0.38002747  0.90721648  0.92353500  1
  O  O95  1  0.50649402  0.17529049  0.57691727  1
  O  O96  1  0.36997253  0.17353500  0.65721648  1
  O  O97  1  0.60014557  0.56448099  0.95375021  1
  O  O98  1  0.89985443  0.43551901  0.45375021  1
  O  O99  1  0.15721648  0.13002747  0.82646500  1
  O  O100  1  0.63002747  0.67353500  0.84278352  1
  O  O101  1  0.40721648  0.57646500  0.61997253  1
  O  O102  1  0.99350598  0.82470951  0.07691727  1
  O  O103  1  0.67529049  0.92308273  0.49350598  1
  O  O104  1  0.61997253  0.40721648  0.57646500  1
  O  O105  1  0.34982842  0.34618199  0.49524516  1
  O  O106  1  0.04837343  0.79837343  0.87500000  1
  O  O107  1  0.07691727  0.99350598  0.82470951  1
  O  O108  1  0.90721648  0.92353500  0.38002747  1
  O  O109  1  0.82470951  0.07691727  0.99350598  1
  O  O110  1  0.70375021  0.18551901  0.85014557  1
  O  O111  1  0.93551901  0.04624979  0.10014557  1
  O  O112  1  0.82646500  0.15721648  0.13002747  1
  O  O113  1  0.59982842  0.24524516  0.40381801  1
  O  O114  1  0.70162657  0.12500000  0.54837343  1
  O  O115  1  0.34278352  0.86997253  0.32646500  1
  O  O116  1  0.20375021  0.31448099  0.14985443  1
  O  O117  1  0.18551901  0.85014557  0.70375021  1
  O  O118  1  0.64985443  0.29624979  0.68551901  1
  O  O119  1  0.45162657  0.20162657  0.37500000  1
  O  O120  1  0.11997253  0.09278352  0.42353500  1
  O  O121  1  0.75649402  0.32691727  0.57470951  1
  O  O122  1  0.99524516  0.15017158  0.65381801  1
  O  O123  1  0.29624979  0.68551901  0.64985443  1
  O  O124  1  0.00475484  0.65017158  0.84618199  1
  O  O125  1  0.50475484  0.84982842  0.15381801  1
  O  O126  1  0.34618199  0.49524516  0.34982842  1
  O  O127  1  0.54624979  0.39985443  0.06448099  1
  O  O128  1  0.79837343  0.87500000  0.04837343  1
  O  O129  1  0.12500000  0.54837343  0.70162657  1
  O  O130  1  0.90381801  0.90017158  0.75475484  1
  O  O131  1  0.92308273  0.49350598  0.67529049  1
  O  O132  1  0.90017158  0.75475484  0.90381801  1
  O  O133  1  0.85014557  0.70375021  0.18551901  1
  O  O134  1  0.65721648  0.36997253  0.17353500  1
  O  O135  1  0.35014557  0.79624979  0.81448099  1
  O  O136  1  0.74350598  0.67308273  0.07470951  1
  O  O137  1  0.20162657  0.37500000  0.45162657  1
  O  O138  1  0.82691727  0.92529049  0.24350598  1
  O  O139  1  0.17353500  0.65721648  0.36997253  1
  O  O140  1  0.14985443  0.20375021  0.31448099  1
  O  O141  1  0.67353500  0.84278352  0.63002747  1
  O  O142  1  0.29837343  0.62500000  0.95162657  1
  O  O143  1  0.43551901  0.45375021  0.89985443  1
  O  O144  1  0.59618199  0.09982842  0.25475484  1
  O  O145  1  0.88002747  0.59278352  0.07646500  1
  O  O146  1  0.74524516  0.09618199  0.40017158  1
  O  O147  1  0.31448099  0.14985443  0.20375021  1
  O  O148  1  0.92353500  0.38002747  0.90721648  1
  O  O149  1  0.68551901  0.64985443  0.29624979  1
  O  O150  1  0.24350598  0.82691727  0.92529049  1
  O  O151  1  0.95162657  0.29837343  0.62500000  1
  O  O152  1  0.75475484  0.90381801  0.90017158  1
  O  O153  1  0.57470951  0.75649402  0.32691727  1
  O  O154  1  0.65381801  0.99524516  0.15017158  1
  O  O155  1  0.25475484  0.59618199  0.09982842  1
  O  O156  1  0.09618199  0.40017158  0.74524516  1
  O  O157  1  0.32470951  0.42308273  0.00649402  1
  O  O158  1  0.25649402  0.17308273  0.42529049  1
  O  O159  1  0.04624979  0.10014557  0.93551901  1
  O  O160  1  0.32646500  0.34278352  0.86997253  1
  O  O161  1  0.84618199  0.00475484  0.65017158  1
  O  O162  1  0.07646500  0.88002747  0.59278352  1
  O  O163  1  0.10014557  0.93551901  0.04624979  1
