# generated using pymatgen
data_Pr2CdSe4
_symmetry_space_group_name_H-M   'P 1'
_cell_length_a   7.81400502
_cell_length_b   7.81400502
_cell_length_c   7.81400428
_cell_angle_alpha   110.87031320
_cell_angle_beta   110.87030815
_cell_angle_gamma   106.70788213
_symmetry_Int_Tables_number   1
_chemical_formula_structural   Pr2CdSe4
_chemical_formula_sum   'Pr4 Cd2 Se8'
_cell_volume   366.64471772
_cell_formula_units_Z   2
loop_
 _symmetry_equiv_pos_site_id
 _symmetry_equiv_pos_as_xyz
  1  'x, y, z'
loop_
 _atom_site_type_symbol
 _atom_site_label
 _atom_site_symmetry_multiplicity
 _atom_site_fract_x
 _atom_site_fract_y
 _atom_site_fract_z
 _atom_site_occupancy
  Cd  Cd0  1  0.62500000  0.37500000  0.25000000  1
  Cd  Cd1  1  0.87500000  0.12500000  0.75000000  1
  Pr  Pr2  1  0.11588907  0.75000000  0.86588907  1
  Pr  Pr3  1  0.25000000  0.61588907  0.36588907  1
  Pr  Pr4  1  0.38411093  0.25000000  0.63411093  1
  Pr  Pr5  1  0.75000000  0.88411093  0.13411093  1
  Se  Se6  1  0.00516231  0.87932642  0.51357826  1
  Se  Se7  1  0.49483769  0.00841595  0.87416411  1
  Se  Se8  1  0.12067358  0.13425185  0.12583589  1
  Se  Se9  1  0.37932642  0.50516231  0.01357826  1
  Se  Se10  1  0.63425185  0.62067358  0.62583589  1
  Se  Se11  1  0.50841595  0.99483769  0.37416411  1
  Se  Se12  1  0.86574815  0.49158405  0.98642174  1
  Se  Se13  1  0.99158405  0.36574815  0.48642174  1
