# generated using pymatgen
data_BaCa2(PN2)6
_symmetry_space_group_name_H-M   'P 1'
_cell_length_a   10.01648646
_cell_length_b   10.01648646
_cell_length_c   10.01648646
_cell_angle_alpha   90.00000000
_cell_angle_beta   90.00000000
_cell_angle_gamma   90.00000000
_symmetry_Int_Tables_number   1
_chemical_formula_structural   BaCa2(PN2)6
_chemical_formula_sum   'Ba4 Ca8 P24 N48'
_cell_volume   1004.95409658
_cell_formula_units_Z   4
loop_
 _symmetry_equiv_pos_site_id
 _symmetry_equiv_pos_as_xyz
  1  'x, y, z'
loop_
 _atom_site_type_symbol
 _atom_site_label
 _atom_site_symmetry_multiplicity
 _atom_site_fract_x
 _atom_site_fract_y
 _atom_site_fract_z
 _atom_site_occupancy
  N  N0  1  0.71513425  0.50696929  0.41147087  1
  N  N1  1  0.21513425  0.99303071  0.58852913  1
  N  N2  1  0.28486575  0.00696929  0.08852913  1
  N  N3  1  0.99303071  0.58852913  0.21513425  1
  N  N4  1  0.08852913  0.28486575  0.00696929  1
  N  N5  1  0.58852913  0.21513425  0.99303071  1
  N  N6  1  0.50696929  0.41147087  0.71513425  1
  N  N7  1  0.41147087  0.71513425  0.50696929  1
  N  N8  1  0.00696929  0.08852913  0.28486575  1
  N  N9  1  0.49303071  0.91147087  0.78486575  1
  N  N10  1  0.91147087  0.78486575  0.49303071  1
  N  N11  1  0.78486575  0.49303071  0.91147087  1
  N  N12  1  0.28486575  0.49303071  0.58852913  1
  N  N13  1  0.78486575  0.00696929  0.41147087  1
  N  N14  1  0.71513425  0.99303071  0.91147087  1
  N  N15  1  0.00696929  0.41147087  0.78486575  1
  N  N16  1  0.91147087  0.71513425  0.99303071  1
  N  N17  1  0.41147087  0.78486575  0.00696929  1
  N  N18  1  0.49303071  0.58852913  0.28486575  1
  N  N19  1  0.58852913  0.28486575  0.49303071  1
  N  N20  1  0.16548003  0.73105579  0.62109728  1
  N  N21  1  0.99303071  0.91147087  0.71513425  1
  N  N22  1  0.08852913  0.21513425  0.50696929  1
  N  N23  1  0.21513425  0.50696929  0.08852913  1
  N  N24  1  0.83451997  0.26894421  0.37890272  1
  N  N25  1  0.33451997  0.23105579  0.62109728  1
  N  N26  1  0.16548003  0.76894421  0.12109728  1
  N  N27  1  0.23105579  0.62109728  0.33451997  1
  N  N28  1  0.12109728  0.16548003  0.76894421  1
  N  N29  1  0.62109728  0.33451997  0.23105579  1
  N  N30  1  0.26894421  0.37890272  0.83451997  1
  N  N31  1  0.37890272  0.83451997  0.26894421  1
  N  N32  1  0.76894421  0.12109728  0.16548003  1
  N  N33  1  0.73105579  0.87890272  0.66548003  1
  N  N34  1  0.87890272  0.66548003  0.73105579  1
  N  N35  1  0.66548003  0.73105579  0.87890272  1
  N  N36  1  0.33451997  0.26894421  0.12109728  1
  N  N37  1  0.12109728  0.33451997  0.26894421  1
  N  N38  1  0.26894421  0.12109728  0.33451997  1
  N  N39  1  0.23105579  0.87890272  0.83451997  1
  N  N40  1  0.62109728  0.16548003  0.73105579  1
  N  N41  1  0.73105579  0.62109728  0.16548003  1
  N  N42  1  0.37890272  0.66548003  0.76894421  1
  N  N43  1  0.87890272  0.83451997  0.23105579  1
  N  N44  1  0.76894421  0.37890272  0.66548003  1
  N  N45  1  0.83451997  0.23105579  0.87890272  1
  N  N46  1  0.66548003  0.76894421  0.37890272  1
  N  N47  1  0.50696929  0.08852913  0.21513425  1
  P  P48  1  0.68988823  0.34671789  0.38046342  1
  P  P49  1  0.18988823  0.15328211  0.61953658  1
  P  P50  1  0.31011177  0.84671789  0.11953658  1
  P  P51  1  0.15328211  0.61953658  0.18988823  1
  P  P52  1  0.11953658  0.31011177  0.84671789  1
  P  P53  1  0.61953658  0.18988823  0.15328211  1
  P  P54  1  0.34671789  0.38046342  0.68988823  1
  P  P55  1  0.38046342  0.68988823  0.34671789  1
  P  P56  1  0.84671789  0.11953658  0.31011177  1
  P  P57  1  0.65328211  0.88046342  0.81011177  1
  P  P58  1  0.88046342  0.81011177  0.65328211  1
  P  P59  1  0.81011177  0.65328211  0.88046342  1
  P  P60  1  0.31011177  0.65328211  0.61953658  1
  P  P61  1  0.81011177  0.84671789  0.38046342  1
  P  P62  1  0.68988823  0.15328211  0.88046342  1
  P  P63  1  0.84671789  0.38046342  0.81011177  1
  P  P64  1  0.88046342  0.68988823  0.15328211  1
  P  P65  1  0.38046342  0.81011177  0.84671789  1
  P  P66  1  0.65328211  0.61953658  0.31011177  1
  P  P67  1  0.61953658  0.31011177  0.65328211  1
  P  P68  1  0.15328211  0.88046342  0.68988823  1
  P  P69  1  0.34671789  0.11953658  0.18988823  1
  P  P70  1  0.11953658  0.18988823  0.34671789  1
  P  P71  1  0.18988823  0.34671789  0.11953658  1
  Ca  Ca72  1  0.37509145  0.12490855  0.87509145  1
  Ca  Ca73  1  0.12490855  0.87509145  0.37509145  1
  Ca  Ca74  1  0.87509145  0.37509145  0.12490855  1
  Ca  Ca75  1  0.62490855  0.62490855  0.62490855  1
  Ca  Ca76  1  0.62490855  0.87509145  0.12490855  1
  Ca  Ca77  1  0.87509145  0.12490855  0.62490855  1
  Ca  Ca78  1  0.12490855  0.62490855  0.87509145  1
  Ca  Ca79  1  0.37509145  0.37509145  0.37509145  1
  Ba  Ba80  1  0.00000000  0.50000000  0.50000000  1
  Ba  Ba81  1  0.50000000  0.50000000  0.00000000  1
  Ba  Ba82  1  0.50000000  0.00000000  0.50000000  1
  Ba  Ba83  1  0.00000000  0.00000000  0.00000000  1
