# generated using pymatgen
data_Zr3Zn3C
_symmetry_space_group_name_H-M   'P 1'
_cell_length_a   8.68069862
_cell_length_b   8.68063712
_cell_length_c   8.68054670
_cell_angle_alpha   59.99978047
_cell_angle_beta   59.99980574
_cell_angle_gamma   59.99785617
_symmetry_Int_Tables_number   1
_chemical_formula_structural   Zr3Zn3C
_chemical_formula_sum   'Zr12 Zn12 C4'
_cell_volume   462.51941226
_cell_formula_units_Z   4
loop_
 _symmetry_equiv_pos_site_id
 _symmetry_equiv_pos_as_xyz
  1  'x, y, z'
loop_
 _atom_site_type_symbol
 _atom_site_label
 _atom_site_symmetry_multiplicity
 _atom_site_fract_x
 _atom_site_fract_y
 _atom_site_fract_z
 _atom_site_occupancy
  Zr  Zr0  1  0.56098231  0.93900147  0.93899070  1
  Zr  Zr1  1  0.56100287  0.56100528  0.93899841  1
  Zr  Zr2  1  0.56100270  0.93900914  0.56100382  1
  Zr  Zr3  1  0.93900707  0.56100642  0.56100066  1
  Zr  Zr4  1  0.93899550  0.93899547  0.56098597  1
  Zr  Zr5  1  0.93900548  0.56098054  0.93899258  1
  Zr  Zr6  1  0.68899309  0.31100015  0.31098676  1
  Zr  Zr7  1  0.68899970  0.68900287  0.31100150  1
  Zr  Zr8  1  0.68900019  0.31099966  0.68901002  1
  Zr  Zr9  1  0.31099908  0.68900206  0.68901053  1
  Zr  Zr10  1  0.31099601  0.31099199  0.68898883  1
  Zr  Zr11  1  0.31100206  0.68899228  0.31098630  1
  Zn  Zn12  1  0.00816570  0.33058889  0.33062463  1
  Zn  Zn13  1  0.33059268  0.33058857  0.00819160  1
  Zn  Zn14  1  0.33059041  0.00816650  0.33062404  1
  Zn  Zn15  1  0.33060443  0.33060114  0.33063180  1
  Zn  Zn16  1  0.24185277  0.91937666  0.91938038  1
  Zn  Zn17  1  0.91937655  0.91938059  0.24185323  1
  Zn  Zn18  1  0.91937558  0.24185118  0.91937943  1
  Zn  Zn19  1  0.91938083  0.91938739  0.91937952  1
  Zn  Zn20  1  0.62498979  0.12499176  0.12501289  1
  Zn  Zn21  1  0.12499521  0.12499652  0.62500742  1
  Zn  Zn22  1  0.12499131  0.62498981  0.12501654  1
  Zn  Zn23  1  0.12499030  0.12498639  0.12500536  1
  C  C24  1  0.12503172  0.62501873  0.62498420  1
  C  C25  1  0.62502709  0.62502719  0.12497554  1
  C  C26  1  0.62502060  0.12503023  0.62498744  1
  C  C27  1  0.62502899  0.62503113  0.62498990  1
