# generated using pymatgen
data_BaNaP
_symmetry_space_group_name_H-M   'P 1'
_cell_length_a   8.00619221
_cell_length_b   8.00619222
_cell_length_c   4.69976629
_cell_angle_alpha   90.00000000
_cell_angle_beta   90.00000000
_cell_angle_gamma   120.00000000
_symmetry_Int_Tables_number   1
_chemical_formula_structural   BaNaP
_chemical_formula_sum   'Ba3 Na3 P3'
_cell_volume   260.89089263
_cell_formula_units_Z   3
loop_
 _symmetry_equiv_pos_site_id
 _symmetry_equiv_pos_as_xyz
  1  'x, y, z'
loop_
 _atom_site_type_symbol
 _atom_site_label
 _atom_site_symmetry_multiplicity
 _atom_site_fract_x
 _atom_site_fract_y
 _atom_site_fract_z
 _atom_site_occupancy
  Na  Na0  1  0.24211683  0.00000000  0.00000000  1
  Na  Na1  1  0.75788317  0.75788317  0.00000000  1
  Na  Na2  1  0.00000000  0.24211683  0.00000000  1
  P  P3  1  0.66666667  0.33333333  0.00000000  1
  P  P4  1  0.00000000  0.00000000  0.50000000  1
  P  P5  1  0.33333333  0.66666667  0.00000000  1
  Ba  Ba6  1  0.00000000  0.58837364  0.50000000  1
  Ba  Ba7  1  0.58837364  0.00000000  0.50000000  1
  Ba  Ba8  1  0.41162636  0.41162636  0.50000000  1
