# generated using pymatgen
data_U
_symmetry_space_group_name_H-M   'P 1'
_cell_length_a   5.70574821
_cell_length_b   10.41849635
_cell_length_c   10.41849635
_cell_angle_alpha   90.00000000
_cell_angle_beta   90.00000000
_cell_angle_gamma   90.00000000
_symmetry_Int_Tables_number   1
_chemical_formula_structural   U
_chemical_formula_sum   U30
_cell_volume   619.33081715
_cell_formula_units_Z   30
loop_
 _symmetry_equiv_pos_site_id
 _symmetry_equiv_pos_as_xyz
  1  'x, y, z'
loop_
 _atom_site_type_symbol
 _atom_site_label
 _atom_site_symmetry_multiplicity
 _atom_site_fract_x
 _atom_site_fract_y
 _atom_site_fract_z
 _atom_site_occupancy
  U  U0  1  0.73113456  0.00000000  0.00000000  1
  U  U1  1  0.23113456  0.50000000  0.50000000  1
  U  U2  1  0.26742213  0.10970393  0.10970393  1
  U  U3  1  0.76742213  0.39029607  0.60970393  1
  U  U4  1  0.76742213  0.60970393  0.39029607  1
  U  U5  1  0.26742213  0.89029607  0.89029607  1
  U  U6  1  0.94757741  0.32293523  0.32293523  1
  U  U7  1  0.44757741  0.17706477  0.82293523  1
  U  U8  1  0.44757741  0.82293523  0.17706477  1
  U  U9  1  0.94757741  0.67706477  0.67706477  1
  U  U10  1  0.49866762  0.67685590  0.67685590  1
  U  U11  1  0.99866762  0.82314410  0.17685590  1
  U  U12  1  0.99866762  0.17685590  0.82314410  1
  U  U13  1  0.49866762  0.32314410  0.32314410  1
  U  U14  1  0.24976607  0.55569745  0.22884580  1
  U  U15  1  0.74976607  0.27115420  0.05569745  1
  U  U16  1  0.74976607  0.72884580  0.94430255  1
  U  U17  1  0.24976607  0.44430255  0.77115420  1
  U  U18  1  0.74976607  0.94430255  0.72884580  1
  U  U19  1  0.74976607  0.05569745  0.27115420  1
  U  U20  1  0.24976607  0.77115420  0.44430255  1
  U  U21  1  0.24976607  0.22884580  0.55569745  1
  U  U22  1  0.19061671  0.35872152  0.04969631  1
  U  U23  1  0.69061671  0.45030369  0.85872152  1
  U  U24  1  0.69061671  0.54969631  0.14127848  1
  U  U25  1  0.19061671  0.64127848  0.95030369  1
  U  U26  1  0.69061671  0.14127848  0.54969631  1
  U  U27  1  0.69061671  0.85872152  0.45030369  1
  U  U28  1  0.19061671  0.95030369  0.64127848  1
  U  U29  1  0.19061671  0.04969631  0.35872152  1
