# generated using pymatgen
data_Ti4Cd(CuO4)3
_symmetry_space_group_name_H-M   'P 1'
_cell_length_a   6.45866836
_cell_length_b   6.45866807
_cell_length_c   6.45866845
_cell_angle_alpha   109.47121861
_cell_angle_beta   109.47121779
_cell_angle_gamma   109.47122442
_symmetry_Int_Tables_number   1
_chemical_formula_structural   Ti4Cd(CuO4)3
_chemical_formula_sum   'Ti4 Cd1 Cu3 O12'
_cell_volume   207.39919016
_cell_formula_units_Z   1
loop_
 _symmetry_equiv_pos_site_id
 _symmetry_equiv_pos_as_xyz
  1  'x, y, z'
loop_
 _atom_site_type_symbol
 _atom_site_label
 _atom_site_symmetry_multiplicity
 _atom_site_fract_x
 _atom_site_fract_y
 _atom_site_fract_z
 _atom_site_occupancy
  Cd  Cd0  1  0.00000000  0.00000000  0.00000000  1
  Cu  Cu1  1  0.00000000  0.50000000  0.50000000  1
  Cu  Cu2  1  0.50000000  0.50000000  0.00000000  1
  Cu  Cu3  1  0.50000000  0.00000000  0.50000000  1
  Ti  Ti4  1  0.50000000  0.50000000  0.50000000  1
  Ti  Ti5  1  0.00000000  0.50000000  0.00000000  1
  Ti  Ti6  1  0.00000000  0.00000000  0.50000000  1
  Ti  Ti7  1  0.50000000  0.00000000  0.00000000  1
  O  O8  1  0.48263276  0.17793700  0.30469576  1
  O  O9  1  0.17793700  0.69530424  0.87324124  1
  O  O10  1  0.30469576  0.12675876  0.82206300  1
  O  O11  1  0.82206300  0.69530424  0.51736724  1
  O  O12  1  0.69530424  0.87324124  0.17793700  1
  O  O13  1  0.82206300  0.30469576  0.12675876  1
  O  O14  1  0.69530424  0.51736724  0.82206300  1
  O  O15  1  0.30469576  0.48263276  0.17793700  1
  O  O16  1  0.17793700  0.30469576  0.48263276  1
  O  O17  1  0.87324124  0.17793700  0.69530424  1
  O  O18  1  0.12675876  0.82206300  0.30469576  1
  O  O19  1  0.51736724  0.82206300  0.69530424  1
