# generated using pymatgen
data_Cs2KFe(CN)6
_symmetry_space_group_name_H-M   'P 1'
_cell_length_a   7.75450079
_cell_length_b   8.21964500
_cell_length_c   11.26370878
_cell_angle_alpha   90.00000000
_cell_angle_beta   90.25362110
_cell_angle_gamma   90.00000000
_symmetry_Int_Tables_number   1
_chemical_formula_structural   Cs2KFe(CN)6
_chemical_formula_sum   'Cs4 K2 Fe2 C12 N12'
_cell_volume   717.93324434
_cell_formula_units_Z   2
loop_
 _symmetry_equiv_pos_site_id
 _symmetry_equiv_pos_as_xyz
  1  'x, y, z'
loop_
 _atom_site_type_symbol
 _atom_site_label
 _atom_site_symmetry_multiplicity
 _atom_site_fract_x
 _atom_site_fract_y
 _atom_site_fract_z
 _atom_site_occupancy
  Cs  Cs0  1  0.97986255  0.43264007  0.25066535  1
  Cs  Cs1  1  0.52013745  0.93264007  0.24933465  1
  Cs  Cs2  1  0.02013745  0.56735993  0.74933465  1
  Cs  Cs3  1  0.47986255  0.06735993  0.75066535  1
  Fe  Fe4  1  0.50000000  0.50000000  0.50000000  1
  Fe  Fe5  1  0.00000000  0.00000000  0.00000000  1
  K  K6  1  0.50000000  0.50000000  0.00000000  1
  K  K7  1  0.00000000  0.00000000  0.50000000  1
  N  N8  1  0.38600517  0.53967166  0.23852256  1
  N  N9  1  0.11399483  0.03967166  0.26147744  1
  N  N10  1  0.61399483  0.46032834  0.76147744  1
  N  N11  1  0.88600517  0.96032834  0.73852256  1
  N  N12  1  0.67162624  0.20014819  0.05216098  1
  N  N13  1  0.82837376  0.70014819  0.44783902  1
  N  N14  1  0.32837376  0.79985181  0.94783902  1
  N  N15  1  0.17162624  0.29985181  0.55216098  1
  N  N16  1  0.19635905  0.31517509  0.93510181  1
  N  N17  1  0.30364095  0.81517509  0.56489819  1
  N  N18  1  0.80364095  0.68482491  0.06489819  1
  N  N19  1  0.69635905  0.18482491  0.43510181  1
  C  C20  1  0.42985038  0.52286718  0.33807372  1
  C  C21  1  0.07014962  0.02286718  0.16192628  1
  C  C22  1  0.57014962  0.47713282  0.66192628  1
  C  C23  1  0.92985038  0.97713282  0.83807372  1
  C  C24  1  0.79688859  0.12439101  0.03122373  1
  C  C25  1  0.70311141  0.62439101  0.46877627  1
  C  C26  1  0.20311141  0.87560899  0.96877627  1
  C  C27  1  0.29688859  0.37560899  0.53122373  1
  C  C28  1  0.12121842  0.19544844  0.96018605  1
  C  C29  1  0.37878158  0.69544844  0.53981395  1
  C  C30  1  0.87878158  0.80455156  0.03981395  1
  C  C31  1  0.62121842  0.30455156  0.46018605  1
