# generated using pymatgen
data_Ba(GeRh)2
_symmetry_space_group_name_H-M   'P 1'
_cell_length_a   4.23190585
_cell_length_b   4.23190585
_cell_length_c   6.80277315
_cell_angle_alpha   108.12207966
_cell_angle_beta   108.12207967
_cell_angle_gamma   89.99999993
_symmetry_Int_Tables_number   1
_chemical_formula_structural   Ba(GeRh)2
_chemical_formula_sum   'Ba1 Ge2 Rh2'
_cell_volume   109.41112481
_cell_formula_units_Z   1
loop_
 _symmetry_equiv_pos_site_id
 _symmetry_equiv_pos_as_xyz
  1  'x, y, z'
loop_
 _atom_site_type_symbol
 _atom_site_label
 _atom_site_symmetry_multiplicity
 _atom_site_fract_x
 _atom_site_fract_y
 _atom_site_fract_z
 _atom_site_occupancy
  Ge  Ge0  1  0.64663950  0.64663950  0.29327899  1
  Ge  Ge1  1  0.35336050  0.35336050  0.70672101  1
  Rh  Rh2  1  0.25000000  0.75000000  0.50000000  1
  Rh  Rh3  1  0.75000000  0.25000000  0.50000000  1
  Ba  Ba4  1  0.00000000  0.00000000  0.00000000  1
