# generated using pymatgen
data_FeCoH18(CN2)6
_symmetry_space_group_name_H-M   'P 1'
_cell_length_a   7.34049102
_cell_length_b   7.34049176
_cell_length_c   7.34049175
_cell_angle_alpha   97.61973833
_cell_angle_beta   97.61973904
_cell_angle_gamma   97.61973569
_symmetry_Int_Tables_number   1
_chemical_formula_structural   FeCoH18(CN2)6
_chemical_formula_sum   'Fe1 Co1 H18 C6 N12'
_cell_volume   384.00510723
_cell_formula_units_Z   1
loop_
 _symmetry_equiv_pos_site_id
 _symmetry_equiv_pos_as_xyz
  1  'x, y, z'
loop_
 _atom_site_type_symbol
 _atom_site_label
 _atom_site_symmetry_multiplicity
 _atom_site_fract_x
 _atom_site_fract_y
 _atom_site_fract_z
 _atom_site_occupancy
  Fe  Fe0  1  0.00000000  0.00000000  0.00000000  1
  N  N1  1  0.37000875  0.20755216  0.92479078  1
  N  N2  1  0.92479078  0.37000875  0.20755216  1
  N  N3  1  0.20755216  0.92479078  0.37000875  1
  N  N4  1  0.62999125  0.79244784  0.07520922  1
  N  N5  1  0.07520922  0.62999125  0.79244784  1
  N  N6  1  0.79244784  0.07520922  0.62999125  1
  C  C7  1  0.22901076  0.12554027  0.95091650  1
  C  C8  1  0.95091650  0.22901076  0.12554027  1
  C  C9  1  0.12554027  0.95091650  0.22901076  1
  C  C10  1  0.77098924  0.87445973  0.04908350  1
  C  C11  1  0.04908350  0.77098924  0.87445973  1
  C  C12  1  0.87445973  0.04908350  0.77098924  1
  Co  Co13  1  0.50000000  0.50000000  0.50000000  1
  N  N14  1  0.55131414  0.26113935  0.37176885  1
  N  N15  1  0.37176885  0.55131414  0.26113935  1
  N  N16  1  0.26113935  0.37176885  0.55131414  1
  N  N17  1  0.44868586  0.73886065  0.62823115  1
  N  N18  1  0.62823115  0.44868586  0.73886065  1
  N  N19  1  0.73886065  0.62823115  0.44868586  1
  H  H20  1  0.65285513  0.20552920  0.44905682  1
  H  H21  1  0.44905682  0.65285513  0.20552920  1
  H  H22  1  0.20552921  0.44905682  0.65285513  1
  H  H23  1  0.34714487  0.79447080  0.55094318  1
  H  H24  1  0.55094318  0.34714487  0.79447080  1
  H  H25  1  0.79447079  0.55094318  0.34714487  1
  H  H26  1  0.43578948  0.16002797  0.34521642  1
  H  H27  1  0.34521642  0.43578948  0.16002797  1
  H  H28  1  0.16002797  0.34521642  0.43578948  1
  H  H29  1  0.56421052  0.83997203  0.65478358  1
  H  H30  1  0.65478358  0.56421052  0.83997203  1
  H  H31  1  0.83997203  0.65478358  0.56421052  1
  H  H32  1  0.59416643  0.27331007  0.24585983  1
  H  H33  1  0.24585984  0.59416643  0.27331007  1
  H  H34  1  0.27331007  0.24585983  0.59416643  1
  H  H35  1  0.40583357  0.72668993  0.75414017  1
  H  H36  1  0.75414016  0.40583357  0.72668993  1
  H  H37  1  0.72668993  0.75414017  0.40583357  1
