# generated using pymatgen
data_RbNdSe2
_symmetry_space_group_name_H-M   'P 1'
_cell_length_a   8.41622689
_cell_length_b   8.41622689
_cell_length_c   8.41622688
_cell_angle_alpha   30.19201965
_cell_angle_beta   30.19201967
_cell_angle_gamma   30.19201965
_symmetry_Int_Tables_number   1
_chemical_formula_structural   RbNdSe2
_chemical_formula_sum   'Rb1 Nd1 Se2'
_cell_volume   133.58744647
_cell_formula_units_Z   1
loop_
 _symmetry_equiv_pos_site_id
 _symmetry_equiv_pos_as_xyz
  1  'x, y, z'
loop_
 _atom_site_type_symbol
 _atom_site_label
 _atom_site_symmetry_multiplicity
 _atom_site_fract_x
 _atom_site_fract_y
 _atom_site_fract_z
 _atom_site_occupancy
  Se  Se0  1  0.23365792  0.23365792  0.23365792  1
  Se  Se1  1  0.76634208  0.76634208  0.76634208  1
  Rb  Rb2  1  0.00000000  0.00000000  0.00000000  1
  Nd  Nd3  1  0.50000000  0.50000000  0.50000000  1
