# generated using pymatgen
data_K2Sn(AsS3)2
_symmetry_space_group_name_H-M   'P 1'
_cell_length_a   6.78498596
_cell_length_b   6.78498596
_cell_length_c   7.39901520
_cell_angle_alpha   90.00000000
_cell_angle_beta   90.00000000
_cell_angle_gamma   119.99999998
_symmetry_Int_Tables_number   1
_chemical_formula_structural   K2Sn(AsS3)2
_chemical_formula_sum   'K2 Sn1 As2 S6'
_cell_volume   294.98671516
_cell_formula_units_Z   1
loop_
 _symmetry_equiv_pos_site_id
 _symmetry_equiv_pos_as_xyz
  1  'x, y, z'
loop_
 _atom_site_type_symbol
 _atom_site_label
 _atom_site_symmetry_multiplicity
 _atom_site_fract_x
 _atom_site_fract_y
 _atom_site_fract_z
 _atom_site_occupancy
  S  S0  1  0.22913790  0.89072771  0.22179353  1
  S  S1  1  0.89072771  0.66158981  0.77820647  1
  S  S2  1  0.77086210  0.10927229  0.77820647  1
  S  S3  1  0.33841019  0.22913790  0.77820647  1
  S  S4  1  0.66158981  0.77086210  0.22179353  1
  S  S5  1  0.10927229  0.33841019  0.22179353  1
  K  K6  1  0.33333333  0.66666667  0.60168278  1
  K  K7  1  0.66666667  0.33333333  0.39831722  1
  As  As8  1  0.33333333  0.66666667  0.06601191  1
  As  As9  1  0.66666667  0.33333333  0.93398809  1
  Sn  Sn10  1  0.00000000  0.00000000  0.00000000  1
