# generated using pymatgen
data_RbGdSe2
_symmetry_space_group_name_H-M   'P 1'
_cell_length_a   8.36790300
_cell_length_b   8.36790299
_cell_length_c   8.36790299
_cell_angle_alpha   29.75465168
_cell_angle_beta   29.75465171
_cell_angle_gamma   29.75465172
_symmetry_Int_Tables_number   1
_chemical_formula_structural   RbGdSe2
_chemical_formula_sum   'Rb1 Gd1 Se2'
_cell_volume   127.78655793
_cell_formula_units_Z   1
loop_
 _symmetry_equiv_pos_site_id
 _symmetry_equiv_pos_as_xyz
  1  'x, y, z'
loop_
 _atom_site_type_symbol
 _atom_site_label
 _atom_site_symmetry_multiplicity
 _atom_site_fract_x
 _atom_site_fract_y
 _atom_site_fract_z
 _atom_site_occupancy
  Se  Se0  1  0.23209292  0.23209292  0.23209292  1
  Se  Se1  1  0.76790708  0.76790708  0.76790708  1
  Rb  Rb2  1  0.00000000  0.00000000  0.00000000  1
  Gd  Gd3  1  0.50000000  0.50000000  0.50000000  1
