# generated using pymatgen
data_V2FeO4
_symmetry_space_group_name_H-M   'P 1'
_cell_length_a   6.05050309
_cell_length_b   6.05050308
_cell_length_c   6.05050309
_cell_angle_alpha   60.00000001
_cell_angle_beta   60.00000003
_cell_angle_gamma   60.00000003
_symmetry_Int_Tables_number   1
_chemical_formula_structural   V2FeO4
_chemical_formula_sum   'V4 Fe2 O8'
_cell_volume   156.62441530
_cell_formula_units_Z   2
loop_
 _symmetry_equiv_pos_site_id
 _symmetry_equiv_pos_as_xyz
  1  'x, y, z'
loop_
 _atom_site_type_symbol
 _atom_site_label
 _atom_site_symmetry_multiplicity
 _atom_site_fract_x
 _atom_site_fract_y
 _atom_site_fract_z
 _atom_site_occupancy
  O  O0  1  0.74412278  0.74412278  0.74412278  1
  O  O1  1  0.25587722  0.25587722  0.73236834  1
  O  O2  1  0.25587722  0.73236834  0.25587722  1
  O  O3  1  0.73236834  0.25587722  0.25587722  1
  O  O4  1  0.74412278  0.26763166  0.74412278  1
  O  O5  1  0.26763166  0.74412278  0.74412278  1
  O  O6  1  0.25587722  0.25587722  0.25587722  1
  O  O7  1  0.74412278  0.74412278  0.26763166  1
  V  V8  1  0.50000000  0.00000000  0.50000000  1
  V  V9  1  0.00000000  0.50000000  0.50000000  1
  V  V10  1  0.50000000  0.50000000  0.00000000  1
  V  V11  1  0.50000000  0.50000000  0.50000000  1
  Fe  Fe12  1  0.12500000  0.12500000  0.12500000  1
  Fe  Fe13  1  0.87500000  0.87500000  0.87500000  1
