# generated using pymatgen
data_TaTlS3
_symmetry_space_group_name_H-M   'P 1'
_cell_length_a   3.52349341
_cell_length_b   9.42706544
_cell_length_c   14.72465436
_cell_angle_alpha   90.00000000
_cell_angle_beta   90.00000000
_cell_angle_gamma   90.00000000
_symmetry_Int_Tables_number   1
_chemical_formula_structural   TaTlS3
_chemical_formula_sum   'Ta4 Tl4 S12'
_cell_volume   489.09710764
_cell_formula_units_Z   4
loop_
 _symmetry_equiv_pos_site_id
 _symmetry_equiv_pos_as_xyz
  1  'x, y, z'
loop_
 _atom_site_type_symbol
 _atom_site_label
 _atom_site_symmetry_multiplicity
 _atom_site_fract_x
 _atom_site_fract_y
 _atom_site_fract_z
 _atom_site_occupancy
  S  S0  1  0.25000000  0.52281207  0.09619923  1
  S  S1  1  0.75000000  0.47718793  0.90380077  1
  S  S2  1  0.25000000  0.02281207  0.40380077  1
  S  S3  1  0.75000000  0.97718793  0.59619923  1
  S  S4  1  0.25000000  0.74893090  0.78809685  1
  S  S5  1  0.75000000  0.25106910  0.21190315  1
  S  S6  1  0.25000000  0.24893090  0.71190315  1
  S  S7  1  0.75000000  0.75106910  0.28809685  1
  S  S8  1  0.25000000  0.69307807  0.49841046  1
  S  S9  1  0.75000000  0.30692193  0.50158954  1
  S  S10  1  0.25000000  0.19307807  0.00158954  1
  S  S11  1  0.75000000  0.80692193  0.99841046  1
  Ta  Ta12  1  0.25000000  0.65906335  0.93038477  1
  Ta  Ta13  1  0.75000000  0.34093665  0.06961523  1
  Ta  Ta14  1  0.25000000  0.15906335  0.56961523  1
  Ta  Ta15  1  0.75000000  0.84093665  0.43038477  1
  Tl  Tl16  1  0.75000000  0.51658693  0.67254548  1
  Tl  Tl17  1  0.25000000  0.48341307  0.32745452  1
  Tl  Tl18  1  0.75000000  0.01658693  0.82745452  1
  Tl  Tl19  1  0.25000000  0.98341307  0.17254548  1
