# generated using pymatgen
data_AlCu2Sb(HO)12
_symmetry_space_group_name_H-M   'P 1'
_cell_length_a   9.24872336
_cell_length_b   9.20949586
_cell_length_c   9.74351480
_cell_angle_alpha   90.14351460
_cell_angle_beta   90.10193096
_cell_angle_gamma   119.05220022
_symmetry_Int_Tables_number   1
_chemical_formula_structural   AlCu2Sb(HO)12
_chemical_formula_sum   'Al3 Cu6 Sb3 H36 O36'
_cell_volume   725.48607772
_cell_formula_units_Z   3
loop_
 _symmetry_equiv_pos_site_id
 _symmetry_equiv_pos_as_xyz
  1  'x, y, z'
loop_
 _atom_site_type_symbol
 _atom_site_label
 _atom_site_symmetry_multiplicity
 _atom_site_fract_x
 _atom_site_fract_y
 _atom_site_fract_z
 _atom_site_occupancy
  Al  Al0  1  0.99736342  0.00047594  0.49734004  1
  Al  Al1  1  0.33539959  0.66762653  0.50640867  1
  Al  Al2  1  0.67057899  0.33382948  0.49086127  1
  Cu  Cu3  1  0.32803432  0.98677805  0.49281784  1
  Cu  Cu4  1  0.01345049  0.34062631  0.50552678  1
  Cu  Cu5  1  0.34271064  0.32825892  0.49601138  1
  Cu  Cu6  1  0.66009760  0.67394736  0.49598824  1
  Cu  Cu7  1  0.98622514  0.65972518  0.50363834  1
  Cu  Cu8  1  0.67293676  0.01353368  0.50146235  1
  H  H9  1  0.03828118  0.85630599  0.70374499  1
  H  H10  1  0.19597865  0.90415521  0.11372620  1
  H  H11  1  0.05552667  0.56511138  0.15117631  1
  H  H12  1  0.23571536  0.84012306  0.88313169  1
  H  H13  1  0.21672382  0.75310377  0.29885187  1
  H  H14  1  0.14569620  0.53859082  0.71243477  1
  H  H15  1  0.06769593  0.27211962  0.10813114  1
  H  H16  1  0.39967512  0.86898635  0.70437898  1
  H  H17  1  0.17156881  0.40516804  0.89043756  1
  H  H18  1  0.13505685  0.20481401  0.70034553  1
  H  H19  1  0.26261612  0.46974179  0.30047783  1
  H  H20  1  0.57311583  0.94836176  0.11451157  1
  H  H21  1  0.53999420  0.79256300  0.29989169  1
  H  H22  1  0.18852888  0.04857988  0.29320571  1
  H  H23  1  0.37576175  0.43553384  0.11026580  1
  H  H24  1  0.47298403  0.61164635  0.70719272  1
  H  H25  1  0.27333245  0.19243883  0.88024523  1
  H  H26  1  0.60839716  0.78181072  0.88858533  1
  H  H27  1  0.36639274  0.20225669  0.10628423  1
  H  H28  1  0.72600089  0.81537626  0.11364586  1
  H  H29  1  0.53263485  0.39272582  0.28781594  1
  H  H30  1  0.60324139  0.56049074  0.88054080  1
  H  H31  1  0.80614003  0.94991614  0.70509128  1
  H  H32  1  0.46163503  0.20809338  0.69104255  1
  H  H33  1  0.43901650  0.05474951  0.87783656  1
  H  H34  1  0.73407816  0.53325233  0.69613990  1
  H  H35  1  0.86185114  0.80243246  0.29397248  1
  H  H36  1  0.81654670  0.62393754  0.10165704  1
  H  H37  1  0.61062862  0.14069804  0.28765655  1
  H  H38  1  1.01101028  0.84690742  0.89037755  1
  H  H39  1  0.92149861  0.44803083  0.29768426  1
  H  H40  1  0.78098395  0.25299796  0.70564733  1
  H  H41  1  0.77206861  0.18567283  0.11218474  1
  H  H42  1  0.93373634  0.39283124  0.89647644  1
  H  H43  1  0.80814197  0.08677444  0.88900730  1
  H  H44  1  0.94181719  0.14150009  0.29508892  1
  O  O45  1  0.06875592  0.87339447  0.60690128  1
  O  O46  1  0.16080527  0.50703253  0.88590507  1
  O  O47  1  0.21851756  0.75739464  0.40298239  1
  O  O48  1  0.13712082  0.55260367  0.61151392  1
  O  O49  1  0.19906812  0.73343619  0.12586655  1
  O  O50  1  0.34692751  0.85309507  0.87542260  1
  O  O51  1  0.42214935  0.87302791  0.60407626  1
  O  O52  1  0.12420017  0.20882387  0.59844144  1
  O  O53  1  0.25136327  0.46443843  0.40307626  1
  O  O54  1  0.30297467  0.48630221  0.13080413  1
  O  O55  1  0.16435152  0.18911555  0.87646169  1
  O  O56  1  0.54421110  0.82925643  0.12639226  1
  O  O57  1  0.54016073  0.78326013  0.40244005  1
  O  O58  1  0.19458055  0.06820386  0.39433227  1
  O  O59  1  0.45516532  0.58484357  0.60763161  1
  O  O60  1  0.18846916  0.01219994  0.11650373  1
  O  O61  1  0.50778312  0.67073939  0.88354293  1
  O  O62  1  0.46194247  0.31825599  0.10734219  1
  O  O63  1  0.81341210  0.98248711  0.87773061  1
  O  O64  1  0.55249062  0.41826555  0.38723531  1
  O  O65  1  0.80097752  0.92972203  0.60394586  1
  O  O66  1  0.45900113  0.21696806  0.58852521  1
  O  O67  1  0.46993948  0.17395784  0.86080606  1
  O  O68  1  0.83389276  0.81429951  0.11796129  1
  O  O69  1  0.67715723  0.51188852  0.85965041  1
  O  O70  1  0.75288015  0.53921114  0.59384203  1
  O  O71  1  0.87207374  0.79941410  0.39562812  1
  O  O72  1  0.58958204  0.13483010  0.38816923  1
  O  O73  1  0.65401109  0.15740286  0.11148478  1
  O  O74  1  0.78126153  0.50564113  0.12803126  1
  O  O75  1  0.88701530  0.44664883  0.40953314  1
  O  O76  1  0.77270205  0.23700957  0.60391094  1
  O  O77  1  0.81760058  0.30631203  0.87692078  1
  O  O78  1  0.96773193  0.44335050  0.17357498  1
  O  O79  1  0.92303986  0.12949341  0.39627445  1
  O  O80  1  0.97748605  0.15703120  0.11972349  1
  Sb  Sb81  1  1.00232114  0.99592262  0.99684549  1
  Sb  Sb82  1  0.33894979  0.67874116  0.01370339  1
  Sb  Sb83  1  0.64715828  0.33237926  0.98812698  1
