# generated using pymatgen
data_Yb2Ge6Pd
_symmetry_space_group_name_H-M   'P 1'
_cell_length_a   5.75326840
_cell_length_b   5.75326840
_cell_length_c   22.55508126
_cell_angle_alpha   90.00000000
_cell_angle_beta   90.00000000
_cell_angle_gamma   91.49929054
_symmetry_Int_Tables_number   1
_chemical_formula_structural   Yb2Ge6Pd
_chemical_formula_sum   'Yb8 Ge24 Pd4'
_cell_volume   746.31979367
_cell_formula_units_Z   4
loop_
 _symmetry_equiv_pos_site_id
 _symmetry_equiv_pos_as_xyz
  1  'x, y, z'
loop_
 _atom_site_type_symbol
 _atom_site_label
 _atom_site_symmetry_multiplicity
 _atom_site_fract_x
 _atom_site_fract_y
 _atom_site_fract_z
 _atom_site_occupancy
  Ge  Ge0  1  0.59629920  0.59629920  0.80547570  1
  Ge  Ge1  1  0.90370080  0.90370080  0.30547570  1
  Ge  Ge2  1  0.09629920  0.09629920  0.69452430  1
  Ge  Ge3  1  0.40370080  0.40370080  0.19452430  1
  Ge  Ge4  1  0.65214249  0.65214249  0.69426468  1
  Ge  Ge5  1  0.84785751  0.84785751  0.19426468  1
  Ge  Ge6  1  0.15214249  0.15214249  0.80573532  1
  Ge  Ge7  1  0.34785751  0.34785751  0.30573532  1
  Ge  Ge8  1  0.87066619  0.87066619  0.96974886  1
  Ge  Ge9  1  0.62933381  0.62933381  0.46974886  1
  Ge  Ge10  1  0.37066619  0.37066619  0.53025114  1
  Ge  Ge11  1  0.12933381  0.12933381  0.03025114  1
  Ge  Ge12  1  0.39968916  0.85156642  0.19492784  1
  Ge  Ge13  1  0.10031084  0.64843358  0.69492784  1
  Ge  Ge14  1  0.35156642  0.89968916  0.30507216  1
  Ge  Ge15  1  0.14843358  0.60031084  0.80507216  1
  Ge  Ge16  1  0.60031084  0.14843358  0.80507216  1
  Ge  Ge17  1  0.89968916  0.35156642  0.30507216  1
  Ge  Ge18  1  0.64843358  0.10031084  0.69492784  1
  Ge  Ge19  1  0.85156642  0.39968916  0.19492784  1
  Ge  Ge20  1  0.12170666  0.12170666  0.46431236  1
  Ge  Ge21  1  0.37829334  0.37829334  0.96431236  1
  Ge  Ge22  1  0.62170666  0.62170666  0.03568764  1
  Ge  Ge23  1  0.87829334  0.87829334  0.53568764  1
  Pd  Pd24  1  0.87427282  0.87427282  0.85944831  1
  Pd  Pd25  1  0.62572718  0.62572718  0.35944831  1
  Pd  Pd26  1  0.37427282  0.37427282  0.64055169  1
  Pd  Pd27  1  0.12572718  0.12572718  0.14055169  1
  Yb  Yb28  1  0.12597507  0.62503091  0.08493196  1
  Yb  Yb29  1  0.37402493  0.87496909  0.58493196  1
  Yb  Yb30  1  0.12503091  0.62597507  0.41506804  1
  Yb  Yb31  1  0.37496909  0.87402493  0.91506804  1
  Yb  Yb32  1  0.87402493  0.37496909  0.91506804  1
  Yb  Yb33  1  0.62597507  0.12503091  0.41506804  1
  Yb  Yb34  1  0.87496909  0.37402493  0.58493196  1
  Yb  Yb35  1  0.62503091  0.12597507  0.08493196  1
