# generated using pymatgen
data_SrLiBO3
_symmetry_space_group_name_H-M   'P 1'
_cell_length_a   6.66675210
_cell_length_b   6.70737862
_cell_length_c   6.93371850
_cell_angle_alpha   90.00000000
_cell_angle_beta   109.03854701
_cell_angle_gamma   90.00000000
_symmetry_Int_Tables_number   1
_chemical_formula_structural   SrLiBO3
_chemical_formula_sum   'Sr4 Li4 B4 O12'
_cell_volume   293.09113599
_cell_formula_units_Z   4
loop_
 _symmetry_equiv_pos_site_id
 _symmetry_equiv_pos_as_xyz
  1  'x, y, z'
loop_
 _atom_site_type_symbol
 _atom_site_label
 _atom_site_symmetry_multiplicity
 _atom_site_fract_x
 _atom_site_fract_y
 _atom_site_fract_z
 _atom_site_occupancy
  Li  Li0  1  0.60032437  0.09661506  0.69130342  1
  Li  Li1  1  0.89967563  0.59661506  0.80869658  1
  Li  Li2  1  0.39967563  0.90338494  0.30869658  1
  Li  Li3  1  0.10032437  0.40338494  0.19130342  1
  B  B4  1  0.31236663  0.62884705  0.07352341  1
  B  B5  1  0.18763337  0.12884705  0.42647659  1
  B  B6  1  0.68763337  0.37115295  0.92647659  1
  B  B7  1  0.81236663  0.87115295  0.57352341  1
  O  O8  1  0.65251475  0.39840189  0.71790581  1
  O  O9  1  0.10392356  0.29429310  0.49300863  1
  O  O10  1  0.89607644  0.70570690  0.50699137  1
  O  O11  1  0.60392356  0.20570690  0.99300863  1
  O  O12  1  0.19106887  0.48948255  0.93567536  1
  O  O13  1  0.30893113  0.98948255  0.56432464  1
  O  O14  1  0.80893113  0.51051745  0.06432464  1
  O  O15  1  0.69106887  0.01051745  0.43567536  1
  O  O16  1  0.34748525  0.60159811  0.28209419  1
  O  O17  1  0.15251475  0.10159811  0.21790581  1
  O  O18  1  0.39607644  0.79429310  0.00699137  1
  O  O19  1  0.84748525  0.89840189  0.78209419  1
  Sr  Sr20  1  0.70716842  0.38041009  0.37044343  1
  Sr  Sr21  1  0.79283158  0.88041009  0.12955657  1
  Sr  Sr22  1  0.29283158  0.61958991  0.62955657  1
  Sr  Sr23  1  0.20716842  0.11958991  0.87044343  1
