# generated using pymatgen
data_RbNd2CuS4
_symmetry_space_group_name_H-M   'P 1'
_cell_length_a   4.09609088
_cell_length_b   7.37361927
_cell_length_c   14.08177704
_cell_angle_alpha   90.00000000
_cell_angle_beta   90.00000000
_cell_angle_gamma   106.12614697
_symmetry_Int_Tables_number   1
_chemical_formula_structural   RbNd2CuS4
_chemical_formula_sum   'Rb2 Nd4 Cu2 S8'
_cell_volume   408.57715041
_cell_formula_units_Z   2
loop_
 _symmetry_equiv_pos_site_id
 _symmetry_equiv_pos_as_xyz
  1  'x, y, z'
loop_
 _atom_site_type_symbol
 _atom_site_label
 _atom_site_symmetry_multiplicity
 _atom_site_fract_x
 _atom_site_fract_y
 _atom_site_fract_z
 _atom_site_occupancy
  S  S0  1  0.00000000  0.00000000  0.50000000  1
  S  S1  1  0.00000000  0.00000000  0.00000000  1
  S  S2  1  0.57579835  0.15159671  0.25000000  1
  S  S3  1  0.42420165  0.84840329  0.75000000  1
  S  S4  1  0.25999444  0.51998887  0.38722652  1
  S  S5  1  0.74000556  0.48001113  0.88722652  1
  S  S6  1  0.74000556  0.48001113  0.61277348  1
  S  S7  1  0.25999444  0.51998887  0.11277348  1
  Cu  Cu8  1  0.83535008  0.67070015  0.75000000  1
  Cu  Cu9  1  0.16464992  0.32929985  0.25000000  1
  Rb  Rb10  1  0.89405142  0.78810285  0.25000000  1
  Rb  Rb11  1  0.10594858  0.21189715  0.75000000  1
  Nd  Nd12  1  0.36554279  0.73108559  0.93851386  1
  Nd  Nd13  1  0.63445721  0.26891441  0.43851386  1
  Nd  Nd14  1  0.36554279  0.73108559  0.56148614  1
  Nd  Nd15  1  0.63445721  0.26891441  0.06148614  1
