# generated using pymatgen
data_Na2MgInF7
_symmetry_space_group_name_H-M   'P 1'
_cell_length_a   7.46185797
_cell_length_b   7.67550244
_cell_length_c   10.62244922
_cell_angle_alpha   90.00000000
_cell_angle_beta   90.00000000
_cell_angle_gamma   90.00000000
_symmetry_Int_Tables_number   1
_chemical_formula_structural   Na2MgInF7
_chemical_formula_sum   'Na8 Mg4 In4 F28'
_cell_volume   608.38494160
_cell_formula_units_Z   4
loop_
 _symmetry_equiv_pos_site_id
 _symmetry_equiv_pos_as_xyz
  1  'x, y, z'
loop_
 _atom_site_type_symbol
 _atom_site_label
 _atom_site_symmetry_multiplicity
 _atom_site_fract_x
 _atom_site_fract_y
 _atom_site_fract_z
 _atom_site_occupancy
  F  F0  1  0.45205914  0.67496723  0.13541935  1
  F  F1  1  0.95205914  0.32503277  0.86458065  1
  F  F2  1  0.54794086  0.17496723  0.36458065  1
  F  F3  1  0.04794086  0.82503277  0.63541935  1
  F  F4  1  0.54794086  0.32503277  0.86458065  1
  F  F5  1  0.04794086  0.67496723  0.13541935  1
  F  F6  1  0.45205914  0.82503277  0.63541935  1
  F  F7  1  0.95205914  0.17496723  0.36458065  1
  F  F8  1  0.51913038  0.29955617  0.12479085  1
  F  F9  1  0.01913038  0.70044383  0.87520915  1
  F  F10  1  0.48086962  0.79955617  0.37520915  1
  F  F11  1  0.98086962  0.20044383  0.62479085  1
  F  F12  1  0.48086962  0.70044383  0.87520915  1
  F  F13  1  0.98086962  0.29955617  0.12479085  1
  F  F14  1  0.51913038  0.20044383  0.62479085  1
  F  F15  1  0.01913038  0.79955617  0.37520915  1
  F  F16  1  0.25000000  0.50634114  0.35987523  1
  F  F17  1  0.75000000  0.49365886  0.64012477  1
  F  F18  1  0.75000000  0.00634114  0.14012477  1
  F  F19  1  0.25000000  0.99365886  0.85987523  1
  F  F20  1  0.25000000  0.98358258  0.15961664  1
  F  F21  1  0.75000000  0.01641742  0.84038336  1
  F  F22  1  0.75000000  0.48358258  0.34038336  1
  F  F23  1  0.25000000  0.51641742  0.65961664  1
  F  F24  1  0.25000000  0.05166841  0.46560754  1
  F  F25  1  0.75000000  0.94833159  0.53439246  1
  F  F26  1  0.75000000  0.55166841  0.03439246  1
  F  F27  1  0.25000000  0.44833159  0.96560754  1
  Na  Na28  1  0.00000000  0.00000000  0.00000000  1
  Na  Na29  1  0.50000000  0.00000000  0.00000000  1
  Na  Na30  1  0.00000000  0.50000000  0.50000000  1
  Na  Na31  1  0.50000000  0.50000000  0.50000000  1
  Na  Na32  1  0.25000000  0.23288738  0.27160853  1
  Na  Na33  1  0.25000000  0.26711262  0.77160853  1
  Na  Na34  1  0.75000000  0.73288738  0.22839147  1
  Na  Na35  1  0.75000000  0.76711262  0.72839147  1
  Mg  Mg36  1  0.50000000  0.00000000  0.50000000  1
  Mg  Mg37  1  0.50000000  0.50000000  0.00000000  1
  Mg  Mg38  1  0.00000000  0.00000000  0.50000000  1
  Mg  Mg39  1  0.00000000  0.50000000  0.00000000  1
  In  In40  1  0.25000000  0.74974190  0.26323117  1
  In  In41  1  0.75000000  0.25025810  0.73676883  1
  In  In42  1  0.75000000  0.24974190  0.23676883  1
  In  In43  1  0.25000000  0.75025810  0.76323117  1
