# generated using pymatgen
data_NaYb(PS3)2
_symmetry_space_group_name_H-M   'P 1'
_cell_length_a   7.32236704
_cell_length_b   7.34485264
_cell_length_c   9.87572312
_cell_angle_alpha   87.28203744
_cell_angle_beta   75.24000764
_cell_angle_gamma   87.97242896
_symmetry_Int_Tables_number   1
_chemical_formula_structural   NaYb(PS3)2
_chemical_formula_sum   'Na2 Yb2 P4 S12'
_cell_volume   512.87960545
_cell_formula_units_Z   2
loop_
 _symmetry_equiv_pos_site_id
 _symmetry_equiv_pos_as_xyz
  1  'x, y, z'
loop_
 _atom_site_type_symbol
 _atom_site_label
 _atom_site_symmetry_multiplicity
 _atom_site_fract_x
 _atom_site_fract_y
 _atom_site_fract_z
 _atom_site_occupancy
  Na  Na0  1  0.52388663  0.37250576  0.32964911  1
  Na  Na1  1  0.47611337  0.62749424  0.67035089  1
  P  P2  1  0.73471323  0.03008519  0.05993861  1
  P  P3  1  0.26528677  0.96991481  0.94006139  1
  P  P4  1  0.05391989  0.60521965  0.55895243  1
  P  P5  1  0.94608011  0.39478035  0.44104757  1
  S  S6  1  0.66851763  0.00310596  0.26619015  1
  S  S7  1  0.67062146  0.25552136  0.96753632  1
  S  S8  1  0.91267781  0.51620172  0.26143590  1
  S  S9  1  0.33148237  0.99689404  0.73380985  1
  S  S10  1  0.84992592  0.80847321  0.57550393  1
  S  S11  1  0.08732219  0.48379828  0.73856410  1
  S  S12  1  0.15007408  0.19152679  0.42449607  1
  S  S13  1  0.85590581  0.82767866  0.94515339  1
  S  S14  1  0.29904848  0.69697303  0.42669218  1
  S  S15  1  0.70095152  0.30302697  0.57330782  1
  S  S16  1  0.14409419  0.17232134  0.05484661  1
  S  S17  1  0.32937854  0.74447864  0.03246368  1
  Yb  Yb18  1  0.95088958  0.11700175  0.71750812  1
  Yb  Yb19  1  0.04911042  0.88299825  0.28249188  1
