# generated using pymatgen
data_RbSm2CuS4
_symmetry_space_group_name_H-M   'P 1'
_cell_length_a   4.05288396
_cell_length_b   7.29533706
_cell_length_c   13.97038128
_cell_angle_alpha   90.00000000
_cell_angle_beta   90.00000000
_cell_angle_gamma   106.12728881
_symmetry_Int_Tables_number   1
_chemical_formula_structural   RbSm2CuS4
_chemical_formula_sum   'Rb2 Sm4 Cu2 S8'
_cell_volume   396.80908406
_cell_formula_units_Z   2
loop_
 _symmetry_equiv_pos_site_id
 _symmetry_equiv_pos_as_xyz
  1  'x, y, z'
loop_
 _atom_site_type_symbol
 _atom_site_label
 _atom_site_symmetry_multiplicity
 _atom_site_fract_x
 _atom_site_fract_y
 _atom_site_fract_z
 _atom_site_occupancy
  S  S0  1  0.00000000  0.00000000  0.50000000  1
  S  S1  1  0.00000000  0.00000000  0.00000000  1
  S  S2  1  0.57552711  0.15105422  0.25000000  1
  S  S3  1  0.42447289  0.84894578  0.75000000  1
  S  S4  1  0.25991566  0.51983132  0.38874525  1
  S  S5  1  0.74008434  0.48016868  0.88874525  1
  S  S6  1  0.74008434  0.48016868  0.61125475  1
  S  S7  1  0.25991566  0.51983132  0.11125475  1
  Cu  Cu8  1  0.83524134  0.67048268  0.75000000  1
  Cu  Cu9  1  0.16475866  0.32951732  0.25000000  1
  Rb  Rb10  1  0.89356606  0.78713211  0.25000000  1
  Rb  Rb11  1  0.10643394  0.21286789  0.75000000  1
  Sm  Sm12  1  0.36562407  0.73124814  0.93824646  1
  Sm  Sm13  1  0.63437593  0.26875186  0.43824646  1
  Sm  Sm14  1  0.36562407  0.73124814  0.56175354  1
  Sm  Sm15  1  0.63437593  0.26875186  0.06175354  1
