# generated using pymatgen
data_Er(BC)2
_symmetry_space_group_name_H-M   'P 1'
_cell_length_a   3.51412069
_cell_length_b   5.33839322
_cell_length_c   5.33839322
_cell_angle_alpha   90.00000000
_cell_angle_beta   90.00000000
_cell_angle_gamma   90.00000000
_symmetry_Int_Tables_number   1
_chemical_formula_structural   Er(BC)2
_chemical_formula_sum   'Er2 B4 C4'
_cell_volume   100.14696527
_cell_formula_units_Z   2
loop_
 _symmetry_equiv_pos_site_id
 _symmetry_equiv_pos_as_xyz
  1  'x, y, z'
loop_
 _atom_site_type_symbol
 _atom_site_label
 _atom_site_symmetry_multiplicity
 _atom_site_fract_x
 _atom_site_fract_y
 _atom_site_fract_z
 _atom_site_occupancy
  B  B0  1  0.50000000  0.63646356  0.13646356  1
  B  B1  1  0.50000000  0.86353644  0.63646356  1
  B  B2  1  0.50000000  0.36353644  0.86353644  1
  B  B3  1  0.50000000  0.13646356  0.36353644  1
  C  C4  1  0.50000000  0.66213027  0.83786973  1
  C  C5  1  0.50000000  0.83786973  0.33786973  1
  C  C6  1  0.50000000  0.16213027  0.66213027  1
  C  C7  1  0.50000000  0.33786973  0.16213027  1
  Er  Er8  1  0.00000000  0.50000000  0.50000000  1
  Er  Er9  1  0.00000000  0.00000000  0.00000000  1
