# generated using pymatgen
data_Tb(BC)2
_symmetry_space_group_name_H-M   'P 1'
_cell_length_a   3.60098856
_cell_length_b   5.35821667
_cell_length_c   5.35821667
_cell_angle_alpha   90.00000000
_cell_angle_beta   90.00000000
_cell_angle_gamma   90.00000000
_symmetry_Int_Tables_number   1
_chemical_formula_structural   Tb(BC)2
_chemical_formula_sum   'Tb2 B4 C4'
_cell_volume   103.38613122
_cell_formula_units_Z   2
loop_
 _symmetry_equiv_pos_site_id
 _symmetry_equiv_pos_as_xyz
  1  'x, y, z'
loop_
 _atom_site_type_symbol
 _atom_site_label
 _atom_site_symmetry_multiplicity
 _atom_site_fract_x
 _atom_site_fract_y
 _atom_site_fract_z
 _atom_site_occupancy
  B  B0  1  0.50000000  0.63691691  0.13691691  1
  B  B1  1  0.50000000  0.86308309  0.63691691  1
  B  B2  1  0.50000000  0.36308309  0.86308309  1
  B  B3  1  0.50000000  0.13691691  0.36308309  1
  C  C4  1  0.50000000  0.66166183  0.83833817  1
  C  C5  1  0.50000000  0.83833817  0.33833817  1
  C  C6  1  0.50000000  0.16166183  0.66166183  1
  C  C7  1  0.50000000  0.33833817  0.16166183  1
  Tb  Tb8  1  0.00000000  0.50000000  0.50000000  1
  Tb  Tb9  1  0.00000000  0.00000000  0.00000000  1
