# generated using pymatgen
data_Li3FeP2O9
_symmetry_space_group_name_H-M   'P 1'
_cell_length_a   6.87954903
_cell_length_b   7.95272066
_cell_length_c   7.14403182
_cell_angle_alpha   89.79453108
_cell_angle_beta   87.69155082
_cell_angle_gamma   64.47678401
_symmetry_Int_Tables_number   1
_chemical_formula_structural   Li3FeP2O9
_chemical_formula_sum   'Li6 Fe2 P4 O18'
_cell_volume   352.38719378
_cell_formula_units_Z   2
loop_
 _symmetry_equiv_pos_site_id
 _symmetry_equiv_pos_as_xyz
  1  'x, y, z'
loop_
 _atom_site_type_symbol
 _atom_site_label
 _atom_site_symmetry_multiplicity
 _atom_site_fract_x
 _atom_site_fract_y
 _atom_site_fract_z
 _atom_site_occupancy
  Li  Li0  1  0.61922593  0.72860502  0.29926172  1
  Li  Li1  1  0.23620401  0.00041236  0.99649649  1
  Li  Li2  1  0.85745646  0.20610336  0.23746863  1
  Li  Li3  1  0.08663860  0.79452622  0.76773357  1
  Li  Li4  1  0.99835104  0.50503647  0.50001923  1
  Li  Li5  1  0.39872670  0.26922165  0.69706734  1
  Fe  Fe6  1  0.50364990  0.49757507  0.00218841  1
  Fe  Fe7  1  0.00045272  0.50406483  0.99757155  1
  P  P8  1  0.38093944  0.20298144  0.24348424  1
  P  P9  1  0.12294361  0.75398576  0.29096627  1
  P  P10  1  0.61277294  0.79634655  0.75506894  1
  P  P11  1  0.89308213  0.24579204  0.70892977  1
  O  O12  1  0.55031818  0.26138855  0.14612393  1
  O  O13  1  0.81889562  0.74724295  0.87236887  1
  O  O14  1  0.99240334  0.64065573  0.23151436  1
  O  O15  1  0.01073790  0.05849345  0.80251290  1
  O  O16  1  0.04510874  0.94170216  0.19532285  1
  O  O17  1  0.49223212  0.00923834  0.75563289  1
  O  O18  1  0.76392766  0.47330154  0.10063671  1
  O  O19  1  0.36902319  0.63798161  0.23524107  1
  O  O20  1  0.64866856  0.34059006  0.77667822  1
  O  O21  1  0.24263737  0.52694004  0.89867596  1
  O  O22  1  0.45153588  0.73703008  0.86997108  1
  O  O23  1  0.89447462  0.24402088  0.49581426  1
  O  O24  1  0.67825363  0.70128742  0.56354513  1
  O  O25  1  0.48513319  0.99010195  0.24618179  1
  O  O26  1  0.10205893  0.75394280  0.50389275  1
  O  O27  1  0.18276615  0.25673390  0.11427307  1
  O  O28  1  0.30801675  0.29812266  0.43591899  1
  O  O29  1  0.00442867  0.37657412  0.75943801  1
