# generated using pymatgen
data_Ca3Al7Cu2
_symmetry_space_group_name_H-M   'P 1'
_cell_length_a   9.18297697
_cell_length_b   9.18297696
_cell_length_c   9.18297696
_cell_angle_alpha   35.37038697
_cell_angle_beta   35.37038699
_cell_angle_gamma   35.37038697
_symmetry_Int_Tables_number   1
_chemical_formula_structural   Ca3Al7Cu2
_chemical_formula_sum   'Ca3 Al7 Cu2'
_cell_volume   231.82850944
_cell_formula_units_Z   1
loop_
 _symmetry_equiv_pos_site_id
 _symmetry_equiv_pos_as_xyz
  1  'x, y, z'
loop_
 _atom_site_type_symbol
 _atom_site_label
 _atom_site_symmetry_multiplicity
 _atom_site_fract_x
 _atom_site_fract_y
 _atom_site_fract_z
 _atom_site_occupancy
  Al  Al0  1  0.50000000  0.50000000  0.50000000  1
  Al  Al1  1  0.57951776  0.07305085  0.57951776  1
  Al  Al2  1  0.57951776  0.57951776  0.07305085  1
  Al  Al3  1  0.07305085  0.57951776  0.57951776  1
  Al  Al4  1  0.92694915  0.42048224  0.42048224  1
  Al  Al5  1  0.42048224  0.92694915  0.42048224  1
  Al  Al6  1  0.42048224  0.42048224  0.92694915  1
  Ca  Ca7  1  0.00000000  0.00000000  0.00000000  1
  Ca  Ca8  1  0.14295557  0.14295557  0.14295557  1
  Ca  Ca9  1  0.85704443  0.85704443  0.85704443  1
  Cu  Cu10  1  0.33501417  0.33501417  0.33501417  1
  Cu  Cu11  1  0.66498583  0.66498583  0.66498583  1
