# generated using pymatgen
data_Fe3O4
_symmetry_space_group_name_H-M   'P 1'
_cell_length_a   3.01278024
_cell_length_b   10.05688607
_cell_length_c   10.46110320
_cell_angle_alpha   90.00000000
_cell_angle_beta   90.01387175
_cell_angle_gamma   90.00000000
_symmetry_Int_Tables_number   1
_chemical_formula_structural   Fe3O4
_chemical_formula_sum   'Fe12 O16'
_cell_volume   316.96291895
_cell_formula_units_Z   4
loop_
 _symmetry_equiv_pos_site_id
 _symmetry_equiv_pos_as_xyz
  1  'x, y, z'
loop_
 _atom_site_type_symbol
 _atom_site_label
 _atom_site_symmetry_multiplicity
 _atom_site_fract_x
 _atom_site_fract_y
 _atom_site_fract_z
 _atom_site_occupancy
  Fe  Fe0  1  0.27918626  0.37735907  0.25075772  1
  Fe  Fe1  1  0.27207657  0.12420472  0.75005517  1
  Fe  Fe2  1  0.72081374  0.87735907  0.24924228  1
  Fe  Fe3  1  0.72792343  0.62420472  0.74994483  1
  Fe  Fe4  1  0.24639598  0.12125697  0.07289905  1
  Fe  Fe5  1  0.75360402  0.62125697  0.42710095  1
  Fe  Fe6  1  0.24570542  0.38164911  0.92668582  1
  Fe  Fe7  1  0.75429458  0.88164911  0.57331418  1
  Fe  Fe8  1  0.75315251  0.88046250  0.92596068  1
  Fe  Fe9  1  0.75395083  0.61984170  0.07326466  1
  Fe  Fe10  1  0.24684749  0.38046250  0.57403932  1
  Fe  Fe11  1  0.24604917  0.11984170  0.42673534  1
  O  O12  1  0.25288661  0.18651804  0.25075327  1
  O  O13  1  0.25294534  0.31211211  0.75124167  1
  O  O14  1  0.74711339  0.68651804  0.24924673  1
  O  O15  1  0.74705466  0.81211211  0.74875833  1
  O  O16  1  0.25280204  0.48753775  0.10160668  1
  O  O17  1  0.25185232  0.01022145  0.89743456  1
  O  O18  1  0.74719796  0.98753775  0.39839332  1
  O  O19  1  0.74814768  0.51022145  0.60256544  1
  O  O20  1  0.74745653  0.51136810  0.89755982  1
  O  O21  1  0.74771309  0.98904671  0.09885261  1
  O  O22  1  0.25254347  0.01136810  0.60244018  1
  O  O23  1  0.25228691  0.48904671  0.40114739  1
  O  O24  1  0.75000247  0.24956213  0.00121025  1
  O  O25  1  0.24999753  0.74956213  0.49878975  1
  O  O26  1  0.25175589  0.74885963  0.99923240  1
  O  O27  1  0.74824411  0.24885963  0.50076760  1
