# generated using pymatgen
data_Sc2CdS4
_symmetry_space_group_name_H-M   'P 1'
_cell_length_a   7.65972372
_cell_length_b   7.65972373
_cell_length_c   7.65972373
_cell_angle_alpha   60.00000005
_cell_angle_beta   60.00000001
_cell_angle_gamma   60.00000002
_symmetry_Int_Tables_number   1
_chemical_formula_structural   Sc2CdS4
_chemical_formula_sum   'Sc4 Cd2 S8'
_cell_volume   317.77836009
_cell_formula_units_Z   2
loop_
 _symmetry_equiv_pos_site_id
 _symmetry_equiv_pos_as_xyz
  1  'x, y, z'
loop_
 _atom_site_type_symbol
 _atom_site_label
 _atom_site_symmetry_multiplicity
 _atom_site_fract_x
 _atom_site_fract_y
 _atom_site_fract_z
 _atom_site_occupancy
  S  S0  1  0.73922655  0.73922655  0.73922655  1
  S  S1  1  0.26077345  0.26077345  0.71767965  1
  S  S2  1  0.26077345  0.71767965  0.26077345  1
  S  S3  1  0.71767965  0.26077345  0.26077345  1
  S  S4  1  0.73922655  0.28232035  0.73922655  1
  S  S5  1  0.28232035  0.73922655  0.73922655  1
  S  S6  1  0.26077345  0.26077345  0.26077345  1
  S  S7  1  0.73922655  0.73922655  0.28232035  1
  Sc  Sc8  1  0.50000000  0.00000000  0.50000000  1
  Sc  Sc9  1  0.00000000  0.50000000  0.50000000  1
  Sc  Sc10  1  0.50000000  0.50000000  0.00000000  1
  Sc  Sc11  1  0.50000000  0.50000000  0.50000000  1
  Cd  Cd12  1  0.87500000  0.87500000  0.87500000  1
  Cd  Cd13  1  0.12500000  0.12500000  0.12500000  1
