# generated using pymatgen
data_La5Si3
_symmetry_space_group_name_H-M   'P 1'
_cell_length_a   8.01549473
_cell_length_b   8.01549473
_cell_length_c   8.96268664
_cell_angle_alpha   116.56156373
_cell_angle_beta   116.56156373
_cell_angle_gamma   90.00000000
_symmetry_Int_Tables_number   1
_chemical_formula_structural   La5Si3
_chemical_formula_sum   'La10 Si6'
_cell_volume   446.07691148
_cell_formula_units_Z   2
loop_
 _symmetry_equiv_pos_site_id
 _symmetry_equiv_pos_as_xyz
  1  'x, y, z'
loop_
 _atom_site_type_symbol
 _atom_site_label
 _atom_site_symmetry_multiplicity
 _atom_site_fract_x
 _atom_site_fract_y
 _atom_site_fract_z
 _atom_site_occupancy
  La  La0  1  0.50000000  0.50000000  -0.00000000  1
  La  La1  1  -0.00000000  -0.00000000  -0.00000000  1
  La  La2  1  0.96810151  0.82614801  0.29424952  1
  La  La3  1  0.32614801  0.46810151  0.29424952  1
  La  La4  1  0.82614801  0.32614801  0.29424952  1
  La  La5  1  0.46810151  0.96810151  0.29424952  1
  La  La6  1  0.03189849  0.17385199  0.70575048  1
  La  La7  1  0.67385199  0.53189849  0.70575048  1
  La  La8  1  0.17385199  0.67385199  0.70575048  1
  La  La9  1  0.53189849  0.03189849  0.70575048  1
  Si  Si10  1  0.75000000  0.75000000  0.50000000  1
  Si  Si11  1  0.25000000  0.25000000  0.50000000  1
  Si  Si12  1  0.61232007  0.88767993  -0.00000000  1
  Si  Si13  1  0.38767993  0.11232007  -0.00000000  1
  Si  Si14  1  0.88767993  0.38767993  -0.00000000  1
  Si  Si15  1  0.11232007  0.61232007  -0.00000000  1
