# generated using pymatgen
data_SiO2
_symmetry_space_group_name_H-M   'P 1'
_cell_length_a   10.48555220
_cell_length_b   11.00833977
_cell_length_c   11.00834006
_cell_angle_alpha   76.89073974
_cell_angle_beta   61.55884809
_cell_angle_gamma   61.55862836
_symmetry_Int_Tables_number   1
_chemical_formula_structural   SiO2
_chemical_formula_sum   'Si16 O32'
_cell_volume   982.45997493
_cell_formula_units_Z   16
loop_
 _symmetry_equiv_pos_site_id
 _symmetry_equiv_pos_as_xyz
  1  'x, y, z'
loop_
 _atom_site_type_symbol
 _atom_site_label
 _atom_site_symmetry_multiplicity
 _atom_site_fract_x
 _atom_site_fract_y
 _atom_site_fract_z
 _atom_site_occupancy
  Si  Si0  1  0.24989909  0.64609344  0.35399516  1
  Si  Si1  1  0.54736138  0.50012916  0.11988884  1
  Si  Si2  1  0.16737409  0.49986776  0.88011415  1
  Si  Si3  1  0.24998791  0.35389685  0.64601493  1
  Si  Si4  1  0.95249715  0.88011495  0.50014556  1
  Si  Si5  1  0.10399548  0.64602018  0.64610625  1
  Si  Si6  1  0.75010091  0.35390656  0.64600484  1
  Si  Si7  1  0.89600452  0.35397982  0.35389375  1
  Si  Si8  1  0.45263862  0.49987084  0.88011116  1
  Si  Si9  1  0.66722896  0.88010862  0.50014896  1
  Si  Si10  1  0.75001209  0.64610315  0.35398507  1
  Si  Si11  1  0.33277104  0.11989138  0.49985104  1
  Si  Si12  1  0.60388647  0.64601710  0.64610995  1
  Si  Si13  1  0.39611353  0.35398290  0.35389005  1
  Si  Si14  1  0.04750285  0.11988505  0.49985444  1
  Si  Si15  1  0.83262591  0.50013224  0.11988585  1
  O  O16  1  0.26930584  0.36041232  0.78294245  1
  O  O17  1  0.91294575  0.21699591  0.63938996  1
  O  O18  1  0.12993153  0.63941192  0.78301169  1
  O  O19  1  0.75718242  0.49999558  0.65005541  1
  O  O20  1  0.90722849  0.50000493  0.34994338  1
  O  O21  1  0.08705425  0.78300409  0.36061004  1
  O  O22  1  0.09277151  0.49999507  0.65005662  1
  O  O23  1  0.40723867  0.34994294  0.49998559  1
  O  O24  1  0.05226837  0.21706391  0.36040335  1
  O  O25  1  0.62971887  0.78293916  0.63960506  1
  O  O26  1  0.58733948  0.36042113  0.78293323  1
  O  O27  1  0.87006847  0.36058808  0.21698831  1
  O  O28  1  0.24281758  0.50000442  0.34994459  1
  O  O29  1  0.77621464  0.94713541  0.50042262  1
  O  O30  1  0.41266052  0.63957887  0.21706677  1
  O  O31  1  0.73069416  0.63958768  0.21705755  1
  O  O32  1  0.00000000  0.50000000  0.00000000  1
  O  O33  1  0.94773163  0.78293609  0.63959665  1
  O  O34  1  0.37028113  0.21706084  0.36039494  1
  O  O35  1  0.27663684  0.49958575  0.94713350  1
  O  O36  1  0.00000000  0.00000000  0.50000000  1
  O  O37  1  0.59276133  0.65005706  0.50001441  1
  O  O38  1  0.25717250  0.65005523  0.50001340  1
  O  O39  1  0.76932709  0.78301280  0.36060335  1
  O  O40  1  0.72336316  0.50041425  0.05286650  1
  O  O41  1  0.74282750  0.34994477  0.49998660  1
  O  O42  1  0.44763937  0.63940935  0.78300629  1
  O  O43  1  0.55236063  0.36059065  0.21699371  1
  O  O44  1  0.23067291  0.21698720  0.63939665  1
  O  O45  1  0.22378536  0.05286459  0.49957738  1
  O  O46  1  0.50000000  0.50000000  0.00000000  1
  O  O47  1  0.50000000  0.00000000  0.50000000  1
