# generated using pymatgen
data_KNaLaNbO5
_symmetry_space_group_name_H-M   'P 1'
_cell_length_a   5.84597721
_cell_length_b   5.84597721
_cell_length_c   8.41295238
_cell_angle_alpha   90.00000000
_cell_angle_beta   90.00000000
_cell_angle_gamma   90.00000000
_symmetry_Int_Tables_number   1
_chemical_formula_structural   KNaLaNbO5
_chemical_formula_sum   'K2 Na2 La2 Nb2 O10'
_cell_volume   287.51642954
_cell_formula_units_Z   2
loop_
 _symmetry_equiv_pos_site_id
 _symmetry_equiv_pos_as_xyz
  1  'x, y, z'
loop_
 _atom_site_type_symbol
 _atom_site_label
 _atom_site_symmetry_multiplicity
 _atom_site_fract_x
 _atom_site_fract_y
 _atom_site_fract_z
 _atom_site_occupancy
  O  O0  1  0.75000000  0.75000000  0.96673296  1
  O  O1  1  0.25000000  0.25000000  0.03326704  1
  O  O2  1  0.52077602  0.97922398  0.67289592  1
  O  O3  1  0.97922398  0.52077602  0.67289592  1
  O  O4  1  0.47922398  0.02077602  0.32710408  1
  O  O5  1  0.97922398  0.97922398  0.67289592  1
  O  O6  1  0.52077602  0.52077602  0.67289592  1
  O  O7  1  0.47922398  0.47922398  0.32710408  1
  O  O8  1  0.02077602  0.47922398  0.32710408  1
  O  O9  1  0.02077602  0.02077602  0.32710408  1
  Na  Na10  1  0.75000000  0.75000000  0.24148129  1
  Na  Na11  1  0.25000000  0.25000000  0.75851871  1
  K  K12  1  0.25000000  0.75000000  0.00000000  1
  K  K13  1  0.75000000  0.25000000  0.00000000  1
  Nb  Nb14  1  0.75000000  0.75000000  0.74467367  1
  Nb  Nb15  1  0.25000000  0.25000000  0.25532633  1
  La  La16  1  0.75000000  0.25000000  0.50000000  1
  La  La17  1  0.25000000  0.75000000  0.50000000  1
