# generated using pymatgen
data_Ag2SnHgSe4
_symmetry_space_group_name_H-M   'P 1'
_cell_length_a   7.17152816
_cell_length_b   7.57491973
_cell_length_c   8.62466954
_cell_angle_alpha   90.00000000
_cell_angle_beta   90.00000000
_cell_angle_gamma   90.00000000
_symmetry_Int_Tables_number   1
_chemical_formula_structural   Ag2SnHgSe4
_chemical_formula_sum   'Ag4 Sn2 Hg2 Se8'
_cell_volume   468.52439325
_cell_formula_units_Z   2
loop_
 _symmetry_equiv_pos_site_id
 _symmetry_equiv_pos_as_xyz
  1  'x, y, z'
loop_
 _atom_site_type_symbol
 _atom_site_label
 _atom_site_symmetry_multiplicity
 _atom_site_fract_x
 _atom_site_fract_y
 _atom_site_fract_z
 _atom_site_occupancy
  Se  Se0  1  0.35952258  0.65480942  0.50000000  1
  Se  Se1  1  0.85952258  0.34519058  0.00000000  1
  Se  Se2  1  0.84179472  0.31853580  0.50000000  1
  Se  Se3  1  0.34179472  0.68146420  0.00000000  1
  Se  Se4  1  0.86248187  0.83900359  0.24342399  1
  Se  Se5  1  0.86248187  0.83900359  0.75657601  1
  Se  Se6  1  0.36248187  0.16099641  0.74342399  1
  Se  Se7  1  0.36248187  0.16099641  0.25657601  1
  Ag  Ag8  1  0.49168867  0.82559998  0.25281997  1
  Ag  Ag9  1  0.99168867  0.17440002  0.75281997  1
  Ag  Ag10  1  0.99168867  0.17440002  0.24718003  1
  Ag  Ag11  1  0.49168867  0.82559998  0.74718003  1
  Sn  Sn12  1  0.47885272  0.33248174  0.50000000  1
  Sn  Sn13  1  0.97885272  0.66751826  0.00000000  1
  Hg  Hg14  1  0.97648890  0.65030036  0.50000000  1
  Hg  Hg15  1  0.47648890  0.34969964  0.00000000  1
