# generated using pymatgen
data_K2Ga3CuSe6
_symmetry_space_group_name_H-M   'P 1'
_cell_length_a   7.91728211
_cell_length_b   7.91728211
_cell_length_c   21.14358821
_cell_angle_alpha   95.36954372
_cell_angle_beta   95.36954372
_cell_angle_gamma   90.13653186
_symmetry_Int_Tables_number   1
_chemical_formula_structural   K2Ga3CuSe6
_chemical_formula_sum   'K8 Ga12 Cu4 Se24'
_cell_volume   1313.66193934
_cell_formula_units_Z   4
loop_
 _symmetry_equiv_pos_site_id
 _symmetry_equiv_pos_as_xyz
  1  'x, y, z'
loop_
 _atom_site_type_symbol
 _atom_site_label
 _atom_site_symmetry_multiplicity
 _atom_site_fract_x
 _atom_site_fract_y
 _atom_site_fract_z
 _atom_site_occupancy
  K  K0  1  0.60689522  0.22267095  0.91980711  1
  K  K1  1  0.89606175  0.76384330  0.08044462  1
  K  K2  1  0.76384330  0.89606175  0.58044462  1
  K  K3  1  0.10393825  0.23615670  0.91955538  1
  K  K4  1  0.22267095  0.60689522  0.41980711  1
  K  K5  1  0.39310478  0.77732905  0.08019289  1
  K  K6  1  0.23615670  0.10393825  0.41955538  1
  K  K7  1  0.77732905  0.39310478  0.58019289  1
  Cu  Cu8  1  0.56216968  0.93549204  0.74978081  1
  Cu  Cu9  1  0.06450796  0.43783032  0.75021919  1
  Cu  Cu10  1  0.43783032  0.06450796  0.25021919  1
  Cu  Cu11  1  0.93549204  0.56216968  0.24978081  1
  Ga  Ga12  1  0.71901700  0.84543218  0.37929093  1
  Ga  Ga13  1  0.28098300  0.15456782  0.62070907  1
  Ga  Ga14  1  0.15456782  0.28098300  0.12070907  1
  Ga  Ga15  1  0.28011432  0.65389553  0.61968999  1
  Ga  Ga16  1  0.34610447  0.71988568  0.88031001  1
  Ga  Ga17  1  0.71988568  0.34610447  0.38031001  1
  Ga  Ga18  1  0.65389553  0.28011432  0.11968999  1
  Ga  Ga19  1  0.55795462  0.44204538  0.75000000  1
  Ga  Ga20  1  0.44204538  0.55795462  0.25000000  1
  Ga  Ga21  1  0.06831743  0.93168257  0.75000000  1
  Ga  Ga22  1  0.84543218  0.71901700  0.87929093  1
  Ga  Ga23  1  0.93168257  0.06831743  0.25000000  1
  Se  Se24  1  0.03381440  0.66764528  0.68065017  1
  Se  Se25  1  0.88760119  0.29027420  0.05073524  1
  Se  Se26  1  0.29027420  0.88760119  0.55073524  1
  Se  Se27  1  0.11239881  0.70972580  0.94926476  1
  Se  Se28  1  0.67062615  0.55766062  0.18032798  1
  Se  Se29  1  0.44233938  0.32937385  0.31967202  1
  Se  Se30  1  0.32937385  0.44233938  0.81967202  1
  Se  Se31  1  0.55766062  0.67062615  0.68032798  1
  Se  Se32  1  0.76401739  0.61416864  0.44954929  1
  Se  Se33  1  0.38583136  0.23598261  0.05045071  1
  Se  Se34  1  0.23598261  0.38583136  0.55045071  1
  Se  Se35  1  0.61416864  0.76401739  0.94954929  1
  Se  Se36  1  0.96453469  0.83203273  0.31760429  1
  Se  Se37  1  0.16796727  0.03546531  0.18239571  1
  Se  Se38  1  0.03546531  0.16796727  0.68239571  1
  Se  Se39  1  0.83203273  0.96453469  0.81760429  1
  Se  Se40  1  0.33235472  0.96618560  0.81934983  1
  Se  Se41  1  0.96618560  0.33235472  0.31934983  1
  Se  Se42  1  0.66764528  0.03381440  0.18065017  1
  Se  Se43  1  0.82789221  0.44267144  0.81763065  1
  Se  Se44  1  0.55732856  0.17210779  0.68236935  1
  Se  Se45  1  0.17210779  0.55732856  0.18236935  1
  Se  Se46  1  0.44267144  0.82789221  0.31763065  1
  Se  Se47  1  0.70972580  0.11239881  0.44926476  1
