# generated using pymatgen
data_LuGeIr
_symmetry_space_group_name_H-M   'P 1'
_cell_length_a   4.25625882
_cell_length_b   6.71772788
_cell_length_c   7.62331218
_cell_angle_alpha   90.00000000
_cell_angle_beta   90.00000000
_cell_angle_gamma   90.00000000
_symmetry_Int_Tables_number   1
_chemical_formula_structural   LuGeIr
_chemical_formula_sum   'Lu4 Ge4 Ir4'
_cell_volume   217.96870381
_cell_formula_units_Z   4
loop_
 _symmetry_equiv_pos_site_id
 _symmetry_equiv_pos_as_xyz
  1  'x, y, z'
loop_
 _atom_site_type_symbol
 _atom_site_label
 _atom_site_symmetry_multiplicity
 _atom_site_fract_x
 _atom_site_fract_y
 _atom_site_fract_z
 _atom_site_occupancy
  Ge  Ge0  1  0.25000000  0.71209453  0.38399242  1
  Ge  Ge1  1  0.25000000  0.21209453  0.11600758  1
  Ge  Ge2  1  0.75000000  0.28790547  0.61600758  1
  Ge  Ge3  1  0.75000000  0.78790547  0.88399242  1
  Lu  Lu4  1  0.75000000  0.51014582  0.19119573  1
  Lu  Lu5  1  0.25000000  0.98985418  0.69119573  1
  Lu  Lu6  1  0.75000000  0.01014582  0.30880427  1
  Lu  Lu7  1  0.25000000  0.48985418  0.80880427  1
  Ir  Ir8  1  0.25000000  0.83714637  0.06107942  1
  Ir  Ir9  1  0.25000000  0.33714637  0.43892058  1
  Ir  Ir10  1  0.75000000  0.66285363  0.56107942  1
  Ir  Ir11  1  0.75000000  0.16285363  0.93892058  1
