# generated using pymatgen
data_ErVB4
_symmetry_space_group_name_H-M   'P 1'
_cell_length_a   3.41276025
_cell_length_b   5.99167948
_cell_length_c   11.59319054
_cell_angle_alpha   90.00000000
_cell_angle_beta   90.00000000
_cell_angle_gamma   90.00000000
_symmetry_Int_Tables_number   1
_chemical_formula_structural   ErVB4
_chemical_formula_sum   'Er4 V4 B16'
_cell_volume   237.05947953
_cell_formula_units_Z   4
loop_
 _symmetry_equiv_pos_site_id
 _symmetry_equiv_pos_as_xyz
  1  'x, y, z'
loop_
 _atom_site_type_symbol
 _atom_site_label
 _atom_site_symmetry_multiplicity
 _atom_site_fract_x
 _atom_site_fract_y
 _atom_site_fract_z
 _atom_site_occupancy
  B  B0  1  0.00000000  0.28713343  0.68587366  1
  B  B1  1  0.00000000  0.71286657  0.31412634  1
  B  B2  1  0.00000000  0.78713343  0.81412634  1
  B  B3  1  0.00000000  0.21286657  0.18587366  1
  B  B4  1  0.00000000  0.36508268  0.53233663  1
  B  B5  1  0.00000000  0.63491732  0.46766337  1
  B  B6  1  0.00000000  0.86508268  0.96766337  1
  B  B7  1  0.00000000  0.13491732  0.03233663  1
  B  B8  1  0.00000000  0.02275938  0.30736606  1
  B  B9  1  0.00000000  0.97724062  0.69263394  1
  B  B10  1  0.00000000  0.52275938  0.19263394  1
  B  B11  1  0.00000000  0.47724062  0.80736606  1
  B  B12  1  0.00000000  0.11504824  0.45232728  1
  B  B13  1  0.00000000  0.88495176  0.54767272  1
  B  B14  1  0.00000000  0.61504824  0.04767272  1
  B  B15  1  0.00000000  0.38495176  0.95232728  1
  V  V16  1  0.50000000  0.12801665  0.58346875  1
  V  V17  1  0.50000000  0.87198335  0.41653125  1
  V  V18  1  0.50000000  0.62801665  0.91653125  1
  V  V19  1  0.50000000  0.37198335  0.08346875  1
  Er  Er20  1  0.50000000  0.12434703  0.84866290  1
  Er  Er21  1  0.50000000  0.87565297  0.15133710  1
  Er  Er22  1  0.50000000  0.62434703  0.65133710  1
  Er  Er23  1  0.50000000  0.37565297  0.34866290  1
