# generated using pymatgen
data_CaPSe3
_symmetry_space_group_name_H-M   'P 1'
_cell_length_a   6.96027947
_cell_length_b   7.60847250
_cell_length_c   9.72318848
_cell_angle_alpha   90.00000000
_cell_angle_beta   92.23506435
_cell_angle_gamma   90.00000000
_symmetry_Int_Tables_number   1
_chemical_formula_structural   CaPSe3
_chemical_formula_sum   'Ca4 P4 Se12'
_cell_volume   514.52008909
_cell_formula_units_Z   4
loop_
 _symmetry_equiv_pos_site_id
 _symmetry_equiv_pos_as_xyz
  1  'x, y, z'
loop_
 _atom_site_type_symbol
 _atom_site_label
 _atom_site_symmetry_multiplicity
 _atom_site_fract_x
 _atom_site_fract_y
 _atom_site_fract_z
 _atom_site_occupancy
  P  P0  1  0.06427788  0.89328188  0.43595256  1
  P  P1  1  0.93572212  0.10671812  0.56404744  1
  P  P2  1  0.43572212  0.39328188  0.06404744  1
  P  P3  1  0.56427788  0.60671812  0.93595256  1
  Ca  Ca4  1  0.96292910  0.38525658  0.24724762  1
  Ca  Ca5  1  0.46292910  0.11474342  0.74724762  1
  Ca  Ca6  1  0.53707090  0.88525658  0.25275238  1
  Ca  Ca7  1  0.03707090  0.61474342  0.75275238  1
  Se  Se8  1  0.12295392  0.01229402  0.23448448  1
  Se  Se9  1  0.67606538  0.20377437  0.44916110  1
  Se  Se10  1  0.82393462  0.70377437  0.05083890  1
  Se  Se11  1  0.32393462  0.79622563  0.55083890  1
  Se  Se12  1  0.33842186  0.81086546  0.93571247  1
  Se  Se13  1  0.16157814  0.31086546  0.56428753  1
  Se  Se14  1  0.66157814  0.18913454  0.06428753  1
  Se  Se15  1  0.83842186  0.68913454  0.43571247  1
  Se  Se16  1  0.37704608  0.51229402  0.26551552  1
  Se  Se17  1  0.87704608  0.98770598  0.76551552  1
  Se  Se18  1  0.62295392  0.48770598  0.73448448  1
  Se  Se19  1  0.17606538  0.29622563  0.94916110  1
