# generated using pymatgen
data_BaPS3
_symmetry_space_group_name_H-M   'P 1'
_cell_length_a   6.85668046
_cell_length_b   7.92195276
_cell_length_c   10.03915320
_cell_angle_alpha   90.00000000
_cell_angle_beta   91.44361675
_cell_angle_gamma   90.00000000
_symmetry_Int_Tables_number   1
_chemical_formula_structural   BaPS3
_chemical_formula_sum   'Ba4 P4 S12'
_cell_volume   545.13664096
_cell_formula_units_Z   4
loop_
 _symmetry_equiv_pos_site_id
 _symmetry_equiv_pos_as_xyz
  1  'x, y, z'
loop_
 _atom_site_type_symbol
 _atom_site_label
 _atom_site_symmetry_multiplicity
 _atom_site_fract_x
 _atom_site_fract_y
 _atom_site_fract_z
 _atom_site_occupancy
  P  P0  1  0.05226445  0.89150684  0.43747268  1
  P  P1  1  0.44773555  0.39150684  0.06252732  1
  P  P2  1  0.94773555  0.10849316  0.56252732  1
  P  P3  1  0.55226445  0.60849316  0.93747268  1
  S  S4  1  0.57200306  0.51778589  0.74940095  1
  S  S5  1  0.92799694  0.01778589  0.75059905  1
  S  S6  1  0.42799694  0.48221411  0.25059905  1
  S  S7  1  0.07200306  0.98221411  0.24940095  1
  S  S8  1  0.80737015  0.68861766  0.02410978  1
  S  S9  1  0.69262985  0.18861766  0.47589022  1
  S  S10  1  0.19262985  0.31138234  0.97589022  1
  S  S11  1  0.30737015  0.81138234  0.52410978  1
  S  S12  1  0.34111036  0.78860874  0.95398925  1
  S  S13  1  0.15888964  0.28860874  0.54601075  1
  S  S14  1  0.65888964  0.21139126  0.04601075  1
  S  S15  1  0.84111036  0.71139126  0.45398925  1
  Ba  Ba16  1  0.54285581  0.89768729  0.24643679  1
  Ba  Ba17  1  0.95714419  0.39768729  0.25356321  1
  Ba  Ba18  1  0.45714419  0.10231271  0.75356321  1
  Ba  Ba19  1  0.04285581  0.60231271  0.74643679  1
