# generated using pymatgen
data_LuPO4
_symmetry_space_group_name_H-M   'P 1'
_cell_length_a   4.77948459
_cell_length_b   4.77948490
_cell_length_c   6.47586803
_cell_angle_alpha   111.65535368
_cell_angle_beta   111.65535534
_cell_angle_gamma   90.00000728
_symmetry_Int_Tables_number   1
_chemical_formula_structural   LuPO4
_chemical_formula_sum   'Lu2 P2 O8'
_cell_volume   126.18850131
_cell_formula_units_Z   2
loop_
 _symmetry_equiv_pos_site_id
 _symmetry_equiv_pos_as_xyz
  1  'x, y, z'
loop_
 _atom_site_type_symbol
 _atom_site_label
 _atom_site_symmetry_multiplicity
 _atom_site_fract_x
 _atom_site_fract_y
 _atom_site_fract_z
 _atom_site_occupancy
  Lu  Lu0  1  0.37500000  0.12500000  0.75000000  1
  Lu  Lu1  1  0.62500000  0.87500000  0.25000000  1
  P  P2  1  0.87500000  0.62500000  0.75000000  1
  P  P3  1  0.12500000  0.37500000  0.25000000  1
  O  O4  1  0.06736321  0.69378591  0.39883824  1
  O  O5  1  0.66852497  0.79494768  0.60116176  1
  O  O6  1  0.33147503  0.20505232  0.39883824  1
  O  O7  1  0.70505233  0.56736321  0.89883824  1
  O  O8  1  0.80621409  0.16852497  0.10116176  1
  O  O9  1  0.19378591  0.83147503  0.89883824  1
  O  O10  1  0.29494767  0.43263679  0.10116176  1
  O  O11  1  0.93263679  0.30621409  0.60116176  1
