# generated using pymatgen
data_CeAl7Au3
_symmetry_space_group_name_H-M   'P 1'
_cell_length_a   8.49398346
_cell_length_b   8.49398346
_cell_length_c   8.49398346
_cell_angle_alpha   57.48516935
_cell_angle_beta   57.48516941
_cell_angle_gamma   57.48516936
_symmetry_Int_Tables_number   1
_chemical_formula_structural   CeAl7Au3
_chemical_formula_sum   'Ce2 Al14 Au6'
_cell_volume   408.26482194
_cell_formula_units_Z   2
loop_
 _symmetry_equiv_pos_site_id
 _symmetry_equiv_pos_as_xyz
  1  'x, y, z'
loop_
 _atom_site_type_symbol
 _atom_site_label
 _atom_site_symmetry_multiplicity
 _atom_site_fract_x
 _atom_site_fract_y
 _atom_site_fract_z
 _atom_site_occupancy
  Al  Al0  1  0.64740486  0.43095639  0.83072246  1
  Al  Al1  1  0.43095639  0.83072246  0.64740486  1
  Al  Al2  1  0.83072246  0.64740486  0.43095639  1
  Al  Al3  1  0.66927754  0.06904361  0.85259514  1
  Al  Al4  1  0.06904361  0.85259514  0.66927754  1
  Al  Al5  1  0.85259514  0.66927754  0.06904361  1
  Al  Al6  1  0.35259514  0.56904361  0.16927754  1
  Al  Al7  1  0.56904361  0.16927754  0.35259514  1
  Al  Al8  1  0.25000000  0.25000000  0.25000000  1
  Al  Al9  1  0.75000000  0.75000000  0.75000000  1
  Al  Al10  1  0.14740486  0.33072246  0.93095639  1
  Al  Al11  1  0.93095639  0.14740486  0.33072246  1
  Al  Al12  1  0.33072246  0.93095639  0.14740486  1
  Al  Al13  1  0.16927754  0.35259514  0.56904361  1
  Ce  Ce14  1  0.50000000  0.50000000  0.50000000  1
  Ce  Ce15  1  0.00000000  0.00000000  0.00000000  1
  Au  Au16  1  0.07029480  0.75000000  0.42970520  1
  Au  Au17  1  0.75000000  0.42970520  0.07029480  1
  Au  Au18  1  0.42970520  0.07029480  0.75000000  1
  Au  Au19  1  0.92970520  0.25000000  0.57029480  1
  Au  Au20  1  0.25000000  0.57029480  0.92970520  1
  Au  Au21  1  0.57029480  0.92970520  0.25000000  1
