# generated using pymatgen
data_RbSn
_symmetry_space_group_name_H-M   'P 1'
_cell_length_a   11.93923288
_cell_length_b   11.93923288
_cell_length_c   12.91045807
_cell_angle_alpha   117.54118608
_cell_angle_beta   117.54118607
_cell_angle_gamma   90.00000001
_symmetry_Int_Tables_number   1
_chemical_formula_structural   RbSn
_chemical_formula_sum   'Rb16 Sn16'
_cell_volume   1392.33461156
_cell_formula_units_Z   16
loop_
 _symmetry_equiv_pos_site_id
 _symmetry_equiv_pos_as_xyz
  1  'x, y, z'
loop_
 _atom_site_type_symbol
 _atom_site_label
 _atom_site_symmetry_multiplicity
 _atom_site_fract_x
 _atom_site_fract_y
 _atom_site_fract_z
 _atom_site_occupancy
  Rb  Rb0  1  0.11216690  0.25000000  0.50000000  1
  Rb  Rb1  1  0.75000000  0.11216690  0.00000000  1
  Rb  Rb2  1  0.25000000  0.38783310  0.00000000  1
  Rb  Rb3  1  0.38783310  0.75000000  0.50000000  1
  Rb  Rb4  1  0.88783310  0.75000000  0.50000000  1
  Rb  Rb5  1  0.25000000  0.88783310  0.00000000  1
  Rb  Rb6  1  0.75000000  0.61216690  0.00000000  1
  Rb  Rb7  1  0.61216690  0.25000000  0.50000000  1
  Rb  Rb8  1  0.50271898  0.75271898  0.25000000  1
  Rb  Rb9  1  0.99728102  0.50271898  0.75000000  1
  Rb  Rb10  1  0.75271898  0.74728102  0.75000000  1
  Rb  Rb11  1  0.74728102  0.99728102  0.25000000  1
  Rb  Rb12  1  0.49728102  0.24728102  0.75000000  1
  Rb  Rb13  1  0.00271898  0.49728102  0.25000000  1
  Rb  Rb14  1  0.24728102  0.25271898  0.25000000  1
  Rb  Rb15  1  0.25271898  0.00271898  0.75000000  1
  Sn  Sn16  1  0.99248541  0.07088559  0.85919687  1
  Sn  Sn17  1  0.28831128  0.99248541  0.35919687  1
  Sn  Sn18  1  0.07088559  0.86671146  0.35919687  1
  Sn  Sn19  1  0.63328854  0.42911441  0.14080313  1
  Sn  Sn20  1  0.50751459  0.21168872  0.14080313  1
  Sn  Sn21  1  0.21168872  0.63328854  0.64080313  1
  Sn  Sn22  1  0.42911441  0.50751459  0.64080313  1
  Sn  Sn23  1  0.86671146  0.28831128  0.85919687  1
  Sn  Sn24  1  0.00751459  0.92911441  0.14080313  1
  Sn  Sn25  1  0.71168872  0.00751459  0.64080313  1
  Sn  Sn26  1  0.92911441  0.13328854  0.64080313  1
  Sn  Sn27  1  0.36671146  0.57088559  0.85919687  1
  Sn  Sn28  1  0.49248541  0.78831128  0.85919687  1
  Sn  Sn29  1  0.78831128  0.36671146  0.35919687  1
  Sn  Sn30  1  0.57088559  0.49248541  0.35919687  1
  Sn  Sn31  1  0.13328854  0.71168872  0.14080313  1
