# generated using pymatgen
data_TbAl7Au3
_symmetry_space_group_name_H-M   'P 1'
_cell_length_a   8.46458746
_cell_length_b   8.46458745
_cell_length_c   8.46458746
_cell_angle_alpha   57.23768994
_cell_angle_beta   57.23768996
_cell_angle_gamma   57.23768994
_symmetry_Int_Tables_number   1
_chemical_formula_structural   TbAl7Au3
_chemical_formula_sum   'Tb2 Al14 Au6'
_cell_volume   401.56510794
_cell_formula_units_Z   2
loop_
 _symmetry_equiv_pos_site_id
 _symmetry_equiv_pos_as_xyz
  1  'x, y, z'
loop_
 _atom_site_type_symbol
 _atom_site_label
 _atom_site_symmetry_multiplicity
 _atom_site_fract_x
 _atom_site_fract_y
 _atom_site_fract_z
 _atom_site_occupancy
  Al  Al0  1  0.64724161  0.43031040  0.83260589  1
  Al  Al1  1  0.43031040  0.83260589  0.64724161  1
  Al  Al2  1  0.83260589  0.64724161  0.43031040  1
  Al  Al3  1  0.66739411  0.06968960  0.85275839  1
  Al  Al4  1  0.06968960  0.85275839  0.66739411  1
  Al  Al5  1  0.85275839  0.66739411  0.06968960  1
  Al  Al6  1  0.35275839  0.56968960  0.16739411  1
  Al  Al7  1  0.56968960  0.16739411  0.35275839  1
  Al  Al8  1  0.25000000  0.25000000  0.25000000  1
  Al  Al9  1  0.75000000  0.75000000  0.75000000  1
  Al  Al10  1  0.14724161  0.33260589  0.93031040  1
  Al  Al11  1  0.93031040  0.14724161  0.33260589  1
  Al  Al12  1  0.33260589  0.93031040  0.14724161  1
  Al  Al13  1  0.16739411  0.35275839  0.56968960  1
  Tb  Tb14  1  0.50000000  0.50000000  0.50000000  1
  Tb  Tb15  1  0.00000000  0.00000000  0.00000000  1
  Au  Au16  1  0.07338796  0.75000000  0.42661204  1
  Au  Au17  1  0.75000000  0.42661204  0.07338796  1
  Au  Au18  1  0.42661204  0.07338796  0.75000000  1
  Au  Au19  1  0.92661204  0.25000000  0.57338796  1
  Au  Au20  1  0.25000000  0.57338796  0.92661204  1
  Au  Au21  1  0.57338796  0.92661204  0.25000000  1
