# generated using pymatgen
data_BaPSe3
_symmetry_space_group_name_H-M   'P 1'
_cell_length_a   7.16979182
_cell_length_b   8.12517151
_cell_length_c   10.43252774
_cell_angle_alpha   90.00000000
_cell_angle_beta   91.16260365
_cell_angle_gamma   90.00000000
_symmetry_Int_Tables_number   1
_chemical_formula_structural   BaPSe3
_chemical_formula_sum   'Ba4 P4 Se12'
_cell_volume   607.63001404
_cell_formula_units_Z   4
loop_
 _symmetry_equiv_pos_site_id
 _symmetry_equiv_pos_as_xyz
  1  'x, y, z'
loop_
 _atom_site_type_symbol
 _atom_site_label
 _atom_site_symmetry_multiplicity
 _atom_site_fract_x
 _atom_site_fract_y
 _atom_site_fract_z
 _atom_site_occupancy
  P  P0  1  0.04776567  0.89201934  0.43954351  1
  P  P1  1  0.45223433  0.39201934  0.06045649  1
  P  P2  1  0.95223433  0.10798066  0.56045649  1
  P  P3  1  0.54776567  0.60798066  0.93954351  1
  Se  Se4  1  0.57207412  0.51377501  0.74270783  1
  Se  Se5  1  0.92792588  0.01377501  0.75729217  1
  Se  Se6  1  0.42792588  0.48622499  0.25729217  1
  Se  Se7  1  0.07207412  0.98622499  0.24270783  1
  Se  Se8  1  0.81042266  0.70000165  0.02866755  1
  Se  Se9  1  0.68957734  0.20000165  0.47133245  1
  Se  Se10  1  0.18957734  0.29999835  0.97133245  1
  Se  Se11  1  0.31042266  0.79999835  0.52866755  1
  Se  Se12  1  0.32511239  0.79390986  0.95867041  1
  Se  Se13  1  0.17488761  0.29390986  0.54132959  1
  Se  Se14  1  0.67488761  0.20609014  0.04132959  1
  Se  Se15  1  0.82511239  0.70609014  0.45867041  1
  Ba  Ba16  1  0.54041129  0.90258192  0.24820533  1
  Ba  Ba17  1  0.95958871  0.40258192  0.25179467  1
  Ba  Ba18  1  0.45958871  0.09741808  0.75179467  1
  Ba  Ba19  1  0.04041129  0.59741808  0.74820533  1
