# generated using pymatgen
data_EuZnSn
_symmetry_space_group_name_H-M   'P 1'
_cell_length_a   4.80034993
_cell_length_b   7.81925743
_cell_length_c   8.11515587
_cell_angle_alpha   90.00000000
_cell_angle_beta   90.00000000
_cell_angle_gamma   90.00000000
_symmetry_Int_Tables_number   1
_chemical_formula_structural   EuZnSn
_chemical_formula_sum   'Eu4 Zn4 Sn4'
_cell_volume   304.60377022
_cell_formula_units_Z   4
loop_
 _symmetry_equiv_pos_site_id
 _symmetry_equiv_pos_as_xyz
  1  'x, y, z'
loop_
 _atom_site_type_symbol
 _atom_site_label
 _atom_site_symmetry_multiplicity
 _atom_site_fract_x
 _atom_site_fract_y
 _atom_site_fract_z
 _atom_site_occupancy
  Zn  Zn0  1  0.75000000  0.32075604  0.58312338  1
  Zn  Zn1  1  0.25000000  0.17924396  0.08312338  1
  Zn  Zn2  1  0.75000000  0.82075604  0.91687662  1
  Zn  Zn3  1  0.25000000  0.67924396  0.41687662  1
  Sn  Sn4  1  0.25000000  0.29186161  0.40917755  1
  Sn  Sn5  1  0.75000000  0.20813839  0.90917755  1
  Sn  Sn6  1  0.25000000  0.79186161  0.09082245  1
  Sn  Sn7  1  0.75000000  0.70813839  0.59082245  1
  Eu  Eu8  1  0.25000000  0.49661022  0.78871760  1
  Eu  Eu9  1  0.75000000  0.50338978  0.21128240  1
  Eu  Eu10  1  0.25000000  0.99661022  0.71128240  1
  Eu  Eu11  1  0.75000000  0.00338978  0.28871760  1
