# generated using pymatgen
data_Er(FeGe)6
_symmetry_space_group_name_H-M   'P 1'
_cell_length_a   5.11549216
_cell_length_b   5.11413479
_cell_length_c   8.12007487
_cell_angle_alpha   90.00000000
_cell_angle_beta   90.00000000
_cell_angle_gamma   120.00877497
_symmetry_Int_Tables_number   1
_chemical_formula_structural   Er(FeGe)6
_chemical_formula_sum   'Er1 Fe6 Ge6'
_cell_volume   183.95510772
_cell_formula_units_Z   1
loop_
 _symmetry_equiv_pos_site_id
 _symmetry_equiv_pos_as_xyz
  1  'x, y, z'
loop_
 _atom_site_type_symbol
 _atom_site_label
 _atom_site_symmetry_multiplicity
 _atom_site_fract_x
 _atom_site_fract_y
 _atom_site_fract_z
 _atom_site_occupancy
  Er  Er0  1  0.99998637  0.00000000  -0.00000000  1
  Fe  Fe1  1  0.49999712  0.00000000  0.25020597  1
  Fe  Fe2  1  0.49999379  0.50000549  0.25020538  1
  Fe  Fe3  1  0.99998830  0.49999451  0.25020538  1
  Fe  Fe4  1  0.49999712  0.00000000  0.74979403  1
  Fe  Fe5  1  0.49999379  0.50000549  0.74979462  1
  Fe  Fe6  1  0.99998830  0.49999451  0.74979462  1
  Ge  Ge7  1  0.33330766  0.66667776  -0.00000000  1
  Ge  Ge8  1  0.66662991  0.33332224  -0.00000000  1
  Ge  Ge9  1  0.33329920  0.66667007  0.50000000  1
  Ge  Ge10  1  0.66662913  0.33332993  0.50000000  1
  Ge  Ge11  1  0.99999467  0.00000000  0.34615759  1
  Ge  Ge12  1  0.99999467  0.00000000  0.65384241  1
