# generated using pymatgen
data_Sr5Al9
_symmetry_space_group_name_H-M   'P 1'
_cell_length_a   12.38318221
_cell_length_b   12.38318221
_cell_length_c   12.38318221
_cell_angle_alpha   27.40278652
_cell_angle_beta   27.40278652
_cell_angle_gamma   27.40278652
_symmetry_Int_Tables_number   1
_chemical_formula_structural   Sr5Al9
_chemical_formula_sum   'Sr5 Al9'
_cell_volume   354.97198180
_cell_formula_units_Z   1
loop_
 _symmetry_equiv_pos_site_id
 _symmetry_equiv_pos_as_xyz
  1  'x, y, z'
loop_
 _atom_site_type_symbol
 _atom_site_label
 _atom_site_symmetry_multiplicity
 _atom_site_fract_x
 _atom_site_fract_y
 _atom_site_fract_z
 _atom_site_occupancy
  Al  Al0  1  0.00000000  0.00000000  0.00000000  1
  Al  Al1  1  0.12427887  0.12427887  0.12427887  1
  Al  Al2  1  0.87572113  0.87572113  0.87572113  1
  Al  Al3  1  0.23637862  0.72457789  0.23637862  1
  Al  Al4  1  0.23637862  0.23637862  0.72457789  1
  Al  Al5  1  0.72457789  0.23637862  0.23637862  1
  Al  Al6  1  0.27542211  0.76362138  0.76362138  1
  Al  Al7  1  0.76362138  0.27542211  0.76362138  1
  Al  Al8  1  0.76362138  0.76362138  0.27542211  1
  Sr  Sr9  1  0.50000000  0.50000000  0.50000000  1
  Sr  Sr10  1  0.21680319  0.21680319  0.21680319  1
  Sr  Sr11  1  0.78319681  0.78319681  0.78319681  1
  Sr  Sr12  1  0.31685777  0.31685777  0.31685777  1
  Sr  Sr13  1  0.68314223  0.68314223  0.68314223  1
