# generated using pymatgen
data_YbCdAu
_symmetry_space_group_name_H-M   'P 1'
_cell_length_a   4.43619490
_cell_length_b   7.22995299
_cell_length_c   8.84048212
_cell_angle_alpha   90.00000000
_cell_angle_beta   90.00000000
_cell_angle_gamma   90.00000000
_symmetry_Int_Tables_number   1
_chemical_formula_structural   YbCdAu
_chemical_formula_sum   'Yb4 Cd4 Au4'
_cell_volume   283.54503161
_cell_formula_units_Z   4
loop_
 _symmetry_equiv_pos_site_id
 _symmetry_equiv_pos_as_xyz
  1  'x, y, z'
loop_
 _atom_site_type_symbol
 _atom_site_label
 _atom_site_symmetry_multiplicity
 _atom_site_fract_x
 _atom_site_fract_y
 _atom_site_fract_z
 _atom_site_occupancy
  Cd  Cd0  1  0.25000000  0.64271053  0.44391670  1
  Cd  Cd1  1  0.25000000  0.14271053  0.05608330  1
  Cd  Cd2  1  0.75000000  0.35728947  0.55608330  1
  Cd  Cd3  1  0.75000000  0.85728947  0.94391670  1
  Yb  Yb4  1  0.75000000  0.45280426  0.18131451  1
  Yb  Yb5  1  0.25000000  0.04719574  0.68131451  1
  Yb  Yb6  1  0.75000000  0.95280426  0.31868549  1
  Yb  Yb7  1  0.25000000  0.54719574  0.81868549  1
  Au  Au8  1  0.25000000  0.74099115  0.13130145  1
  Au  Au9  1  0.25000000  0.24099115  0.36869855  1
  Au  Au10  1  0.75000000  0.75900885  0.63130145  1
  Au  Au11  1  0.75000000  0.25900885  0.86869855  1
