# generated using pymatgen
data_K2PO4
_symmetry_space_group_name_H-M   'P 1'
_cell_length_a   5.97723038
_cell_length_b   7.49120277
_cell_length_c   10.38388209
_cell_angle_alpha   90.00000000
_cell_angle_beta   90.00000000
_cell_angle_gamma   99.12457361
_symmetry_Int_Tables_number   1
_chemical_formula_structural   K2PO4
_chemical_formula_sum   'K8 P4 O16'
_cell_volume   459.07179936
_cell_formula_units_Z   4
loop_
 _symmetry_equiv_pos_site_id
 _symmetry_equiv_pos_as_xyz
  1  'x, y, z'
loop_
 _atom_site_type_symbol
 _atom_site_label
 _atom_site_symmetry_multiplicity
 _atom_site_fract_x
 _atom_site_fract_y
 _atom_site_fract_z
 _atom_site_occupancy
  K  K0  1  0.25176548  0.82781706  0.91550533  1
  K  K1  1  0.74823452  0.67218294  0.41550533  1
  K  K2  1  0.74823452  0.17218294  0.08449467  1
  K  K3  1  0.25176548  0.32781706  0.58449467  1
  K  K4  1  0.76299449  0.52605810  0.76857715  1
  K  K5  1  0.23700551  0.97394190  0.26857715  1
  K  K6  1  0.23700551  0.47394190  0.23142285  1
  K  K7  1  0.76299449  0.02605810  0.73142285  1
  P  P8  1  0.27905839  0.28043873  0.92497152  1
  P  P9  1  0.72094161  0.71956127  0.07502848  1
  P  P10  1  0.27905839  0.78043873  0.57502848  1
  P  P11  1  0.72094161  0.21956127  0.42497152  1
  O  O12  1  0.54212223  0.79540721  0.15403023  1
  O  O13  1  0.54212223  0.29540721  0.34596977  1
  O  O14  1  0.22505981  0.18138322  0.05278434  1
  O  O15  1  0.38998186  0.99804106  0.53822338  1
  O  O16  1  0.61001814  0.50195894  0.03822338  1
  O  O17  1  0.77494019  0.31861678  0.55278434  1
  O  O18  1  0.92711068  0.68092427  0.15074005  1
  O  O19  1  0.92711068  0.18092427  0.34925995  1
  O  O20  1  0.45787777  0.20459279  0.84596977  1
  O  O21  1  0.07288932  0.81907573  0.65074005  1
  O  O22  1  0.38998186  0.49804106  0.96177662  1
  O  O23  1  0.61001814  0.00195894  0.46177662  1
  O  O24  1  0.45787777  0.70459279  0.65403023  1
  O  O25  1  0.77494019  0.81861678  0.94721566  1
  O  O26  1  0.07288932  0.31907573  0.84925995  1
  O  O27  1  0.22505981  0.68138322  0.44721566  1
