# generated using pymatgen
data_Th7Rh3
_symmetry_space_group_name_H-M   'P 1'
_cell_length_a   6.27620504
_cell_length_b   10.03369276
_cell_length_c   10.03369276
_cell_angle_alpha   120.03025080
_cell_angle_beta   90.00000000
_cell_angle_gamma   90.00000000
_symmetry_Int_Tables_number   1
_chemical_formula_structural   Th7Rh3
_chemical_formula_sum   'Th14 Rh6'
_cell_volume   547.03723280
_cell_formula_units_Z   2
loop_
 _symmetry_equiv_pos_site_id
 _symmetry_equiv_pos_as_xyz
  1  'x, y, z'
loop_
 _atom_site_type_symbol
 _atom_site_label
 _atom_site_symmetry_multiplicity
 _atom_site_fract_x
 _atom_site_fract_y
 _atom_site_fract_z
 _atom_site_occupancy
  Th  Th0  1  0.41874922  0.33338966  0.66661034  1
  Th  Th1  1  0.91874922  0.66661034  0.33338966  1
  Th  Th2  1  0.25390716  0.12833343  0.87166657  1
  Th  Th3  1  0.25377745  0.74375662  0.87182873  1
  Th  Th4  1  0.25377745  0.12817127  0.25624338  1
  Th  Th5  1  0.75390716  0.87166657  0.12833343  1
  Th  Th6  1  0.75377745  0.25624338  0.12817127  1
  Th  Th7  1  0.75377745  0.87182873  0.74375662  1
  Th  Th8  1  0.46117550  0.54136059  0.45863941  1
  Th  Th9  1  0.46101994  0.91716773  0.45863541  1
  Th  Th10  1  0.46101994  0.54136459  0.08283227  1
  Th  Th11  1  0.96117550  0.45863941  0.54136059  1
  Th  Th12  1  0.96101994  0.08283227  0.54136459  1
  Th  Th13  1  0.96101994  0.45863541  0.91716773  1
  Rh  Rh14  1  0.19825137  0.81530167  0.18469833  1
  Rh  Rh15  1  0.19816097  0.36939089  0.18482215  1
  Rh  Rh16  1  0.19816097  0.81517785  0.63060911  1
  Rh  Rh17  1  0.69825137  0.18469833  0.81530167  1
  Rh  Rh18  1  0.69816097  0.63060911  0.81517785  1
  Rh  Rh19  1  0.69816097  0.18482215  0.36939089  1
