# generated using pymatgen
data_EuCdAu
_symmetry_space_group_name_H-M   'P 1'
_cell_length_a   4.55874877
_cell_length_b   7.56832398
_cell_length_c   8.94570748
_cell_angle_alpha   90.00000000
_cell_angle_beta   90.00000000
_cell_angle_gamma   90.00000000
_symmetry_Int_Tables_number   1
_chemical_formula_structural   EuCdAu
_chemical_formula_sum   'Eu4 Cd4 Au4'
_cell_volume   308.64558343
_cell_formula_units_Z   4
loop_
 _symmetry_equiv_pos_site_id
 _symmetry_equiv_pos_as_xyz
  1  'x, y, z'
loop_
 _atom_site_type_symbol
 _atom_site_label
 _atom_site_symmetry_multiplicity
 _atom_site_fract_x
 _atom_site_fract_y
 _atom_site_fract_z
 _atom_site_occupancy
  Cd  Cd0  1  0.25000000  0.64512714  0.43980797  1
  Cd  Cd1  1  0.25000000  0.14512714  0.06019203  1
  Cd  Cd2  1  0.75000000  0.35487286  0.56019203  1
  Cd  Cd3  1  0.75000000  0.85487286  0.93980797  1
  Eu  Eu4  1  0.75000000  0.46107428  0.18334959  1
  Eu  Eu5  1  0.25000000  0.03892572  0.68334959  1
  Eu  Eu6  1  0.75000000  0.96107428  0.31665041  1
  Eu  Eu7  1  0.25000000  0.53892572  0.81665041  1
  Au  Au8  1  0.25000000  0.75527545  0.12569784  1
  Au  Au9  1  0.25000000  0.25527545  0.37430216  1
  Au  Au10  1  0.75000000  0.74472455  0.62569784  1
  Au  Au11  1  0.75000000  0.24472455  0.87430216  1
