# generated using pymatgen
data_BaIn2Rh
_symmetry_space_group_name_H-M   'P 1'
_cell_length_a   4.50953685
_cell_length_b   6.29454469
_cell_length_c   8.17366275
_cell_angle_alpha   90.00000000
_cell_angle_beta   90.00000000
_cell_angle_gamma   110.99030240
_symmetry_Int_Tables_number   1
_chemical_formula_structural   BaIn2Rh
_chemical_formula_sum   'Ba2 In4 Rh2'
_cell_volume   216.61719256
_cell_formula_units_Z   2
loop_
 _symmetry_equiv_pos_site_id
 _symmetry_equiv_pos_as_xyz
  1  'x, y, z'
loop_
 _atom_site_type_symbol
 _atom_site_label
 _atom_site_symmetry_multiplicity
 _atom_site_fract_x
 _atom_site_fract_y
 _atom_site_fract_z
 _atom_site_occupancy
  Rh  Rh0  1  0.78181935  0.56363869  0.75000000  1
  Rh  Rh1  1  0.21818065  0.43636131  0.25000000  1
  In  In2  1  0.33378736  0.66757472  0.55567341  1
  In  In3  1  0.66621264  0.33242528  0.44432659  1
  In  In4  1  0.33378736  0.66757472  0.94432659  1
  In  In5  1  0.66621264  0.33242528  0.05567341  1
  Ba  Ba6  1  0.94829875  0.89659750  0.25000000  1
  Ba  Ba7  1  0.05170125  0.10340250  0.75000000  1
