# generated using pymatgen
data_KCuPdSe5
_symmetry_space_group_name_H-M   'P 1'
_cell_length_a   6.27905261
_cell_length_b   7.40717276
_cell_length_c   9.10410722
_cell_angle_alpha   90.00000000
_cell_angle_beta   103.32945827
_cell_angle_gamma   90.00000000
_symmetry_Int_Tables_number   1
_chemical_formula_structural   KCuPdSe5
_chemical_formula_sum   'K2 Cu2 Pd2 Se10'
_cell_volume   412.02520792
_cell_formula_units_Z   2
loop_
 _symmetry_equiv_pos_site_id
 _symmetry_equiv_pos_as_xyz
  1  'x, y, z'
loop_
 _atom_site_type_symbol
 _atom_site_label
 _atom_site_symmetry_multiplicity
 _atom_site_fract_x
 _atom_site_fract_y
 _atom_site_fract_z
 _atom_site_occupancy
  K  K0  1  0.74208846  0.75000000  0.95370826  1
  K  K1  1  0.25791154  0.25000000  0.04629174  1
  Cu  Cu2  1  0.11831681  0.25000000  0.60832758  1
  Cu  Cu3  1  0.88168319  0.75000000  0.39167242  1
  Se  Se4  1  0.73134885  0.25000000  0.63522394  1
  Se  Se5  1  0.26865115  0.75000000  0.36477606  1
  Se  Se6  1  0.71229964  0.25000000  0.89413701  1
  Se  Se7  1  0.28770036  0.75000000  0.10586299  1
  Se  Se8  1  0.04091163  0.75000000  0.65808402  1
  Se  Se9  1  0.95908837  0.25000000  0.34191598  1
  Se  Se10  1  0.31810923  0.98953201  0.71639192  1
  Se  Se11  1  0.68189077  0.48953201  0.28360808  1
  Se  Se12  1  0.68189077  0.01046799  0.28360808  1
  Se  Se13  1  0.31810923  0.51046799  0.71639192  1
  Pd  Pd14  1  0.50000000  0.50000000  0.50000000  1
  Pd  Pd15  1  0.50000000  0.00000000  0.50000000  1
