# generated using pymatgen
data_LaSc3(BO3)4
_symmetry_space_group_name_H-M   'P 1'
_cell_length_a   6.23971737
_cell_length_b   6.23971698
_cell_length_c   6.23971719
_cell_angle_alpha   100.91667067
_cell_angle_beta   100.91666960
_cell_angle_gamma   100.91667356
_symmetry_Int_Tables_number   1
_chemical_formula_structural   LaSc3(BO3)4
_chemical_formula_sum   'La1 Sc3 B4 O12'
_cell_volume   227.74280621
_cell_formula_units_Z   1
loop_
 _symmetry_equiv_pos_site_id
 _symmetry_equiv_pos_as_xyz
  1  'x, y, z'
loop_
 _atom_site_type_symbol
 _atom_site_label
 _atom_site_symmetry_multiplicity
 _atom_site_fract_x
 _atom_site_fract_y
 _atom_site_fract_z
 _atom_site_occupancy
  La  La0  1  0.00000000  0.00000000  0.00000000  1
  Sc  Sc1  1  0.49374513  0.50625487  1.00000000  1
  Sc  Sc2  1  0.00000000  0.49374513  0.50625487  1
  Sc  Sc3  1  0.50625487  0.00000000  0.49374513  1
  B  B4  1  0.98845647  0.50000000  0.01154353  1
  B  B5  1  0.01154353  0.98845647  0.50000000  1
  B  B6  1  0.50000000  0.50000000  0.50000000  1
  B  B7  1  0.50000000  0.01154353  0.98845647  1
  O  O8  1  0.37643822  0.17292341  1.00320607  1
  O  O9  1  -0.00320607  0.82707659  0.62356178  1
  O  O10  1  0.35526661  0.64473339  0.50000000  1
  O  O11  1  1.00320607  0.37643822  0.17292341  1
  O  O12  1  0.82707659  0.62356178  -0.00320607  1
  O  O13  1  0.50000000  0.86722629  0.13277371  1
  O  O14  1  0.86722629  0.13277371  0.50000000  1
  O  O15  1  0.50000000  0.35526661  0.64473339  1
  O  O16  1  0.62356178  -0.00320607  0.82707659  1
  O  O17  1  0.17292341  1.00320607  0.37643822  1
  O  O18  1  0.13277371  0.50000000  0.86722629  1
  O  O19  1  0.64473339  0.50000000  0.35526661  1
