# generated using pymatgen
data_YbInRh
_symmetry_space_group_name_H-M   'P 1'
_cell_length_a   4.19224153
_cell_length_b   7.22546907
_cell_length_c   8.52988057
_cell_angle_alpha   90.00000000
_cell_angle_beta   90.00000000
_cell_angle_gamma   90.00000000
_symmetry_Int_Tables_number   1
_chemical_formula_structural   YbInRh
_chemical_formula_sum   'Yb4 In4 Rh4'
_cell_volume   258.37785753
_cell_formula_units_Z   4
loop_
 _symmetry_equiv_pos_site_id
 _symmetry_equiv_pos_as_xyz
  1  'x, y, z'
loop_
 _atom_site_type_symbol
 _atom_site_label
 _atom_site_symmetry_multiplicity
 _atom_site_fract_x
 _atom_site_fract_y
 _atom_site_fract_z
 _atom_site_occupancy
  Rh  Rh0  1  0.25000000  0.26768389  0.13322802  1
  Rh  Rh1  1  0.75000000  0.73231611  0.86677198  1
  Rh  Rh2  1  0.25000000  0.76768389  0.36677198  1
  Rh  Rh3  1  0.75000000  0.23231611  0.63322802  1
  In  In4  1  0.75000000  0.85184797  0.56252741  1
  In  In5  1  0.25000000  0.14815203  0.43747259  1
  In  In6  1  0.75000000  0.35184797  0.93747259  1
  In  In7  1  0.25000000  0.64815203  0.06252741  1
  Yb  Yb8  1  0.25000000  0.52830632  0.67624332  1
  Yb  Yb9  1  0.75000000  0.47169368  0.32375668  1
  Yb  Yb10  1  0.25000000  0.02830632  0.82375668  1
  Yb  Yb11  1  0.75000000  0.97169368  0.17624332  1
