# generated using pymatgen
data_CsYCdSe3
_symmetry_space_group_name_H-M   'P 1'
_cell_length_a   4.30835713
_cell_length_b   8.46932586
_cell_length_c   11.22843501
_cell_angle_alpha   90.00000000
_cell_angle_beta   90.00000000
_cell_angle_gamma   104.73511175
_symmetry_Int_Tables_number   1
_chemical_formula_structural   CsYCdSe3
_chemical_formula_sum   'Cs2 Y2 Cd2 Se6'
_cell_volume   396.23840744
_cell_formula_units_Z   2
loop_
 _symmetry_equiv_pos_site_id
 _symmetry_equiv_pos_as_xyz
  1  'x, y, z'
loop_
 _atom_site_type_symbol
 _atom_site_label
 _atom_site_symmetry_multiplicity
 _atom_site_fract_x
 _atom_site_fract_y
 _atom_site_fract_z
 _atom_site_occupancy
  Se  Se0  1  0.93957381  0.87914762  0.25000000  1
  Se  Se1  1  0.06042619  0.12085238  0.75000000  1
  Se  Se2  1  0.38315882  0.76631764  0.54533192  1
  Se  Se3  1  0.38315882  0.76631764  0.95466808  1
  Se  Se4  1  0.61684118  0.23368236  0.04533192  1
  Se  Se5  1  0.61684118  0.23368236  0.45466808  1
  Y  Y6  1  0.00000000  0.00000000  0.50000000  1
  Y  Y7  1  0.00000000  0.00000000  0.00000000  1
  Cd  Cd8  1  0.53942457  0.07884915  0.25000000  1
  Cd  Cd9  1  0.46057543  0.92115085  0.75000000  1
  Cs  Cs10  1  0.25581565  0.51163130  0.25000000  1
  Cs  Cs11  1  0.74418435  0.48836870  0.75000000  1
