# generated using pymatgen
data_YbMgPd
_symmetry_space_group_name_H-M   'P 1'
_cell_length_a   4.18773830
_cell_length_b   7.38986785
_cell_length_c   8.56904882
_cell_angle_alpha   90.00000000
_cell_angle_beta   90.00000000
_cell_angle_gamma   90.00000000
_symmetry_Int_Tables_number   1
_chemical_formula_structural   YbMgPd
_chemical_formula_sum   'Yb4 Mg4 Pd4'
_cell_volume   265.18491961
_cell_formula_units_Z   4
loop_
 _symmetry_equiv_pos_site_id
 _symmetry_equiv_pos_as_xyz
  1  'x, y, z'
loop_
 _atom_site_type_symbol
 _atom_site_label
 _atom_site_symmetry_multiplicity
 _atom_site_fract_x
 _atom_site_fract_y
 _atom_site_fract_z
 _atom_site_occupancy
  Mg  Mg0  1  0.25000000  0.63721323  0.43902070  1
  Mg  Mg1  1  0.75000000  0.36278677  0.56097930  1
  Mg  Mg2  1  0.25000000  0.13721323  0.06097930  1
  Mg  Mg3  1  0.75000000  0.86278677  0.93902070  1
  Pd  Pd4  1  0.75000000  0.73479089  0.62920366  1
  Pd  Pd5  1  0.25000000  0.26520911  0.37079634  1
  Pd  Pd6  1  0.75000000  0.23479089  0.87079634  1
  Pd  Pd7  1  0.25000000  0.76520911  0.12920366  1
  Yb  Yb8  1  0.25000000  0.53297078  0.82518243  1
  Yb  Yb9  1  0.75000000  0.46702922  0.17481757  1
  Yb  Yb10  1  0.25000000  0.03297078  0.67481757  1
  Yb  Yb11  1  0.75000000  0.96702922  0.32518243  1
