# generated using pymatgen
data_CsTbCdSe3
_symmetry_space_group_name_H-M   'P 1'
_cell_length_a   4.32036533
_cell_length_b   8.47331226
_cell_length_c   11.23763923
_cell_angle_alpha   90.00000000
_cell_angle_beta   90.00000000
_cell_angle_gamma   104.77000495
_symmetry_Int_Tables_number   1
_chemical_formula_structural   CsTbCdSe3
_chemical_formula_sum   'Cs2 Tb2 Cd2 Se6'
_cell_volume   397.79188973
_cell_formula_units_Z   2
loop_
 _symmetry_equiv_pos_site_id
 _symmetry_equiv_pos_as_xyz
  1  'x, y, z'
loop_
 _atom_site_type_symbol
 _atom_site_label
 _atom_site_symmetry_multiplicity
 _atom_site_fract_x
 _atom_site_fract_y
 _atom_site_fract_z
 _atom_site_occupancy
  Se  Se0  1  0.93935925  0.87871850  0.25000000  1
  Se  Se1  1  0.06064075  0.12128150  0.75000000  1
  Se  Se2  1  0.38305388  0.76610776  0.54596427  1
  Se  Se3  1  0.38305388  0.76610776  0.95403573  1
  Se  Se4  1  0.61694612  0.23389224  0.04596427  1
  Se  Se5  1  0.61694612  0.23389224  0.45403573  1
  Cd  Cd6  1  0.46104451  0.92208902  0.75000000  1
  Cd  Cd7  1  0.53895549  0.07791098  0.25000000  1
  Cs  Cs8  1  0.25557773  0.51115546  0.25000000  1
  Cs  Cs9  1  0.74442227  0.48884454  0.75000000  1
  Tb  Tb10  1  0.00000000  0.00000000  0.50000000  1
  Tb  Tb11  1  0.00000000  0.00000000  0.00000000  1
