# generated using pymatgen
data_BaCu9Ge4
_symmetry_space_group_name_H-M   'P 1'
_cell_length_a   8.37355549
_cell_length_b   8.37355549
_cell_length_c   8.45183600
_cell_angle_alpha   119.69408707
_cell_angle_beta   119.69408710
_cell_angle_gamma   89.99999999
_symmetry_Int_Tables_number   1
_chemical_formula_structural   BaCu9Ge4
_chemical_formula_sum   'Ba2 Cu18 Ge8'
_cell_volume   422.88588810
_cell_formula_units_Z   2
loop_
 _symmetry_equiv_pos_site_id
 _symmetry_equiv_pos_as_xyz
  1  'x, y, z'
loop_
 _atom_site_type_symbol
 _atom_site_label
 _atom_site_symmetry_multiplicity
 _atom_site_fract_x
 _atom_site_fract_y
 _atom_site_fract_z
 _atom_site_occupancy
  Cu  Cu0  1  0.06094622  0.56094622  0.35544157  1
  Cu  Cu1  1  0.70550464  0.20550464  0.64455843  1
  Cu  Cu2  1  0.93905378  0.43905378  0.64455843  1
  Cu  Cu3  1  0.20550464  0.93905378  0.64455843  1
  Cu  Cu4  1  0.43905378  0.70550464  0.64455843  1
  Cu  Cu5  1  0.79449536  0.06094622  0.35544157  1
  Cu  Cu6  1  0.56094622  0.29449536  0.35544157  1
  Cu  Cu7  1  0.29449536  0.79449536  0.35544157  1
  Cu  Cu8  1  0.79585907  0.93838336  0.00000000  1
  Cu  Cu9  1  0.43838336  0.29585907  0.00000000  1
  Cu  Cu10  1  0.00000000  0.50000000  0.00000000  1
  Cu  Cu11  1  0.50000000  0.00000000  0.00000000  1
  Cu  Cu12  1  0.20414093  0.06161664  0.00000000  1
  Cu  Cu13  1  0.93838336  0.20414093  0.00000000  1
  Cu  Cu14  1  0.06161664  0.79585907  0.00000000  1
  Cu  Cu15  1  0.70414093  0.43838336  0.00000000  1
  Cu  Cu16  1  0.29585907  0.56161664  0.00000000  1
  Cu  Cu17  1  0.56161664  0.70414093  0.00000000  1
  Ge  Ge18  1  0.79928448  0.29928448  0.24152365  1
  Ge  Ge19  1  0.55776083  0.05776083  0.75847635  1
  Ge  Ge20  1  0.20071552  0.70071552  0.75847635  1
  Ge  Ge21  1  0.05776083  0.20071552  0.75847635  1
  Ge  Ge22  1  0.70071552  0.55776083  0.75847635  1
  Ge  Ge23  1  0.94223917  0.79928448  0.24152365  1
  Ge  Ge24  1  0.29928448  0.44223917  0.24152365  1
  Ge  Ge25  1  0.44223917  0.94223917  0.24152365  1
  Ba  Ba26  1  0.75000000  0.75000000  0.50000000  1
  Ba  Ba27  1  0.25000000  0.25000000  0.50000000  1
