# generated using pymatgen
data_CsDyCdSe3
_symmetry_space_group_name_H-M   'P 1'
_cell_length_a   4.30468016
_cell_length_b   8.47040947
_cell_length_c   11.20570529
_cell_angle_alpha   90.00000000
_cell_angle_beta   90.00000000
_cell_angle_gamma   104.72032565
_symmetry_Int_Tables_number   1
_chemical_formula_structural   CsDyCdSe3
_chemical_formula_sum   'Cs2 Dy2 Cd2 Se6'
_cell_volume   395.17617387
_cell_formula_units_Z   2
loop_
 _symmetry_equiv_pos_site_id
 _symmetry_equiv_pos_as_xyz
  1  'x, y, z'
loop_
 _atom_site_type_symbol
 _atom_site_label
 _atom_site_symmetry_multiplicity
 _atom_site_fract_x
 _atom_site_fract_y
 _atom_site_fract_z
 _atom_site_occupancy
  Se  Se0  1  0.93993900  0.87987800  0.25000000  1
  Se  Se1  1  0.06006100  0.12012200  0.75000000  1
  Se  Se2  1  0.38319559  0.76639119  0.54479215  1
  Se  Se3  1  0.38319559  0.76639119  0.95520785  1
  Se  Se4  1  0.61680441  0.23360881  0.04479215  1
  Se  Se5  1  0.61680441  0.23360881  0.45520785  1
  Cd  Cd6  1  0.46022969  0.92045938  0.75000000  1
  Cd  Cd7  1  0.53977031  0.07954062  0.25000000  1
  Cs  Cs8  1  0.25592086  0.51184173  0.25000000  1
  Cs  Cs9  1  0.74407914  0.48815827  0.75000000  1
  Dy  Dy10  1  0.00000000  0.00000000  0.50000000  1
  Dy  Dy11  1  0.00000000  0.00000000  0.00000000  1
