# generated using pymatgen
data_CsYHgSe3
_symmetry_space_group_name_H-M   'P 1'
_cell_length_a   4.30828363
_cell_length_b   8.48437267
_cell_length_c   11.18974595
_cell_angle_alpha   90.00000000
_cell_angle_beta   90.00000000
_cell_angle_gamma   104.70813270
_symmetry_Int_Tables_number   1
_chemical_formula_structural   CsYHgSe3
_chemical_formula_sum   'Cs2 Y2 Hg2 Se6'
_cell_volume   395.61685099
_cell_formula_units_Z   2
loop_
 _symmetry_equiv_pos_site_id
 _symmetry_equiv_pos_as_xyz
  1  'x, y, z'
loop_
 _atom_site_type_symbol
 _atom_site_label
 _atom_site_symmetry_multiplicity
 _atom_site_fract_x
 _atom_site_fract_y
 _atom_site_fract_z
 _atom_site_occupancy
  Se  Se0  1  0.93942613  0.87885226  0.25000000  1
  Se  Se1  1  0.06057387  0.12114774  0.75000000  1
  Se  Se2  1  0.38212423  0.76424847  0.54068442  1
  Se  Se3  1  0.38212423  0.76424847  0.95931558  1
  Se  Se4  1  0.61787577  0.23575153  0.04068442  1
  Se  Se5  1  0.61787577  0.23575153  0.45931558  1
  Y  Y6  1  0.00000000  0.00000000  0.00000000  1
  Y  Y7  1  0.00000000  0.00000000  0.50000000  1
  Cs  Cs8  1  0.25534300  0.51068600  0.25000000  1
  Cs  Cs9  1  0.74465700  0.48931400  0.75000000  1
  Hg  Hg10  1  0.54511517  0.09023035  0.25000000  1
  Hg  Hg11  1  0.45488483  0.90976965  0.75000000  1
