# generated using pymatgen
data_SrCu9Ge4
_symmetry_space_group_name_H-M   'P 1'
_cell_length_a   8.31319057
_cell_length_b   8.31319057
_cell_length_c   8.38639361
_cell_angle_alpha   119.71167164
_cell_angle_beta   119.71167166
_cell_angle_gamma   90.00000001
_symmetry_Int_Tables_number   1
_chemical_formula_structural   SrCu9Ge4
_chemical_formula_sum   'Sr2 Cu18 Ge8'
_cell_volume   413.36871977
_cell_formula_units_Z   2
loop_
 _symmetry_equiv_pos_site_id
 _symmetry_equiv_pos_as_xyz
  1  'x, y, z'
loop_
 _atom_site_type_symbol
 _atom_site_label
 _atom_site_symmetry_multiplicity
 _atom_site_fract_x
 _atom_site_fract_y
 _atom_site_fract_z
 _atom_site_occupancy
  Cu  Cu0  1  0.06069540  0.56069540  0.35671602  1
  Cu  Cu1  1  0.70397938  0.20397938  0.64328398  1
  Cu  Cu2  1  0.93930460  0.43930460  0.64328398  1
  Cu  Cu3  1  0.20397938  0.93930460  0.64328398  1
  Cu  Cu4  1  0.43930460  0.70397938  0.64328398  1
  Cu  Cu5  1  0.79602062  0.06069540  0.35671602  1
  Cu  Cu6  1  0.56069540  0.29602062  0.35671602  1
  Cu  Cu7  1  0.29602062  0.79602062  0.35671602  1
  Cu  Cu8  1  0.79722910  0.93794648  0.00000000  1
  Cu  Cu9  1  0.43794648  0.29722910  0.00000000  1
  Cu  Cu10  1  0.00000000  0.50000000  0.00000000  1
  Cu  Cu11  1  0.50000000  0.00000000  0.00000000  1
  Cu  Cu12  1  0.20277090  0.06205352  0.00000000  1
  Cu  Cu13  1  0.93794648  0.20277090  0.00000000  1
  Cu  Cu14  1  0.06205352  0.79722910  0.00000000  1
  Cu  Cu15  1  0.70277090  0.43794648  0.00000000  1
  Cu  Cu16  1  0.29722910  0.56205352  0.00000000  1
  Cu  Cu17  1  0.56205352  0.70277090  0.00000000  1
  Ge  Ge18  1  0.80083780  0.30083780  0.24350333  1
  Ge  Ge19  1  0.55733447  0.05733447  0.75649667  1
  Ge  Ge20  1  0.19916220  0.69916220  0.75649667  1
  Ge  Ge21  1  0.05733447  0.19916220  0.75649667  1
  Ge  Ge22  1  0.69916220  0.55733447  0.75649667  1
  Ge  Ge23  1  0.94266553  0.80083780  0.24350333  1
  Ge  Ge24  1  0.30083780  0.44266553  0.24350333  1
  Ge  Ge25  1  0.44266553  0.94266553  0.24350333  1
  Sr  Sr26  1  0.75000000  0.75000000  0.50000000  1
  Sr  Sr27  1  0.25000000  0.25000000  0.50000000  1
