# generated using pymatgen
data_SrCu9Si4
_symmetry_space_group_name_H-M   'P 1'
_cell_length_a   8.15521493
_cell_length_b   8.15521493
_cell_length_c   8.18750977
_cell_angle_alpha   119.86960570
_cell_angle_beta   119.86960575
_cell_angle_gamma   90.00000000
_symmetry_Int_Tables_number   1
_chemical_formula_structural   SrCu9Si4
_chemical_formula_sum   'Sr2 Si8 Cu18'
_cell_volume   386.55439461
_cell_formula_units_Z   2
loop_
 _symmetry_equiv_pos_site_id
 _symmetry_equiv_pos_as_xyz
  1  'x, y, z'
loop_
 _atom_site_type_symbol
 _atom_site_label
 _atom_site_symmetry_multiplicity
 _atom_site_fract_x
 _atom_site_fract_y
 _atom_site_fract_z
 _atom_site_occupancy
  Si  Si0  1  0.79187833  0.29187833  0.23218539  1
  Si  Si1  1  0.55969294  0.05969294  0.76781461  1
  Si  Si2  1  0.70812167  0.55969294  0.76781461  1
  Si  Si3  1  0.94030706  0.79187833  0.23218539  1
  Si  Si4  1  0.29187833  0.44030706  0.23218539  1
  Si  Si5  1  0.44030706  0.94030706  0.23218539  1
  Si  Si6  1  0.20812167  0.70812167  0.76781461  1
  Si  Si7  1  0.05969294  0.20812167  0.76781461  1
  Cu  Cu8  1  0.70345301  0.43569027  0.00000000  1
  Cu  Cu9  1  0.56430973  0.70345301  0.00000000  1
  Cu  Cu10  1  0.43569027  0.29654699  0.00000000  1
  Cu  Cu11  1  0.79654699  0.93569027  0.00000000  1
  Cu  Cu12  1  0.29654699  0.56430973  0.00000000  1
  Cu  Cu13  1  0.55887142  0.30677762  0.36564904  1
  Cu  Cu14  1  0.80677762  0.05887142  0.36564904  1
  Cu  Cu15  1  0.44112858  0.69322238  0.63435096  1
  Cu  Cu16  1  0.19322238  0.94112858  0.63435096  1
  Cu  Cu17  1  0.94112858  0.44112858  0.63435096  1
  Cu  Cu18  1  0.69322238  0.19322238  0.63435096  1
  Cu  Cu19  1  0.05887142  0.55887142  0.36564904  1
  Cu  Cu20  1  0.93569027  0.20345301  0.00000000  1
  Cu  Cu21  1  0.20345301  0.06430973  0.00000000  1
  Cu  Cu22  1  0.50000000  0.00000000  0.00000000  1
  Cu  Cu23  1  0.00000000  0.50000000  0.00000000  1
  Cu  Cu24  1  0.30677762  0.80677762  0.36564904  1
  Cu  Cu25  1  0.06430973  0.79654699  0.00000000  1
  Sr  Sr26  1  0.75000000  0.75000000  0.50000000  1
  Sr  Sr27  1  0.25000000  0.25000000  0.50000000  1
