# generated using pymatgen
data_BaCu9Si4
_symmetry_space_group_name_H-M   'P 1'
_cell_length_a   8.22285998
_cell_length_b   8.22285998
_cell_length_c   8.25774232
_cell_angle_alpha   119.86036276
_cell_angle_beta   119.86036281
_cell_angle_gamma   89.99999996
_symmetry_Int_Tables_number   1
_chemical_formula_structural   BaCu9Si4
_chemical_formula_sum   'Ba2 Si8 Cu18'
_cell_volume   396.47436869
_cell_formula_units_Z   2
loop_
 _symmetry_equiv_pos_site_id
 _symmetry_equiv_pos_as_xyz
  1  'x, y, z'
loop_
 _atom_site_type_symbol
 _atom_site_label
 _atom_site_symmetry_multiplicity
 _atom_site_fract_x
 _atom_site_fract_y
 _atom_site_fract_z
 _atom_site_occupancy
  Si  Si0  1  0.79054427  0.29054427  0.23036976  1
  Si  Si1  1  0.56017452  0.06017452  0.76963024  1
  Si  Si2  1  0.70945573  0.56017452  0.76963024  1
  Si  Si3  1  0.93982548  0.79054427  0.23036976  1
  Si  Si4  1  0.29054427  0.43982548  0.23036976  1
  Si  Si5  1  0.43982548  0.93982548  0.23036976  1
  Si  Si6  1  0.20945573  0.70945573  0.76963024  1
  Si  Si7  1  0.06017452  0.20945573  0.76963024  1
  Cu  Cu8  1  0.70484691  0.43579397  0.00000000  1
  Cu  Cu9  1  0.56420603  0.70484691  0.00000000  1
  Cu  Cu10  1  0.43579397  0.29515309  0.00000000  1
  Cu  Cu11  1  0.79515309  0.93579397  0.00000000  1
  Cu  Cu12  1  0.29515309  0.56420603  0.00000000  1
  Cu  Cu13  1  0.55947065  0.30451375  0.36398439  1
  Cu  Cu14  1  0.80451375  0.05947065  0.36398439  1
  Cu  Cu15  1  0.44052935  0.69548625  0.63601561  1
  Cu  Cu16  1  0.19548625  0.94052935  0.63601561  1
  Cu  Cu17  1  0.94052935  0.44052935  0.63601561  1
  Cu  Cu18  1  0.69548625  0.19548625  0.63601561  1
  Cu  Cu19  1  0.05947065  0.55947065  0.36398439  1
  Cu  Cu20  1  0.93579397  0.20484691  0.00000000  1
  Cu  Cu21  1  0.20484691  0.06420603  0.00000000  1
  Cu  Cu22  1  0.50000000  0.00000000  0.00000000  1
  Cu  Cu23  1  0.00000000  0.50000000  0.00000000  1
  Cu  Cu24  1  0.30451375  0.80451375  0.36398439  1
  Cu  Cu25  1  0.06420603  0.79515309  0.00000000  1
  Ba  Ba26  1  0.75000000  0.75000000  0.50000000  1
  Ba  Ba27  1  0.25000000  0.25000000  0.50000000  1
