# generated using pymatgen
data_Na2MgPO4F
_symmetry_space_group_name_H-M   'P 1'
_cell_length_a   5.27898000
_cell_length_b   11.80273397
_cell_length_c   13.87578387
_cell_angle_alpha   90.00000000
_cell_angle_beta   90.00000000
_cell_angle_gamma   90.00000000
_symmetry_Int_Tables_number   1
_chemical_formula_structural   Na2MgPO4F
_chemical_formula_sum   'Na16 Mg8 P8 O32 F8'
_cell_volume   864.55009256
_cell_formula_units_Z   8
loop_
 _symmetry_equiv_pos_site_id
 _symmetry_equiv_pos_as_xyz
  1  'x, y, z'
loop_
 _atom_site_type_symbol
 _atom_site_label
 _atom_site_symmetry_multiplicity
 _atom_site_fract_x
 _atom_site_fract_y
 _atom_site_fract_z
 _atom_site_occupancy
  O  O0  1  0.23428754  0.54141788  0.10864313  1
  O  O1  1  0.21086558  0.36878694  0.21741988  1
  O  O2  1  0.78913442  0.13121306  0.21741988  1
  O  O3  1  0.28913442  0.86878694  0.28258012  1
  O  O4  1  0.28913442  0.36878694  0.71741988  1
  O  O5  1  0.78913442  0.63121306  0.78258012  1
  O  O6  1  0.21086558  0.86878694  0.78258012  1
  O  O7  1  0.71086558  0.13121306  0.71741988  1
  O  O8  1  0.08318556  0.60719752  0.39854364  1
  O  O9  1  0.58318556  0.39280248  0.10145636  1
  O  O10  1  0.41681444  0.10719752  0.10145636  1
  O  O11  1  0.91681444  0.89280248  0.39854364  1
  O  O12  1  0.91681444  0.39280248  0.60145636  1
  O  O13  1  0.41681444  0.60719752  0.89854364  1
  O  O14  1  0.58318556  0.89280248  0.89854364  1
  O  O15  1  0.08318556  0.10719752  0.60145636  1
  O  O16  1  0.73428754  0.45858212  0.39135687  1
  O  O17  1  0.71086558  0.63121306  0.28258012  1
  O  O18  1  0.76571246  0.95858212  0.10864313  1
  O  O19  1  0.64576661  0.15246488  0.53658704  1
  O  O20  1  0.26571246  0.54141788  0.60864313  1
  O  O21  1  0.76571246  0.45858212  0.89135687  1
  O  O22  1  0.23428754  0.04141788  0.89135687  1
  O  O23  1  0.73428754  0.95858212  0.60864313  1
  O  O24  1  0.64576661  0.65246488  0.46341296  1
  O  O25  1  0.14576661  0.34753512  0.03658704  1
  O  O26  1  0.85423339  0.15246488  0.03658704  1
  O  O27  1  0.35423339  0.84753512  0.46341296  1
  O  O28  1  0.35423339  0.34753512  0.53658704  1
  O  O29  1  0.85423339  0.65246488  0.96341296  1
  O  O30  1  0.14576661  0.84753512  0.96341296  1
  O  O31  1  0.26571246  0.04141788  0.39135687  1
  F  F32  1  0.50000000  0.75000000  0.62277612  1
  F  F33  1  0.00000000  0.25000000  0.87722388  1
  F  F34  1  0.50000000  0.25000000  0.37722388  1
  F  F35  1  0.00000000  0.75000000  0.12277612  1
  F  F36  1  0.00000000  0.75000000  0.58812680  1
  F  F37  1  0.50000000  0.25000000  0.91187320  1
  F  F38  1  0.00000000  0.25000000  0.41187320  1
  F  F39  1  0.50000000  0.75000000  0.08812680  1
  Na  Na40  1  0.76006921  0.32883682  0.25336890  1
  Na  Na41  1  0.26006921  0.17116318  0.75336890  1
  Na  Na42  1  0.73993079  0.32883682  0.75336890  1
  Na  Na43  1  0.23993079  0.67116318  0.74663110  1
  Na  Na44  1  0.23993079  0.17116318  0.25336890  1
  Na  Na45  1  0.73993079  0.82883682  0.24663110  1
  Na  Na46  1  0.26006921  0.67116318  0.24663110  1
  Na  Na47  1  0.76006921  0.82883682  0.74663110  1
  Na  Na48  1  0.74358364  0.08082059  0.37678479  1
  Na  Na49  1  0.24358364  0.91917941  0.12321521  1
  Na  Na50  1  0.75641636  0.58082059  0.12321521  1
  Na  Na51  1  0.74358364  0.58082059  0.62321521  1
  Na  Na52  1  0.25641636  0.91917941  0.62321521  1
  Na  Na53  1  0.75641636  0.08082059  0.87678479  1
  Na  Na54  1  0.24358364  0.41917941  0.87678479  1
  Na  Na55  1  0.25641636  0.41917941  0.37678479  1
  Mg  Mg56  1  0.72138167  0.32400197  0.48717731  1
  Mg  Mg57  1  0.22138167  0.67599803  0.01282269  1
  Mg  Mg58  1  0.77861833  0.82400197  0.01282269  1
  Mg  Mg59  1  0.27861833  0.17599803  0.48717731  1
  Mg  Mg60  1  0.27861833  0.67599803  0.51282269  1
  Mg  Mg61  1  0.77861833  0.32400197  0.98717731  1
  Mg  Mg62  1  0.22138167  0.17599803  0.98717731  1
  Mg  Mg63  1  0.72138167  0.82400197  0.51282269  1
  P  P64  1  0.79190257  0.08750266  0.61752708  1
  P  P65  1  0.29190257  0.91249734  0.88247292  1
  P  P66  1  0.70809743  0.58750266  0.88247292  1
  P  P67  1  0.20809743  0.41249734  0.61752708  1
  P  P68  1  0.20809743  0.91249734  0.38247292  1
  P  P69  1  0.70809743  0.08750266  0.11752708  1
  P  P70  1  0.29190257  0.41249734  0.11752708  1
  P  P71  1  0.79190257  0.58750266  0.38247292  1
