# generated using pymatgen
data_SmMgGa
_symmetry_space_group_name_H-M   'P 1'
_cell_length_a   7.40954204
_cell_length_b   7.40954204
_cell_length_c   4.50154553
_cell_angle_alpha   90.00000000
_cell_angle_beta   90.00000000
_cell_angle_gamma   119.99999999
_symmetry_Int_Tables_number   1
_chemical_formula_structural   SmMgGa
_chemical_formula_sum   'Sm3 Mg3 Ga3'
_cell_volume   214.03017762
_cell_formula_units_Z   3
loop_
 _symmetry_equiv_pos_site_id
 _symmetry_equiv_pos_as_xyz
  1  'x, y, z'
loop_
 _atom_site_type_symbol
 _atom_site_label
 _atom_site_symmetry_multiplicity
 _atom_site_fract_x
 _atom_site_fract_y
 _atom_site_fract_z
 _atom_site_occupancy
  Mg  Mg0  1  0.00000000  0.24331105  0.50000000  1
  Mg  Mg1  1  0.75668895  0.75668895  0.50000000  1
  Mg  Mg2  1  0.24331105  0.00000000  0.50000000  1
  Ga  Ga3  1  0.33333333  0.66666667  0.50000000  1
  Ga  Ga4  1  0.66666667  0.33333333  0.50000000  1
  Ga  Ga5  1  0.00000000  0.00000000  0.00000000  1
  Sm  Sm6  1  0.00000000  0.57626274  0.00000000  1
  Sm  Sm7  1  0.42373726  0.42373726  0.00000000  1
  Sm  Sm8  1  0.57626274  0.00000000  0.00000000  1
