# generated using pymatgen
data_CuH10(CO4)2
_symmetry_space_group_name_H-M   'P 1'
_cell_length_a   8.08739016
_cell_length_b   8.18954222
_cell_length_c   12.71819650
_cell_angle_alpha   90.00000000
_cell_angle_beta   100.04619810
_cell_angle_gamma   90.00000000
_symmetry_Int_Tables_number   1
_chemical_formula_structural   CuH10(CO4)2
_chemical_formula_sum   'Cu4 H40 C8 O32'
_cell_volume   829.43645583
_cell_formula_units_Z   4
loop_
 _symmetry_equiv_pos_site_id
 _symmetry_equiv_pos_as_xyz
  1  'x, y, z'
loop_
 _atom_site_type_symbol
 _atom_site_label
 _atom_site_symmetry_multiplicity
 _atom_site_fract_x
 _atom_site_fract_y
 _atom_site_fract_z
 _atom_site_occupancy
  Cu  Cu0  1  0.50000000  0.50000000  0.50000000  1
  Cu  Cu1  1  0.00000000  0.00000000  0.00000000  1
  Cu  Cu2  1  0.50000000  0.50000000  0.00000000  1
  Cu  Cu3  1  0.00000000  0.00000000  0.50000000  1
  H  H4  1  0.98121709  0.03259374  0.76801658  1
  H  H5  1  0.97574579  0.72324119  0.22474844  1
  H  H6  1  0.20557752  0.69808616  0.04400331  1
  H  H7  1  0.19761964  0.89407769  0.71213937  1
  H  H8  1  0.29248916  0.19860290  0.95618726  1
  H  H9  1  0.52174759  0.69776047  0.20649596  1
  H  H10  1  0.70557752  0.80191384  0.54400331  1
  H  H11  1  0.30238036  0.39407769  0.78786063  1
  H  H12  1  0.79248916  0.30139710  0.45618726  1
  H  H13  1  0.70751084  0.80139710  0.04381274  1
  H  H14  1  0.29442248  0.19808616  0.45599669  1
  H  H15  1  0.08364107  0.33013395  0.66890541  1
  H  H16  1  0.30957998  0.38427590  0.28903611  1
  H  H17  1  0.41635893  0.83013395  0.83109459  1
  H  H18  1  0.52425421  0.22324119  0.27525156  1
  H  H19  1  0.91317229  0.67909298  0.82693576  1
  H  H20  1  0.47264788  0.95844521  0.25061061  1
  H  H21  1  0.01878291  0.96740626  0.23198342  1
  H  H22  1  0.48121709  0.46740626  0.26801658  1
  H  H23  1  0.08682771  0.32090702  0.17306424  1
  H  H24  1  0.58682771  0.17909298  0.67306424  1
  H  H25  1  0.58364107  0.16986605  0.16890541  1
  H  H26  1  0.97264788  0.54155479  0.75061061  1
  H  H27  1  0.47574579  0.77675881  0.72474844  1
  H  H28  1  0.69761964  0.60592231  0.21213937  1
  H  H29  1  0.47825241  0.30223953  0.79350404  1
  H  H30  1  0.02425421  0.27675881  0.77525156  1
  H  H31  1  0.41317229  0.82090702  0.32693576  1
  H  H32  1  0.52735212  0.04155479  0.74938939  1
  H  H33  1  0.80238036  0.10592231  0.28786063  1
  H  H34  1  0.97825241  0.19776047  0.29350404  1
  H  H35  1  0.69042002  0.61572410  0.71096389  1
  H  H36  1  0.91635893  0.66986605  0.33109459  1
  H  H37  1  0.02735212  0.45844521  0.24938939  1
  H  H38  1  0.80957998  0.11572410  0.78903611  1
  H  H39  1  0.79442248  0.30191384  0.95599669  1
  H  H40  1  0.51878291  0.53259374  0.73198342  1
  H  H41  1  0.02174759  0.80223953  0.70649596  1
  H  H42  1  0.19042002  0.88427590  0.21096389  1
  H  H43  1  0.20751084  0.69860290  0.54381274  1
  C  C44  1  0.23495876  0.27319056  0.51101339  1
  C  C45  1  0.76504124  0.72680944  0.48898661  1
  C  C46  1  0.23459417  0.27307391  0.01230367  1
  C  C47  1  0.73459417  0.22692609  0.51230367  1
  C  C48  1  0.26540583  0.77307391  0.48769633  1
  C  C49  1  0.26504124  0.77319056  0.98898661  1
  C  C50  1  0.76540583  0.72692609  0.98769633  1
  C  C51  1  0.73495876  0.22680944  0.01101339  1
  O  O52  1  0.07438012  0.90636509  0.68786728  1
  O  O53  1  0.10916908  0.21499757  0.54666375  1
  O  O54  1  0.08196191  0.36851028  0.74259037  1
  O  O55  1  0.61055946  0.28623620  0.54942618  1
  O  O56  1  0.29156170  0.41389923  0.03937598  1
  O  O57  1  0.29186702  0.41392054  0.53859709  1
  O  O58  1  0.70813298  0.58607946  0.46140291  1
  O  O59  1  0.20813298  0.91392054  0.96140291  1
  O  O60  1  0.56666877  0.61205224  0.68521004  1
  O  O61  1  0.40865467  0.85334346  0.25142571  1
  O  O62  1  0.38944054  0.71376380  0.45057382  1
  O  O63  1  0.41803809  0.86851028  0.75740963  1
  O  O64  1  0.79186702  0.08607946  0.03859709  1
  O  O65  1  0.59134533  0.14665654  0.74857429  1
  O  O66  1  0.70843830  0.58610077  0.96062402  1
  O  O67  1  0.89083092  0.78500243  0.45333625  1
  O  O68  1  0.43333123  0.38794776  0.31478996  1
  O  O69  1  0.79156170  0.08610077  0.53937598  1
  O  O70  1  0.88944054  0.78623620  0.95057382  1
  O  O71  1  0.39083092  0.71499757  0.95333625  1
  O  O72  1  0.91803809  0.63148972  0.25740963  1
  O  O73  1  0.60916908  0.28500243  0.04666375  1
  O  O74  1  0.90865467  0.64665654  0.75142571  1
  O  O75  1  0.58196191  0.13148972  0.24259037  1
  O  O76  1  0.92561988  0.09363491  0.31213272  1
  O  O77  1  0.57438012  0.59363491  0.18786728  1
  O  O78  1  0.06666877  0.88794776  0.18521004  1
  O  O79  1  0.09134533  0.35334346  0.24857429  1
  O  O80  1  0.11055946  0.21376380  0.04942618  1
  O  O81  1  0.42561988  0.40636509  0.81213272  1
  O  O82  1  0.20843830  0.91389923  0.46062402  1
  O  O83  1  0.93333123  0.11205224  0.81478996  1
