# generated using pymatgen
data_LiRhF6
_symmetry_space_group_name_H-M   'P 1'
_cell_length_a   5.46280804
_cell_length_b   5.46280804
_cell_length_c   5.46280803
_cell_angle_alpha   56.43070213
_cell_angle_beta   56.43070203
_cell_angle_gamma   56.43070200
_symmetry_Int_Tables_number   1
_chemical_formula_structural   LiRhF6
_chemical_formula_sum   'Li1 Rh1 F6'
_cell_volume   105.76123266
_cell_formula_units_Z   1
loop_
 _symmetry_equiv_pos_site_id
 _symmetry_equiv_pos_as_xyz
  1  'x, y, z'
loop_
 _atom_site_type_symbol
 _atom_site_label
 _atom_site_symmetry_multiplicity
 _atom_site_fract_x
 _atom_site_fract_y
 _atom_site_fract_z
 _atom_site_occupancy
  Li  Li0  1  0.50000000  0.50000000  0.50000000  1
  F  F1  1  0.63975690  0.23838165  0.88153763  1
  F  F2  1  0.23838165  0.88153763  0.63975690  1
  F  F3  1  0.11846237  0.36024310  0.76161835  1
  F  F4  1  0.88153763  0.63975690  0.23838165  1
  F  F5  1  0.76161835  0.11846237  0.36024310  1
  F  F6  1  0.36024310  0.76161835  0.11846237  1
  Rh  Rh7  1  0.00000000  0.00000000  0.00000000  1
