# generated using pymatgen
data_Cs3W2N5
_symmetry_space_group_name_H-M   'P 1'
_cell_length_a   13.86270912
_cell_length_b   13.86270912
_cell_length_c   10.08778877
_cell_angle_alpha   90.00000000
_cell_angle_beta   90.00000000
_cell_angle_gamma   90.00000000
_symmetry_Int_Tables_number   1
_chemical_formula_structural   Cs3W2N5
_chemical_formula_sum   'Cs24 W16 N40'
_cell_volume   1938.61782236
_cell_formula_units_Z   8
loop_
 _symmetry_equiv_pos_site_id
 _symmetry_equiv_pos_as_xyz
  1  'x, y, z'
loop_
 _atom_site_type_symbol
 _atom_site_label
 _atom_site_symmetry_multiplicity
 _atom_site_fract_x
 _atom_site_fract_y
 _atom_site_fract_z
 _atom_site_occupancy
  Cs  Cs0  1  0.07704680  0.29201702  0.75872282  1
  Cs  Cs1  1  0.92295320  0.70798298  0.75872282  1
  Cs  Cs2  1  0.79201702  0.92295320  0.00872282  1
  Cs  Cs3  1  0.20798298  0.07704680  0.00872282  1
  Cs  Cs4  1  0.08332533  0.76070200  0.43535956  1
  Cs  Cs5  1  0.91667467  0.23929800  0.43535956  1
  Cs  Cs6  1  0.26070200  0.91667467  0.68535956  1
  Cs  Cs7  1  0.73929800  0.08332533  0.68535956  1
  Cs  Cs8  1  -0.00000000  0.50000000  0.97999115  1
  Cs  Cs9  1  -0.00000000  0.00000000  0.22999115  1
  Cs  Cs10  1  -0.00000000  0.00000000  0.72140226  1
  Cs  Cs11  1  0.00000000  0.50000000  0.47140226  1
  Cs  Cs12  1  0.57704680  0.79201702  0.25872282  1
  Cs  Cs13  1  0.42295320  0.20798298  0.25872282  1
  Cs  Cs14  1  0.29201702  0.42295320  0.50872282  1
  Cs  Cs15  1  0.70798298  0.57704680  0.50872282  1
  Cs  Cs16  1  0.58332533  0.26070200  0.93535956  1
  Cs  Cs17  1  0.41667467  0.73929800  0.93535956  1
  Cs  Cs18  1  0.76070200  0.41667467  0.18535956  1
  Cs  Cs19  1  0.23929800  0.58332533  0.18535956  1
  Cs  Cs20  1  0.50000000  0.00000000  0.47999115  1
  Cs  Cs21  1  0.50000000  0.50000000  0.72999115  1
  Cs  Cs22  1  0.50000000  0.50000000  0.22140226  1
  Cs  Cs23  1  0.50000000  0.00000000  0.97140226  1
  W  W24  1  0.19303671  0.12308371  0.43468601  1
  W  W25  1  0.80696329  0.87691629  0.43468601  1
  W  W26  1  0.12308371  0.30696329  0.18468601  1
  W  W27  1  0.87691629  0.69303671  0.18468601  1
  W  W28  1  0.89578467  0.22263491  0.04102707  1
  W  W29  1  0.10421533  0.77736509  0.04102707  1
  W  W30  1  0.72263491  0.10421533  0.29102707  1
  W  W31  1  0.27736509  0.89578467  0.29102707  1
  W  W32  1  0.69303671  0.62308371  0.93468601  1
  W  W33  1  0.30696329  0.37691629  0.93468601  1
  W  W34  1  0.62308371  0.80696329  0.68468601  1
  W  W35  1  0.37691629  0.19303671  0.68468601  1
  W  W36  1  0.39578467  0.72263491  0.54102707  1
  W  W37  1  0.60421533  0.27736509  0.54102707  1
  W  W38  1  0.22263491  0.60421533  0.79102707  1
  W  W39  1  0.77736509  0.39578467  0.79102707  1
  N  N40  1  0.09057849  0.13941099  0.53868343  1
  N  N41  1  0.90942151  0.86058901  0.53868343  1
  N  N42  1  0.63941099  0.90942151  0.78868343  1
  N  N43  1  0.36058901  0.09057849  0.78868343  1
  N  N44  1  0.62892960  0.04347748  0.20360984  1
  N  N45  1  0.37107040  0.95652252  0.20360984  1
  N  N46  1  0.04347748  0.87107040  0.95360984  1
  N  N47  1  0.95652252  0.12892960  0.95360984  1
  N  N48  1  0.30501168  0.17003604  0.52520931  1
  N  N49  1  0.69498832  0.82996396  0.52520931  1
  N  N50  1  0.17003604  0.19498832  0.27520931  1
  N  N51  1  0.82996396  0.80501168  0.27520931  1
  N  N52  1  0.80716763  0.16649832  0.16649150  1
  N  N53  1  0.19283237  0.83350168  0.16649150  1
  N  N54  1  0.16649832  0.69283237  0.91649150  1
  N  N55  1  0.83350168  0.30716763  0.91649150  1
  N  N56  1  0.98652812  0.29725749  0.14406526  1
  N  N57  1  0.01347188  0.70274251  0.14406526  1
  N  N58  1  0.79725749  0.01347188  0.39406526  1
  N  N59  1  0.20274251  0.98652812  0.39406526  1
  N  N60  1  0.59057849  0.63941099  0.03868343  1
  N  N61  1  0.40942151  0.36058901  0.03868343  1
  N  N62  1  0.13941099  0.40942151  0.28868343  1
  N  N63  1  0.86058901  0.59057849  0.28868343  1
  N  N64  1  0.12892960  0.54347748  0.70360984  1
  N  N65  1  0.87107040  0.45652252  0.70360984  1
  N  N66  1  0.54347748  0.37107040  0.45360984  1
  N  N67  1  0.45652252  0.62892960  0.45360984  1
  N  N68  1  0.80501168  0.67003604  0.02520931  1
  N  N69  1  0.19498832  0.32996396  0.02520931  1
  N  N70  1  0.67003604  0.69498832  0.77520931  1
  N  N71  1  0.32996396  0.30501168  0.77520931  1
  N  N72  1  0.30716763  0.66649832  0.66649150  1
  N  N73  1  0.69283237  0.33350168  0.66649150  1
  N  N74  1  0.66649832  0.19283237  0.41649150  1
  N  N75  1  0.33350168  0.80716763  0.41649150  1
  N  N76  1  0.48652812  0.79725749  0.64406526  1
  N  N77  1  0.51347188  0.20274251  0.64406526  1
  N  N78  1  0.29725749  0.51347188  0.89406526  1
  N  N79  1  0.70274251  0.48652812  0.89406526  1
