# generated using pymatgen
data_K2IrF6
_symmetry_space_group_name_H-M   'P 1'
_cell_length_a   5.89249027
_cell_length_b   5.89249028
_cell_length_c   4.73881590
_cell_angle_alpha   90.00000000
_cell_angle_beta   90.00000000
_cell_angle_gamma   120.00000002
_symmetry_Int_Tables_number   1
_chemical_formula_structural   K2IrF6
_chemical_formula_sum   'K2 Ir1 F6'
_cell_volume   142.49453787
_cell_formula_units_Z   1
loop_
 _symmetry_equiv_pos_site_id
 _symmetry_equiv_pos_as_xyz
  1  'x, y, z'
loop_
 _atom_site_type_symbol
 _atom_site_label
 _atom_site_symmetry_multiplicity
 _atom_site_fract_x
 _atom_site_fract_y
 _atom_site_fract_z
 _atom_site_occupancy
  F  F0  1  0.83779257  0.16220743  0.77359248  1
  F  F1  1  0.83779257  0.67558514  0.77359248  1
  F  F2  1  0.32441486  0.16220743  0.77359248  1
  F  F3  1  0.16220743  0.83779257  0.22640752  1
  F  F4  1  0.16220743  0.32441486  0.22640752  1
  F  F5  1  0.67558514  0.83779257  0.22640752  1
  K  K6  1  0.66666667  0.33333333  0.28974707  1
  K  K7  1  0.33333333  0.66666667  0.71025293  1
  Ir  Ir8  1  0.00000000  0.00000000  0.00000000  1
