# generated using pymatgen
data_C2S(NCl)3
_symmetry_space_group_name_H-M   'P 1'
_cell_length_a   7.76592145
_cell_length_b   8.32605583
_cell_length_c   12.57591862
_cell_angle_alpha   95.77091822
_cell_angle_beta   90.00000000
_cell_angle_gamma   90.00000000
_symmetry_Int_Tables_number   1
_chemical_formula_structural   C2S(NCl)3
_chemical_formula_sum   'C8 S4 N12 Cl12'
_cell_volume   809.03139533
_cell_formula_units_Z   4
loop_
 _symmetry_equiv_pos_site_id
 _symmetry_equiv_pos_as_xyz
  1  'x, y, z'
loop_
 _atom_site_type_symbol
 _atom_site_label
 _atom_site_symmetry_multiplicity
 _atom_site_fract_x
 _atom_site_fract_y
 _atom_site_fract_z
 _atom_site_occupancy
  C  C0  1  0.97465876  0.64874884  0.15999672  1
  C  C1  1  0.23065314  0.60152930  0.23944816  1
  C  C2  1  0.52534124  0.14874884  0.15999672  1
  C  C3  1  0.26934686  0.10152930  0.23944816  1
  C  C4  1  0.76934686  0.39847070  0.76055184  1
  C  C5  1  0.02534124  0.35125116  0.84000328  1
  C  C6  1  0.47465876  0.85125116  0.84000328  1
  C  C7  1  0.73065314  0.89847070  0.76055184  1
  S  S8  1  0.96287797  0.54166096  0.33952126  1
  S  S9  1  0.53712203  0.04166096  0.33952126  1
  S  S10  1  0.46287797  0.95833904  0.66047874  1
  S  S11  1  0.03712203  0.45833904  0.66047874  1
  N  N12  1  0.62776841  0.08638981  0.22999041  1
  N  N13  1  0.16943416  0.53144813  0.32196632  1
  N  N14  1  0.64592720  0.83337779  0.83829570  1
  N  N15  1  0.35407280  0.16662221  0.16170430  1
  N  N16  1  0.66943416  0.96855187  0.67803368  1
  N  N17  1  0.83056584  0.46855187  0.67803368  1
  N  N18  1  0.85407280  0.33337779  0.83829570  1
  N  N19  1  0.33056584  0.03144813  0.32196632  1
  N  N20  1  0.14592720  0.66662221  0.16170430  1
  N  N21  1  0.87223159  0.58638981  0.22999041  1
  N  N22  1  0.12776841  0.41361019  0.77000959  1
  N  N23  1  0.37223159  0.91361019  0.77000959  1
  Cl  Cl24  1  0.54832499  0.39758867  0.77114958  1
  Cl  Cl25  1  0.93146285  0.76302654  0.44511338  1
  Cl  Cl26  1  0.95167501  0.89758867  0.77114958  1
  Cl  Cl27  1  0.45167501  0.60241133  0.22885042  1
  Cl  Cl28  1  0.37195180  0.79027623  0.95019124  1
  Cl  Cl29  1  0.06853715  0.23697346  0.55488662  1
  Cl  Cl30  1  0.56853715  0.26302654  0.44511338  1
  Cl  Cl31  1  0.62804820  0.20972377  0.04980876  1
  Cl  Cl32  1  0.87195180  0.70972377  0.04980876  1
  Cl  Cl33  1  0.12804820  0.29027623  0.95019124  1
  Cl  Cl34  1  0.04832499  0.10241133  0.22885042  1
  Cl  Cl35  1  0.43146285  0.73697346  0.55488662  1
