# generated using pymatgen
data_Nd3Sb4Pt7
_symmetry_space_group_name_H-M   'P 1'
_cell_length_a   4.33632817
_cell_length_b   8.64846958
_cell_length_c   8.68280511
_cell_angle_alpha   74.93380373
_cell_angle_beta   75.53977852
_cell_angle_gamma   75.48111108
_symmetry_Int_Tables_number   1
_chemical_formula_structural   Nd3Sb4Pt7
_chemical_formula_sum   'Nd3 Sb4 Pt7'
_cell_volume   298.40272786
_cell_formula_units_Z   1
loop_
 _symmetry_equiv_pos_site_id
 _symmetry_equiv_pos_as_xyz
  1  'x, y, z'
loop_
 _atom_site_type_symbol
 _atom_site_label
 _atom_site_symmetry_multiplicity
 _atom_site_fract_x
 _atom_site_fract_y
 _atom_site_fract_z
 _atom_site_occupancy
  Sb  Sb0  1  0.36073959  0.87028953  0.40823130  1
  Sb  Sb1  1  0.82798200  0.31868231  0.02535370  1
  Sb  Sb2  1  0.17201800  0.68131769  0.97464630  1
  Sb  Sb3  1  0.63926041  0.12971047  0.59176870  1
  Nd  Nd4  1  0.50000000  0.00000000  0.00000000  1
  Nd  Nd5  1  0.17187015  0.34072842  0.31553127  1
  Nd  Nd6  1  0.82812985  0.65927158  0.68446873  1
  Pt  Pt7  1  0.17030119  0.93104751  0.72835010  1
  Pt  Pt8  1  0.37713484  0.39990728  0.84582304  1
  Pt  Pt9  1  0.50000000  0.50000000  0.50000000  1
  Pt  Pt10  1  0.82969881  0.06895249  0.27164990  1
  Pt  Pt11  1  0.01574063  0.29095806  0.67756068  1
  Pt  Pt12  1  0.98425937  0.70904194  0.32243932  1
  Pt  Pt13  1  0.62286516  0.60009272  0.15417696  1
