# generated using pymatgen
data_Pr(BO2)3
_symmetry_space_group_name_H-M   'P 1'
_cell_length_a   6.45087059
_cell_length_b   6.45087059
_cell_length_c   6.48565209
_cell_angle_alpha   62.29989651
_cell_angle_beta   62.29989649
_cell_angle_gamma   78.95061443
_symmetry_Int_Tables_number   1
_chemical_formula_structural   Pr(BO2)3
_chemical_formula_sum   'Pr2 B6 O12'
_cell_volume   211.47126651
_cell_formula_units_Z   2
loop_
 _symmetry_equiv_pos_site_id
 _symmetry_equiv_pos_as_xyz
  1  'x, y, z'
loop_
 _atom_site_type_symbol
 _atom_site_label
 _atom_site_symmetry_multiplicity
 _atom_site_fract_x
 _atom_site_fract_y
 _atom_site_fract_z
 _atom_site_occupancy
  B  B0  1  0.27745143  0.72254857  0.75000000  1
  B  B1  1  0.84120778  0.70525195  0.08380682  1
  B  B2  1  0.29474805  0.15879222  0.41619318  1
  B  B3  1  0.72254857  0.27745143  0.25000000  1
  B  B4  1  0.70525195  0.84120778  0.58380682  1
  B  B5  1  0.15879222  0.29474805  0.91619318  1
  O  O6  1  0.71044553  0.88367374  0.00292243  1
  O  O7  1  0.11632626  0.28955447  0.49707757  1
  O  O8  1  0.71915443  0.49067141  0.28726659  1
  O  O9  1  0.50932859  0.28084557  0.21273341  1
  O  O10  1  0.28084557  0.50932859  0.71273341  1
  O  O11  1  0.49067141  0.71915443  0.78726659  1
  O  O12  1  0.71151416  0.08399417  0.49161116  1
  O  O13  1  0.91600583  0.28848584  0.00838884  1
  O  O14  1  0.28848584  0.91600583  0.50838884  1
  O  O15  1  0.08399417  0.71151416  0.99161116  1
  O  O16  1  0.88367374  0.71044553  0.50292243  1
  O  O17  1  0.28955447  0.11632626  0.99707757  1
  Pr  Pr18  1  0.29903793  0.70096207  0.25000000  1
  Pr  Pr19  1  0.70096207  0.29903793  0.75000000  1
