# generated using pymatgen
data_Nd2Te5
_symmetry_space_group_name_H-M   'P 1'
_cell_length_a   4.43655263
_cell_length_b   4.44038791
_cell_length_c   23.04172168
_cell_angle_alpha   90.00000000
_cell_angle_beta   95.52454480
_cell_angle_gamma   90.00000000
_symmetry_Int_Tables_number   1
_chemical_formula_structural   Nd2Te5
_chemical_formula_sum   'Nd4 Te10'
_cell_volume   451.81380743
_cell_formula_units_Z   2
loop_
 _symmetry_equiv_pos_site_id
 _symmetry_equiv_pos_as_xyz
  1  'x, y, z'
loop_
 _atom_site_type_symbol
 _atom_site_label
 _atom_site_symmetry_multiplicity
 _atom_site_fract_x
 _atom_site_fract_y
 _atom_site_fract_z
 _atom_site_occupancy
  Te  Te0  1  0.37712866  0.75000000  0.75425731  1
  Te  Te1  1  0.62287134  0.25000000  0.24574269  1
  Te  Te2  1  0.17451625  0.75000000  0.34903251  1
  Te  Te3  1  0.82548375  0.25000000  0.65096749  1
  Te  Te4  1  0.04637330  0.25000000  0.09274660  1
  Te  Te5  1  0.95362670  0.75000000  0.90725340  1
  Te  Te6  1  0.45361768  0.25000000  0.90723535  1
  Te  Te7  1  0.54638232  0.75000000  0.09276465  1
  Te  Te8  1  0.25001742  0.25000000  0.50003485  1
  Te  Te9  1  0.74998258  0.75000000  0.49996515  1
  Nd  Nd10  1  0.30596223  0.75000000  0.61192446  1
  Nd  Nd11  1  0.69403777  0.25000000  0.38807554  1
  Nd  Nd12  1  0.10152964  0.75000000  0.20305928  1
  Nd  Nd13  1  0.89847036  0.25000000  0.79694072  1
