# generated using pymatgen
data_Sm3Sb4Pt7
_symmetry_space_group_name_H-M   'P 1'
_cell_length_a   4.30460521
_cell_length_b   8.61516571
_cell_length_c   8.64645632
_cell_angle_alpha   75.40438168
_cell_angle_beta   75.58620482
_cell_angle_gamma   75.53271385
_symmetry_Int_Tables_number   1
_chemical_formula_structural   Sm3Sb4Pt7
_chemical_formula_sum   'Sm3 Sb4 Pt7'
_cell_volume   294.48854516
_cell_formula_units_Z   1
loop_
 _symmetry_equiv_pos_site_id
 _symmetry_equiv_pos_as_xyz
  1  'x, y, z'
loop_
 _atom_site_type_symbol
 _atom_site_label
 _atom_site_symmetry_multiplicity
 _atom_site_fract_x
 _atom_site_fract_y
 _atom_site_fract_z
 _atom_site_occupancy
  Sb  Sb0  1  0.35948251  0.87167241  0.40936257  1
  Sb  Sb1  1  0.82861026  0.31804242  0.02473705  1
  Sb  Sb2  1  0.17138974  0.68195758  0.97526295  1
  Sb  Sb3  1  0.64051749  0.12832759  0.59063743  1
  Sm  Sm4  1  0.50000000  0.00000000  0.00000000  1
  Sm  Sm5  1  0.17171110  0.34186280  0.31471500  1
  Sm  Sm6  1  0.82828890  0.65813720  0.68528500  1
  Pt  Pt7  1  0.16916377  0.93072547  0.73094700  1
  Pt  Pt8  1  0.37722003  0.40139953  0.84416041  1
  Pt  Pt9  1  0.50000000  0.50000000  0.50000000  1
  Pt  Pt10  1  0.83083623  0.06927453  0.26905300  1
  Pt  Pt11  1  0.01692206  0.29349484  0.67266104  1
  Pt  Pt12  1  0.98307794  0.70650516  0.32733896  1
  Pt  Pt13  1  0.62277997  0.59860047  0.15583959  1
