# generated using pymatgen
data_Li2MgSiO4
_symmetry_space_group_name_H-M   'P 1'
_cell_length_a   5.07057237
_cell_length_b   6.35910216
_cell_length_c   10.80212758
_cell_angle_alpha   90.00000000
_cell_angle_beta   90.00000000
_cell_angle_gamma   90.44725979
_symmetry_Int_Tables_number   1
_chemical_formula_structural   Li2MgSiO4
_chemical_formula_sum   'Li8 Mg4 Si4 O16'
_cell_volume   348.29629751
_cell_formula_units_Z   4
loop_
 _symmetry_equiv_pos_site_id
 _symmetry_equiv_pos_as_xyz
  1  'x, y, z'
loop_
 _atom_site_type_symbol
 _atom_site_label
 _atom_site_symmetry_multiplicity
 _atom_site_fract_x
 _atom_site_fract_y
 _atom_site_fract_z
 _atom_site_occupancy
  Li  Li0  1  0.30676547  0.99574868  0.16207767  1
  Li  Li1  1  0.19323453  0.50425132  0.66207767  1
  Li  Li2  1  0.69323453  0.00425132  0.83792233  1
  Li  Li3  1  0.80676547  0.49574868  0.33792233  1
  Li  Li4  1  0.70405867  0.23694505  0.07394564  1
  Li  Li5  1  0.79594133  0.26305495  0.57394564  1
  Li  Li6  1  0.29594133  0.76305495  0.92605436  1
  Li  Li7  1  0.20405867  0.73694505  0.42605436  1
  O  O8  1  0.29417788  0.04086435  0.83861351  1
  O  O9  1  0.70582212  0.95913565  0.16138649  1
  O  O10  1  0.79417788  0.54086435  0.66138649  1
  O  O11  1  0.63735171  0.24474638  0.40893887  1
  O  O12  1  0.20582212  0.45913565  0.33861351  1
  O  O13  1  0.70108067  0.53360464  0.15939412  1
  O  O14  1  0.79891933  0.96639536  0.65939412  1
  O  O15  1  0.29891933  0.46639536  0.84060588  1
  O  O16  1  0.20605677  0.25135983  0.55685557  1
  O  O17  1  0.86264829  0.25525362  0.90893887  1
  O  O18  1  0.36264829  0.75525362  0.59106113  1
  O  O19  1  0.13735171  0.74474638  0.09106113  1
  O  O20  1  0.70605677  0.75135983  0.94314443  1
  O  O21  1  0.29394323  0.24864017  0.05685557  1
  O  O22  1  0.79394323  0.74864017  0.44314443  1
  O  O23  1  0.20108067  0.03360464  0.34060588  1
  Mg  Mg24  1  0.30792841  0.49845493  0.16447396  1
  Mg  Mg25  1  0.69207159  0.50154507  0.83552604  1
  Mg  Mg26  1  0.80792841  0.99845493  0.33552604  1
  Mg  Mg27  1  0.19207159  0.00154507  0.66447396  1
  Si  Si28  1  0.18884941  0.25224383  0.91257018  1
  Si  Si29  1  0.68884941  0.75224383  0.58742982  1
  Si  Si30  1  0.81115059  0.74775617  0.08742982  1
  Si  Si31  1  0.31115059  0.24775617  0.41257018  1
