# generated using pymatgen
data_Tm6FeSb2
_symmetry_space_group_name_H-M   'P 1'
_cell_length_a   8.09725949
_cell_length_b   8.09725949
_cell_length_c   4.09767274
_cell_angle_alpha   90.00000000
_cell_angle_beta   90.00000000
_cell_angle_gamma   119.99999997
_symmetry_Int_Tables_number   1
_chemical_formula_structural   Tm6FeSb2
_chemical_formula_sum   'Tm6 Fe1 Sb2'
_cell_volume   232.67194306
_cell_formula_units_Z   1
loop_
 _symmetry_equiv_pos_site_id
 _symmetry_equiv_pos_as_xyz
  1  'x, y, z'
loop_
 _atom_site_type_symbol
 _atom_site_label
 _atom_site_symmetry_multiplicity
 _atom_site_fract_x
 _atom_site_fract_y
 _atom_site_fract_z
 _atom_site_occupancy
  Fe  Fe0  1  0.00000000  0.00000000  0.50000000  1
  Sb  Sb1  1  0.33333333  0.66666667  0.00000000  1
  Sb  Sb2  1  0.66666667  0.33333333  0.00000000  1
  Tm  Tm3  1  0.23389840  0.00000000  0.00000000  1
  Tm  Tm4  1  0.76610160  0.76610160  0.00000000  1
  Tm  Tm5  1  0.00000000  0.23389840  0.00000000  1
  Tm  Tm6  1  0.00000000  0.60613134  0.50000000  1
  Tm  Tm7  1  0.39386866  0.39386866  0.50000000  1
  Tm  Tm8  1  0.60613134  0.00000000  0.50000000  1
