# generated using pymatgen
data_LaMg2Ni
_symmetry_space_group_name_H-M   'P 1'
_cell_length_a   4.18805693
_cell_length_b   5.51019788
_cell_length_c   8.39438450
_cell_angle_alpha   90.00000000
_cell_angle_beta   90.00000000
_cell_angle_gamma   112.33540559
_symmetry_Int_Tables_number   1
_chemical_formula_structural   LaMg2Ni
_chemical_formula_sum   'La2 Mg4 Ni2'
_cell_volume   179.18376286
_cell_formula_units_Z   2
loop_
 _symmetry_equiv_pos_site_id
 _symmetry_equiv_pos_as_xyz
  1  'x, y, z'
loop_
 _atom_site_type_symbol
 _atom_site_label
 _atom_site_symmetry_multiplicity
 _atom_site_fract_x
 _atom_site_fract_y
 _atom_site_fract_z
 _atom_site_occupancy
  Mg  Mg0  1  0.15453157  0.30906314  0.55498980  1
  Mg  Mg1  1  0.84546843  0.69093686  0.44501020  1
  Mg  Mg2  1  0.15453157  0.30906314  0.94501020  1
  Mg  Mg3  1  0.84546843  0.69093686  0.05498980  1
  Ni  Ni4  1  0.72577179  0.45154358  0.75000000  1
  Ni  Ni5  1  0.27422821  0.54845642  0.25000000  1
  La  La6  1  0.56017538  0.12035075  0.25000000  1
  La  La7  1  0.43982462  0.87964925  0.75000000  1
