# generated using pymatgen
data_C2SNCl2F5
_symmetry_space_group_name_H-M   'P 1'
_cell_length_a   5.44688110
_cell_length_b   15.82959882
_cell_length_c   19.45596004
_cell_angle_alpha   90.00000000
_cell_angle_beta   96.41389531
_cell_angle_gamma   90.00000000
_symmetry_Int_Tables_number   1
_chemical_formula_structural   C2SNCl2F5
_chemical_formula_sum   'C16 S8 N8 Cl16 F40'
_cell_volume   1667.03076609
_cell_formula_units_Z   8
loop_
 _symmetry_equiv_pos_site_id
 _symmetry_equiv_pos_as_xyz
  1  'x, y, z'
loop_
 _atom_site_type_symbol
 _atom_site_label
 _atom_site_symmetry_multiplicity
 _atom_site_fract_x
 _atom_site_fract_y
 _atom_site_fract_z
 _atom_site_occupancy
  C  C0  1  0.45602502  0.31682195  0.60279101  1
  C  C1  1  0.92881597  0.55876635  0.60699535  1
  C  C2  1  0.58082382  0.77916781  0.38188658  1
  C  C3  1  0.88835928  0.85028201  0.13505922  1
  C  C4  1  0.11164072  0.14971799  0.86494078  1
  C  C5  1  0.58082382  0.72083219  0.88188658  1
  C  C6  1  0.54397498  0.68317805  0.39720899  1
  C  C7  1  0.45602502  0.18317805  0.10279101  1
  C  C8  1  0.92881597  0.94123365  0.10699535  1
  C  C9  1  0.41917618  0.27916781  0.11811342  1
  C  C10  1  0.11164072  0.35028201  0.36494078  1
  C  C11  1  0.54397498  0.81682195  0.89720899  1
  C  C12  1  0.07118403  0.44123365  0.39300465  1
  C  C13  1  0.41917618  0.22083219  0.61811342  1
  C  C14  1  0.88835928  0.64971799  0.63505922  1
  C  C15  1  0.07118403  0.05876635  0.89300465  1
  S  S16  1  0.27087420  0.59674266  0.83620248  1
  S  S17  1  0.21204341  0.77070815  0.67692195  1
  S  S18  1  0.78795659  0.22929185  0.32307805  1
  S  S19  1  0.78795659  0.27070815  0.82307805  1
  S  S20  1  0.27087420  0.90325734  0.33620248  1
  S  S21  1  0.72912580  0.09674266  0.66379752  1
  S  S22  1  0.72912580  0.40325734  0.16379752  1
  S  S23  1  0.21204341  0.72929185  0.17692195  1
  N  N24  1  0.36450559  0.68631568  0.84663967  1
  N  N25  1  0.89103397  0.18196098  0.83018892  1
  N  N26  1  0.63549441  0.18631568  0.65336033  1
  N  N27  1  0.89103397  0.31803902  0.33018892  1
  N  N28  1  0.36450559  0.81368432  0.34663967  1
  N  N29  1  0.10896603  0.68196098  0.66981108  1
  N  N30  1  0.10896603  0.81803902  0.16981108  1
  N  N31  1  0.63549441  0.31368432  0.15336033  1
  Cl  Cl32  1  0.94473372  0.64412240  0.20855933  1
  Cl  Cl33  1  0.24024564  0.82560970  0.57975258  1
  Cl  Cl34  1  0.23568459  0.53642897  0.93172533  1
  Cl  Cl35  1  0.76431541  0.46357103  0.06827467  1
  Cl  Cl36  1  0.75975436  0.32560970  0.92024742  1
  Cl  Cl37  1  0.23568459  0.96357103  0.43172533  1
  Cl  Cl38  1  0.45134505  0.01621141  0.69485457  1
  Cl  Cl39  1  0.24024564  0.67439030  0.07975258  1
  Cl  Cl40  1  0.54865495  0.51621141  0.80514543  1
  Cl  Cl41  1  0.75975436  0.17439030  0.42024742  1
  Cl  Cl42  1  0.76431541  0.03642897  0.56827467  1
  Cl  Cl43  1  0.94473372  0.85587760  0.70855933  1
  Cl  Cl44  1  0.05526628  0.14412240  0.29144067  1
  Cl  Cl45  1  0.45134505  0.48378859  0.19485457  1
  Cl  Cl46  1  0.54865495  0.98378859  0.30514543  1
  Cl  Cl47  1  0.05526628  0.35587760  0.79144067  1
  F  F48  1  0.00628222  0.99389055  0.16005477  1
  F  F49  1  0.00628222  0.50610945  0.66005477  1
  F  F50  1  0.65440741  0.81876636  0.44372421  1
  F  F51  1  0.28470045  0.02848414  0.92586291  1
  F  F52  1  0.20842946  0.30120370  0.41964450  1
  F  F53  1  0.52290655  0.35920841  0.66259718  1
  F  F54  1  0.99371778  0.00610945  0.83994523  1
  F  F55  1  0.24325138  0.35030541  0.57226037  1
  F  F56  1  0.63448165  0.17317298  0.06050278  1
  F  F57  1  0.24325138  0.14969459  0.07226037  1
  F  F58  1  0.77618356  0.78535362  0.34243084  1
  F  F59  1  0.34559259  0.18123364  0.55627579  1
  F  F60  1  0.52290655  0.14079159  0.16259718  1
  F  F61  1  0.34559259  0.31876636  0.05627579  1
  F  F62  1  0.75674862  0.64969459  0.42773963  1
  F  F63  1  0.71529955  0.97151586  0.07413709  1
  F  F64  1  0.28470045  0.47151586  0.42586291  1
  F  F65  1  0.20842946  0.19879630  0.91964450  1
  F  F66  1  0.36551835  0.67317298  0.43949722  1
  F  F67  1  0.70836725  0.85575611  0.17974835  1
  F  F68  1  0.99371778  0.49389055  0.33994523  1
  F  F69  1  0.89848759  0.43970478  0.43774956  1
  F  F70  1  0.36551835  0.82682702  0.93949722  1
  F  F71  1  0.65440741  0.68123364  0.94372421  1
  F  F72  1  0.47709345  0.64079159  0.33740282  1
  F  F73  1  0.79157054  0.69879630  0.58035550  1
  F  F74  1  0.63448165  0.32682702  0.56050278  1
  F  F75  1  0.71529955  0.52848414  0.57413709  1
  F  F76  1  0.75674862  0.85030541  0.92773963  1
  F  F77  1  0.29163275  0.35575611  0.32025165  1
  F  F78  1  0.10151241  0.56029522  0.56225044  1
  F  F79  1  0.10151241  0.93970478  0.06225044  1
  F  F80  1  0.89848759  0.06029522  0.93774956  1
  F  F81  1  0.22381644  0.21464638  0.65756916  1
  F  F82  1  0.47709345  0.85920841  0.83740282  1
  F  F83  1  0.70836725  0.64424389  0.67974835  1
  F  F84  1  0.22381644  0.28535362  0.15756916  1
  F  F85  1  0.29163275  0.14424389  0.82025165  1
  F  F86  1  0.77618356  0.71464638  0.84243084  1
  F  F87  1  0.79157054  0.80120370  0.08035550  1
