# generated using pymatgen
data_BaCd2
_symmetry_space_group_name_H-M   'P 1'
_cell_length_a   5.32663848
_cell_length_b   6.66290241
_cell_length_c   6.66290242
_cell_angle_alpha   78.97396024
_cell_angle_beta   66.43910048
_cell_angle_gamma   66.43910043
_symmetry_Int_Tables_number   1
_chemical_formula_structural   BaCd2
_chemical_formula_sum   'Ba2 Cd4'
_cell_volume   198.54947041
_cell_formula_units_Z   2
loop_
 _symmetry_equiv_pos_site_id
 _symmetry_equiv_pos_as_xyz
  1  'x, y, z'
loop_
 _atom_site_type_symbol
 _atom_site_label
 _atom_site_symmetry_multiplicity
 _atom_site_fract_x
 _atom_site_fract_y
 _atom_site_fract_z
 _atom_site_occupancy
  Cd  Cd0  1  0.83537627  0.72591580  0.60333166  1
  Cd  Cd1  1  0.16462373  0.27408420  0.39666834  1
  Cd  Cd2  1  0.83537627  0.10333166  0.22591580  1
  Cd  Cd3  1  0.16462373  0.89666834  0.77408420  1
  Ba  Ba4  1  0.54718609  0.70281391  0.20281391  1
  Ba  Ba5  1  0.45281391  0.29718609  0.79718609  1
