# generated using pymatgen
data_LuCd3
_symmetry_space_group_name_H-M   'P 1'
_cell_length_a   4.84038986
_cell_length_b   6.44052847
_cell_length_c   6.44052848
_cell_angle_alpha   111.81852951
_cell_angle_beta   90.00000000
_cell_angle_gamma   90.00000000
_symmetry_Int_Tables_number   1
_chemical_formula_structural   LuCd3
_chemical_formula_sum   'Lu2 Cd6'
_cell_volume   186.39850621
_cell_formula_units_Z   2
loop_
 _symmetry_equiv_pos_site_id
 _symmetry_equiv_pos_as_xyz
  1  'x, y, z'
loop_
 _atom_site_type_symbol
 _atom_site_label
 _atom_site_symmetry_multiplicity
 _atom_site_fract_x
 _atom_site_fract_y
 _atom_site_fract_z
 _atom_site_occupancy
  Cd  Cd0  1  0.75000000  0.82110957  0.17889043  1
  Cd  Cd1  1  0.25000000  0.17889043  0.82110957  1
  Cd  Cd2  1  0.75000000  0.31301755  0.11762514  1
  Cd  Cd3  1  0.25000000  0.68698245  0.88237486  1
  Cd  Cd4  1  0.25000000  0.11762514  0.31301755  1
  Cd  Cd5  1  0.75000000  0.88237486  0.68698245  1
  Lu  Lu6  1  0.75000000  0.37114798  0.62885202  1
  Lu  Lu7  1  0.25000000  0.62885202  0.37114798  1
