# generated using pymatgen
data_DyCd3
_symmetry_space_group_name_H-M   'P 1'
_cell_length_a   4.89287434
_cell_length_b   6.53810333
_cell_length_c   6.53810333
_cell_angle_alpha   113.35304606
_cell_angle_beta   90.00000000
_cell_angle_gamma   90.00000000
_symmetry_Int_Tables_number   1
_chemical_formula_structural   DyCd3
_chemical_formula_sum   'Dy2 Cd6'
_cell_volume   192.02069824
_cell_formula_units_Z   2
loop_
 _symmetry_equiv_pos_site_id
 _symmetry_equiv_pos_as_xyz
  1  'x, y, z'
loop_
 _atom_site_type_symbol
 _atom_site_label
 _atom_site_symmetry_multiplicity
 _atom_site_fract_x
 _atom_site_fract_y
 _atom_site_fract_z
 _atom_site_occupancy
  Cd  Cd0  1  0.75000000  0.82376415  0.17623585  1
  Cd  Cd1  1  0.25000000  0.17623585  0.82376415  1
  Cd  Cd2  1  0.75000000  0.31032336  0.12007721  1
  Cd  Cd3  1  0.25000000  0.68967664  0.87992279  1
  Cd  Cd4  1  0.25000000  0.12007721  0.31032336  1
  Cd  Cd5  1  0.75000000  0.87992279  0.68967664  1
  Dy  Dy6  1  0.75000000  0.36560488  0.63439512  1
  Dy  Dy7  1  0.25000000  0.63439512  0.36560488  1
