# generated using pymatgen
data_HoCd3
_symmetry_space_group_name_H-M   'P 1'
_cell_length_a   4.88082652
_cell_length_b   6.51580412
_cell_length_c   6.51580412
_cell_angle_alpha   113.01958773
_cell_angle_beta   90.00000000
_cell_angle_gamma   90.00000000
_symmetry_Int_Tables_number   1
_chemical_formula_structural   HoCd3
_chemical_formula_sum   'Ho2 Cd6'
_cell_volume   190.71833279
_cell_formula_units_Z   2
loop_
 _symmetry_equiv_pos_site_id
 _symmetry_equiv_pos_as_xyz
  1  'x, y, z'
loop_
 _atom_site_type_symbol
 _atom_site_label
 _atom_site_symmetry_multiplicity
 _atom_site_fract_x
 _atom_site_fract_y
 _atom_site_fract_z
 _atom_site_occupancy
  Cd  Cd0  1  0.75000000  0.82316109  0.17683891  1
  Cd  Cd1  1  0.25000000  0.17683891  0.82316109  1
  Cd  Cd2  1  0.75000000  0.31086701  0.11948213  1
  Cd  Cd3  1  0.25000000  0.68913299  0.88051787  1
  Cd  Cd4  1  0.25000000  0.11948213  0.31086701  1
  Cd  Cd5  1  0.75000000  0.88051787  0.68913299  1
  Ho  Ho6  1  0.75000000  0.36683560  0.63316440  1
  Ho  Ho7  1  0.25000000  0.63316440  0.36683560  1
