# generated using pymatgen
data_SiO2
_symmetry_space_group_name_H-M   'P 1'
_cell_length_a   5.19219973
_cell_length_b   11.59578972
_cell_length_c   11.59118219
_cell_angle_alpha   90.00000000
_cell_angle_beta   90.00000000
_cell_angle_gamma   90.00000000
_symmetry_Int_Tables_number   1
_chemical_formula_structural   SiO2
_chemical_formula_sum   'Si16 O32'
_cell_volume   697.87791287
_cell_formula_units_Z   16
loop_
 _symmetry_equiv_pos_site_id
 _symmetry_equiv_pos_as_xyz
  1  'x, y, z'
loop_
 _atom_site_type_symbol
 _atom_site_label
 _atom_site_symmetry_multiplicity
 _atom_site_fract_x
 _atom_site_fract_y
 _atom_site_fract_z
 _atom_site_occupancy
  Si  Si0  1  0.76153577  0.57580283  0.84427510  1
  Si  Si1  1  0.02772983  0.69976305  0.40246499  1
  Si  Si2  1  0.23846423  0.92419717  0.34427510  1
  Si  Si3  1  0.25987337  0.15550892  0.42412770  1
  Si  Si4  1  0.52792028  0.59744890  0.30022280  1
  Si  Si5  1  0.74012663  0.65550892  0.07587230  1
  Si  Si6  1  0.23846423  0.07580283  0.65572490  1
  Si  Si7  1  0.02772983  0.30023695  0.59753501  1
  Si  Si8  1  0.97227017  0.19976305  0.09753501  1
  Si  Si9  1  0.47207972  0.09744890  0.19977720  1
  Si  Si10  1  0.52792028  0.40255110  0.69977720  1
  Si  Si11  1  0.97227017  0.80023695  0.90246499  1
  Si  Si12  1  0.47207972  0.90255110  0.80022280  1
  Si  Si13  1  0.25987337  0.84449108  0.57587230  1
  Si  Si14  1  0.76153577  0.42419717  0.15572490  1
  Si  Si15  1  0.74012663  0.34449108  0.92412770  1
  O  O16  1  0.95834357  0.31666438  0.17982779  1
  O  O17  1  0.54244332  0.32045880  0.81683304  1
  O  O18  1  0.75205983  0.10838355  0.13962266  1
  O  O19  1  0.74784195  0.63956509  0.39171577  1
  O  O20  1  0.08482887  0.04390439  0.38095782  1
  O  O21  1  0.42120876  0.03835803  0.76450654  1
  O  O22  1  0.57879124  0.53835803  0.73549346  1
  O  O23  1  0.91517113  0.45609561  0.88095782  1
  O  O24  1  0.41313488  0.11862726  0.54387886  1
  O  O25  1  0.07788723  0.26444731  0.46164679  1
  O  O26  1  0.08482887  0.95609561  0.61904218  1
  O  O27  1  0.58686512  0.38137274  0.04387886  1
  O  O28  1  0.42120876  0.96164197  0.23549346  1
  O  O29  1  0.95834357  0.68333562  0.82017221  1
  O  O30  1  0.54244332  0.67954120  0.18316696  1
  O  O31  1  0.07788723  0.73555269  0.53835321  1
  O  O32  1  0.25215805  0.86043491  0.89171577  1
  O  O33  1  0.25215805  0.13956509  0.10828423  1
  O  O34  1  0.45755668  0.82045880  0.68316696  1
  O  O35  1  0.92211277  0.23555269  0.96164679  1
  O  O36  1  0.45755668  0.17954120  0.31683304  1
  O  O37  1  0.58686512  0.61862726  0.95612114  1
  O  O38  1  0.24794017  0.60838355  0.36037734  1
  O  O39  1  0.24794017  0.39161645  0.63962266  1
  O  O40  1  0.92211277  0.76444731  0.03835321  1
  O  O41  1  0.57879124  0.46164197  0.26450654  1
  O  O42  1  0.91517113  0.54390439  0.11904218  1
  O  O43  1  0.04165643  0.18333562  0.67982779  1
  O  O44  1  0.04165643  0.81666438  0.32017221  1
  O  O45  1  0.41313488  0.88137274  0.45612114  1
  O  O46  1  0.74784195  0.36043491  0.60828423  1
  O  O47  1  0.75205983  0.89161645  0.86037734  1
