# generated using pymatgen
data_Sc3Si3Ni2
_symmetry_space_group_name_H-M   'P 1'
_cell_length_a   3.98336453
_cell_length_b   5.23478131
_cell_length_c   13.09237243
_cell_angle_alpha   90.00000000
_cell_angle_beta   90.00000000
_cell_angle_gamma   112.36285805
_symmetry_Int_Tables_number   1
_chemical_formula_structural   Sc3Si3Ni2
_chemical_formula_sum   'Sc6 Si6 Ni4'
_cell_volume   252.47095199
_cell_formula_units_Z   2
loop_
 _symmetry_equiv_pos_site_id
 _symmetry_equiv_pos_as_xyz
  1  'x, y, z'
loop_
 _atom_site_type_symbol
 _atom_site_label
 _atom_site_symmetry_multiplicity
 _atom_site_fract_x
 _atom_site_fract_y
 _atom_site_fract_z
 _atom_site_occupancy
  Si  Si0  1  0.34037594  0.68075188  0.25000000  1
  Si  Si1  1  0.65962406  0.31924812  0.75000000  1
  Si  Si2  1  0.38353912  0.76707825  0.53902969  1
  Si  Si3  1  0.61646088  0.23292175  0.46097031  1
  Si  Si4  1  0.61646088  0.23292175  0.03902969  1
  Si  Si5  1  0.38353912  0.76707825  0.96097031  1
  Sc  Sc6  1  0.08276194  0.16552388  0.88836788  1
  Sc  Sc7  1  0.91723806  0.83447612  0.11163212  1
  Sc  Sc8  1  0.91723806  0.83447612  0.38836788  1
  Sc  Sc9  1  0.36156600  0.72313200  0.75000000  1
  Sc  Sc10  1  0.08276194  0.16552388  0.61163212  1
  Sc  Sc11  1  0.63843400  0.27686800  0.25000000  1
  Ni  Ni12  1  0.20801811  0.41603622  0.40397713  1
  Ni  Ni13  1  0.79198189  0.58396378  0.59602287  1
  Ni  Ni14  1  0.20801811  0.41603622  0.09602287  1
  Ni  Ni15  1  0.79198189  0.58396378  0.90397713  1
