# generated using pymatgen
data_Dy(Ni2As)2
_symmetry_space_group_name_H-M   'P 1'
_cell_length_a   3.76934626
_cell_length_b   7.24707940
_cell_length_c   7.24707940
_cell_angle_alpha   90.00000000
_cell_angle_beta   90.00000000
_cell_angle_gamma   90.00000000
_symmetry_Int_Tables_number   1
_chemical_formula_structural   Dy(Ni2As)2
_chemical_formula_sum   'Dy2 Ni8 As4'
_cell_volume   197.96666803
_cell_formula_units_Z   2
loop_
 _symmetry_equiv_pos_site_id
 _symmetry_equiv_pos_as_xyz
  1  'x, y, z'
loop_
 _atom_site_type_symbol
 _atom_site_label
 _atom_site_symmetry_multiplicity
 _atom_site_fract_x
 _atom_site_fract_y
 _atom_site_fract_z
 _atom_site_occupancy
  Ni  Ni0  1  0.50000000  0.41177430  0.84608382  1
  Ni  Ni1  1  0.00000000  0.65391618  0.91177430  1
  Ni  Ni2  1  0.00000000  0.08822570  0.34608382  1
  Ni  Ni3  1  0.50000000  0.15391618  0.58822570  1
  Ni  Ni4  1  0.50000000  0.84608382  0.41177430  1
  Ni  Ni5  1  0.00000000  0.34608382  0.08822570  1
  Ni  Ni6  1  0.50000000  0.58822570  0.15391618  1
  Ni  Ni7  1  0.00000000  0.91177430  0.65391618  1
  As  As8  1  0.50000000  0.71791562  0.71791562  1
  As  As9  1  0.50000000  0.28208438  0.28208438  1
  As  As10  1  0.00000000  0.21791562  0.78208438  1
  As  As11  1  0.00000000  0.78208438  0.21791562  1
  Dy  Dy12  1  0.00000000  0.50000000  0.50000000  1
  Dy  Dy13  1  0.50000000  0.00000000  0.00000000  1
