# generated using pymatgen
data_PrAl5Ni2
_symmetry_space_group_name_H-M   'P 1'
_cell_length_a   3.99723793
_cell_length_b   6.29800968
_cell_length_c   6.29800969
_cell_angle_alpha   68.09158058
_cell_angle_beta   71.49778245
_cell_angle_gamma   71.49778243
_symmetry_Int_Tables_number   1
_chemical_formula_structural   PrAl5Ni2
_chemical_formula_sum   'Pr1 Al5 Ni2'
_cell_volume   135.88391782
_cell_formula_units_Z   1
loop_
 _symmetry_equiv_pos_site_id
 _symmetry_equiv_pos_as_xyz
  1  'x, y, z'
loop_
 _atom_site_type_symbol
 _atom_site_label
 _atom_site_symmetry_multiplicity
 _atom_site_fract_x
 _atom_site_fract_y
 _atom_site_fract_z
 _atom_site_occupancy
  Al  Al0  1  0.00000000  0.50000000  0.50000000  1
  Al  Al1  1  0.65863043  0.15148846  0.53125067  1
  Al  Al2  1  0.34136957  0.84851154  0.46874933  1
  Al  Al3  1  0.34136957  0.46874933  0.84851154  1
  Al  Al4  1  0.65863043  0.53125067  0.15148846  1
  Ni  Ni5  1  0.76238646  0.73761354  0.73761354  1
  Ni  Ni6  1  0.23761354  0.26238646  0.26238646  1
  Pr  Pr7  1  0.00000000  0.00000000  0.00000000  1
