# generated using pymatgen
data_TeH12AuC4S3N
_symmetry_space_group_name_H-M   'P 1'
_cell_length_a   6.79445098
_cell_length_b   9.40777762
_cell_length_c   19.45886679
_cell_angle_alpha   90.00000000
_cell_angle_beta   90.00000000
_cell_angle_gamma   100.88279314
_symmetry_Int_Tables_number   1
_chemical_formula_structural   TeH12AuC4S3N
_chemical_formula_sum   'Te4 H48 Au4 C16 S12 N4'
_cell_volume   1221.45446484
_cell_formula_units_Z   4
loop_
 _symmetry_equiv_pos_site_id
 _symmetry_equiv_pos_as_xyz
  1  'x, y, z'
loop_
 _atom_site_type_symbol
 _atom_site_label
 _atom_site_symmetry_multiplicity
 _atom_site_fract_x
 _atom_site_fract_y
 _atom_site_fract_z
 _atom_site_occupancy
  Te  Te0  1  0.98947562  0.62832646  0.85636223  1
  Te  Te1  1  0.01052438  0.37167354  0.14363777  1
  Te  Te2  1  0.01052438  0.87167354  0.35636223  1
  Te  Te3  1  0.98947562  0.12832646  0.64363777  1
  H  H4  1  0.13849356  0.28672837  0.37430340  1
  H  H5  1  0.35271766  0.70625037  0.20397574  1
  H  H6  1  0.70750067  0.73512855  0.55253460  1
  H  H7  1  0.72790662  0.55957635  0.71898340  1
  H  H8  1  0.46372454  0.47841584  0.72145398  1
  H  H9  1  0.86150644  0.21327163  0.87430340  1
  H  H10  1  0.31903801  0.43993694  0.60964521  1
  H  H11  1  0.86150644  0.71327163  0.62569660  1
  H  H12  1  0.58031757  0.94528934  0.03940829  1
  H  H13  1  0.38317978  0.21653151  0.79252348  1
  H  H14  1  0.35271766  0.20625037  0.29602426  1
  H  H15  1  0.70750067  0.23512855  0.94746540  1
  H  H16  1  0.48114601  0.82690191  0.63564572  1
  H  H17  1  0.64728234  0.29374963  0.79602426  1
  H  H18  1  0.61682022  0.28346849  0.29252348  1
  H  H19  1  0.53627546  0.52158416  0.27854602  1
  H  H20  1  0.64728234  0.79374963  0.70397574  1
  H  H21  1  0.61682022  0.78346849  0.20747652  1
  H  H22  1  0.74258744  0.38447765  0.40014573  1
  H  H23  1  0.22357285  0.43724107  0.43030037  1
  H  H24  1  0.37130317  0.08643070  0.16164919  1
  H  H25  1  0.41968243  0.05471066  0.96059171  1
  H  H26  1  0.77642715  0.56275893  0.56969963  1
  H  H27  1  0.31903801  0.93993694  0.89035479  1
  H  H28  1  0.25741256  0.61552235  0.59985427  1
  H  H29  1  0.27209338  0.44042365  0.28101660  1
  H  H30  1  0.13849356  0.78672837  0.12569660  1
  H  H31  1  0.62869683  0.91356930  0.83835081  1
  H  H32  1  0.58031757  0.44528934  0.46059171  1
  H  H33  1  0.51885399  0.17309809  0.36435428  1
  H  H34  1  0.29249933  0.26487145  0.44746540  1
  H  H35  1  0.27209338  0.94042365  0.21898340  1
  H  H36  1  0.68096199  0.06006306  0.10964521  1
  H  H37  1  0.77642715  0.06275893  0.93030037  1
  H  H38  1  0.38317978  0.71653151  0.70747652  1
  H  H39  1  0.51885399  0.67309809  0.13564572  1
  H  H40  1  0.29249933  0.76487145  0.05253460  1
  H  H41  1  0.62869683  0.41356930  0.66164919  1
  H  H42  1  0.37130317  0.58643070  0.33835081  1
  H  H43  1  0.68096199  0.56006306  0.39035479  1
  H  H44  1  0.74258744  0.88447765  0.09985427  1
  H  H45  1  0.53627546  0.02158416  0.22145398  1
  H  H46  1  0.48114601  0.32690191  0.86435428  1
  H  H47  1  0.22357285  0.93724107  0.06969963  1
  H  H48  1  0.46372454  0.97841584  0.77854602  1
  H  H49  1  0.72790662  0.05957635  0.78101660  1
  H  H50  1  0.25741256  0.11552235  0.90014573  1
  H  H51  1  0.41968243  0.55471066  0.53940829  1
  Au  Au52  1  0.76383350  0.55984616  0.02467448  1
  Au  Au53  1  0.23616650  0.44015384  0.97532552  1
  Au  Au54  1  0.76383350  0.05984616  0.47532552  1
  Au  Au55  1  0.23616650  0.94015384  0.52467448  1
  C  C56  1  0.59685652  0.00862797  0.81104685  1
  C  C57  1  0.40314348  0.99137203  0.18895315  1
  C  C58  1  0.51359901  0.74857770  0.67380176  1
  C  C59  1  0.26167502  0.83950053  0.09264418  1
  C  C60  1  0.62517888  0.44839263  0.40661533  1
  C  C61  1  0.62517888  0.94839263  0.09338467  1
  C  C62  1  0.37482112  0.55160737  0.59338467  1
  C  C63  1  0.48640099  0.25142230  0.32619824  1
  C  C64  1  0.48640099  0.75142230  0.17380176  1
  C  C65  1  0.73832498  0.16049947  0.90735582  1
  C  C66  1  0.73832498  0.66049947  0.59264418  1
  C  C67  1  0.59685652  0.50862797  0.68895315  1
  C  C68  1  0.40314348  0.49137203  0.31104685  1
  C  C69  1  0.51359901  0.24857770  0.82619824  1
  C  C70  1  0.26167502  0.33950053  0.40735582  1
  C  C71  1  0.37482112  0.05160737  0.90661533  1
  S  S72  1  0.95798309  0.19681943  0.22838764  1
  S  S73  1  0.13938965  0.74634263  0.45093059  1
  S  S74  1  0.67179994  0.87628705  0.39556555  1
  S  S75  1  0.32820006  0.12371295  0.60443445  1
  S  S76  1  0.04201691  0.30318057  0.72838764  1
  S  S77  1  0.13938965  0.24634263  0.04906941  1
  S  S78  1  0.32820006  0.62371295  0.89556555  1
  S  S79  1  0.67179994  0.37628705  0.10443445  1
  S  S80  1  0.95798309  0.69681943  0.27161236  1
  S  S81  1  0.86061035  0.25365737  0.54906941  1
  S  S82  1  0.04201691  0.80318057  0.77161236  1
  S  S83  1  0.86061035  0.75365737  0.95093059  1
  N  N84  1  0.44502250  0.88288406  0.13685560  1
  N  N85  1  0.44502250  0.38288406  0.36314440  1
  N  N86  1  0.55497750  0.11711594  0.86314440  1
  N  N87  1  0.55497750  0.61711594  0.63685560  1
