# generated using pymatgen
data_TbF3
_symmetry_space_group_name_H-M   'P 1'
_cell_length_a   4.44595880
_cell_length_b   6.46480269
_cell_length_c   6.96554199
_cell_angle_alpha   90.00000000
_cell_angle_beta   90.00000000
_cell_angle_gamma   90.00000000
_symmetry_Int_Tables_number   1
_chemical_formula_structural   TbF3
_chemical_formula_sum   'Tb4 F12'
_cell_volume   200.20532425
_cell_formula_units_Z   4
loop_
 _symmetry_equiv_pos_site_id
 _symmetry_equiv_pos_as_xyz
  1  'x, y, z'
loop_
 _atom_site_type_symbol
 _atom_site_label
 _atom_site_symmetry_multiplicity
 _atom_site_fract_x
 _atom_site_fract_y
 _atom_site_fract_z
 _atom_site_occupancy
  F  F0  1  0.37808784  0.16426671  0.43682014  1
  F  F1  1  0.87808784  0.33573329  0.56317986  1
  F  F2  1  0.12191216  0.66426671  0.06317986  1
  F  F3  1  0.62191216  0.83573329  0.93682014  1
  F  F4  1  0.58848955  0.52261350  0.25000000  1
  F  F5  1  0.08848955  0.97738650  0.75000000  1
  F  F6  1  0.91151045  0.02261350  0.25000000  1
  F  F7  1  0.41151045  0.47738650  0.75000000  1
  F  F8  1  0.37808784  0.16426671  0.06317986  1
  F  F9  1  0.87808784  0.33573329  0.93682014  1
  F  F10  1  0.12191216  0.66426671  0.43682014  1
  F  F11  1  0.62191216  0.83573329  0.56317986  1
  Tb  Tb12  1  0.93855852  0.63142208  0.75000000  1
  Tb  Tb13  1  0.43855852  0.86857792  0.25000000  1
  Tb  Tb14  1  0.56144148  0.13142208  0.75000000  1
  Tb  Tb15  1  0.06144148  0.36857792  0.25000000  1
