# generated using pymatgen
data_V5S4
_symmetry_space_group_name_H-M   'P 1'
_cell_length_a   3.15671049
_cell_length_b   6.55092960
_cell_length_c   12.71501349
_cell_angle_alpha   89.99387398
_cell_angle_beta   90.00000717
_cell_angle_gamma   103.94179474
_symmetry_Int_Tables_number   1
_chemical_formula_structural   V5S4
_chemical_formula_sum   'V10 S8'
_cell_volume   255.19278405
_cell_formula_units_Z   2
loop_
 _symmetry_equiv_pos_site_id
 _symmetry_equiv_pos_as_xyz
  1  'x, y, z'
loop_
 _atom_site_type_symbol
 _atom_site_label
 _atom_site_symmetry_multiplicity
 _atom_site_fract_x
 _atom_site_fract_y
 _atom_site_fract_z
 _atom_site_occupancy
  V  V0  1  0.16053073  0.32106147  0.46045130  1
  V  V1  1  0.66053585  0.32107170  0.96045129  1
  V  V2  1  0.53953279  0.07906558  0.16051973  1
  V  V3  1  0.03953363  0.07906726  0.66053164  1
  V  V4  1  -0.00000496  -0.00000991  0.00000136  1
  V  V5  1  0.50001130  0.00002260  0.50000364  1
  V  V6  1  0.33945796  0.67891591  0.03955686  1
  V  V7  1  0.83946707  0.67893414  0.53955430  1
  V  V8  1  0.96047406  0.92094811  0.33945958  1
  V  V9  1  0.46046265  0.92092530  0.83946309  1
  S  S10  1  0.16767140  0.33534280  0.10390007  1
  S  S11  1  0.66768078  0.33536155  0.60389471  1
  S  S12  1  0.89609635  0.79219271  0.16769036  1
  S  S13  1  0.39610607  0.79221215  0.66767960  1
  S  S14  1  0.33233748  0.66467495  0.39612122  1
  S  S15  1  0.83233864  0.66467728  0.89610537  1
  S  S16  1  0.60388471  0.20776941  0.33230458  1
  S  S17  1  0.10388349  0.20776699  0.83231131  1
