# generated using pymatgen
data_NdGa2Ni
_symmetry_space_group_name_H-M   'P 1'
_cell_length_a   4.17576627
_cell_length_b   4.20763930
_cell_length_c   9.02217489
_cell_angle_alpha   103.48455306
_cell_angle_beta   90.00000000
_cell_angle_gamma   90.00000000
_symmetry_Int_Tables_number   1
_chemical_formula_structural   NdGa2Ni
_chemical_formula_sum   'Nd2 Ga4 Ni2'
_cell_volume   154.15071198
_cell_formula_units_Z   2
loop_
 _symmetry_equiv_pos_site_id
 _symmetry_equiv_pos_as_xyz
  1  'x, y, z'
loop_
 _atom_site_type_symbol
 _atom_site_label
 _atom_site_symmetry_multiplicity
 _atom_site_fract_x
 _atom_site_fract_y
 _atom_site_fract_z
 _atom_site_occupancy
  Ni  Ni0  1  0.50000000  0.57309501  0.14619001  1
  Ni  Ni1  1  0.50000000  0.42690499  0.85380999  1
  Ga  Ga2  1  0.50000000  0.00000000  0.00000000  1
  Ga  Ga3  1  0.50000000  0.70914731  0.41829461  1
  Ga  Ga4  1  0.00000000  0.50000000  0.00000000  1
  Ga  Ga5  1  0.50000000  0.29085269  0.58170539  1
  Nd  Nd6  1  0.00000000  0.85826538  0.71653075  1
  Nd  Nd7  1  0.00000000  0.14173462  0.28346925  1
