# generated using pymatgen
data_Er5Ga3
_symmetry_space_group_name_H-M   'P 1'
_cell_length_a   8.53098034
_cell_length_b   8.53098034
_cell_length_c   6.45560987
_cell_angle_alpha   90.00000000
_cell_angle_beta   90.00000000
_cell_angle_gamma   120.00000001
_symmetry_Int_Tables_number   1
_chemical_formula_structural   Er5Ga3
_chemical_formula_sum   'Er10 Ga6'
_cell_volume   406.87948264
_cell_formula_units_Z   2
loop_
 _symmetry_equiv_pos_site_id
 _symmetry_equiv_pos_as_xyz
  1  'x, y, z'
loop_
 _atom_site_type_symbol
 _atom_site_label
 _atom_site_symmetry_multiplicity
 _atom_site_fract_x
 _atom_site_fract_y
 _atom_site_fract_z
 _atom_site_occupancy
  Ga  Ga0  1  0.40110099  0.00000000  0.75000000  1
  Ga  Ga1  1  0.40110099  0.40110099  0.25000000  1
  Ga  Ga2  1  0.00000000  0.59889901  0.25000000  1
  Ga  Ga3  1  0.00000000  0.40110099  0.75000000  1
  Ga  Ga4  1  0.59889901  0.59889901  0.75000000  1
  Ga  Ga5  1  0.59889901  0.00000000  0.25000000  1
  Er  Er6  1  0.00000000  0.75642199  0.75000000  1
  Er  Er7  1  0.00000000  0.24357801  0.25000000  1
  Er  Er8  1  0.75642199  0.75642199  0.25000000  1
  Er  Er9  1  0.75642199  0.00000000  0.75000000  1
  Er  Er10  1  0.24357801  0.24357801  0.75000000  1
  Er  Er11  1  0.24357801  0.00000000  0.25000000  1
  Er  Er12  1  0.33333333  0.66666667  0.50000000  1
  Er  Er13  1  0.66666667  0.33333333  0.00000000  1
  Er  Er14  1  0.66666667  0.33333333  0.50000000  1
  Er  Er15  1  0.33333333  0.66666667  0.00000000  1
