# generated using pymatgen
data_Nb3Ga2
_symmetry_space_group_name_H-M   'P 1'
_cell_length_a   3.53096335
_cell_length_b   6.95252044
_cell_length_c   6.95252044
_cell_angle_alpha   90.00000000
_cell_angle_beta   90.00000000
_cell_angle_gamma   90.00000000
_symmetry_Int_Tables_number   1
_chemical_formula_structural   Nb3Ga2
_chemical_formula_sum   'Nb6 Ga4'
_cell_volume   170.67808382
_cell_formula_units_Z   2
loop_
 _symmetry_equiv_pos_site_id
 _symmetry_equiv_pos_as_xyz
  1  'x, y, z'
loop_
 _atom_site_type_symbol
 _atom_site_label
 _atom_site_symmetry_multiplicity
 _atom_site_fract_x
 _atom_site_fract_y
 _atom_site_fract_z
 _atom_site_occupancy
  Ga  Ga0  1  0.00000000  0.37394994  0.87394994  1
  Ga  Ga1  1  0.00000000  0.12605006  0.37394994  1
  Ga  Ga2  1  0.00000000  0.87394994  0.62605006  1
  Ga  Ga3  1  0.00000000  0.62605006  0.12605006  1
  Nb  Nb4  1  0.00000000  0.00000000  0.00000000  1
  Nb  Nb5  1  0.00000000  0.50000000  0.50000000  1
  Nb  Nb6  1  0.50000000  0.17546472  0.67546472  1
  Nb  Nb7  1  0.50000000  0.32453528  0.17546472  1
  Nb  Nb8  1  0.50000000  0.67546472  0.82453528  1
  Nb  Nb9  1  0.50000000  0.82453528  0.32453528  1
