# generated using pymatgen
data_Pr(MoO2)6
_symmetry_space_group_name_H-M   'P 1'
_cell_length_a   8.79076793
_cell_length_b   8.79076818
_cell_length_c   8.79076739
_cell_angle_alpha   108.52280763
_cell_angle_beta   108.52280780
_cell_angle_gamma   111.38516499
_symmetry_Int_Tables_number   1
_chemical_formula_structural   Pr(MoO2)6
_chemical_formula_sum   'Pr2 Mo12 O24'
_cell_volume   522.50876248
_cell_formula_units_Z   2
loop_
 _symmetry_equiv_pos_site_id
 _symmetry_equiv_pos_as_xyz
  1  'x, y, z'
loop_
 _atom_site_type_symbol
 _atom_site_label
 _atom_site_symmetry_multiplicity
 _atom_site_fract_x
 _atom_site_fract_y
 _atom_site_fract_z
 _atom_site_occupancy
  Pr  Pr0  1  0.74485154  0.74485154  1.00000000  1
  Pr  Pr1  1  0.25514846  0.25514846  0.00000000  1
  Mo  Mo2  1  0.83523795  0.01951649  0.52157081  1
  Mo  Mo3  1  0.01951649  0.49794568  0.18427854  1
  Mo  Mo4  1  0.31366714  0.83523795  0.81572146  1
  Mo  Mo5  1  0.49794568  0.31366714  0.47842919  1
  Mo  Mo6  1  0.16476205  0.98048351  0.47842919  1
  Mo  Mo7  1  0.98048351  0.50205432  0.81572146  1
  Mo  Mo8  1  0.68633286  0.16476205  0.18427854  1
  Mo  Mo9  1  0.50205432  0.68633286  0.52157081  1
  Mo  Mo10  1  0.17754956  0.35524686  0.53279742  1
  Mo  Mo11  1  0.35524686  0.82245044  0.17769730  1
  Mo  Mo12  1  0.64475314  0.17754956  0.82230270  1
  Mo  Mo13  1  0.82245044  0.64475314  0.46720258  1
  O  O14  1  0.49911612  0.10691373  0.28645533  1
  O  O15  1  0.10691373  0.82045840  0.60779761  1
  O  O16  1  0.21266079  0.49911612  0.39220239  1
  O  O17  1  0.82045840  0.21266079  0.71354467  1
  O  O18  1  0.50088388  0.89308627  0.71354467  1
  O  O19  1  0.89308627  0.17954160  0.39220239  1
  O  O20  1  0.78733921  0.50088388  0.60779761  1
  O  O21  1  0.17954160  0.78733921  0.28645533  1
  O  O22  1  0.53380099  0.85217823  0.04470543  1
  O  O23  1  0.85217823  0.80747280  0.31837724  1
  O  O24  1  0.48909556  0.53380099  0.68162276  1
  O  O25  1  0.80747280  0.48909556  0.95529457  1
  O  O26  1  0.46619901  0.14782177  0.95529457  1
  O  O27  1  0.14782177  0.19252720  0.68162276  1
  O  O28  1  0.51090444  0.46619901  0.31837724  1
  O  O29  1  0.19252720  0.51090444  0.04470543  1
  O  O30  1  0.83407967  0.45544608  0.28952574  1
  O  O31  1  0.45544608  0.16592033  0.62136641  1
  O  O32  1  0.54455392  0.83407967  0.37863359  1
  O  O33  1  0.16592033  0.54455392  0.71047426  1
  O  O34  1  0.19679567  0.15355369  0.35034936  1
  O  O35  1  0.15355369  0.80320433  0.95675802  1
  O  O36  1  0.84644631  0.19679567  0.04324198  1
  O  O37  1  0.80320433  0.84644631  0.64965064  1
