# generated using pymatgen
data_YGa
_symmetry_space_group_name_H-M   'P 1'
_cell_length_a   4.08742536
_cell_length_b   4.33835305
_cell_length_c   5.87750197
_cell_angle_alpha   111.65792566
_cell_angle_beta   90.00000000
_cell_angle_gamma   90.00000000
_symmetry_Int_Tables_number   1
_chemical_formula_structural   YGa
_chemical_formula_sum   'Y2 Ga2'
_cell_volume   96.86613518
_cell_formula_units_Z   2
loop_
 _symmetry_equiv_pos_site_id
 _symmetry_equiv_pos_as_xyz
  1  'x, y, z'
loop_
 _atom_site_type_symbol
 _atom_site_label
 _atom_site_symmetry_multiplicity
 _atom_site_fract_x
 _atom_site_fract_y
 _atom_site_fract_z
 _atom_site_occupancy
  Ga  Ga0  1  0.75000000  0.42392007  0.84784015  1
  Ga  Ga1  1  0.25000000  0.57607993  0.15215985  1
  Y  Y2  1  0.75000000  0.13935605  0.27871210  1
  Y  Y3  1  0.25000000  0.86064395  0.72128790  1
