# generated using pymatgen
data_Er3Rh
_symmetry_space_group_name_H-M   'P 1'
_cell_length_a   6.26177233
_cell_length_b   7.11763516
_cell_length_c   9.35307116
_cell_angle_alpha   90.00000000
_cell_angle_beta   90.00000000
_cell_angle_gamma   90.00000000
_symmetry_Int_Tables_number   1
_chemical_formula_structural   Er3Rh
_chemical_formula_sum   'Er12 Rh4'
_cell_volume   416.85713048
_cell_formula_units_Z   4
loop_
 _symmetry_equiv_pos_site_id
 _symmetry_equiv_pos_as_xyz
  1  'x, y, z'
loop_
 _atom_site_type_symbol
 _atom_site_label
 _atom_site_symmetry_multiplicity
 _atom_site_fract_x
 _atom_site_fract_y
 _atom_site_fract_z
 _atom_site_occupancy
  Rh  Rh0  1  0.05232257  0.61593558  0.75000000  1
  Rh  Rh1  1  0.55232257  0.88406442  0.25000000  1
  Rh  Rh2  1  0.44767743  0.11593558  0.75000000  1
  Rh  Rh3  1  0.94767743  0.38406442  0.25000000  1
  Er  Er4  1  0.67253589  0.17791755  0.06295288  1
  Er  Er5  1  0.17253589  0.32208245  0.93704712  1
  Er  Er6  1  0.82746411  0.67791755  0.43704712  1
  Er  Er7  1  0.32746411  0.82208245  0.56295288  1
  Er  Er8  1  0.32746411  0.82208245  0.93704712  1
  Er  Er9  1  0.82746411  0.67791755  0.06295288  1
  Er  Er10  1  0.17253589  0.32208245  0.56295288  1
  Er  Er11  1  0.67253589  0.17791755  0.43704712  1
  Er  Er12  1  0.86504668  0.96492905  0.75000000  1
  Er  Er13  1  0.36504668  0.53507095  0.25000000  1
  Er  Er14  1  0.63495332  0.46492905  0.75000000  1
  Er  Er15  1  0.13495332  0.03507095  0.25000000  1
