# generated using pymatgen
data_HoGaNi
_symmetry_space_group_name_H-M   'P 1'
_cell_length_a   4.27643390
_cell_length_b   6.79258602
_cell_length_c   7.34605878
_cell_angle_alpha   90.00000000
_cell_angle_beta   90.00000000
_cell_angle_gamma   90.00000000
_symmetry_Int_Tables_number   1
_chemical_formula_structural   HoGaNi
_chemical_formula_sum   'Ho4 Ga4 Ni4'
_cell_volume   213.38864693
_cell_formula_units_Z   4
loop_
 _symmetry_equiv_pos_site_id
 _symmetry_equiv_pos_as_xyz
  1  'x, y, z'
loop_
 _atom_site_type_symbol
 _atom_site_label
 _atom_site_symmetry_multiplicity
 _atom_site_fract_x
 _atom_site_fract_y
 _atom_site_fract_z
 _atom_site_occupancy
  Ni  Ni0  1  0.25000000  0.28577348  0.90213191  1
  Ni  Ni1  1  0.25000000  0.78577348  0.59786809  1
  Ni  Ni2  1  0.75000000  0.71422652  0.09786809  1
  Ni  Ni3  1  0.75000000  0.21422652  0.40213191  1
  Ga  Ga4  1  0.75000000  0.32698915  0.07588937  1
  Ga  Ga5  1  0.25000000  0.17301085  0.57588937  1
  Ga  Ga6  1  0.75000000  0.82698915  0.42411063  1
  Ga  Ga7  1  0.25000000  0.67301085  0.92411063  1
  Ho  Ho8  1  0.25000000  0.51929811  0.30578278  1
  Ho  Ho9  1  0.25000000  0.01929811  0.19421722  1
  Ho  Ho10  1  0.75000000  0.98070189  0.80578278  1
  Ho  Ho11  1  0.75000000  0.48070189  0.69421722  1
