# generated using pymatgen
data_HfGa2
_symmetry_space_group_name_H-M   'P 1'
_cell_length_a   4.06742981
_cell_length_b   4.06742980
_cell_length_c   13.12859146
_cell_angle_alpha   98.91142108
_cell_angle_beta   98.91142104
_cell_angle_gamma   90.00000000
_symmetry_Int_Tables_number   1
_chemical_formula_structural   HfGa2
_chemical_formula_sum   'Hf4 Ga8'
_cell_volume   211.92316901
_cell_formula_units_Z   4
loop_
 _symmetry_equiv_pos_site_id
 _symmetry_equiv_pos_as_xyz
  1  'x, y, z'
loop_
 _atom_site_type_symbol
 _atom_site_label
 _atom_site_symmetry_multiplicity
 _atom_site_fract_x
 _atom_site_fract_y
 _atom_site_fract_z
 _atom_site_occupancy
  Ga  Ga0  1  0.37565152  0.62565152  0.25130303  1
  Ga  Ga1  1  0.12565152  0.87565152  0.75130303  1
  Ga  Ga2  1  0.62434848  0.37434848  0.74869697  1
  Ga  Ga3  1  0.87434848  0.12434848  0.24869697  1
  Ga  Ga4  1  0.53663114  0.78663114  0.57326228  1
  Ga  Ga5  1  0.28663114  0.03663114  0.07326228  1
  Ga  Ga6  1  0.46336886  0.21336886  0.42673772  1
  Ga  Ga7  1  0.71336886  0.96336886  0.92673772  1
  Hf  Hf8  1  0.20058534  0.45058534  0.90117067  1
  Hf  Hf9  1  0.95058534  0.70058534  0.40117067  1
  Hf  Hf10  1  0.79941466  0.54941466  0.09882933  1
  Hf  Hf11  1  0.04941466  0.29941466  0.59882933  1
