# generated using pymatgen
data_K2Hg3C8(NO)8
_symmetry_space_group_name_H-M   'P 1'
_cell_length_a   4.11086165
_cell_length_b   10.69174269
_cell_length_c   11.20560300
_cell_angle_alpha   92.18648122
_cell_angle_beta   94.86462744
_cell_angle_gamma   94.09046678
_symmetry_Int_Tables_number   1
_chemical_formula_structural   K2Hg3C8(NO)8
_chemical_formula_sum   'K2 Hg3 C8 N8 O8'
_cell_volume   489.00323443
_cell_formula_units_Z   1
loop_
 _symmetry_equiv_pos_site_id
 _symmetry_equiv_pos_as_xyz
  1  'x, y, z'
loop_
 _atom_site_type_symbol
 _atom_site_label
 _atom_site_symmetry_multiplicity
 _atom_site_fract_x
 _atom_site_fract_y
 _atom_site_fract_z
 _atom_site_occupancy
  K  K0  1  0.78535494  0.51057487  0.21029222  1
  K  K1  1  0.21464506  0.48942513  0.78970778  1
  Hg  Hg2  1  0.72912063  0.11614871  0.39029746  1
  Hg  Hg3  1  0.00000000  0.00000000  0.00000000  1
  Hg  Hg4  1  0.27087937  0.88385129  0.60970254  1
  C  C5  1  0.21928758  0.15127367  0.67832744  1
  C  C6  1  0.21532541  0.23176383  0.20286386  1
  C  C7  1  0.30062177  0.64026021  0.47914371  1
  C  C8  1  0.78071242  0.84872633  0.32167256  1
  C  C9  1  0.78467459  0.76823617  0.79713614  1
  C  C10  1  0.71394024  0.24801104  0.95057976  1
  C  C11  1  0.28605976  0.75198896  0.04942024  1
  C  C12  1  0.69937823  0.35973979  0.52085629  1
  N  N13  1  0.29769805  0.07933571  0.60147851  1
  N  N14  1  0.70230195  0.92066429  0.39852149  1
  N  N15  1  0.76657281  0.31088388  0.42780161  1
  N  N16  1  0.31682586  0.86225609  0.02978958  1
  N  N17  1  0.23342719  0.68911612  0.57219839  1
  N  N18  1  0.80991290  0.87334521  0.76130430  1
  N  N19  1  0.19008710  0.12665479  0.23869570  1
  N  N20  1  0.68317414  0.13774391  0.97021042  1
  O  O21  1  0.28456685  0.64216271  0.06852120  1
  O  O22  1  0.23970975  0.33696401  0.16562562  1
  O  O23  1  0.35849477  0.58345918  0.38963112  1
  O  O24  1  0.14538513  0.22910722  0.74863447  1
  O  O25  1  0.85461487  0.77089278  0.25136553  1
  O  O26  1  0.71543315  0.35783729  0.93147880  1
  O  O27  1  0.64150523  0.41654082  0.61036888  1
  O  O28  1  0.76029025  0.66303599  0.83437438  1
