# generated using pymatgen
data_Sc(GaFe)6
_symmetry_space_group_name_H-M   'P 1'
_cell_length_a   4.99335499
_cell_length_b   6.51835935
_cell_length_c   6.51835936
_cell_angle_alpha   80.59562994
_cell_angle_beta   67.47897816
_cell_angle_gamma   67.47897820
_symmetry_Int_Tables_number   1
_chemical_formula_structural   Sc(GaFe)6
_chemical_formula_sum   'Sc1 Ga6 Fe6'
_cell_volume   181.00247751
_cell_formula_units_Z   1
loop_
 _symmetry_equiv_pos_site_id
 _symmetry_equiv_pos_as_xyz
  1  'x, y, z'
loop_
 _atom_site_type_symbol
 _atom_site_label
 _atom_site_symmetry_multiplicity
 _atom_site_fract_x
 _atom_site_fract_y
 _atom_site_fract_z
 _atom_site_occupancy
  Sc  Sc0  1  0.00000000  0.00000000  0.00000000  1
  Fe  Fe1  1  0.50000000  0.75627573  0.24372427  1
  Fe  Fe2  1  0.50000000  0.00000000  0.50000000  1
  Fe  Fe3  1  0.00000000  0.00000000  0.50000000  1
  Fe  Fe4  1  0.50000000  0.50000000  0.00000000  1
  Fe  Fe5  1  0.00000000  0.50000000  0.00000000  1
  Fe  Fe6  1  0.50000000  0.24372427  0.75627573  1
  Ga  Ga7  1  0.00000000  0.32655397  0.67344603  1
  Ga  Ga8  1  0.65939038  0.34060962  0.34060962  1
  Ga  Ga9  1  0.34060962  0.65939038  0.65939038  1
  Ga  Ga10  1  0.67663759  0.82336241  0.82336241  1
  Ga  Ga11  1  0.32336241  0.17663759  0.17663759  1
  Ga  Ga12  1  0.00000000  0.67344603  0.32655397  1
