# generated using pymatgen
data_Na3Co2SbO6
_symmetry_space_group_name_H-M   'P 1'
_cell_length_a   5.43504976
_cell_length_b   5.28184511
_cell_length_c   5.73406966
_cell_angle_alpha   98.96305405
_cell_angle_beta   99.61873702
_cell_angle_gamma   118.93937494
_symmetry_Int_Tables_number   1
_chemical_formula_structural   Na3Co2SbO6
_chemical_formula_sum   'Na3 Co2 Sb1 O6'
_cell_volume   136.58244583
_cell_formula_units_Z   1
loop_
 _symmetry_equiv_pos_site_id
 _symmetry_equiv_pos_as_xyz
  1  'x, y, z'
loop_
 _atom_site_type_symbol
 _atom_site_label
 _atom_site_symmetry_multiplicity
 _atom_site_fract_x
 _atom_site_fract_y
 _atom_site_fract_z
 _atom_site_occupancy
  Na  Na0  1  0.17343432  0.82296570  0.50008111  1
  Na  Na1  1  0.82657799  0.17699035  0.49990314  1
  Na  Na2  1  0.49991625  0.50000742  0.50001992  1
  Co  Co3  1  0.65025995  0.32698541  1.00044045  1
  Co  Co4  1  0.34979812  0.67308255  0.99958565  1
  Sb  Sb5  1  1.00007380  0.00003341  0.00004596  1
  O  O6  1  0.61895000  0.93697001  0.79308261  1
  O  O7  1  0.06849652  0.38507597  0.20541361  1
  O  O8  1  0.93141666  0.61488704  0.79451355  1
  O  O9  1  0.38102756  0.06311333  0.20696347  1
  O  O10  1  0.75803701  0.75241892  0.20675160  1
  O  O11  1  0.24201180  0.24747088  0.79319892  1
