# generated using pymatgen
data_Cr3Ag8(IO6)2
_symmetry_space_group_name_H-M   'P 1'
_cell_length_a   9.54828108
_cell_length_b   9.54828072
_cell_length_c   10.43147493
_cell_angle_alpha   90.00000000
_cell_angle_beta   90.00000000
_cell_angle_gamma   120.00000128
_symmetry_Int_Tables_number   1
_chemical_formula_structural   Cr3Ag8(IO6)2
_chemical_formula_sum   'Cr6 Ag16 I4 O24'
_cell_volume   823.61968652
_cell_formula_units_Z   2
loop_
 _symmetry_equiv_pos_site_id
 _symmetry_equiv_pos_as_xyz
  1  'x, y, z'
loop_
 _atom_site_type_symbol
 _atom_site_label
 _atom_site_symmetry_multiplicity
 _atom_site_fract_x
 _atom_site_fract_y
 _atom_site_fract_z
 _atom_site_occupancy
  Cr  Cr0  1  0.71624387  0.72022788  0.25000000  1
  Cr  Cr1  1  0.28375613  0.27977212  0.75000000  1
  Cr  Cr2  1  0.27977212  0.99601599  0.25000000  1
  Cr  Cr3  1  0.72022788  0.00398401  0.75000000  1
  Cr  Cr4  1  0.99601599  0.71624387  0.75000000  1
  Cr  Cr5  1  0.00398401  0.28375613  0.25000000  1
  Ag  Ag6  1  1.00007529  0.37176979  0.57452814  1
  Ag  Ag7  1  0.37176979  0.37169450  0.42547186  1
  Ag  Ag8  1  0.37169450  -0.00007529  0.92547186  1
  Ag  Ag9  1  -0.00007529  0.62823021  0.42547186  1
  Ag  Ag10  1  0.62823021  0.62830550  0.92547186  1
  Ag  Ag11  1  -0.00007529  0.62823021  0.07452814  1
  Ag  Ag12  1  0.62830550  1.00007529  0.42547186  1
  Ag  Ag13  1  0.66666700  0.33333300  0.75000000  1
  Ag  Ag14  1  0.37176979  0.37169450  0.07452814  1
  Ag  Ag15  1  0.62823021  0.62830550  0.57452814  1
  Ag  Ag16  1  0.62830550  1.00007529  0.07452814  1
  Ag  Ag17  1  0.00000000  0.00000000  0.50000000  1
  Ag  Ag18  1  0.37169450  -0.00007529  0.57452814  1
  Ag  Ag19  1  0.00000000  0.00000000  0.00000000  1
  Ag  Ag20  1  1.00007529  0.37176979  0.92547186  1
  Ag  Ag21  1  0.33333300  0.66666700  0.25000000  1
  I  I22  1  0.33333300  0.66666700  0.52083048  1
  I  I23  1  0.66666700  0.33333300  0.47916952  1
  I  I24  1  0.66666700  0.33333300  0.02083048  1
  I  I25  1  0.33333300  0.66666700  0.97916952  1
  O  O26  1  0.35104510  0.19382085  0.25000000  1
  O  O27  1  0.17005864  0.91570313  0.38475398  1
  O  O28  1  0.43450799  0.95740487  0.25000000  1
  O  O29  1  0.04259513  0.47710311  0.25000000  1
  O  O30  1  0.08429687  0.25435551  0.11524602  1
  O  O31  1  0.74564449  0.82994136  0.38475398  1
  O  O32  1  0.64895490  0.80617915  0.75000000  1
  O  O33  1  0.08429687  0.25435551  0.38475398  1
  O  O34  1  0.91570313  0.74564449  0.61524602  1
  O  O35  1  0.82994136  0.08429687  0.88475398  1
  O  O36  1  0.25435551  0.17005864  0.88475398  1
  O  O37  1  0.19382085  0.84277575  0.75000000  1
  O  O38  1  0.84277575  0.64895490  0.25000000  1
  O  O39  1  0.56549201  0.04259513  0.75000000  1
  O  O40  1  0.91570313  0.74564449  0.88475398  1
  O  O41  1  0.25435551  0.17005864  0.61524602  1
  O  O42  1  0.17005864  0.91570313  0.11524602  1
  O  O43  1  0.82994136  0.08429687  0.61524602  1
  O  O44  1  0.52289689  0.56549201  0.25000000  1
  O  O45  1  0.15722425  0.35104510  0.75000000  1
  O  O46  1  0.80617915  0.15722425  0.25000000  1
  O  O47  1  0.47710311  0.43450799  0.75000000  1
  O  O48  1  0.95740487  0.52289689  0.75000000  1
  O  O49  1  0.74564449  0.82994136  0.11524602  1
