# generated using pymatgen
data_Y2(Al3Co)3
_symmetry_space_group_name_H-M   'P 1'
_cell_length_a   7.38082791
_cell_length_b   7.38082791
_cell_length_c   9.33271352
_cell_angle_alpha   90.00000000
_cell_angle_beta   90.00000000
_cell_angle_gamma   119.27758978
_symmetry_Int_Tables_number   1
_chemical_formula_structural   Y2(Al3Co)3
_chemical_formula_sum   'Y4 Al18 Co6'
_cell_volume   443.47011596
_cell_formula_units_Z   2
loop_
 _symmetry_equiv_pos_site_id
 _symmetry_equiv_pos_as_xyz
  1  'x, y, z'
loop_
 _atom_site_type_symbol
 _atom_site_label
 _atom_site_symmetry_multiplicity
 _atom_site_fract_x
 _atom_site_fract_y
 _atom_site_fract_z
 _atom_site_occupancy
  Al  Al0  1  0.12500520  0.12500520  0.25000000  1
  Al  Al1  1  0.87499480  0.87499480  0.75000000  1
  Al  Al2  1  0.33222325  0.33222325  0.54199409  1
  Al  Al3  1  0.66777675  0.66777675  0.04199409  1
  Al  Al4  1  0.33222325  0.33222325  0.95800591  1
  Al  Al5  1  0.66777675  0.66777675  0.45800591  1
  Al  Al6  1  0.55330833  0.33862609  0.25000000  1
  Al  Al7  1  0.44669167  0.66137391  0.75000000  1
  Al  Al8  1  0.33862609  0.55330833  0.25000000  1
  Al  Al9  1  0.66137391  0.44669167  0.75000000  1
  Al  Al10  1  0.33516175  0.99827192  0.07079704  1
  Al  Al11  1  0.66483825  0.00172808  0.57079704  1
  Al  Al12  1  0.99827192  0.33516175  0.42920296  1
  Al  Al13  1  0.00172808  0.66483825  0.92920296  1
  Al  Al14  1  0.66483825  0.00172808  0.92920296  1
  Al  Al15  1  0.33516175  0.99827192  0.42920296  1
  Al  Al16  1  0.00172808  0.66483825  0.57079704  1
  Al  Al17  1  0.99827192  0.33516175  0.07079704  1
  Co  Co18  1  0.00000000  0.00000000  0.00000000  1
  Co  Co19  1  0.00000000  0.00000000  0.50000000  1
  Co  Co20  1  0.32915155  0.67084845  0.00000000  1
  Co  Co21  1  0.67084845  0.32915155  0.50000000  1
  Co  Co22  1  0.67084845  0.32915155  0.00000000  1
  Co  Co23  1  0.32915155  0.67084845  0.50000000  1
  Y  Y24  1  0.67188442  0.99320745  0.25000000  1
  Y  Y25  1  0.32811558  0.00679255  0.75000000  1
  Y  Y26  1  0.99320745  0.67188442  0.25000000  1
  Y  Y27  1  0.00679255  0.32811558  0.75000000  1
