# generated using pymatgen
data_MoP4
_symmetry_space_group_name_H-M   'P 1'
_cell_length_a   5.33998753
_cell_length_b   5.86178933
_cell_length_c   6.21235350
_cell_angle_alpha   81.25755373
_cell_angle_beta   64.54590552
_cell_angle_gamma   69.28946738
_symmetry_Int_Tables_number   1
_chemical_formula_structural   MoP4
_chemical_formula_sum   'Mo2 P8'
_cell_volume   164.23597242
_cell_formula_units_Z   2
loop_
 _symmetry_equiv_pos_site_id
 _symmetry_equiv_pos_as_xyz
  1  'x, y, z'
loop_
 _atom_site_type_symbol
 _atom_site_label
 _atom_site_symmetry_multiplicity
 _atom_site_fract_x
 _atom_site_fract_y
 _atom_site_fract_z
 _atom_site_occupancy
  P  P0  1  0.49980812  0.31075799  0.55528642  1
  P  P1  1  0.94490546  0.18924201  0.55528642  1
  P  P2  1  0.18457421  0.31669858  0.18890726  1
  P  P3  1  0.62651853  0.18330142  0.18890726  1
  P  P4  1  0.81542579  0.68330142  0.81109274  1
  P  P5  1  0.37348147  0.81669858  0.81109274  1
  P  P6  1  0.05509454  0.81075799  0.44471358  1
  P  P7  1  0.50019188  0.68924201  0.44471358  1
  Mo  Mo8  1  0.05909745  0.25000000  0.88180510  1
  Mo  Mo9  1  0.94090255  0.75000000  0.11819490  1
