# generated using pymatgen
data_Co(ReO4)2
_symmetry_space_group_name_H-M   'P 1'
_cell_length_a   5.78884564
_cell_length_b   5.79948950
_cell_length_c   6.67951460
_cell_angle_alpha   89.78523870
_cell_angle_beta   89.97651242
_cell_angle_gamma   119.96238218
_symmetry_Int_Tables_number   1
_chemical_formula_structural   Co(ReO4)2
_chemical_formula_sum   'Co1 Re2 O8'
_cell_volume   194.27513226
_cell_formula_units_Z   1
loop_
 _symmetry_equiv_pos_site_id
 _symmetry_equiv_pos_as_xyz
  1  'x, y, z'
loop_
 _atom_site_type_symbol
 _atom_site_label
 _atom_site_symmetry_multiplicity
 _atom_site_fract_x
 _atom_site_fract_y
 _atom_site_fract_z
 _atom_site_occupancy
  Co  Co0  1  -0.00000000  -0.00000000  -0.00000000  1
  Re  Re1  1  0.66551899  0.32840107  0.73258312  1
  Re  Re2  1  0.33448001  0.67159893  0.26741688  1
  O  O3  1  0.66532396  0.33212063  0.47272713  1
  O  O4  1  0.33467604  0.66787937  0.52727187  1
  O  O5  1  0.83977706  0.65687737  0.82122613  1
  O  O6  1  0.33509381  0.17141272  0.82114329  1
  O  O7  1  0.66490419  0.82858728  0.17885671  1
  O  O8  1  0.17794596  0.84674671  0.18197925  1
  O  O9  1  0.16022494  0.34312463  0.17877487  1
  O  O10  1  0.82205404  0.15325129  0.81802075  1
