# generated using pymatgen
data_CrN
_symmetry_space_group_name_H-M   'P 1'
_cell_length_a   2.68267255
_cell_length_b   2.68267356
_cell_length_c   2.60018607
_cell_angle_alpha   90.00000000
_cell_angle_beta   90.00000000
_cell_angle_gamma   120.00002889
_symmetry_Int_Tables_number   1
_chemical_formula_structural   CrN
_chemical_formula_sum   'Cr1 N1'
_cell_volume   16.20579820
_cell_formula_units_Z   1
loop_
 _symmetry_equiv_pos_site_id
 _symmetry_equiv_pos_as_xyz
  1  'x, y, z'
loop_
 _atom_site_type_symbol
 _atom_site_label
 _atom_site_symmetry_multiplicity
 _atom_site_fract_x
 _atom_site_fract_y
 _atom_site_fract_z
 _atom_site_occupancy
  Cr  Cr0  1  0.66666700  0.33333400  0.75000000  1
  N  N1  1  0.33333400  0.66666800  0.24999900  1
