# generated using pymatgen
data_NiTeSe
_symmetry_space_group_name_H-M   'P 1'
_cell_length_a   3.76764094
_cell_length_b   3.76764096
_cell_length_c   5.05442347
_cell_angle_alpha   89.99147841
_cell_angle_beta   89.99147838
_cell_angle_gamma   60.06054632
_symmetry_Int_Tables_number   1
_chemical_formula_structural   NiTeSe
_chemical_formula_sum   'Ni1 Te1 Se1'
_cell_volume   62.17358504
_cell_formula_units_Z   1
loop_
 _symmetry_equiv_pos_site_id
 _symmetry_equiv_pos_as_xyz
  1  'x, y, z'
loop_
 _atom_site_type_symbol
 _atom_site_label
 _atom_site_symmetry_multiplicity
 _atom_site_fract_x
 _atom_site_fract_y
 _atom_site_fract_z
 _atom_site_occupancy
  Ni  Ni0  1  0.00004310  0.00004310  0.01302308  1
  Te  Te1  1  0.33321652  0.33321652  0.74731959  1
  Se  Se2  1  0.66674038  0.66674038  0.23965732  1
