# generated using pymatgen
data_YCuGe
_symmetry_space_group_name_H-M   'P 1'
_cell_length_a   3.73077000
_cell_length_b   4.22760691
_cell_length_c   4.22764570
_cell_angle_alpha   119.99960979
_cell_angle_beta   90.00000000
_cell_angle_gamma   90.00000000
_symmetry_Int_Tables_number   1
_chemical_formula_structural   YCuGe
_chemical_formula_sum   'Y1 Cu1 Ge1'
_cell_volume   57.74627812
_cell_formula_units_Z   1
loop_
 _symmetry_equiv_pos_site_id
 _symmetry_equiv_pos_as_xyz
  1  'x, y, z'
loop_
 _atom_site_type_symbol
 _atom_site_label
 _atom_site_symmetry_multiplicity
 _atom_site_fract_x
 _atom_site_fract_y
 _atom_site_fract_z
 _atom_site_occupancy
  Y  Y0  1  -0.00000000  -0.00000402  0.99999426  1
  Cu  Cu1  1  0.50000000  0.33328581  0.66668653  1
  Ge  Ge2  1  0.50000000  0.66661821  0.33331921  1
