# generated using pymatgen
data_Li2InIr
_symmetry_space_group_name_H-M   'P 1'
_cell_length_a   4.34352864
_cell_length_b   4.34352891
_cell_length_c   4.34352823
_cell_angle_alpha   59.99999866
_cell_angle_beta   59.99999659
_cell_angle_gamma   59.99999593
_symmetry_Int_Tables_number   1
_chemical_formula_structural   Li2InIr
_chemical_formula_sum   'Li2 In1 Ir1'
_cell_volume   57.94460786
_cell_formula_units_Z   1
loop_
 _symmetry_equiv_pos_site_id
 _symmetry_equiv_pos_as_xyz
  1  'x, y, z'
loop_
 _atom_site_type_symbol
 _atom_site_label
 _atom_site_symmetry_multiplicity
 _atom_site_fract_x
 _atom_site_fract_y
 _atom_site_fract_z
 _atom_site_occupancy
  Li  Li0  1  0.25000000  0.25000000  0.25000000  1
  Li  Li1  1  0.75000000  0.75000000  0.75000000  1
  In  In2  1  -0.00000000  0.00000000  -0.00000000  1
  Ir  Ir3  1  0.50000000  0.50000000  0.50000000  1
