# generated using pymatgen
data_EuGaSi
_symmetry_space_group_name_H-M   'P 1'
_cell_length_a   4.17438208
_cell_length_b   4.17440647
_cell_length_c   4.48172487
_cell_angle_alpha   90.00000000
_cell_angle_beta   90.00000000
_cell_angle_gamma   120.00087403
_symmetry_Int_Tables_number   1
_chemical_formula_structural   EuGaSi
_chemical_formula_sum   'Eu1 Ga1 Si1'
_cell_volume   67.63304355
_cell_formula_units_Z   1
loop_
 _symmetry_equiv_pos_site_id
 _symmetry_equiv_pos_as_xyz
  1  'x, y, z'
loop_
 _atom_site_type_symbol
 _atom_site_label
 _atom_site_symmetry_multiplicity
 _atom_site_fract_x
 _atom_site_fract_y
 _atom_site_fract_z
 _atom_site_occupancy
  Eu  Eu0  1  0.99998626  0.99999907  0.00000000  1
  Ga  Ga1  1  0.33330249  0.66666041  0.50000000  1
  Si  Si2  1  0.66661125  0.33334052  0.50000000  1
