# generated using pymatgen
data_NaEr(PS3)2
_symmetry_space_group_name_H-M   'P 1'
_cell_length_a   6.99970079
_cell_length_b   7.18350630
_cell_length_c   9.17673123
_cell_angle_alpha   86.55022413
_cell_angle_beta   87.95477481
_cell_angle_gamma   87.71729749
_symmetry_Int_Tables_number   1
_chemical_formula_structural   NaEr(PS3)2
_chemical_formula_sum   'Na2 Er2 P4 S12'
_cell_volume   459.96993906
_cell_formula_units_Z   2
loop_
 _symmetry_equiv_pos_site_id
 _symmetry_equiv_pos_as_xyz
  1  'x, y, z'
loop_
 _atom_site_type_symbol
 _atom_site_label
 _atom_site_symmetry_multiplicity
 _atom_site_fract_x
 _atom_site_fract_y
 _atom_site_fract_z
 _atom_site_occupancy
  Na  Na0  1  0.47172738  0.39715650  0.27899151  1
  Na  Na1  1  0.52827262  0.60284350  0.72100849  1
  P  P2  1  0.35054969  0.96181467  0.97276734  1
  P  P3  1  0.64945031  0.03818533  0.02723266  1
  P  P4  1  0.93483738  0.39302482  0.43515236  1
  P  P5  1  0.06516262  0.60697518  0.56484764  1
  S  S6  1  0.12776723  0.47561635  0.75900403  1
  S  S7  1  0.83475418  0.83713716  0.95047994  1
  S  S8  1  0.29036067  0.70163067  0.43878237  1
  S  S9  1  0.87223277  0.52438365  0.24099597  1
  S  S10  1  0.85920475  0.81862222  0.56187885  1
  S  S11  1  0.70963933  0.29836933  0.56121763  1
  S  S12  1  0.14079525  0.18137778  0.43812115  1
  S  S13  1  0.34779271  0.96738838  0.75111609  1
  S  S14  1  0.29900783  0.71223749  0.07579948  1
  S  S15  1  0.70099217  0.28776251  0.92420052  1
  S  S16  1  0.65220729  0.03261162  0.24888391  1
  S  S17  1  0.16524582  0.16286284  0.04952006  1
  Er  Er18  1  0.97838830  0.11795635  0.74771448  1
  Er  Er19  1  0.02161170  0.88204365  0.25228552  1
