# generated using pymatgen
data_BaAg2
_symmetry_space_group_name_H-M   'P 1'
_cell_length_a   4.94379401
_cell_length_b   6.58285819
_cell_length_c   6.58285794
_cell_angle_alpha   83.18652597
_cell_angle_beta   67.94445542
_cell_angle_gamma   67.94445703
_symmetry_Int_Tables_number   1
_chemical_formula_structural   BaAg2
_chemical_formula_sum   'Ba2 Ag4'
_cell_volume   183.96411733
_cell_formula_units_Z   2
loop_
 _symmetry_equiv_pos_site_id
 _symmetry_equiv_pos_as_xyz
  1  'x, y, z'
loop_
 _atom_site_type_symbol
 _atom_site_label
 _atom_site_symmetry_multiplicity
 _atom_site_fract_x
 _atom_site_fract_y
 _atom_site_fract_z
 _atom_site_occupancy
  Ba  Ba0  1  0.99809603  0.75190397  0.25190397  1
  Ba  Ba1  1  0.00190397  0.24809603  0.74809603  1
  Ag  Ag2  1  0.66710627  0.83052625  0.83526120  1
  Ag  Ag3  1  0.33289373  0.16947375  0.16473880  1
  Ag  Ag4  1  0.33289373  0.66473880  0.66947375  1
  Ag  Ag5  1  0.66710627  0.33526120  0.33052625  1
