# generated using pymatgen
data_Ba2CaReO6
_symmetry_space_group_name_H-M   'P 1'
_cell_length_a   5.98131747
_cell_length_b   5.98131747
_cell_length_c   5.99669052
_cell_angle_alpha   119.91523338
_cell_angle_beta   119.91523331
_cell_angle_gamma   89.99999994
_symmetry_Int_Tables_number   1
_chemical_formula_structural   Ba2CaReO6
_chemical_formula_sum   'Ba2 Ca1 Re1 O6'
_cell_volume   152.08957107
_cell_formula_units_Z   1
loop_
 _symmetry_equiv_pos_site_id
 _symmetry_equiv_pos_as_xyz
  1  'x, y, z'
loop_
 _atom_site_type_symbol
 _atom_site_label
 _atom_site_symmetry_multiplicity
 _atom_site_fract_x
 _atom_site_fract_y
 _atom_site_fract_z
 _atom_site_occupancy
  O  O0  1  0.79330900  0.74949956  0.00000000  1
  O  O1  1  0.25050044  0.79330900  0.00000000  1
  O  O2  1  0.74949956  0.20669100  0.00000000  1
  O  O3  1  0.20669100  0.25050044  0.00000000  1
  O  O4  1  0.22913383  0.22913383  0.45826766  1
  O  O5  1  0.77086617  0.77086617  0.54173234  1
  Ca  Ca6  1  0.50000000  0.50000000  0.00000000  1
  Ba  Ba7  1  0.25000000  0.75000000  0.50000000  1
  Ba  Ba8  1  0.75000000  0.25000000  0.50000000  1
  Re  Re9  1  0.00000000  0.00000000  0.00000000  1
