# generated using pymatgen
data_Co(PdSe)2
_symmetry_space_group_name_H-M   'P 1'
_cell_length_a   5.04260456
_cell_length_b   6.04421456
_cell_length_c   6.61953790
_cell_angle_alpha   117.16429251
_cell_angle_beta   112.38869570
_cell_angle_gamma   89.99999997
_symmetry_Int_Tables_number   1
_chemical_formula_structural   Co(PdSe)2
_chemical_formula_sum   'Co2 Pd4 Se4'
_cell_volume   162.21990962
_cell_formula_units_Z   2
loop_
 _symmetry_equiv_pos_site_id
 _symmetry_equiv_pos_as_xyz
  1  'x, y, z'
loop_
 _atom_site_type_symbol
 _atom_site_label
 _atom_site_symmetry_multiplicity
 _atom_site_fract_x
 _atom_site_fract_y
 _atom_site_fract_z
 _atom_site_occupancy
  Co  Co0  1  0.75000000  0.00000000  0.00000000  1
  Co  Co1  1  0.25000000  0.00000000  0.00000000  1
  Se  Se2  1  0.64127805  0.93137411  0.28255610  1
  Se  Se3  1  0.35872195  0.06862589  0.71744390  1
  Se  Se4  1  0.14127805  0.35118199  0.28255610  1
  Se  Se5  1  0.85872195  0.64881801  0.71744390  1
  Pd  Pd6  1  0.88719637  0.26295748  0.77439273  1
  Pd  Pd7  1  0.11280363  0.73704252  0.22560727  1
  Pd  Pd8  1  0.61280363  0.48856475  0.22560727  1
  Pd  Pd9  1  0.38719637  0.51143525  0.77439273  1
