# generated using pymatgen
data_BaBeF4
_symmetry_space_group_name_H-M   'P 1'
_cell_length_a   5.40547441
_cell_length_b   7.14348202
_cell_length_c   8.97666466
_cell_angle_alpha   90.00000000
_cell_angle_beta   90.00000000
_cell_angle_gamma   90.00000000
_symmetry_Int_Tables_number   1
_chemical_formula_structural   BaBeF4
_chemical_formula_sum   'Ba4 Be4 F16'
_cell_volume   346.62411462
_cell_formula_units_Z   4
loop_
 _symmetry_equiv_pos_site_id
 _symmetry_equiv_pos_as_xyz
  1  'x, y, z'
loop_
 _atom_site_type_symbol
 _atom_site_label
 _atom_site_symmetry_multiplicity
 _atom_site_fract_x
 _atom_site_fract_y
 _atom_site_fract_z
 _atom_site_occupancy
  Be  Be0  1  0.25000000  0.80900843  0.55400728  1
  Be  Be1  1  0.25000000  0.69099157  0.05400728  1
  Be  Be2  1  0.75000000  0.30900843  0.94599272  1
  Be  Be3  1  0.75000000  0.19099157  0.44599272  1
  F  F4  1  0.48486259  0.81836850  0.07897507  1
  F  F5  1  0.01513741  0.68163150  0.57897507  1
  F  F6  1  0.51513741  0.31836850  0.42102493  1
  F  F7  1  0.98486259  0.18163150  0.92102493  1
  F  F8  1  0.25000000  0.87684247  0.39047615  1
  F  F9  1  0.75000000  0.12315753  0.60952385  1
  F  F10  1  0.75000000  0.37684247  0.10952385  1
  F  F11  1  0.25000000  0.62315753  0.89047615  1
  F  F12  1  0.25000000  0.96464848  0.67472014  1
  F  F13  1  0.75000000  0.03535152  0.32527986  1
  F  F14  1  0.75000000  0.46464848  0.82527986  1
  F  F15  1  0.25000000  0.53535152  0.17472014  1
  F  F16  1  0.98486259  0.31836850  0.42102493  1
  F  F17  1  0.48486259  0.68163150  0.57897507  1
  F  F18  1  0.01513741  0.81836850  0.07897507  1
  F  F19  1  0.51513741  0.18163150  0.92102493  1
  Ba  Ba20  1  0.25000000  0.15465431  0.18736812  1
  Ba  Ba21  1  0.75000000  0.84534569  0.81263188  1
  Ba  Ba22  1  0.75000000  0.65465431  0.31263188  1
  Ba  Ba23  1  0.25000000  0.34534569  0.68736812  1
