# generated using pymatgen
data_Ni(TePd)2
_symmetry_space_group_name_H-M   'P 1'
_cell_length_a   5.16892883
_cell_length_b   6.37202558
_cell_length_c   7.05829630
_cell_angle_alpha   116.83261267
_cell_angle_beta   111.47897661
_cell_angle_gamma   90.00000001
_symmetry_Int_Tables_number   1
_chemical_formula_structural   Ni(TePd)2
_chemical_formula_sum   'Ni2 Te4 Pd4'
_cell_volume   189.17570279
_cell_formula_units_Z   2
loop_
 _symmetry_equiv_pos_site_id
 _symmetry_equiv_pos_as_xyz
  1  'x, y, z'
loop_
 _atom_site_type_symbol
 _atom_site_label
 _atom_site_symmetry_multiplicity
 _atom_site_fract_x
 _atom_site_fract_y
 _atom_site_fract_z
 _atom_site_occupancy
  Ni  Ni0  1  0.75000000  0.00000000  0.00000000  1
  Ni  Ni1  1  0.25000000  0.00000000  0.00000000  1
  Pd  Pd2  1  0.60418826  0.47094884  0.20837652  1
  Pd  Pd3  1  0.89581174  0.26257232  0.79162348  1
  Pd  Pd4  1  0.10418826  0.73742768  0.20837652  1
  Pd  Pd5  1  0.39581174  0.52905116  0.79162348  1
  Te  Te6  1  0.35360167  0.07399163  0.70720333  1
  Te  Te7  1  0.64639833  0.92600837  0.29279667  1
  Te  Te8  1  0.14639833  0.36678829  0.29279667  1
  Te  Te9  1  0.85360167  0.63321171  0.70720333  1
