# generated using pymatgen
data_LiNd2OsO6
_symmetry_space_group_name_H-M   'P 1'
_cell_length_a   5.47632002
_cell_length_b   5.85006860
_cell_length_c   7.80832846
_cell_angle_alpha   90.00000000
_cell_angle_beta   90.59211525
_cell_angle_gamma   90.00000000
_symmetry_Int_Tables_number   1
_chemical_formula_structural   LiNd2OsO6
_chemical_formula_sum   'Li2 Nd4 Os2 O12'
_cell_volume   250.14087252
_cell_formula_units_Z   2
loop_
 _symmetry_equiv_pos_site_id
 _symmetry_equiv_pos_as_xyz
  1  'x, y, z'
loop_
 _atom_site_type_symbol
 _atom_site_label
 _atom_site_symmetry_multiplicity
 _atom_site_fract_x
 _atom_site_fract_y
 _atom_site_fract_z
 _atom_site_occupancy
  Li  Li0  1  0.00000000  0.00000000  0.00000000  1
  Li  Li1  1  0.50000000  0.50000000  0.50000000  1
  O  O2  1  0.17931332  0.28818858  0.44502572  1
  O  O3  1  0.32068668  0.78818858  0.05497428  1
  O  O4  1  0.82068668  0.71181142  0.55497428  1
  O  O5  1  0.67931332  0.21181142  0.94502572  1
  O  O6  1  0.10150908  0.03344917  0.74364194  1
  O  O7  1  0.39849092  0.53344917  0.75635806  1
  O  O8  1  0.20366836  0.31505688  0.04896133  1
  O  O9  1  0.29633164  0.81505688  0.45103867  1
  O  O10  1  0.79633164  0.68494312  0.95103867  1
  O  O11  1  0.70366836  0.18494312  0.54896133  1
  O  O12  1  0.60150908  0.46655083  0.24364194  1
  O  O13  1  0.89849092  0.96655083  0.25635806  1
  Nd  Nd14  1  0.48242496  0.07137912  0.25135990  1
  Nd  Nd15  1  0.01757504  0.57137912  0.24864010  1
  Nd  Nd16  1  0.98242496  0.42862088  0.75135990  1
  Nd  Nd17  1  0.51757504  0.92862088  0.74864010  1
  Os  Os18  1  0.50000000  0.50000000  0.00000000  1
  Os  Os19  1  0.00000000  0.00000000  0.50000000  1
