# generated using pymatgen
data_KAuF6
_symmetry_space_group_name_H-M   'P 1'
_cell_length_a   5.16986227
_cell_length_b   5.16986226
_cell_length_c   5.16986226
_cell_angle_alpha   98.67174882
_cell_angle_beta   98.67174880
_cell_angle_gamma   98.67174877
_symmetry_Int_Tables_number   1
_chemical_formula_structural   KAuF6
_chemical_formula_sum   'K1 Au1 F6'
_cell_volume   132.89094475
_cell_formula_units_Z   1
loop_
 _symmetry_equiv_pos_site_id
 _symmetry_equiv_pos_as_xyz
  1  'x, y, z'
loop_
 _atom_site_type_symbol
 _atom_site_label
 _atom_site_symmetry_multiplicity
 _atom_site_fract_x
 _atom_site_fract_y
 _atom_site_fract_z
 _atom_site_occupancy
  F  F0  1  0.72792570  0.07106596  0.72792570  1
  F  F1  1  0.07106596  0.72792570  0.72792570  1
  F  F2  1  0.27207430  0.27207430  0.92893404  1
  F  F3  1  0.92893404  0.27207430  0.27207430  1
  F  F4  1  0.27207430  0.92893404  0.27207430  1
  F  F5  1  0.72792570  0.72792570  0.07106596  1
  K  K6  1  0.50000000  0.50000000  0.50000000  1
  Au  Au7  1  0.00000000  0.00000000  0.00000000  1
