# generated using pymatgen
data_LiPr2OsO6
_symmetry_space_group_name_H-M   'P 1'
_cell_length_a   5.51420149
_cell_length_b   5.85547569
_cell_length_c   7.85179595
_cell_angle_alpha   90.00000000
_cell_angle_beta   90.49379532
_cell_angle_gamma   90.00000000
_symmetry_Int_Tables_number   1
_chemical_formula_structural   LiPr2OsO6
_chemical_formula_sum   'Li2 Pr4 Os2 O12'
_cell_volume   253.51151410
_cell_formula_units_Z   2
loop_
 _symmetry_equiv_pos_site_id
 _symmetry_equiv_pos_as_xyz
  1  'x, y, z'
loop_
 _atom_site_type_symbol
 _atom_site_label
 _atom_site_symmetry_multiplicity
 _atom_site_fract_x
 _atom_site_fract_y
 _atom_site_fract_z
 _atom_site_occupancy
  Li  Li0  1  0.00000000  0.00000000  0.00000000  1
  Li  Li1  1  0.50000000  0.50000000  0.50000000  1
  O  O2  1  0.18203471  0.28650479  0.44725657  1
  O  O3  1  0.31796529  0.78650479  0.05274343  1
  O  O4  1  0.09673250  0.03065402  0.74327023  1
  O  O5  1  0.40326750  0.53065402  0.75672977  1
  O  O6  1  0.81796529  0.71349521  0.55274343  1
  O  O7  1  0.68203471  0.21349521  0.94725657  1
  O  O8  1  0.20641900  0.31318029  0.04730274  1
  O  O9  1  0.29358100  0.81318029  0.45269726  1
  O  O10  1  0.79358100  0.68681971  0.95269726  1
  O  O11  1  0.70641900  0.18681971  0.54730274  1
  O  O12  1  0.59673250  0.46934598  0.24327023  1
  O  O13  1  0.90326750  0.96934598  0.25672977  1
  Pr  Pr14  1  0.98369498  0.43155276  0.75129574  1
  Pr  Pr15  1  0.51630502  0.93155276  0.74870426  1
  Pr  Pr16  1  0.01630502  0.56844724  0.24870426  1
  Pr  Pr17  1  0.48369498  0.06844724  0.25129574  1
  Os  Os18  1  0.00000000  0.00000000  0.50000000  1
  Os  Os19  1  0.50000000  0.50000000  0.00000000  1
