# generated using pymatgen
data_LiLa2OsO6
_symmetry_space_group_name_H-M   'P 1'
_cell_length_a   5.58151613
_cell_length_b   5.82047643
_cell_length_c   7.91362634
_cell_angle_alpha   90.00000000
_cell_angle_beta   90.27612937
_cell_angle_gamma   90.00000000
_symmetry_Int_Tables_number   1
_chemical_formula_structural   LiLa2OsO6
_chemical_formula_sum   'Li2 La4 Os2 O12'
_cell_volume   257.08765078
_cell_formula_units_Z   2
loop_
 _symmetry_equiv_pos_site_id
 _symmetry_equiv_pos_as_xyz
  1  'x, y, z'
loop_
 _atom_site_type_symbol
 _atom_site_label
 _atom_site_symmetry_multiplicity
 _atom_site_fract_x
 _atom_site_fract_y
 _atom_site_fract_z
 _atom_site_occupancy
  Li  Li0  1  0.00000000  0.00000000  0.00000000  1
  Li  Li1  1  0.50000000  0.50000000  0.50000000  1
  O  O2  1  0.18595546  0.28485843  0.44961108  1
  O  O3  1  0.31404454  0.78485843  0.05038892  1
  O  O4  1  0.81404454  0.71514157  0.55038892  1
  O  O5  1  0.68595546  0.21514157  0.94961108  1
  O  O6  1  0.09142109  0.02863025  0.74223039  1
  O  O7  1  0.40857891  0.52863025  0.75776961  1
  O  O8  1  0.21041597  0.31046441  0.04547590  1
  O  O9  1  0.28958403  0.81046441  0.45452410  1
  O  O10  1  0.78958403  0.68953559  0.95452410  1
  O  O11  1  0.71041597  0.18953559  0.54547590  1
  O  O12  1  0.59142109  0.47136975  0.24223039  1
  O  O13  1  0.90857891  0.97136975  0.25776961  1
  La  La14  1  0.48750578  0.05965752  0.25132854  1
  La  La15  1  0.01249422  0.55965752  0.24867146  1
  La  La16  1  0.98750578  0.44034248  0.75132854  1
  La  La17  1  0.51249422  0.94034248  0.74867146  1
  Os  Os18  1  0.50000000  0.50000000  0.00000000  1
  Os  Os19  1  0.00000000  0.00000000  0.50000000  1
