# generated using pymatgen
data_LaCd2Pd
_symmetry_space_group_name_H-M   'P 1'
_cell_length_a   4.32643987
_cell_length_b   5.54425893
_cell_length_c   8.64835071
_cell_angle_alpha   90.00000000
_cell_angle_beta   90.00000000
_cell_angle_gamma   112.96526206
_symmetry_Int_Tables_number   1
_chemical_formula_structural   LaCd2Pd
_chemical_formula_sum   'La2 Cd4 Pd2'
_cell_volume   191.00521547
_cell_formula_units_Z   2
loop_
 _symmetry_equiv_pos_site_id
 _symmetry_equiv_pos_as_xyz
  1  'x, y, z'
loop_
 _atom_site_type_symbol
 _atom_site_label
 _atom_site_symmetry_multiplicity
 _atom_site_fract_x
 _atom_site_fract_y
 _atom_site_fract_z
 _atom_site_occupancy
  Pd  Pd0  1  0.77943942  0.55887884  0.75000000  1
  Pd  Pd1  1  0.22056058  0.44112116  0.25000000  1
  Cd  Cd2  1  0.35479739  0.70959479  0.54733281  1
  Cd  Cd3  1  0.64520261  0.29040521  0.45266719  1
  Cd  Cd4  1  0.35479739  0.70959479  0.95266719  1
  Cd  Cd5  1  0.64520261  0.29040521  0.04733281  1
  La  La6  1  0.93514961  0.87029922  0.25000000  1
  La  La7  1  0.06485039  0.12970078  0.75000000  1
