# generated using pymatgen
data_CsLuCdTe3
_symmetry_space_group_name_H-M   'P 1'
_cell_length_a   4.49683844
_cell_length_b   8.97378132
_cell_length_c   11.78557192
_cell_angle_alpha   90.00000000
_cell_angle_beta   90.00000000
_cell_angle_gamma   104.51031339
_symmetry_Int_Tables_number   1
_chemical_formula_structural   CsLuCdTe3
_chemical_formula_sum   'Cs2 Lu2 Cd2 Te6'
_cell_volume   460.42065241
_cell_formula_units_Z   2
loop_
 _symmetry_equiv_pos_site_id
 _symmetry_equiv_pos_as_xyz
  1  'x, y, z'
loop_
 _atom_site_type_symbol
 _atom_site_label
 _atom_site_symmetry_multiplicity
 _atom_site_fract_x
 _atom_site_fract_y
 _atom_site_fract_z
 _atom_site_occupancy
  Cd  Cd0  1  0.46095296  0.92190592  0.25000000  1
  Cd  Cd1  1  0.53904704  0.07809408  0.75000000  1
  Te  Te2  1  0.38163746  0.76327492  0.04233806  1
  Te  Te3  1  0.61836254  0.23672508  0.95766194  1
  Te  Te4  1  0.93616653  0.87233307  0.75000000  1
  Te  Te5  1  0.06383347  0.12766693  0.25000000  1
  Te  Te6  1  0.38163746  0.76327492  0.45766194  1
  Te  Te7  1  0.61836254  0.23672508  0.54233806  1
  Cs  Cs8  1  0.75081983  0.50163967  0.25000000  1
  Cs  Cs9  1  0.24918017  0.49836033  0.75000000  1
  Lu  Lu10  1  0.00000000  0.00000000  0.50000000  1
  Lu  Lu11  1  0.00000000  0.00000000  0.00000000  1
