# generated using pymatgen
data_Co(TePd)2
_symmetry_space_group_name_H-M   'P 1'
_cell_length_a   5.25405348
_cell_length_b   6.33001824
_cell_length_c   6.95201262
_cell_angle_alpha   117.08199623
_cell_angle_beta   112.20242856
_cell_angle_gamma   89.99999995
_symmetry_Int_Tables_number   1
_chemical_formula_structural   Co(TePd)2
_chemical_formula_sum   'Co2 Te4 Pd4'
_cell_volume   186.40035815
_cell_formula_units_Z   2
loop_
 _symmetry_equiv_pos_site_id
 _symmetry_equiv_pos_as_xyz
  1  'x, y, z'
loop_
 _atom_site_type_symbol
 _atom_site_label
 _atom_site_symmetry_multiplicity
 _atom_site_fract_x
 _atom_site_fract_y
 _atom_site_fract_z
 _atom_site_occupancy
  Co  Co0  1  0.75000000  0.00000000  0.00000000  1
  Co  Co1  1  0.25000000  0.00000000  0.00000000  1
  Pd  Pd2  1  0.60590087  0.47339575  0.21180174  1
  Pd  Pd3  1  0.89409913  0.26159402  0.78819826  1
  Pd  Pd4  1  0.10590087  0.73840598  0.21180174  1
  Pd  Pd5  1  0.39409913  0.52660425  0.78819826  1
  Te  Te6  1  0.35605149  0.07098669  0.71210299  1
  Te  Te7  1  0.64394851  0.92901331  0.28789701  1
  Te  Te8  1  0.14394851  0.35888371  0.28789701  1
  Te  Te9  1  0.85605149  0.64111629  0.71210299  1
