# generated using pymatgen
data_CsHoCdTe3
_symmetry_space_group_name_H-M   'P 1'
_cell_length_a   4.53642091
_cell_length_b   8.98049896
_cell_length_c   11.86578244
_cell_angle_alpha   90.00000000
_cell_angle_beta   90.00000000
_cell_angle_gamma   104.62968231
_symmetry_Int_Tables_number   1
_chemical_formula_structural   CsHoCdTe3
_chemical_formula_sum   'Cs2 Ho2 Cd2 Te6'
_cell_volume   467.73124386
_cell_formula_units_Z   2
loop_
 _symmetry_equiv_pos_site_id
 _symmetry_equiv_pos_as_xyz
  1  'x, y, z'
loop_
 _atom_site_type_symbol
 _atom_site_label
 _atom_site_symmetry_multiplicity
 _atom_site_fract_x
 _atom_site_fract_y
 _atom_site_fract_z
 _atom_site_occupancy
  Cd  Cd0  1  0.03729799  0.07459598  0.25000000  1
  Cd  Cd1  1  0.96270201  0.92540402  0.75000000  1
  Te  Te2  1  0.11954611  0.23909221  0.04556720  1
  Te  Te3  1  0.88045389  0.76090779  0.95443280  1
  Te  Te4  1  0.56501203  0.13002405  0.75000000  1
  Te  Te5  1  0.43498797  0.86997595  0.25000000  1
  Te  Te6  1  0.11954611  0.23909221  0.45443280  1
  Te  Te7  1  0.88045389  0.76090779  0.54556720  1
  Cs  Cs8  1  0.25112775  0.50225550  0.75000000  1
  Cs  Cs9  1  0.74887225  0.49774450  0.25000000  1
  Ho  Ho10  1  0.50000000  0.00000000  0.50000000  1
  Ho  Ho11  1  0.50000000  0.00000000  0.00000000  1
