# generated using pymatgen
data_CsDyCdTe3
_symmetry_space_group_name_H-M   'P 1'
_cell_length_a   4.54722610
_cell_length_b   8.98579207
_cell_length_c   11.88901859
_cell_angle_alpha   90.00000000
_cell_angle_beta   90.00000000
_cell_angle_gamma   104.65647661
_symmetry_Int_Tables_number   1
_chemical_formula_structural   CsDyCdTe3
_chemical_formula_sum   'Cs2 Dy2 Cd2 Te6'
_cell_volume   469.98288579
_cell_formula_units_Z   2
loop_
 _symmetry_equiv_pos_site_id
 _symmetry_equiv_pos_as_xyz
  1  'x, y, z'
loop_
 _atom_site_type_symbol
 _atom_site_label
 _atom_site_symmetry_multiplicity
 _atom_site_fract_x
 _atom_site_fract_y
 _atom_site_fract_z
 _atom_site_occupancy
  Cd  Cd0  1  0.46309238  0.92618476  0.25000000  1
  Cd  Cd1  1  0.53690762  0.07381524  0.75000000  1
  Te  Te2  1  0.61980515  0.23961030  0.54643865  1
  Te  Te3  1  0.38019485  0.76038970  0.45356135  1
  Te  Te4  1  0.38019485  0.76038970  0.04643865  1
  Te  Te5  1  0.61980515  0.23961030  0.95356135  1
  Te  Te6  1  0.06524455  0.13048909  0.25000000  1
  Te  Te7  1  0.93475545  0.86951091  0.75000000  1
  Cs  Cs8  1  0.75099640  0.50199279  0.25000000  1
  Cs  Cs9  1  0.24900360  0.49800721  0.75000000  1
  Dy  Dy10  1  0.00000000  0.00000000  0.50000000  1
  Dy  Dy11  1  0.00000000  0.00000000  0.00000000  1
