# generated using pymatgen
data_K2ZnTe2
_symmetry_space_group_name_H-M   'P 1'
_cell_length_a   7.04846120
_cell_length_b   7.37180275
_cell_length_c   8.74000636
_cell_angle_alpha   114.94370234
_cell_angle_beta   113.78024173
_cell_angle_gamma   89.99999998
_symmetry_Int_Tables_number   1
_chemical_formula_structural   K2ZnTe2
_chemical_formula_sum   'K4 Zn2 Te4'
_cell_volume   368.81126181
_cell_formula_units_Z   2
loop_
 _symmetry_equiv_pos_site_id
 _symmetry_equiv_pos_as_xyz
  1  'x, y, z'
loop_
 _atom_site_type_symbol
 _atom_site_label
 _atom_site_symmetry_multiplicity
 _atom_site_fract_x
 _atom_site_fract_y
 _atom_site_fract_z
 _atom_site_occupancy
  K  K0  1  0.85944771  0.17636154  0.71889543  1
  K  K1  1  0.14055229  0.82363846  0.28110457  1
  K  K2  1  0.64055229  0.45746611  0.28110457  1
  K  K3  1  0.35944771  0.54253389  0.71889543  1
  Zn  Zn4  1  0.25000000  0.00000000  0.00000000  1
  Zn  Zn5  1  0.75000000  0.00000000  0.00000000  1
  Te  Te6  1  0.60676767  0.91346944  0.21353534  1
  Te  Te7  1  0.39323233  0.08653056  0.78646466  1
  Te  Te8  1  0.89323233  0.69993410  0.78646466  1
  Te  Te9  1  0.10676767  0.30006590  0.21353534  1
