# generated using pymatgen
data_CsTmCdTe3
_symmetry_space_group_name_H-M   'P 1'
_cell_length_a   4.51552724
_cell_length_b   8.97592044
_cell_length_c   11.81866523
_cell_angle_alpha   90.00000000
_cell_angle_beta   90.00000000
_cell_angle_gamma   104.56840028
_symmetry_Int_Tables_number   1
_chemical_formula_structural   CsTmCdTe3
_chemical_formula_sum   'Cs2 Tm2 Cd2 Te6'
_cell_volume   463.62096739
_cell_formula_units_Z   2
loop_
 _symmetry_equiv_pos_site_id
 _symmetry_equiv_pos_as_xyz
  1  'x, y, z'
loop_
 _atom_site_type_symbol
 _atom_site_label
 _atom_site_symmetry_multiplicity
 _atom_site_fract_x
 _atom_site_fract_y
 _atom_site_fract_z
 _atom_site_occupancy
  Cd  Cd0  1  0.46205075  0.92410151  0.75000000  1
  Cd  Cd1  1  0.53794925  0.07589849  0.25000000  1
  Te  Te2  1  0.38114399  0.76228798  0.95609528  1
  Te  Te3  1  0.61885601  0.23771202  0.04390472  1
  Te  Te4  1  0.93541468  0.87082937  0.25000000  1
  Te  Te5  1  0.06458532  0.12917063  0.75000000  1
  Te  Te6  1  0.38114399  0.76228798  0.54390472  1
  Te  Te7  1  0.61885601  0.23771202  0.45609528  1
  Cs  Cs8  1  0.24874339  0.49748678  0.25000000  1
  Cs  Cs9  1  0.75125661  0.50251322  0.75000000  1
  Tm  Tm10  1  0.00000000  0.00000000  0.50000000  1
  Tm  Tm11  1  0.00000000  0.00000000  0.00000000  1
