# generated using pymatgen
data_CsSmCdTe3
_symmetry_space_group_name_H-M   'P 1'
_cell_length_a   4.60576987
_cell_length_b   8.99813752
_cell_length_c   12.03612718
_cell_angle_alpha   90.00000000
_cell_angle_beta   90.00000000
_cell_angle_gamma   104.82864364
_symmetry_Int_Tables_number   1
_chemical_formula_structural   CsSmCdTe3
_chemical_formula_sum   'Cs2 Sm2 Cd2 Te6'
_cell_volume   482.20460574
_cell_formula_units_Z   2
loop_
 _symmetry_equiv_pos_site_id
 _symmetry_equiv_pos_as_xyz
  1  'x, y, z'
loop_
 _atom_site_type_symbol
 _atom_site_label
 _atom_site_symmetry_multiplicity
 _atom_site_fract_x
 _atom_site_fract_y
 _atom_site_fract_z
 _atom_site_occupancy
  Cd  Cd0  1  0.96388443  0.92776885  0.25000000  1
  Cd  Cd1  1  0.03611557  0.07223115  0.75000000  1
  Te  Te2  1  0.12146782  0.24293564  0.55019750  1
  Te  Te3  1  0.87853218  0.75706436  0.44980250  1
  Te  Te4  1  0.87853218  0.75706436  0.05019750  1
  Te  Te5  1  0.12146782  0.24293564  0.94980250  1
  Te  Te6  1  0.56568572  0.13137144  0.25000000  1
  Te  Te7  1  0.43431428  0.86862856  0.75000000  1
  Cs  Cs8  1  0.25040044  0.50080089  0.25000000  1
  Cs  Cs9  1  0.74959956  0.49919911  0.75000000  1
  Sm  Sm10  1  0.50000000  0.00000000  0.50000000  1
  Sm  Sm11  1  0.50000000  0.00000000  0.00000000  1
