# generated using pymatgen
data_Ho3Pd2
_symmetry_space_group_name_H-M   'P 1'
_cell_length_a   3.94206251
_cell_length_b   7.76949823
_cell_length_c   7.76949823
_cell_angle_alpha   90.00000000
_cell_angle_beta   90.00000000
_cell_angle_gamma   90.00000000
_symmetry_Int_Tables_number   1
_chemical_formula_structural   Ho3Pd2
_chemical_formula_sum   'Ho6 Pd4'
_cell_volume   237.96300845
_cell_formula_units_Z   2
loop_
 _symmetry_equiv_pos_site_id
 _symmetry_equiv_pos_as_xyz
  1  'x, y, z'
loop_
 _atom_site_type_symbol
 _atom_site_label
 _atom_site_symmetry_multiplicity
 _atom_site_fract_x
 _atom_site_fract_y
 _atom_site_fract_z
 _atom_site_occupancy
  Pd  Pd0  1  0.00000000  0.63332848  0.13332848  1
  Pd  Pd1  1  0.00000000  0.86667152  0.63332848  1
  Pd  Pd2  1  0.00000000  0.13332848  0.36667152  1
  Pd  Pd3  1  0.00000000  0.36667152  0.86667152  1
  Ho  Ho4  1  0.50000000  0.66435905  0.83564095  1
  Ho  Ho5  1  0.50000000  0.83564095  0.33564095  1
  Ho  Ho6  1  0.50000000  0.33564095  0.16435905  1
  Ho  Ho7  1  0.50000000  0.16435905  0.66435905  1
  Ho  Ho8  1  0.00000000  0.50000000  0.50000000  1
  Ho  Ho9  1  0.00000000  0.00000000  0.00000000  1
