# generated using pymatgen
data_Er3Pd2
_symmetry_space_group_name_H-M   'P 1'
_cell_length_a   3.94033956
_cell_length_b   7.72633048
_cell_length_c   7.72633048
_cell_angle_alpha   90.00000000
_cell_angle_beta   90.00000000
_cell_angle_gamma   90.00000000
_symmetry_Int_Tables_number   1
_chemical_formula_structural   Er3Pd2
_chemical_formula_sum   'Er6 Pd4'
_cell_volume   235.22323022
_cell_formula_units_Z   2
loop_
 _symmetry_equiv_pos_site_id
 _symmetry_equiv_pos_as_xyz
  1  'x, y, z'
loop_
 _atom_site_type_symbol
 _atom_site_label
 _atom_site_symmetry_multiplicity
 _atom_site_fract_x
 _atom_site_fract_y
 _atom_site_fract_z
 _atom_site_occupancy
  Pd  Pd0  1  0.00000000  0.63454100  0.13454100  1
  Pd  Pd1  1  0.00000000  0.86545900  0.63454100  1
  Pd  Pd2  1  0.00000000  0.13454100  0.36545900  1
  Pd  Pd3  1  0.00000000  0.36545900  0.86545900  1
  Er  Er4  1  0.50000000  0.66372787  0.83627213  1
  Er  Er5  1  0.50000000  0.83627213  0.33627213  1
  Er  Er6  1  0.50000000  0.33627213  0.16372787  1
  Er  Er7  1  0.50000000  0.16372787  0.66372787  1
  Er  Er8  1  0.00000000  0.50000000  0.50000000  1
  Er  Er9  1  0.00000000  0.00000000  0.00000000  1
