# generated using pymatgen
data_Th2CrN3
_symmetry_space_group_name_H-M   'P 1'
_cell_length_a   3.56166399
_cell_length_b   3.78859901
_cell_length_c   6.96221445
_cell_angle_alpha   105.78824047
_cell_angle_beta   104.82012183
_cell_angle_gamma   90.00000003
_symmetry_Int_Tables_number   1
_chemical_formula_structural   Th2CrN3
_chemical_formula_sum   'Th2 Cr1 N3'
_cell_volume   87.14966872
_cell_formula_units_Z   1
loop_
 _symmetry_equiv_pos_site_id
 _symmetry_equiv_pos_as_xyz
  1  'x, y, z'
loop_
 _atom_site_type_symbol
 _atom_site_label
 _atom_site_symmetry_multiplicity
 _atom_site_fract_x
 _atom_site_fract_y
 _atom_site_fract_z
 _atom_site_occupancy
  N  N0  1  0.83563757  0.83563958  0.67127515  1
  N  N1  1  0.16436243  0.16436042  0.32872485  1
  N  N2  1  0.00000000  0.50000000  0.00000000  1
  Cr  Cr3  1  0.00000000  0.00000000  0.00000000  1
  Th  Th4  1  0.35449614  0.35450021  0.70899228  1
  Th  Th5  1  0.64550386  0.64549979  0.29100772  1
