# generated using pymatgen
data_SiH17C11N
_symmetry_space_group_name_H-M   'P 1'
_cell_length_a   7.66739337
_cell_length_b   8.54634635
_cell_length_c   10.39911219
_cell_angle_alpha   105.04498476
_cell_angle_beta   92.69361678
_cell_angle_gamma   110.21162216
_symmetry_Int_Tables_number   1
_chemical_formula_structural   SiH17C11N
_chemical_formula_sum   'Si2 H34 C22 N2'
_cell_volume   610.49114348
_cell_formula_units_Z   2
loop_
 _symmetry_equiv_pos_site_id
 _symmetry_equiv_pos_as_xyz
  1  'x, y, z'
loop_
 _atom_site_type_symbol
 _atom_site_label
 _atom_site_symmetry_multiplicity
 _atom_site_fract_x
 _atom_site_fract_y
 _atom_site_fract_z
 _atom_site_occupancy
  Si  Si0  1  0.33155652  0.42568818  0.43749855  1
  Si  Si1  1  0.66844348  0.57431182  0.56250145  1
  H  H2  1  0.33112237  0.34748397  0.89824357  1
  H  H3  1  0.29435224  0.64653793  0.33079792  1
  H  H4  1  0.01452837  0.85121454  0.04278960  1
  H  H5  1  0.72013966  0.99884059  0.13644682  1
  H  H6  1  0.69644322  0.14934377  0.45462617  1
  H  H7  1  0.75543164  0.99355796  0.88953840  1
  H  H8  1  0.30355678  0.85065623  0.54537383  1
  H  H9  1  0.92309700  0.47835533  0.62798311  1
  H  H10  1  0.90066604  0.87546913  0.67203302  1
  H  H11  1  0.83846821  0.57115228  0.77079022  1
  H  H12  1  0.77767843  0.86606676  0.51840309  1
  H  H13  1  0.09933396  0.12453087  0.32796698  1
  H  H14  1  0.66887763  0.65251603  0.10175643  1
  H  H15  1  0.07690300  0.52164467  0.37201689  1
  H  H16  1  0.95975107  0.78199450  0.51600336  1
  H  H17  1  0.42486848  0.04099030  0.68114755  1
  H  H18  1  0.78143678  0.73094016  0.27142279  1
  H  H19  1  0.16153179  0.42884772  0.22920978  1
  H  H20  1  0.54362442  0.90530074  0.60093547  1
  H  H21  1  0.16573565  0.80369604  0.14808987  1
  H  H22  1  0.78500092  0.44435393  0.99821209  1
  H  H23  1  0.70564776  0.35346207  0.66920208  1
  H  H24  1  0.22232157  0.13393324  0.48159691  1
  H  H25  1  0.57513152  0.95900970  0.31885245  1
  H  H26  1  0.04024893  0.21800550  0.48399664  1
  H  H27  1  0.53393181  0.63154296  0.23492731  1
  H  H28  1  0.46606819  0.36845704  0.76507269  1
  H  H29  1  0.98547163  0.14878546  0.95721040  1
  H  H30  1  0.24456836  0.00644204  0.11046160  1
  H  H31  1  0.83426435  0.19630396  0.85191013  1
  H  H32  1  0.21856322  0.26905984  0.72857721  1
  H  H33  1  0.27986034  0.00115941  0.86355318  1
  H  H34  1  0.21499908  0.55564607  0.00178791  1
  H  H35  1  0.45637558  0.09469926  0.39906453  1
  C  C36  1  0.41089306  0.90524008  0.63571529  1
  C  C37  1  0.67731479  0.44983246  0.18593661  1
  C  C38  1  0.74541948  0.37405593  0.07299357  1
  C  C39  1  0.20635669  0.51553010  0.33334578  1
  C  C40  1  0.79364331  0.48446990  0.66665422  1
  C  C41  1  0.32268521  0.55016754  0.81406339  1
  C  C42  1  0.33582034  0.37506590  0.80076037  1
  C  C43  1  0.23603869  0.78708288  0.94712721  1
  C  C44  1  0.76396131  0.21291712  0.05287279  1
  C  C45  1  0.16163331  0.86606382  0.06859606  1
  C  C46  1  0.62500108  0.36151145  0.28442408  1
  C  C47  1  0.25458052  0.62594407  0.92700643  1
  C  C48  1  0.83836669  0.13393618  0.93140394  1
  C  C49  1  0.35787929  0.80294804  0.73521961  1
  C  C50  1  0.15891920  0.20478616  0.43254410  1
  C  C51  1  0.66417966  0.62493410  0.19923963  1
  C  C52  1  0.64212071  0.19705196  0.26478039  1
  C  C53  1  0.28937136  0.87319916  0.84969035  1
  C  C54  1  0.84108080  0.79521384  0.56745590  1
  C  C55  1  0.58910694  0.09475992  0.36428471  1
  C  C56  1  0.37499892  0.63848855  0.71557592  1
  C  C57  1  0.71062864  0.12680084  0.15030965  1
  N  N58  1  0.55649974  0.43566640  0.40064787  1
  N  N59  1  0.44350026  0.56433360  0.59935213  1
