# generated using pymatgen
data_U2TeO2
_symmetry_space_group_name_H-M   'P 1'
_cell_length_a   3.94078727
_cell_length_b   3.94078728
_cell_length_c   6.78526684
_cell_angle_alpha   106.88148268
_cell_angle_beta   106.88148272
_cell_angle_gamma   89.99999996
_symmetry_Int_Tables_number   1
_chemical_formula_structural   U2TeO2
_chemical_formula_sum   'U2 Te1 O2'
_cell_volume   96.07784768
_cell_formula_units_Z   1
loop_
 _symmetry_equiv_pos_site_id
 _symmetry_equiv_pos_as_xyz
  1  'x, y, z'
loop_
 _atom_site_type_symbol
 _atom_site_label
 _atom_site_symmetry_multiplicity
 _atom_site_fract_x
 _atom_site_fract_y
 _atom_site_fract_z
 _atom_site_occupancy
  O  O0  1  0.75000000  0.25000000  0.50000000  1
  O  O1  1  0.25000000  0.75000000  0.50000000  1
  Te  Te2  1  0.00000000  0.00000000  0.00000000  1
  U  U3  1  0.65051724  0.65051724  0.30103449  1
  U  U4  1  0.34948276  0.34948276  0.69896551  1
