# generated using pymatgen
data_Mn5B2P
_symmetry_space_group_name_H-M   'P 1'
_cell_length_a   5.51760209
_cell_length_b   5.51760985
_cell_length_c   6.46212910
_cell_angle_alpha   115.25908013
_cell_angle_beta   115.27214485
_cell_angle_gamma   90.00000002
_symmetry_Int_Tables_number   1
_chemical_formula_structural   Mn5B2P
_chemical_formula_sum   'Mn10 B4 P2'
_cell_volume   156.85147730
_cell_formula_units_Z   2
loop_
 _symmetry_equiv_pos_site_id
 _symmetry_equiv_pos_as_xyz
  1  'x, y, z'
loop_
 _atom_site_type_symbol
 _atom_site_label
 _atom_site_symmetry_multiplicity
 _atom_site_fract_x
 _atom_site_fract_y
 _atom_site_fract_z
 _atom_site_occupancy
  B  B0  1  0.38123051  0.88122451  0.00001272  1
  B  B1  1  0.11878222  0.38122451  0.00001272  1
  B  B2  1  0.88121778  0.61877549  0.99998728  1
  B  B3  1  0.61876949  0.11877549  0.99998728  1
  P  P4  1  0.75016929  0.75000000  0.50000000  1
  P  P5  1  0.24983071  0.25000000  0.50000000  1
  Mn  Mn6  1  0.69145700  0.19144937  0.72110929  1
  Mn  Mn7  1  0.97016768  0.47011659  0.27867571  1
  Mn  Mn8  1  0.00000000  0.00000000  0.00000000  1
  Mn  Mn9  1  0.50000000  0.50000000  0.00000000  1
  Mn  Mn10  1  0.02983232  0.52988341  0.72132429  1
  Mn  Mn11  1  0.19149198  0.02988341  0.72132429  1
  Mn  Mn12  1  0.52965229  0.69144937  0.72110929  1
  Mn  Mn13  1  0.80850802  0.97011659  0.27867571  1
  Mn  Mn14  1  0.47034771  0.30855063  0.27889071  1
  Mn  Mn15  1  0.30854300  0.80855063  0.27889071  1
