# generated using pymatgen
data_Re24Mo5
_symmetry_space_group_name_H-M   'P 1'
_cell_length_a   8.35996077
_cell_length_b   8.35996077
_cell_length_c   8.35996077
_cell_angle_alpha   109.47122063
_cell_angle_beta   109.47122064
_cell_angle_gamma   109.47122062
_symmetry_Int_Tables_number   1
_chemical_formula_structural   Re24Mo5
_chemical_formula_sum   'Re24 Mo5'
_cell_volume   449.77035584
_cell_formula_units_Z   1
loop_
 _symmetry_equiv_pos_site_id
 _symmetry_equiv_pos_as_xyz
  1  'x, y, z'
loop_
 _atom_site_type_symbol
 _atom_site_label
 _atom_site_symmetry_multiplicity
 _atom_site_fract_x
 _atom_site_fract_y
 _atom_site_fract_z
 _atom_site_occupancy
  Mo  Mo0  1  0.00000000  0.00000000  0.00000000  1
  Mo  Mo1  1  0.64144834  0.64144834  0.64144834  1
  Mo  Mo2  1  0.35855166  0.00000000  0.00000000  1
  Mo  Mo3  1  0.00000000  0.35855166  0.00000000  1
  Mo  Mo4  1  0.00000000  0.00000000  0.35855166  1
  Re  Re5  1  0.40134519  0.40134519  0.71677075  1
  Re  Re6  1  0.59865481  0.31542556  0.00000000  1
  Re  Re7  1  0.31542556  0.59865481  0.00000000  1
  Re  Re8  1  0.00000000  0.31542556  0.59865481  1
  Re  Re9  1  0.28322925  0.68457444  0.68457444  1
  Re  Re10  1  0.68457444  0.28322925  0.68457444  1
  Re  Re11  1  0.31542556  0.00000000  0.59865481  1
  Re  Re12  1  0.59865481  0.00000000  0.31542556  1
  Re  Re13  1  0.00000000  0.59865481  0.31542556  1
  Re  Re14  1  0.71677075  0.40134519  0.40134519  1
  Re  Re15  1  0.40134519  0.71677075  0.40134519  1
  Re  Re16  1  0.68457444  0.68457444  0.28322925  1
  Re  Re17  1  0.37547366  0.37547366  0.18197731  1
  Re  Re18  1  0.62452634  0.80650366  0.00000000  1
  Re  Re19  1  0.80650366  0.62452634  0.00000000  1
  Re  Re20  1  0.00000000  0.80650366  0.62452634  1
  Re  Re21  1  0.81802269  0.19349634  0.19349634  1
  Re  Re22  1  0.19349634  0.81802269  0.19349634  1
  Re  Re23  1  0.80650366  0.00000000  0.62452634  1
  Re  Re24  1  0.62452634  0.00000000  0.80650366  1
  Re  Re25  1  0.00000000  0.62452634  0.80650366  1
  Re  Re26  1  0.18197731  0.37547366  0.37547366  1
  Re  Re27  1  0.37547366  0.18197731  0.37547366  1
  Re  Re28  1  0.19349634  0.19349634  0.81802269  1
