# generated using pymatgen
data_LiHoO2
_symmetry_space_group_name_H-M   'P 1'
_cell_length_a   6.20707417
_cell_length_b   6.15786001
_cell_length_c   6.28394618
_cell_angle_alpha   90.00000000
_cell_angle_beta   119.54251421
_cell_angle_gamma   90.00000000
_symmetry_Int_Tables_number   1
_chemical_formula_structural   LiHoO2
_chemical_formula_sum   'Li4 Ho4 O8'
_cell_volume   208.96016366
_cell_formula_units_Z   4
loop_
 _symmetry_equiv_pos_site_id
 _symmetry_equiv_pos_as_xyz
  1  'x, y, z'
loop_
 _atom_site_type_symbol
 _atom_site_label
 _atom_site_symmetry_multiplicity
 _atom_site_fract_x
 _atom_site_fract_y
 _atom_site_fract_z
 _atom_site_occupancy
  Li  Li0  1  0.29087596  0.65459629  0.06336554  1
  Li  Li1  1  0.70912404  0.15459629  0.43663446  1
  Li  Li2  1  0.70912404  0.34540371  0.93663446  1
  Li  Li3  1  0.29087596  0.84540371  0.56336554  1
  O  O4  1  0.45271459  0.39077362  0.26467236  1
  O  O5  1  0.99085640  0.17055935  0.15601215  1
  O  O6  1  0.54728541  0.89077362  0.23532764  1
  O  O7  1  0.54728541  0.60922638  0.73532764  1
  O  O8  1  0.00914360  0.82944065  0.84398785  1
  O  O9  1  0.00914360  0.67055935  0.34398785  1
  O  O10  1  0.99085640  0.32944065  0.65601215  1
  O  O11  1  0.45271459  0.10922638  0.76467236  1
  Ho  Ho12  1  0.23331790  0.13026792  0.97847190  1
  Ho  Ho13  1  0.23331790  0.36973208  0.47847190  1
  Ho  Ho14  1  0.76668210  0.86973208  0.02152810  1
  Ho  Ho15  1  0.76668210  0.63026792  0.52152810  1
