# generated using pymatgen
data_EuNbO4
_symmetry_space_group_name_H-M   'P 1'
_cell_length_a   5.21508020
_cell_length_b   5.49363904
_cell_length_c   6.72702403
_cell_angle_alpha   112.35064889
_cell_angle_beta   110.98177927
_cell_angle_gamma   94.15012935
_symmetry_Int_Tables_number   1
_chemical_formula_structural   EuNbO4
_chemical_formula_sum   'Eu2 Nb2 O8'
_cell_volume   161.50428984
_cell_formula_units_Z   2
loop_
 _symmetry_equiv_pos_site_id
 _symmetry_equiv_pos_as_xyz
  1  'x, y, z'
loop_
 _atom_site_type_symbol
 _atom_site_label
 _atom_site_symmetry_multiplicity
 _atom_site_fract_x
 _atom_site_fract_y
 _atom_site_fract_z
 _atom_site_occupancy
  O  O0  1  0.29768284  0.13484965  0.08098972  1
  O  O1  1  0.78330688  0.44614006  0.08098972  1
  O  O2  1  0.70231716  0.86515035  0.91901028  1
  O  O3  1  0.21669312  0.55385994  0.91901028  1
  O  O4  1  0.51662317  0.71044820  0.43793912  1
  O  O5  1  0.92131595  0.22749092  0.43793912  1
  O  O6  1  0.48337683  0.28955180  0.56206088  1
  O  O7  1  0.07868405  0.77250908  0.56206088  1
  Nb  Nb8  1  0.35678706  0.60678706  0.71357412  1
  Nb  Nb9  1  0.64321294  0.39321294  0.28642588  1
  Eu  Eu10  1  0.87788801  0.12788801  0.75577602  1
  Eu  Eu11  1  0.12211199  0.87211199  0.24422398  1
