# generated using pymatgen
data_TaH20C6N3Cl4
_symmetry_space_group_name_H-M   'P 1'
_cell_length_a   8.88406332
_cell_length_b   10.43443588
_cell_length_c   18.47084771
_cell_angle_alpha   90.00000000
_cell_angle_beta   90.00000000
_cell_angle_gamma   106.62133627
_symmetry_Int_Tables_number   1
_chemical_formula_structural   TaH20C6N3Cl4
_chemical_formula_sum   'Ta4 H80 C24 N12 Cl16'
_cell_volume   1640.70658194
_cell_formula_units_Z   4
loop_
 _symmetry_equiv_pos_site_id
 _symmetry_equiv_pos_as_xyz
  1  'x, y, z'
loop_
 _atom_site_type_symbol
 _atom_site_label
 _atom_site_symmetry_multiplicity
 _atom_site_fract_x
 _atom_site_fract_y
 _atom_site_fract_z
 _atom_site_occupancy
  Ta  Ta0  1  0.76456962  0.71819935  0.37754822  1
  Ta  Ta1  1  0.73543038  0.78180065  0.87754822  1
  Ta  Ta2  1  0.23543038  0.28180065  0.62245178  1
  Ta  Ta3  1  0.26456962  0.21819935  0.12245178  1
  H  H4  1  0.66735316  0.42460248  0.67515969  1
  H  H5  1  0.34149861  0.55581059  0.42057212  1
  H  H6  1  0.95273075  0.90493843  0.19086427  1
  H  H7  1  0.83825520  0.66426122  0.18303067  1
  H  H8  1  0.95076116  0.18169914  0.48336664  1
  H  H9  1  0.14320701  0.63701281  0.09055896  1
  H  H10  1  0.32559595  0.89394390  0.49732940  1
  H  H11  1  0.37227992  0.55533743  0.07101024  1
  H  H12  1  0.33264684  0.57539752  0.32484031  1
  H  H13  1  0.17440405  0.60605610  0.99732940  1
  H  H14  1  0.30259881  0.99810531  0.28430960  1
  H  H15  1  0.35679299  0.86298719  0.59055896  1
  H  H16  1  0.50958613  0.61470239  0.59694539  1
  H  H17  1  0.08062111  0.78235151  0.88080683  1
  H  H18  1  0.85080146  0.07568877  0.83982825  1
  H  H19  1  0.09148161  0.68365667  0.34472966  1
  H  H20  1  0.82559595  0.39394390  0.00267060  1
  H  H21  1  0.59148161  0.18365667  0.15527034  1
  H  H22  1  0.59371376  0.20744757  0.25084390  1
  H  H23  1  0.85679299  0.36298719  0.90944104  1
  H  H24  1  0.38159099  0.69923290  0.17357754  1
  H  H25  1  0.33778474  0.41245134  0.76856454  1
  H  H26  1  0.57127033  0.72380113  0.13333767  1
  H  H27  1  0.46396969  0.95757228  0.78513924  1
  H  H28  1  0.16735316  0.92460248  0.82484031  1
  H  H29  1  0.00958613  0.11470239  0.90305461  1
  H  H30  1  0.23335174  0.77464393  0.03150106  1
  H  H31  1  0.07127033  0.22380113  0.36666233  1
  H  H32  1  0.40628624  0.79255243  0.74915610  1
  H  H33  1  0.61840901  0.30076710  0.82642246  1
  H  H34  1  0.84149861  0.05581059  0.07942788  1
  H  H35  1  0.96240297  0.34111025  0.38452663  1
  H  H36  1  0.62772008  0.44466257  0.92898976  1
  H  H37  1  0.80259881  0.49810531  0.21569040  1
  H  H38  1  0.76664826  0.22535607  0.96849894  1
  H  H39  1  0.03759703  0.65888975  0.61547337  1
  H  H40  1  0.19740119  0.50189469  0.78430960  1
  H  H41  1  0.92872967  0.77619887  0.63333767  1
  H  H42  1  0.16221526  0.08754866  0.26856454  1
  H  H43  1  0.73335174  0.27464393  0.46849894  1
  H  H44  1  0.64320701  0.13701281  0.40944104  1
  H  H45  1  0.90851839  0.31634333  0.65527034  1
  H  H46  1  0.49041387  0.38529761  0.40305461  1
  H  H47  1  0.26664826  0.72535607  0.53150106  1
  H  H48  1  0.41937889  0.71764849  0.38080683  1
  H  H49  1  0.46240297  0.84111025  0.11547337  1
  H  H50  1  0.90628624  0.29255243  0.75084390  1
  H  H51  1  0.11840901  0.80076710  0.67357754  1
  H  H52  1  0.64919854  0.42431123  0.33982825  1
  H  H53  1  0.35080146  0.57568877  0.66017175  1
  H  H54  1  0.16174480  0.33573878  0.81696933  1
  H  H55  1  0.66174480  0.83573878  0.68303067  1
  H  H56  1  0.45273075  0.40493843  0.30913573  1
  H  H57  1  0.14919854  0.92431123  0.16017175  1
  H  H58  1  0.65850139  0.44418941  0.57942788  1
  H  H59  1  0.12772008  0.94466257  0.57101024  1
  H  H60  1  0.54923884  0.31830086  0.98336664  1
  H  H61  1  0.42872967  0.27619887  0.86666233  1
  H  H62  1  0.04726925  0.09506157  0.80913573  1
  H  H63  1  0.40851839  0.81634333  0.84472966  1
  H  H64  1  0.99041387  0.88529761  0.09694539  1
  H  H65  1  0.96396969  0.45757228  0.71486076  1
  H  H66  1  0.54726925  0.59506157  0.69086427  1
  H  H67  1  0.69740119  0.00189469  0.71569040  1
  H  H68  1  0.83778474  0.91245134  0.73143546  1
  H  H69  1  0.15850139  0.94418941  0.92057212  1
  H  H70  1  0.03603031  0.54242772  0.28513924  1
  H  H71  1  0.53759703  0.15888975  0.88452663  1
  H  H72  1  0.53603031  0.04242772  0.21486076  1
  H  H73  1  0.04923884  0.81830086  0.51663336  1
  H  H74  1  0.88159099  0.19923290  0.32642246  1
  H  H75  1  0.83264684  0.07539752  0.17515969  1
  H  H76  1  0.66221526  0.58754866  0.23143546  1
  H  H77  1  0.67440405  0.10605610  0.50267060  1
  H  H78  1  0.09371376  0.70744757  0.24915610  1
  H  H79  1  0.58062111  0.28235151  0.61919317  1
  H  H80  1  0.33825520  0.16426122  0.31696933  1
  H  H81  1  0.45076116  0.68169914  0.01663336  1
  H  H82  1  0.91937889  0.21764849  0.11919317  1
  H  H83  1  0.87227992  0.05533743  0.42898976  1
  C  C84  1  0.78792116  0.59710666  0.22861192  1
  C  C85  1  0.28792116  0.09710666  0.27138808  1
  C  C86  1  0.40496260  0.61074677  0.37345600  1
  C  C87  1  0.27897632  0.83049694  0.54398404  1
  C  C88  1  0.96962321  0.35447876  0.70565039  1
  C  C89  1  0.59503740  0.38925323  0.62654400  1
  C  C90  1  0.77897632  0.33049694  0.95601596  1
  C  C91  1  0.54598707  0.26408127  0.87426757  1
  C  C92  1  0.46962321  0.85447876  0.79434961  1
  C  C93  1  0.09503740  0.88925323  0.87345600  1
  C  C94  1  0.90496260  0.11074677  0.12654400  1
  C  C95  1  0.21207884  0.40289334  0.77138808  1
  C  C96  1  0.96305191  0.05774133  0.85354922  1
  C  C97  1  0.22102368  0.66950306  0.04398404  1
  C  C98  1  0.04598707  0.76408127  0.62573243  1
  C  C99  1  0.45401293  0.73591873  0.12573243  1
  C  C100  1  0.03037679  0.64552124  0.29434961  1
  C  C101  1  0.71207884  0.90289334  0.72861192  1
  C  C102  1  0.46305191  0.55774133  0.64645078  1
  C  C103  1  0.03694809  0.94225867  0.14645078  1
  C  C104  1  0.53037679  0.14552124  0.20565039  1
  C  C105  1  0.53694809  0.44225867  0.35354922  1
  C  C106  1  0.72102368  0.16950306  0.45601596  1
  C  C107  1  0.95401293  0.23591873  0.37426757  1
  N  N108  1  0.37906961  0.65526234  0.06193715  1
  N  N109  1  0.44274005  0.41503573  0.63486744  1
  N  N110  1  0.36731276  0.14842475  0.20356460  1
  N  N111  1  0.55725995  0.58496427  0.36513256  1
  N  N112  1  0.12093039  0.84473766  0.56193715  1
  N  N113  1  0.86731276  0.64842475  0.29643540  1
  N  N114  1  0.05725995  0.08496427  0.13486744  1
  N  N115  1  0.87906961  0.15526234  0.43806285  1
  N  N116  1  0.63268724  0.85157525  0.79643540  1
  N  N117  1  0.62093039  0.34473766  0.93806285  1
  N  N118  1  0.13268724  0.35157525  0.70356460  1
  N  N119  1  0.94274005  0.91503573  0.86513256  1
  Cl  Cl120  1  0.51927362  0.40370212  0.10175333  1
  Cl  Cl121  1  0.36767385  0.08661827  0.03803370  1
  Cl  Cl122  1  0.17222602  0.31508750  0.01348691  1
  Cl  Cl123  1  0.48072638  0.59629788  0.89824667  1
  Cl  Cl124  1  0.01927362  0.90370212  0.39824667  1
  Cl  Cl125  1  0.86767385  0.58661827  0.46196630  1
  Cl  Cl126  1  0.18562338  0.38158254  0.19477798  1
  Cl  Cl127  1  0.68562338  0.88158254  0.30522202  1
  Cl  Cl128  1  0.13232615  0.41338173  0.53803370  1
  Cl  Cl129  1  0.81437662  0.61841746  0.80522202  1
  Cl  Cl130  1  0.98072638  0.09629788  0.60175333  1
  Cl  Cl131  1  0.63232615  0.91338173  0.96196630  1
  Cl  Cl132  1  0.32777398  0.18491250  0.51348691  1
  Cl  Cl133  1  0.31437662  0.11841746  0.69477798  1
  Cl  Cl134  1  0.67222602  0.81508750  0.48651309  1
  Cl  Cl135  1  0.82777398  0.68491250  0.98651309  1
