# generated using pymatgen
data_TbGaPd
_symmetry_space_group_name_H-M   'P 1'
_cell_length_a   4.49109304
_cell_length_b   6.97792837
_cell_length_c   7.68074963
_cell_angle_alpha   90.00000000
_cell_angle_beta   90.00000000
_cell_angle_gamma   90.00000000
_symmetry_Int_Tables_number   1
_chemical_formula_structural   TbGaPd
_chemical_formula_sum   'Tb4 Ga4 Pd4'
_cell_volume   240.70336842
_cell_formula_units_Z   4
loop_
 _symmetry_equiv_pos_site_id
 _symmetry_equiv_pos_as_xyz
  1  'x, y, z'
loop_
 _atom_site_type_symbol
 _atom_site_label
 _atom_site_symmetry_multiplicity
 _atom_site_fract_x
 _atom_site_fract_y
 _atom_site_fract_z
 _atom_site_occupancy
  Ga  Ga0  1  0.25000000  0.82444186  0.07599336  1
  Ga  Ga1  1  0.75000000  0.17555814  0.92400664  1
  Ga  Ga2  1  0.25000000  0.32444186  0.42400664  1
  Ga  Ga3  1  0.75000000  0.67555814  0.57599336  1
  Pd  Pd4  1  0.75000000  0.78091007  0.90362292  1
  Pd  Pd5  1  0.25000000  0.21908993  0.09637708  1
  Pd  Pd6  1  0.75000000  0.28091007  0.59637708  1
  Pd  Pd7  1  0.25000000  0.71908993  0.40362292  1
  Tb  Tb8  1  0.25000000  0.48270455  0.80183665  1
  Tb  Tb9  1  0.75000000  0.51729545  0.19816335  1
  Tb  Tb10  1  0.25000000  0.98270455  0.69816335  1
  Tb  Tb11  1  0.75000000  0.01729545  0.30183665  1
