# generated using pymatgen
data_Dy2S3
_symmetry_space_group_name_H-M   'P 1'
_cell_length_a   3.87381763
_cell_length_b   10.47498435
_cell_length_c   10.65308897
_cell_angle_alpha   90.00000000
_cell_angle_beta   90.00000000
_cell_angle_gamma   90.00000000
_symmetry_Int_Tables_number   1
_chemical_formula_structural   Dy2S3
_chemical_formula_sum   'Dy8 S12'
_cell_volume   432.28295165
_cell_formula_units_Z   4
loop_
 _symmetry_equiv_pos_site_id
 _symmetry_equiv_pos_as_xyz
  1  'x, y, z'
loop_
 _atom_site_type_symbol
 _atom_site_label
 _atom_site_symmetry_multiplicity
 _atom_site_fract_x
 _atom_site_fract_y
 _atom_site_fract_z
 _atom_site_occupancy
  S  S0  1  0.25000000  0.30409491  0.72773887  1
  S  S1  1  0.75000000  0.69590509  0.27226113  1
  S  S2  1  0.75000000  0.80409491  0.77226113  1
  S  S3  1  0.25000000  0.19590509  0.22773887  1
  S  S4  1  0.25000000  0.94449768  0.38055189  1
  S  S5  1  0.75000000  0.05550232  0.61944811  1
  S  S6  1  0.75000000  0.44449768  0.11944811  1
  S  S7  1  0.25000000  0.55550232  0.88055189  1
  S  S8  1  0.25000000  0.87330690  0.04577683  1
  S  S9  1  0.75000000  0.12669310  0.95422317  1
  S  S10  1  0.75000000  0.37330690  0.45422317  1
  S  S11  1  0.25000000  0.62669310  0.54577683  1
  Dy  Dy12  1  0.25000000  0.99629804  0.80795377  1
  Dy  Dy13  1  0.75000000  0.00370196  0.19204623  1
  Dy  Dy14  1  0.75000000  0.49629804  0.69204623  1
  Dy  Dy15  1  0.25000000  0.50370196  0.30795377  1
  Dy  Dy16  1  0.25000000  0.18672219  0.49000687  1
  Dy  Dy17  1  0.75000000  0.81327781  0.50999313  1
  Dy  Dy18  1  0.75000000  0.68672219  0.00999313  1
  Dy  Dy19  1  0.25000000  0.31327781  0.99000687  1
