# generated using pymatgen
data_Lu2InPd2
_symmetry_space_group_name_H-M   'P 1'
_cell_length_a   3.63238929
_cell_length_b   7.65292200
_cell_length_c   7.65292200
_cell_angle_alpha   90.00000000
_cell_angle_beta   90.00000000
_cell_angle_gamma   90.00000000
_symmetry_Int_Tables_number   1
_chemical_formula_structural   Lu2InPd2
_chemical_formula_sum   'Lu4 In2 Pd4'
_cell_volume   212.73892501
_cell_formula_units_Z   2
loop_
 _symmetry_equiv_pos_site_id
 _symmetry_equiv_pos_as_xyz
  1  'x, y, z'
loop_
 _atom_site_type_symbol
 _atom_site_label
 _atom_site_symmetry_multiplicity
 _atom_site_fract_x
 _atom_site_fract_y
 _atom_site_fract_z
 _atom_site_occupancy
  Pd  Pd0  1  0.00000000  0.12898213  0.37101787  1
  Pd  Pd1  1  0.00000000  0.37101787  0.87101787  1
  Pd  Pd2  1  0.00000000  0.62898213  0.12898213  1
  Pd  Pd3  1  0.00000000  0.87101787  0.62898213  1
  In  In4  1  0.00000000  0.00000000  0.00000000  1
  In  In5  1  0.00000000  0.50000000  0.50000000  1
  Lu  Lu6  1  0.50000000  0.82850062  0.32850062  1
  Lu  Lu7  1  0.50000000  0.67149938  0.82850062  1
  Lu  Lu8  1  0.50000000  0.32850062  0.17149938  1
  Lu  Lu9  1  0.50000000  0.17149938  0.67149938  1
