# generated using pymatgen
data_Li5Yb4Sn5
_symmetry_space_group_name_H-M   'P 1'
_cell_length_a   4.89419586
_cell_length_b   4.89419585
_cell_length_c   17.22931383
_cell_angle_alpha   81.83460900
_cell_angle_beta   90.00000000
_cell_angle_gamma   119.99999995
_symmetry_Int_Tables_number   1
_chemical_formula_structural   Li5Yb4Sn5
_chemical_formula_sum   'Li5 Yb4 Sn5'
_cell_volume   352.56621169
_cell_formula_units_Z   1
loop_
 _symmetry_equiv_pos_site_id
 _symmetry_equiv_pos_as_xyz
  1  'x, y, z'
loop_
 _atom_site_type_symbol
 _atom_site_label
 _atom_site_symmetry_multiplicity
 _atom_site_fract_x
 _atom_site_fract_y
 _atom_site_fract_z
 _atom_site_occupancy
  Li  Li0  1  0.96000899  0.92001799  0.11997302  1
  Li  Li1  1  0.55416304  0.10832608  0.33751088  1
  Li  Li2  1  0.13767043  0.27534087  0.58698870  1
  Li  Li3  1  0.68295595  0.36591190  0.95113215  1
  Li  Li4  1  0.37182831  0.74365662  0.88451507  1
  Yb  Yb5  1  0.31011768  0.62023535  0.06964697  1
  Yb  Yb6  1  0.90230855  0.80461710  0.29307434  1
  Yb  Yb7  1  0.50077745  0.00155491  0.49766764  1
  Yb  Yb8  1  0.07413852  0.14827705  0.77758443  1
  Sn  Sn9  1  0.43579472  0.87158944  0.69261584  1
  Sn  Sn10  1  0.19915323  0.39830647  0.40254030  1
  Sn  Sn11  1  0.79722382  0.59444764  0.60832855  1
  Sn  Sn12  1  0.01471401  0.02942801  0.95585798  1
  Sn  Sn13  1  0.60914529  0.21829058  0.17256413  1
