# generated using pymatgen
data_ThPt
_symmetry_space_group_name_H-M   'P 1'
_cell_length_a   3.93381484
_cell_length_b   4.48305824
_cell_length_c   5.97347613
_cell_angle_alpha   90.00000000
_cell_angle_beta   109.22468605
_cell_angle_gamma   90.00000000
_symmetry_Int_Tables_number   1
_chemical_formula_structural   ThPt
_chemical_formula_sum   'Th2 Pt2'
_cell_volume   99.47073636
_cell_formula_units_Z   2
loop_
 _symmetry_equiv_pos_site_id
 _symmetry_equiv_pos_as_xyz
  1  'x, y, z'
loop_
 _atom_site_type_symbol
 _atom_site_label
 _atom_site_symmetry_multiplicity
 _atom_site_fract_x
 _atom_site_fract_y
 _atom_site_fract_z
 _atom_site_occupancy
  Pt  Pt0  1  0.40384541  0.75000000  0.80769083  1
  Pt  Pt1  1  0.59615459  0.25000000  0.19230917  1
  Th  Th2  1  0.13644014  0.75000000  0.27288029  1
  Th  Th3  1  0.86355986  0.25000000  0.72711971  1
