# generated using pymatgen
data_MgAl2O4
_symmetry_space_group_name_H-M   'P 1'
_cell_length_a   2.81448446
_cell_length_b   8.75890602
_cell_length_c   10.03259804
_cell_angle_alpha   90.00000000
_cell_angle_beta   90.00000000
_cell_angle_gamma   90.00000000
_symmetry_Int_Tables_number   1
_chemical_formula_structural   MgAl2O4
_chemical_formula_sum   'Mg4 Al8 O16'
_cell_volume   247.32164932
_cell_formula_units_Z   4
loop_
 _symmetry_equiv_pos_site_id
 _symmetry_equiv_pos_as_xyz
  1  'x, y, z'
loop_
 _atom_site_type_symbol
 _atom_site_label
 _atom_site_symmetry_multiplicity
 _atom_site_fract_x
 _atom_site_fract_y
 _atom_site_fract_z
 _atom_site_occupancy
  O  O0  1  0.25000000  0.91181549  0.92966458  1
  O  O1  1  0.75000000  0.08818451  0.07033542  1
  O  O2  1  0.25000000  0.41181549  0.57033542  1
  O  O3  1  0.75000000  0.58818451  0.42966458  1
  O  O4  1  0.25000000  0.03694053  0.28360059  1
  O  O5  1  0.75000000  0.96305947  0.71639941  1
  O  O6  1  0.25000000  0.53694053  0.21639941  1
  O  O7  1  0.75000000  0.46305947  0.78360059  1
  O  O8  1  0.25000000  0.61984993  0.97069087  1
  O  O9  1  0.75000000  0.38015007  0.02930913  1
  O  O10  1  0.25000000  0.11984993  0.52930913  1
  O  O11  1  0.75000000  0.88015007  0.47069087  1
  O  O12  1  0.75000000  0.79933824  0.16836513  1
  O  O13  1  0.25000000  0.20066176  0.83163487  1
  O  O14  1  0.75000000  0.29933824  0.33163487  1
  O  O15  1  0.25000000  0.70066176  0.66836513  1
  Mg  Mg16  1  0.75000000  0.24556032  0.65181771  1
  Mg  Mg17  1  0.25000000  0.75443968  0.34818229  1
  Mg  Mg18  1  0.75000000  0.74556032  0.84818229  1
  Mg  Mg19  1  0.25000000  0.25443968  0.15181771  1
  Al  Al20  1  0.25000000  0.94130255  0.11667045  1
  Al  Al21  1  0.75000000  0.05869745  0.88332955  1
  Al  Al22  1  0.25000000  0.44130255  0.38332955  1
  Al  Al23  1  0.75000000  0.55869745  0.61667045  1
  Al  Al24  1  0.75000000  0.58672321  0.10352318  1
  Al  Al25  1  0.25000000  0.41327679  0.89647682  1
  Al  Al26  1  0.75000000  0.08672321  0.39647682  1
  Al  Al27  1  0.25000000  0.91327679  0.60352318  1
