# generated using pymatgen
data_TbAlPd
_symmetry_space_group_name_H-M   'P 1'
_cell_length_a   4.46456040
_cell_length_b   6.95426957
_cell_length_c   7.80350085
_cell_angle_alpha   90.00000000
_cell_angle_beta   90.00000000
_cell_angle_gamma   90.00000000
_symmetry_Int_Tables_number   1
_chemical_formula_structural   TbAlPd
_chemical_formula_sum   'Tb4 Al4 Pd4'
_cell_volume   242.28119450
_cell_formula_units_Z   4
loop_
 _symmetry_equiv_pos_site_id
 _symmetry_equiv_pos_as_xyz
  1  'x, y, z'
loop_
 _atom_site_type_symbol
 _atom_site_label
 _atom_site_symmetry_multiplicity
 _atom_site_fract_x
 _atom_site_fract_y
 _atom_site_fract_z
 _atom_site_occupancy
  Al  Al0  1  0.25000000  0.64501449  0.56331348  1
  Al  Al1  1  0.75000000  0.35498551  0.43668652  1
  Al  Al2  1  0.25000000  0.14501449  0.93668652  1
  Al  Al3  1  0.75000000  0.85498551  0.06331348  1
  Pd  Pd4  1  0.75000000  0.72634635  0.38334395  1
  Pd  Pd5  1  0.25000000  0.27365365  0.61665605  1
  Pd  Pd6  1  0.75000000  0.22634635  0.11665605  1
  Pd  Pd7  1  0.25000000  0.77365365  0.88334395  1
  Tb  Tb8  1  0.25000000  0.53256828  0.18060111  1
  Tb  Tb9  1  0.75000000  0.46743172  0.81939889  1
  Tb  Tb10  1  0.25000000  0.03256828  0.31939889  1
  Tb  Tb11  1  0.75000000  0.96743172  0.68060111  1
