# generated using pymatgen
data_Dy3(CuSi)4
_symmetry_space_group_name_H-M   'P 1'
_cell_length_a   4.13307239
_cell_length_b   6.54629311
_cell_length_c   7.86185054
_cell_angle_alpha   114.60709326
_cell_angle_beta   105.23960693
_cell_angle_gamma   90.00000004
_symmetry_Int_Tables_number   1
_chemical_formula_structural   Dy3(CuSi)4
_chemical_formula_sum   'Dy3 Si4 Cu4'
_cell_volume   185.13614178
_cell_formula_units_Z   1
loop_
 _symmetry_equiv_pos_site_id
 _symmetry_equiv_pos_as_xyz
  1  'x, y, z'
loop_
 _atom_site_type_symbol
 _atom_site_label
 _atom_site_symmetry_multiplicity
 _atom_site_fract_x
 _atom_site_fract_y
 _atom_site_fract_z
 _atom_site_occupancy
  Si  Si0  1  0.49998576  0.81541759  0.99997153  1
  Si  Si1  1  0.50001424  0.18458241  0.00002847  1
  Si  Si2  1  0.78389996  0.28392164  0.56779992  1
  Si  Si3  1  0.21610004  0.71607836  0.43220008  1
  Cu  Cu4  1  0.33150768  0.52213919  0.66301535  1
  Cu  Cu5  1  0.66847370  0.85900014  0.33694740  1
  Cu  Cu6  1  0.33152630  0.14099986  0.66305260  1
  Cu  Cu7  1  0.66849232  0.47786081  0.33698465  1
  Dy  Dy8  1  0.87004552  0.87006877  0.74009104  1
  Dy  Dy9  1  0.12995448  0.12993123  0.25990896  1
  Dy  Dy10  1  0.00000000  0.50000000  0.00000000  1
