# generated using pymatgen
data_YbAlAu
_symmetry_space_group_name_H-M   'P 1'
_cell_length_a   4.48866244
_cell_length_b   7.17360427
_cell_length_c   7.92197494
_cell_angle_alpha   90.00000000
_cell_angle_beta   90.00000000
_cell_angle_gamma   90.00000000
_symmetry_Int_Tables_number   1
_chemical_formula_structural   YbAlAu
_chemical_formula_sum   'Yb4 Al4 Au4'
_cell_volume   255.08670617
_cell_formula_units_Z   4
loop_
 _symmetry_equiv_pos_site_id
 _symmetry_equiv_pos_as_xyz
  1  'x, y, z'
loop_
 _atom_site_type_symbol
 _atom_site_label
 _atom_site_symmetry_multiplicity
 _atom_site_fract_x
 _atom_site_fract_y
 _atom_site_fract_z
 _atom_site_occupancy
  Al  Al0  1  0.25000000  0.64134640  0.44116791  1
  Al  Al1  1  0.25000000  0.14134640  0.05883209  1
  Al  Al2  1  0.75000000  0.35865360  0.55883209  1
  Al  Al3  1  0.75000000  0.85865360  0.94116791  1
  Yb  Yb4  1  0.75000000  0.47257823  0.17556516  1
  Yb  Yb5  1  0.25000000  0.02742177  0.67556516  1
  Yb  Yb6  1  0.75000000  0.97257823  0.32443484  1
  Yb  Yb7  1  0.25000000  0.52742177  0.82443484  1
  Au  Au8  1  0.25000000  0.77900034  0.12821212  1
  Au  Au9  1  0.25000000  0.27900034  0.37178788  1
  Au  Au10  1  0.75000000  0.72099966  0.62821212  1
  Au  Au11  1  0.75000000  0.22099966  0.87178788  1
