# generated using pymatgen
data_Yb(Al5Fe)2
_symmetry_space_group_name_H-M   'P 1'
_cell_length_a   6.77209743
_cell_length_b   6.77209743
_cell_length_c   8.98420699
_cell_angle_alpha   90.00000000
_cell_angle_beta   90.00000000
_cell_angle_gamma   97.26446591
_symmetry_Int_Tables_number   1
_chemical_formula_structural   Yb(Al5Fe)2
_chemical_formula_sum   'Yb2 Al20 Fe4'
_cell_volume   408.72012355
_cell_formula_units_Z   2
loop_
 _symmetry_equiv_pos_site_id
 _symmetry_equiv_pos_as_xyz
  1  'x, y, z'
loop_
 _atom_site_type_symbol
 _atom_site_label
 _atom_site_symmetry_multiplicity
 _atom_site_fract_x
 _atom_site_fract_y
 _atom_site_fract_z
 _atom_site_occupancy
  Al  Al0  1  0.22705995  0.22705995  0.50000000  1
  Al  Al1  1  0.77294005  0.77294005  0.00000000  1
  Al  Al2  1  0.77294005  0.77294005  0.50000000  1
  Al  Al3  1  0.22705995  0.22705995  0.00000000  1
  Al  Al4  1  0.37445478  0.62554522  0.54673236  1
  Al  Al5  1  0.62554522  0.37445478  0.04673236  1
  Al  Al6  1  0.58555042  0.86777968  0.75000000  1
  Al  Al7  1  0.41444958  0.13222032  0.25000000  1
  Al  Al8  1  0.86777968  0.58555042  0.25000000  1
  Al  Al9  1  0.13222032  0.41444958  0.75000000  1
  Al  Al10  1  0.47444383  0.22024078  0.75000000  1
  Al  Al11  1  0.52555617  0.77975922  0.25000000  1
  Al  Al12  1  0.22024078  0.47444383  0.25000000  1
  Al  Al13  1  0.77975922  0.52555617  0.75000000  1
  Al  Al14  1  0.15801712  0.84198288  0.40337927  1
  Al  Al15  1  0.84198288  0.15801712  0.90337927  1
  Al  Al16  1  0.84198288  0.15801712  0.59662073  1
  Al  Al17  1  0.15801712  0.84198288  0.09662073  1
  Al  Al18  1  0.37445478  0.62554522  0.95326764  1
  Al  Al19  1  0.62554522  0.37445478  0.45326764  1
  Fe  Fe20  1  0.00000000  0.50000000  0.50000000  1
  Fe  Fe21  1  0.00000000  0.50000000  0.00000000  1
  Fe  Fe22  1  0.50000000  0.00000000  0.50000000  1
  Fe  Fe23  1  0.50000000  0.00000000  0.00000000  1
  Yb  Yb24  1  0.87750516  0.12249484  0.25000000  1
  Yb  Yb25  1  0.12249484  0.87750516  0.75000000  1
