# generated using pymatgen
data_H14C4NF3
_symmetry_space_group_name_H-M   'P 1'
_cell_length_a   8.61498223
_cell_length_b   11.41719580
_cell_length_c   15.09296199
_cell_angle_alpha   90.00000000
_cell_angle_beta   90.00000000
_cell_angle_gamma   90.00000000
_symmetry_Int_Tables_number   1
_chemical_formula_structural   H14C4NF3
_chemical_formula_sum   'H112 C32 N8 F24'
_cell_volume   1484.52772670
_cell_formula_units_Z   8
loop_
 _symmetry_equiv_pos_site_id
 _symmetry_equiv_pos_as_xyz
  1  'x, y, z'
loop_
 _atom_site_type_symbol
 _atom_site_label
 _atom_site_symmetry_multiplicity
 _atom_site_fract_x
 _atom_site_fract_y
 _atom_site_fract_z
 _atom_site_occupancy
  H  H0  1  0.26614011  0.61883469  0.03954430  1
  H  H1  1  0.67279817  0.47411760  0.13939550  1
  H  H2  1  0.04194594  0.86066358  0.42877937  1
  H  H3  1  0.53113172  0.85604236  0.19014292  1
  H  H4  1  0.95805406  0.36066358  0.07122063  1
  H  H5  1  0.45805406  0.13933642  0.92877937  1
  H  H6  1  0.36003067  0.22059623  0.61865223  1
  H  H7  1  0.87538955  0.26185794  0.62992712  1
  H  H8  1  0.76382422  0.61774698  0.93799923  1
  H  H9  1  0.37538955  0.26185794  0.87007288  1
  H  H10  1  0.03113172  0.85604236  0.30985708  1
  H  H11  1  0.87538955  0.23814206  0.12992712  1
  H  H12  1  0.61272569  0.22409416  0.51633032  1
  H  H13  1  0.67279817  0.02588240  0.63939550  1
  H  H14  1  0.25718531  0.61958757  0.68175200  1
  H  H15  1  0.13996933  0.72059623  0.61865223  1
  H  H16  1  0.36648608  0.71843905  0.26269872  1
  H  H17  1  0.04616874  0.40186196  0.70400824  1
  H  H18  1  0.09888113  0.42252933  0.90287097  1
  H  H19  1  0.24281469  0.11958757  0.68175200  1
  H  H20  1  0.36003067  0.27940377  0.11865223  1
  H  H21  1  0.02513277  0.10593067  0.04400271  1
  H  H22  1  0.25282757  0.37996916  0.69854655  1
  H  H23  1  0.45383126  0.59813804  0.20400824  1
  H  H24  1  0.76614011  0.88116531  0.96045570  1
  H  H25  1  0.09888113  0.07747067  0.40287097  1
  H  H26  1  0.24717243  0.62003084  0.19854655  1
  H  H27  1  0.88727431  0.77590584  0.01633032  1
  H  H28  1  0.53113172  0.64395764  0.69014292  1
  H  H29  1  0.97486723  0.60593067  0.45599729  1
  H  H30  1  0.11272569  0.27590584  0.48366968  1
  H  H31  1  0.47486723  0.89406933  0.54400271  1
  H  H32  1  0.97486723  0.89406933  0.95599729  1
  H  H33  1  0.12461045  0.73814206  0.37007288  1
  H  H34  1  0.76614011  0.61883469  0.46045570  1
  H  H35  1  0.24717243  0.87996916  0.69854655  1
  H  H36  1  0.59888113  0.42252933  0.59712903  1
  H  H37  1  0.63351392  0.28156095  0.73730128  1
  H  H38  1  0.90111887  0.57747067  0.09712903  1
  H  H39  1  0.82720183  0.97411760  0.13939550  1
  H  H40  1  0.63996933  0.77940377  0.38134777  1
  H  H41  1  0.23385989  0.11883469  0.03954430  1
  H  H42  1  0.13351392  0.28156095  0.76269872  1
  H  H43  1  0.63996933  0.72059623  0.88134777  1
  H  H44  1  0.86003067  0.22059623  0.88134777  1
  H  H45  1  0.73617578  0.38225302  0.43799923  1
  H  H46  1  0.13996933  0.77940377  0.11865223  1
  H  H47  1  0.26614011  0.88116531  0.53954430  1
  H  H48  1  0.04616874  0.09813804  0.20400824  1
  H  H49  1  0.95383126  0.90186196  0.79599176  1
  H  H50  1  0.17279817  0.02588240  0.86060450  1
  H  H51  1  0.46886828  0.14395764  0.80985708  1
  H  H52  1  0.24281469  0.38041243  0.18175200  1
  H  H53  1  0.40111887  0.92252933  0.90287097  1
  H  H54  1  0.38727431  0.72409416  0.98366968  1
  H  H55  1  0.74281469  0.11958757  0.81824800  1
  H  H56  1  0.54616874  0.09813804  0.29599176  1
  H  H57  1  0.54616874  0.40186196  0.79599176  1
  H  H58  1  0.45383126  0.90186196  0.70400824  1
  H  H59  1  0.75282757  0.37996916  0.80145345  1
  H  H60  1  0.26382422  0.61774698  0.56200077  1
  H  H61  1  0.52513277  0.39406933  0.95599729  1
  H  H62  1  0.76382422  0.88225302  0.43799923  1
  H  H63  1  0.38727431  0.77590584  0.48366968  1
  H  H64  1  0.73385989  0.11883469  0.46045570  1
  H  H65  1  0.25282757  0.12003084  0.19854655  1
  H  H66  1  0.95805406  0.13933642  0.57122063  1
  H  H67  1  0.96886828  0.14395764  0.69014292  1
  H  H68  1  0.13351392  0.21843905  0.26269872  1
  H  H69  1  0.36648608  0.78156095  0.76269872  1
  H  H70  1  0.61272569  0.27590584  0.01633032  1
  H  H71  1  0.25718531  0.88041243  0.18175200  1
  H  H72  1  0.74717243  0.62003084  0.30145345  1
  H  H73  1  0.03113172  0.64395764  0.80985708  1
  H  H74  1  0.75718531  0.88041243  0.31824800  1
  H  H75  1  0.95383126  0.59813804  0.29599176  1
  H  H76  1  0.40111887  0.57747067  0.40287097  1
  H  H77  1  0.75718531  0.61958757  0.81824800  1
  H  H78  1  0.32720183  0.52588240  0.86060450  1
  H  H79  1  0.32720183  0.97411760  0.36060450  1
  H  H80  1  0.23617578  0.38225302  0.06200077  1
  H  H81  1  0.45805406  0.36066358  0.42877937  1
  H  H82  1  0.54194594  0.86066358  0.07122063  1
  H  H83  1  0.59888113  0.07747067  0.09712903  1
  H  H84  1  0.47486723  0.60593067  0.04400271  1
  H  H85  1  0.11272569  0.22409416  0.98366968  1
  H  H86  1  0.54194594  0.63933642  0.57122063  1
  H  H87  1  0.86648608  0.78156095  0.73730128  1
  H  H88  1  0.73617578  0.11774698  0.93799923  1
  H  H89  1  0.62461045  0.76185794  0.62992712  1
  H  H90  1  0.73385989  0.38116531  0.96045570  1
  H  H91  1  0.63351392  0.21843905  0.23730128  1
  H  H92  1  0.86648608  0.71843905  0.23730128  1
  H  H93  1  0.52513277  0.10593067  0.45599729  1
  H  H94  1  0.88727431  0.72409416  0.51633032  1
  H  H95  1  0.12461045  0.76185794  0.87007288  1
  H  H96  1  0.75282757  0.12003084  0.30145345  1
  H  H97  1  0.02513277  0.39406933  0.54400271  1
  H  H98  1  0.04194594  0.63933642  0.92877937  1
  H  H99  1  0.37538955  0.23814206  0.37007288  1
  H  H100  1  0.74281469  0.38041243  0.31824800  1
  H  H101  1  0.23385989  0.38116531  0.53954430  1
  H  H102  1  0.23617578  0.11774698  0.56200077  1
  H  H103  1  0.62461045  0.73814206  0.12992712  1
  H  H104  1  0.82720183  0.52588240  0.63939550  1
  H  H105  1  0.74717243  0.87996916  0.80145345  1
  H  H106  1  0.46886828  0.35604236  0.30985708  1
  H  H107  1  0.26382422  0.88225302  0.06200077  1
  H  H108  1  0.86003067  0.27940377  0.38134777  1
  H  H109  1  0.96886828  0.35604236  0.19014292  1
  H  H110  1  0.90111887  0.92252933  0.59712903  1
  H  H111  1  0.17279817  0.47411760  0.36060450  1
  C  C112  1  0.12376628  0.33342058  0.54132405  1
  C  C113  1  0.37623372  0.66657942  0.04132405  1
  C  C114  1  0.87623372  0.83342058  0.95867595  1
  C  C115  1  0.63952789  0.33680794  0.79659340  1
  C  C116  1  0.36047211  0.66319206  0.20340660  1
  C  C117  1  0.74956508  0.82758243  0.37876471  1
  C  C118  1  0.12376628  0.16657942  0.04132405  1
  C  C119  1  0.46820217  0.30354437  0.37073869  1
  C  C120  1  0.24956508  0.82758243  0.12123529  1
  C  C121  1  0.53179783  0.69645563  0.62926131  1
  C  C122  1  0.62376628  0.16657942  0.45867595  1
  C  C123  1  0.96820217  0.30354437  0.12926131  1
  C  C124  1  0.75043492  0.32758243  0.37876471  1
  C  C125  1  0.86047211  0.66319206  0.29659340  1
  C  C126  1  0.03179783  0.69645563  0.87073869  1
  C  C127  1  0.87623372  0.66657942  0.45867595  1
  C  C128  1  0.53179783  0.80354437  0.12926131  1
  C  C129  1  0.13952789  0.33680794  0.70340660  1
  C  C130  1  0.86047211  0.83680794  0.79659340  1
  C  C131  1  0.74956508  0.67241757  0.87876471  1
  C  C132  1  0.13952789  0.16319206  0.20340660  1
  C  C133  1  0.37623372  0.83342058  0.54132405  1
  C  C134  1  0.75043492  0.17241757  0.87876471  1
  C  C135  1  0.36047211  0.83680794  0.70340660  1
  C  C136  1  0.25043492  0.32758243  0.12123529  1
  C  C137  1  0.24956508  0.67241757  0.62123529  1
  C  C138  1  0.62376628  0.33342058  0.95867595  1
  C  C139  1  0.03179783  0.80354437  0.37073869  1
  C  C140  1  0.46820217  0.19645563  0.87073869  1
  C  C141  1  0.25043492  0.17241757  0.62123529  1
  C  C142  1  0.96820217  0.19645563  0.62926131  1
  C  C143  1  0.63952789  0.16319206  0.29659340  1
  N  N144  1  0.12037275  0.24025586  0.12364598  1
  N  N145  1  0.87962725  0.75974414  0.87635402  1
  N  N146  1  0.87962725  0.74025586  0.37635402  1
  N  N147  1  0.37962725  0.74025586  0.12364598  1
  N  N148  1  0.62037275  0.25974414  0.87635402  1
  N  N149  1  0.62037275  0.24025586  0.37635402  1
  N  N150  1  0.12037275  0.25974414  0.62364598  1
  N  N151  1  0.37962725  0.75974414  0.62364598  1
  F  F152  1  0.38926861  0.58791473  0.82597849  1
  F  F153  1  0.51760907  0.59641703  0.40247182  1
  F  F154  1  0.01760907  0.90358297  0.59752818  1
  F  F155  1  0.11073139  0.08791473  0.82597849  1
  F  F156  1  0.25150713  0.05654555  0.40511461  1
  F  F157  1  0.24849287  0.94345445  0.90511461  1
  F  F158  1  0.38926861  0.91208527  0.32597849  1
  F  F159  1  0.51760907  0.90358297  0.90247182  1
  F  F160  1  0.98239093  0.40358297  0.90247182  1
  F  F161  1  0.24849287  0.55654555  0.40511461  1
  F  F162  1  0.48239093  0.09641703  0.09752818  1
  F  F163  1  0.74849287  0.55654555  0.09488539  1
  F  F164  1  0.48239093  0.40358297  0.59752818  1
  F  F165  1  0.88926861  0.58791473  0.67402151  1
  F  F166  1  0.01760907  0.59641703  0.09752818  1
  F  F167  1  0.11073139  0.41208527  0.32597849  1
  F  F168  1  0.74849287  0.94345445  0.59488539  1
  F  F169  1  0.75150713  0.44345445  0.59488539  1
  F  F170  1  0.25150713  0.44345445  0.90511461  1
  F  F171  1  0.98239093  0.09641703  0.40247182  1
  F  F172  1  0.75150713  0.05654555  0.09488539  1
  F  F173  1  0.61073139  0.08791473  0.67402151  1
  F  F174  1  0.61073139  0.41208527  0.17402151  1
  F  F175  1  0.88926861  0.91208527  0.17402151  1
