# generated using pymatgen
data_Er3FeSi3
_symmetry_space_group_name_H-M   'P 1'
_cell_length_a   4.13176630
_cell_length_b   5.59886541
_cell_length_c   12.66945993
_cell_angle_alpha   84.96993623
_cell_angle_beta   80.61544101
_cell_angle_gamma   68.34712322
_symmetry_Int_Tables_number   1
_chemical_formula_structural   Er3FeSi3
_chemical_formula_sum   'Er6 Fe2 Si6'
_cell_volume   268.63722970
_cell_formula_units_Z   2
loop_
 _symmetry_equiv_pos_site_id
 _symmetry_equiv_pos_as_xyz
  1  'x, y, z'
loop_
 _atom_site_type_symbol
 _atom_site_label
 _atom_site_symmetry_multiplicity
 _atom_site_fract_x
 _atom_site_fract_y
 _atom_site_fract_z
 _atom_site_occupancy
  Si  Si0  1  0.14397908  0.25543594  0.45660590  1
  Si  Si1  1  0.85602092  0.74456406  0.54339410  1
  Si  Si2  1  0.11401850  0.84739020  0.92457279  1
  Si  Si3  1  0.88598150  0.15260980  0.07542721  1
  Si  Si4  1  0.05483477  0.13244061  0.75788985  1
  Si  Si5  1  0.94516523  0.86755939  0.24211015  1
  Fe  Fe6  1  0.75314357  0.07827771  0.41543515  1
  Fe  Fe7  1  0.24685643  0.92172229  0.58456485  1
  Er  Er8  1  0.74845925  0.73298868  0.77009282  1
  Er  Er9  1  0.25154075  0.26701132  0.22990718  1
  Er  Er10  1  0.52382898  0.33184191  0.62050014  1
  Er  Er11  1  0.47617102  0.66815809  0.37949986  1
  Er  Er12  1  0.39887303  0.28306489  0.91918905  1
  Er  Er13  1  0.60112697  0.71693511  0.08081095  1
