# generated using pymatgen
data_YbIn2Rh
_symmetry_space_group_name_H-M   'P 1'
_cell_length_a   4.16863893
_cell_length_b   5.51372033
_cell_length_c   8.35568986
_cell_angle_alpha   90.00000000
_cell_angle_beta   90.00000000
_cell_angle_gamma   112.21134778
_symmetry_Int_Tables_number   1
_chemical_formula_structural   YbIn2Rh
_chemical_formula_sum   'Yb2 In4 Rh2'
_cell_volume   177.80194194
_cell_formula_units_Z   2
loop_
 _symmetry_equiv_pos_site_id
 _symmetry_equiv_pos_as_xyz
  1  'x, y, z'
loop_
 _atom_site_type_symbol
 _atom_site_label
 _atom_site_symmetry_multiplicity
 _atom_site_fract_x
 _atom_site_fract_y
 _atom_site_fract_z
 _atom_site_occupancy
  Rh  Rh0  1  0.78048388  0.56096777  0.75000000  1
  Rh  Rh1  1  0.21951612  0.43903223  0.25000000  1
  In  In2  1  0.35415456  0.70830913  0.54957469  1
  In  In3  1  0.64584544  0.29169087  0.45042531  1
  In  In4  1  0.35415456  0.70830913  0.95042531  1
  In  In5  1  0.64584544  0.29169087  0.04957469  1
  Yb  Yb6  1  0.93393788  0.86787575  0.25000000  1
  Yb  Yb7  1  0.06606212  0.13212425  0.75000000  1
