# generated using pymatgen
data_Tm3FeSi3
_symmetry_space_group_name_H-M   'P 1'
_cell_length_a   4.11690878
_cell_length_b   5.56723082
_cell_length_c   12.61698841
_cell_angle_alpha   84.92490045
_cell_angle_beta   80.61025237
_cell_angle_gamma   68.30012360
_symmetry_Int_Tables_number   1
_chemical_formula_structural   Tm3FeSi3
_chemical_formula_sum   'Tm6 Fe2 Si6'
_cell_volume   264.96057484
_cell_formula_units_Z   2
loop_
 _symmetry_equiv_pos_site_id
 _symmetry_equiv_pos_as_xyz
  1  'x, y, z'
loop_
 _atom_site_type_symbol
 _atom_site_label
 _atom_site_symmetry_multiplicity
 _atom_site_fract_x
 _atom_site_fract_y
 _atom_site_fract_z
 _atom_site_occupancy
  Si  Si0  1  0.14278990  0.25772112  0.45669908  1
  Si  Si1  1  0.85721010  0.74227888  0.54330092  1
  Si  Si2  1  0.11474845  0.84583437  0.92466874  1
  Si  Si3  1  0.88525155  0.15416563  0.07533126  1
  Si  Si4  1  0.05434412  0.13331435  0.75799741  1
  Si  Si5  1  0.94565588  0.86668565  0.24200259  1
  Fe  Fe6  1  0.75279214  0.07914672  0.41526900  1
  Fe  Fe7  1  0.24720786  0.92085328  0.58473100  1
  Tm  Tm8  1  0.74860158  0.73261687  0.77017998  1
  Tm  Tm9  1  0.25139842  0.26738313  0.22982002  1
  Tm  Tm10  1  0.52385217  0.33173693  0.62055872  1
  Tm  Tm11  1  0.47614783  0.66826307  0.37944128  1
  Tm  Tm12  1  0.39908012  0.28273870  0.91910105  1
  Tm  Tm13  1  0.60091988  0.71726130  0.08089895  1
