# generated using pymatgen
data_ThCu6
_symmetry_space_group_name_H-M   'P 1'
_cell_length_a   5.22667791
_cell_length_b   8.11836190
_cell_length_c   9.87571424
_cell_angle_alpha   89.97922977
_cell_angle_beta   90.14952615
_cell_angle_gamma   89.79332052
_symmetry_Int_Tables_number   1
_chemical_formula_structural   ThCu6
_chemical_formula_sum   'Th4 Cu24'
_cell_volume   419.04274468
_cell_formula_units_Z   4
loop_
 _symmetry_equiv_pos_site_id
 _symmetry_equiv_pos_as_xyz
  1  'x, y, z'
loop_
 _atom_site_type_symbol
 _atom_site_label
 _atom_site_symmetry_multiplicity
 _atom_site_fract_x
 _atom_site_fract_y
 _atom_site_fract_z
 _atom_site_occupancy
  Th  Th0  1  0.74779665  0.24402597  0.05808118  1
  Th  Th1  1  0.75249177  0.74396855  0.44178735  1
  Th  Th2  1  0.25224840  0.75609540  0.94193153  1
  Th  Th3  1  0.24709696  0.25589908  0.55827617  1
  Cu  Cu4  1  0.74356725  0.43384662  0.59442437  1
  Cu  Cu5  1  0.75207713  0.93365210  0.90550694  1
  Cu  Cu6  1  0.25621059  0.56588680  0.40554665  1
  Cu  Cu7  1  0.24790030  0.06642485  0.09456959  1
  Cu  Cu8  1  0.74860208  0.68526004  0.74063694  1
  Cu  Cu9  1  0.75300148  0.18502666  0.75940810  1
  Cu  Cu10  1  0.25205030  0.31469727  0.25924682  1
  Cu  Cu11  1  0.24646789  0.81491748  0.24067680  1
  Cu  Cu12  1  0.74859191  0.84786318  0.14842897  1
  Cu  Cu13  1  0.74693005  0.34758466  0.35168415  1
  Cu  Cu14  1  0.25184433  0.15226030  0.85164028  1
  Cu  Cu15  1  0.25322667  0.65244104  0.64826176  1
  Cu  Cu16  1  0.75397240  0.60679669  0.98180442  1
  Cu  Cu17  1  0.74797134  0.10684535  0.51839105  1
  Cu  Cu18  1  0.24628438  0.39336409  0.01811081  1
  Cu  Cu19  1  0.25162479  0.89314558  0.48163152  1
  Cu  Cu20  1  0.00988514  0.93759117  0.69109326  1
  Cu  Cu21  1  0.49172242  0.43827991  0.80997391  1
  Cu  Cu22  1  0.50849996  0.05972851  0.30856859  1
  Cu  Cu23  1  0.99018821  0.55996309  0.19276455  1
  Cu  Cu24  1  0.99008165  0.06260253  0.30897791  1
  Cu  Cu25  1  0.50838197  0.56196152  0.18990043  1
  Cu  Cu26  1  0.49143332  0.94002466  0.69147823  1
  Cu  Cu27  1  0.00985066  0.43984691  0.80719773  1
