# generated using pymatgen
data_SmAlSi
_symmetry_space_group_name_H-M   'P 1'
_cell_length_a   4.17956414
_cell_length_b   4.17956414
_cell_length_c   7.84717690
_cell_angle_alpha   105.44481073
_cell_angle_beta   105.44481076
_cell_angle_gamma   90.00000003
_symmetry_Int_Tables_number   1
_chemical_formula_structural   SmAlSi
_chemical_formula_sum   'Sm2 Al2 Si2'
_cell_volume   126.98693402
_cell_formula_units_Z   2
loop_
 _symmetry_equiv_pos_site_id
 _symmetry_equiv_pos_as_xyz
  1  'x, y, z'
loop_
 _atom_site_type_symbol
 _atom_site_label
 _atom_site_symmetry_multiplicity
 _atom_site_fract_x
 _atom_site_fract_y
 _atom_site_fract_z
 _atom_site_occupancy
  Al  Al0  1  0.91328445  0.41328445  0.82656890  1
  Al  Al1  1  0.16328445  0.16328445  0.32656890  1
  Si  Si2  1  0.99768044  0.99768044  0.99536087  1
  Si  Si3  1  0.74768044  0.24768044  0.49536087  1
  Sm  Sm4  1  0.32943511  0.82943511  0.65887022  1
  Sm  Sm5  1  0.57943511  0.57943511  0.15887022  1
