# generated using pymatgen
data_Ba3CrN3
_symmetry_space_group_name_H-M   'P 1'
_cell_length_a   8.43191770
_cell_length_b   8.43191770
_cell_length_c   5.49928800
_cell_angle_alpha   90.00000000
_cell_angle_beta   90.00000000
_cell_angle_gamma   120.00000000
_symmetry_Int_Tables_number   1
_chemical_formula_structural   Ba3CrN3
_chemical_formula_sum   'Ba6 Cr2 N6'
_cell_volume   338.60223000
_cell_formula_units_Z   2
loop_
 _symmetry_equiv_pos_site_id
 _symmetry_equiv_pos_as_xyz
  1  'x, y, z'
loop_
 _atom_site_type_symbol
 _atom_site_label
 _atom_site_symmetry_multiplicity
 _atom_site_fract_x
 _atom_site_fract_y
 _atom_site_fract_z
 _atom_site_occupancy
  N  N0  1  0.54503423  0.68090510  0.25000000  1
  N  N1  1  0.86412913  0.54503423  0.75000000  1
  N  N2  1  0.68090510  0.13587087  0.75000000  1
  N  N3  1  0.31909490  0.86412913  0.25000000  1
  N  N4  1  0.13587087  0.45496577  0.25000000  1
  N  N5  1  0.45496577  0.31909490  0.75000000  1
  Cr  Cr6  1  0.66666667  0.33333333  0.75000000  1
  Cr  Cr7  1  0.33333333  0.66666667  0.25000000  1
  Ba  Ba8  1  0.63737669  0.71558447  0.75000000  1
  Ba  Ba9  1  0.92179222  0.63737669  0.25000000  1
  Ba  Ba10  1  0.71558447  0.07820778  0.25000000  1
  Ba  Ba11  1  0.28441553  0.92179222  0.75000000  1
  Ba  Ba12  1  0.07820778  0.36262331  0.75000000  1
  Ba  Ba13  1  0.36262331  0.28441553  0.25000000  1
