# generated using pymatgen
data_HoSi
_symmetry_space_group_name_H-M   'P 1'
_cell_length_a   3.82029352
_cell_length_b   5.66803324
_cell_length_c   7.87121675
_cell_angle_alpha   90.00000000
_cell_angle_beta   90.00000000
_cell_angle_gamma   90.00000000
_symmetry_Int_Tables_number   1
_chemical_formula_structural   HoSi
_chemical_formula_sum   'Ho4 Si4'
_cell_volume   170.43979064
_cell_formula_units_Z   4
loop_
 _symmetry_equiv_pos_site_id
 _symmetry_equiv_pos_as_xyz
  1  'x, y, z'
loop_
 _atom_site_type_symbol
 _atom_site_label
 _atom_site_symmetry_multiplicity
 _atom_site_fract_x
 _atom_site_fract_y
 _atom_site_fract_z
 _atom_site_occupancy
  Si  Si0  1  0.25000000  0.63034256  0.96165411  1
  Si  Si1  1  0.75000000  0.36965744  0.03834589  1
  Si  Si2  1  0.75000000  0.13034256  0.53834589  1
  Si  Si3  1  0.25000000  0.86965744  0.46165411  1
  Ho  Ho4  1  0.25000000  0.11483267  0.82069459  1
  Ho  Ho5  1  0.75000000  0.88516733  0.17930541  1
  Ho  Ho6  1  0.75000000  0.61483267  0.67930541  1
  Ho  Ho7  1  0.25000000  0.38516733  0.32069459  1
