# generated using pymatgen
data_Sr2YSbO6
_symmetry_space_group_name_H-M   'P 1'
_cell_length_a   5.86665572
_cell_length_b   5.93425488
_cell_length_c   8.33181857
_cell_angle_alpha   90.00000000
_cell_angle_beta   89.76809818
_cell_angle_gamma   90.00000000
_symmetry_Int_Tables_number   1
_chemical_formula_structural   Sr2YSbO6
_chemical_formula_sum   'Sr4 Y2 Sb2 O12'
_cell_volume   290.06347485
_cell_formula_units_Z   2
loop_
 _symmetry_equiv_pos_site_id
 _symmetry_equiv_pos_as_xyz
  1  'x, y, z'
loop_
 _atom_site_type_symbol
 _atom_site_label
 _atom_site_symmetry_multiplicity
 _atom_site_fract_x
 _atom_site_fract_y
 _atom_site_fract_z
 _atom_site_occupancy
  O  O0  1  0.07857551  0.52284336  0.23524672  1
  O  O1  1  0.42142449  0.02284336  0.26475328  1
  O  O2  1  0.92142449  0.47715664  0.76475328  1
  O  O3  1  0.57857551  0.97715664  0.73524672  1
  O  O4  1  0.77281219  0.19958238  0.45974205  1
  O  O5  1  0.72718781  0.69958238  0.04025795  1
  O  O6  1  0.22718781  0.80041762  0.54025795  1
  O  O7  1  0.27281219  0.30041762  0.95974205  1
  O  O8  1  0.19632125  0.77377609  0.95681123  1
  O  O9  1  0.30367875  0.27377609  0.54318877  1
  O  O10  1  0.80367875  0.22622391  0.04318877  1
  O  O11  1  0.69632125  0.72622391  0.45681123  1
  Sr  Sr12  1  0.99161814  0.96501412  0.24964769  1
  Sr  Sr13  1  0.50838186  0.46501412  0.25035231  1
  Sr  Sr14  1  0.00838186  0.03498588  0.75035231  1
  Sr  Sr15  1  0.49161814  0.53498588  0.74964769  1
  Y  Y16  1  0.00000000  0.50000000  0.50000000  1
  Y  Y17  1  0.50000000  0.00000000  0.00000000  1
  Sb  Sb18  1  0.50000000  0.00000000  0.50000000  1
  Sb  Sb19  1  0.00000000  0.50000000  0.00000000  1
