# generated using pymatgen
data_PtC2(ClO)2
_symmetry_space_group_name_H-M   'P 1'
_cell_length_a   6.74447463
_cell_length_b   7.26818619
_cell_length_c   12.98817448
_cell_angle_alpha   90.00000000
_cell_angle_beta   90.00000000
_cell_angle_gamma   104.99440715
_symmetry_Int_Tables_number   1
_chemical_formula_structural   PtC2(ClO)2
_chemical_formula_sum   'Pt4 C8 Cl8 O8'
_cell_volume   615.00326092
_cell_formula_units_Z   4
loop_
 _symmetry_equiv_pos_site_id
 _symmetry_equiv_pos_as_xyz
  1  'x, y, z'
loop_
 _atom_site_type_symbol
 _atom_site_label
 _atom_site_symmetry_multiplicity
 _atom_site_fract_x
 _atom_site_fract_y
 _atom_site_fract_z
 _atom_site_occupancy
  Pt  Pt0  1  0.77999183  0.89081802  0.77032942  1
  Pt  Pt1  1  0.22000817  0.10918198  0.22967058  1
  Pt  Pt2  1  0.27999183  0.89081802  0.72967058  1
  Pt  Pt3  1  0.72000817  0.10918198  0.27032942  1
  C  C4  1  0.72861466  0.70517028  0.87700736  1
  C  C5  1  0.83772571  0.10595400  0.85960486  1
  C  C6  1  0.27138534  0.29482972  0.12299264  1
  C  C7  1  0.66227429  0.89404600  0.35960486  1
  C  C8  1  0.22861466  0.70517028  0.62299264  1
  C  C9  1  0.77138534  0.29482972  0.37700736  1
  C  C10  1  0.33772571  0.10595400  0.64039514  1
  C  C11  1  0.16227429  0.89404600  0.14039514  1
  Cl  Cl12  1  0.66062411  0.89472497  0.13289010  1
  Cl  Cl13  1  0.28541937  0.36415270  0.34361456  1
  Cl  Cl14  1  0.78541937  0.36415270  0.15638544  1
  Cl  Cl15  1  0.33937589  0.10527503  0.86710990  1
  Cl  Cl16  1  0.71458063  0.63584730  0.65638544  1
  Cl  Cl17  1  0.16062411  0.89472497  0.36710990  1
  Cl  Cl18  1  0.21458063  0.63584730  0.84361456  1
  Cl  Cl19  1  0.83937589  0.10527503  0.63289010  1
  O  O20  1  0.19790041  0.59051163  0.56033611  1
  O  O21  1  0.80209959  0.40948837  0.43966389  1
  O  O22  1  0.69790041  0.59051163  0.93966389  1
  O  O23  1  0.62589644  0.76311411  0.41227801  1
  O  O24  1  0.87410356  0.23688589  0.91227801  1
  O  O25  1  0.12589644  0.76311411  0.08772199  1
  O  O26  1  0.37410356  0.23688589  0.58772199  1
  O  O27  1  0.30209959  0.40948837  0.06033611  1
