# generated using pymatgen
data_NdAl4Co
_symmetry_space_group_name_H-M   'P 1'
_cell_length_a   4.03574122
_cell_length_b   6.88399221
_cell_length_c   7.68983020
_cell_angle_alpha   90.00000000
_cell_angle_beta   90.00000000
_cell_angle_gamma   90.00000000
_symmetry_Int_Tables_number   1
_chemical_formula_structural   NdAl4Co
_chemical_formula_sum   'Nd2 Al8 Co2'
_cell_volume   213.63894813
_cell_formula_units_Z   2
loop_
 _symmetry_equiv_pos_site_id
 _symmetry_equiv_pos_as_xyz
  1  'x, y, z'
loop_
 _atom_site_type_symbol
 _atom_site_label
 _atom_site_symmetry_multiplicity
 _atom_site_fract_x
 _atom_site_fract_y
 _atom_site_fract_z
 _atom_site_occupancy
  Al  Al0  1  0.00000000  0.00000000  0.50000000  1
  Al  Al1  1  0.00000000  0.00000000  0.00000000  1
  Al  Al2  1  0.50000000  0.04169041  0.75000000  1
  Al  Al3  1  0.50000000  0.95830959  0.25000000  1
  Al  Al4  1  0.50000000  0.30066197  0.07069713  1
  Al  Al5  1  0.50000000  0.69933803  0.92930287  1
  Al  Al6  1  0.50000000  0.30066197  0.42930287  1
  Al  Al7  1  0.50000000  0.69933803  0.57069713  1
  Co  Co8  1  0.00000000  0.81628410  0.75000000  1
  Co  Co9  1  0.00000000  0.18371590  0.25000000  1
  Nd  Nd10  1  0.00000000  0.38336127  0.75000000  1
  Nd  Nd11  1  0.00000000  0.61663873  0.25000000  1
