# generated using pymatgen
data_ZrU3Sb5
_symmetry_space_group_name_H-M   'P 1'
_cell_length_a   9.24683055
_cell_length_b   9.24683055
_cell_length_c   6.19408316
_cell_angle_alpha   90.00000000
_cell_angle_beta   90.00000000
_cell_angle_gamma   120.00000003
_symmetry_Int_Tables_number   1
_chemical_formula_structural   ZrU3Sb5
_chemical_formula_sum   'Zr2 U6 Sb10'
_cell_volume   458.66274065
_cell_formula_units_Z   2
loop_
 _symmetry_equiv_pos_site_id
 _symmetry_equiv_pos_as_xyz
  1  'x, y, z'
loop_
 _atom_site_type_symbol
 _atom_site_label
 _atom_site_symmetry_multiplicity
 _atom_site_fract_x
 _atom_site_fract_y
 _atom_site_fract_z
 _atom_site_occupancy
  Zr  Zr0  1  0.00000000  0.00000000  0.00000000  1
  Zr  Zr1  1  0.00000000  0.00000000  0.50000000  1
  Sb  Sb2  1  0.66666667  0.33333333  0.50000000  1
  Sb  Sb3  1  0.33333333  0.66666667  0.00000000  1
  Sb  Sb4  1  0.72812928  0.00000000  0.75000000  1
  Sb  Sb5  1  0.72812928  0.72812928  0.25000000  1
  Sb  Sb6  1  0.33333333  0.66666667  0.50000000  1
  Sb  Sb7  1  0.66666667  0.33333333  0.00000000  1
  Sb  Sb8  1  0.27187072  0.00000000  0.25000000  1
  Sb  Sb9  1  0.27187072  0.27187072  0.75000000  1
  Sb  Sb10  1  0.00000000  0.72812928  0.75000000  1
  Sb  Sb11  1  0.00000000  0.27187072  0.25000000  1
  U  U12  1  0.38716685  0.00000000  0.75000000  1
  U  U13  1  0.38716685  0.38716685  0.25000000  1
  U  U14  1  0.00000000  0.61283315  0.25000000  1
  U  U15  1  0.00000000  0.38716685  0.75000000  1
  U  U16  1  0.61283315  0.61283315  0.75000000  1
  U  U17  1  0.61283315  0.00000000  0.25000000  1
