# generated using pymatgen
data_Tb2Si5Rh3
_symmetry_space_group_name_H-M   'P 1'
_cell_length_a   5.70266748
_cell_length_b   8.13351579
_cell_length_c   8.13351579
_cell_angle_alpha   93.65234622
_cell_angle_beta   108.82570660
_cell_angle_gamma   108.82570665
_symmetry_Int_Tables_number   1
_chemical_formula_structural   Tb2Si5Rh3
_chemical_formula_sum   'Tb4 Si10 Rh6'
_cell_volume   331.98786114
_cell_formula_units_Z   2
loop_
 _symmetry_equiv_pos_site_id
 _symmetry_equiv_pos_as_xyz
  1  'x, y, z'
loop_
 _atom_site_type_symbol
 _atom_site_label
 _atom_site_symmetry_multiplicity
 _atom_site_fract_x
 _atom_site_fract_y
 _atom_site_fract_z
 _atom_site_occupancy
  Si  Si0  1  0.16118395  0.05763843  0.26638859  1
  Si  Si1  1  0.33881605  0.73361141  0.94236157  1
  Si  Si2  1  0.83881605  0.94236157  0.73361141  1
  Si  Si3  1  0.66118395  0.26638859  0.05763843  1
  Si  Si4  1  0.25000000  0.51217142  0.48782858  1
  Si  Si5  1  0.75000000  0.48782858  0.51217142  1
  Si  Si6  1  0.25000000  0.77607955  0.22392045  1
  Si  Si7  1  0.75000000  0.79000945  0.20999055  1
  Si  Si8  1  0.25000000  0.20999055  0.79000945  1
  Si  Si9  1  0.75000000  0.22392045  0.77607955  1
  Rh  Rh10  1  0.75000000  0.99794237  0.00205763  1
  Rh  Rh11  1  0.12657505  0.46014343  0.73920034  1
  Rh  Rh12  1  0.62657505  0.73920034  0.46014343  1
  Rh  Rh13  1  0.87342495  0.53985657  0.26079966  1
  Rh  Rh14  1  0.25000000  0.00205763  0.99794237  1
  Rh  Rh15  1  0.37342495  0.26079966  0.53985657  1
  Tb  Tb16  1  0.24043523  0.86720283  0.59910472  1
  Tb  Tb17  1  0.25956477  0.40089528  0.13279717  1
  Tb  Tb18  1  0.75956477  0.13279717  0.40089528  1
  Tb  Tb19  1  0.74043523  0.59910472  0.86720283  1
