# generated using pymatgen
data_YbGa4Ni
_symmetry_space_group_name_H-M   'P 1'
_cell_length_a   4.11302700
_cell_length_b   6.58927259
_cell_length_c   7.87949315
_cell_angle_alpha   90.00000000
_cell_angle_beta   105.12914916
_cell_angle_gamma   90.00000000
_symmetry_Int_Tables_number   1
_chemical_formula_structural   YbGa4Ni
_chemical_formula_sum   'Yb2 Ga8 Ni2'
_cell_volume   206.14727943
_cell_formula_units_Z   2
loop_
 _symmetry_equiv_pos_site_id
 _symmetry_equiv_pos_as_xyz
  1  'x, y, z'
loop_
 _atom_site_type_symbol
 _atom_site_label
 _atom_site_symmetry_multiplicity
 _atom_site_fract_x
 _atom_site_fract_y
 _atom_site_fract_z
 _atom_site_occupancy
  Yb  Yb0  1  0.87647159  0.75000000  0.75294317  1
  Yb  Yb1  1  0.12352841  0.25000000  0.24705683  1
  Ga  Ga2  1  0.50000000  0.50000000  -0.00000000  1
  Ga  Ga3  1  0.50000000  -0.00000000  -0.00000000  1
  Ga  Ga4  1  0.06950661  0.75000000  0.13901322  1
  Ga  Ga5  1  0.93049339  0.25000000  0.86098678  1
  Ga  Ga6  1  0.68548271  0.55154010  0.37096542  1
  Ga  Ga7  1  0.31451729  0.44845990  0.62903458  1
  Ga  Ga8  1  0.68548271  0.94845990  0.37096542  1
  Ga  Ga9  1  0.31451729  0.05154010  0.62903458  1
  Ni  Ni10  1  0.22445557  0.75000000  0.44891115  1
  Ni  Ni11  1  0.77554443  0.25000000  0.55108885  1
