# generated using pymatgen
data_Hf5Te4
_symmetry_space_group_name_H-M   'P 1'
_cell_length_a   3.78323882
_cell_length_b   7.84586608
_cell_length_c   7.84586608
_cell_angle_alpha   86.66762977
_cell_angle_beta   76.04866986
_cell_angle_gamma   76.04866986
_symmetry_Int_Tables_number   1
_chemical_formula_structural   Hf5Te4
_chemical_formula_sum   'Hf5 Te4'
_cell_volume   219.34988093
_cell_formula_units_Z   1
loop_
 _symmetry_equiv_pos_site_id
 _symmetry_equiv_pos_as_xyz
  1  'x, y, z'
loop_
 _atom_site_type_symbol
 _atom_site_label
 _atom_site_symmetry_multiplicity
 _atom_site_fract_x
 _atom_site_fract_y
 _atom_site_fract_z
 _atom_site_occupancy
  Te  Te0  1  0.94812631  0.76628304  0.33746434  1
  Te  Te1  1  0.28559065  0.66253566  0.76628304  1
  Te  Te2  1  0.71440935  0.33746434  0.23371696  1
  Te  Te3  1  0.05187369  0.23371696  0.66253566  1
  Hf  Hf4  1  0.68938187  0.94208911  0.67914714  1
  Hf  Hf5  1  0.36852902  0.32085286  0.94208911  1
  Hf  Hf6  1  0.63147098  0.67914714  0.05791089  1
  Hf  Hf7  1  0.31061813  0.05791089  0.32085286  1
  Hf  Hf8  1  0.00000000  0.00000000  0.00000000  1
