# generated using pymatgen
data_TbTaO4
_symmetry_space_group_name_H-M   'P 1'
_cell_length_a   5.17112769
_cell_length_b   5.36299321
_cell_length_c   5.53512175
_cell_angle_alpha   90.00000000
_cell_angle_beta   90.00000000
_cell_angle_gamma   96.65590776
_symmetry_Int_Tables_number   1
_chemical_formula_structural   TbTaO4
_chemical_formula_sum   'Tb2 Ta2 O8'
_cell_volume   152.46940089
_cell_formula_units_Z   2
loop_
 _symmetry_equiv_pos_site_id
 _symmetry_equiv_pos_as_xyz
  1  'x, y, z'
loop_
 _atom_site_type_symbol
 _atom_site_label
 _atom_site_symmetry_multiplicity
 _atom_site_fract_x
 _atom_site_fract_y
 _atom_site_fract_z
 _atom_site_occupancy
  O  O0  1  0.73058453  0.00558196  0.56408829  1
  O  O1  1  0.26941547  0.49441804  0.56408829  1
  O  O2  1  0.26941547  0.99441804  0.43591171  1
  O  O3  1  0.73058453  0.50558196  0.43591171  1
  O  O4  1  0.25047138  0.60202078  0.08663228  1
  O  O5  1  0.74952862  0.89797922  0.08663228  1
  O  O6  1  0.74952862  0.39797922  0.91336772  1
  O  O7  1  0.25047138  0.10202078  0.91336772  1
  Tb  Tb8  1  0.00000000  0.75000000  0.76661798  1
  Tb  Tb9  1  0.00000000  0.25000000  0.23338202  1
  Ta  Ta10  1  0.50000000  0.25000000  0.69211957  1
  Ta  Ta11  1  0.50000000  0.75000000  0.30788043  1
