# generated using pymatgen
data_PrPIr
_symmetry_space_group_name_H-M   'P 1'
_cell_length_a   4.14219698
_cell_length_b   4.14219699
_cell_length_c   7.71949214
_cell_angle_alpha   105.56281408
_cell_angle_beta   105.56281413
_cell_angle_gamma   89.99999999
_symmetry_Int_Tables_number   1
_chemical_formula_structural   PrPIr
_chemical_formula_sum   'Pr2 P2 Ir2'
_cell_volume   122.54517868
_cell_formula_units_Z   2
loop_
 _symmetry_equiv_pos_site_id
 _symmetry_equiv_pos_as_xyz
  1  'x, y, z'
loop_
 _atom_site_type_symbol
 _atom_site_label
 _atom_site_symmetry_multiplicity
 _atom_site_fract_x
 _atom_site_fract_y
 _atom_site_fract_z
 _atom_site_occupancy
  P  P0  1  0.32966760  0.82966760  0.65933520  1
  P  P1  1  0.57966760  0.57966760  0.15933520  1
  Pr  Pr2  1  0.75106421  0.25106421  0.50212841  1
  Pr  Pr3  1  0.00106421  0.00106421  0.00212841  1
  Ir  Ir4  1  0.41228819  0.41228819  0.82457639  1
  Ir  Ir5  1  0.16228819  0.66228819  0.32457639  1
