# generated using pymatgen
data_Ba5Fe4S11
_symmetry_space_group_name_H-M   'P 1'
_cell_length_a   7.30486293
_cell_length_b   8.79706212
_cell_length_c   15.96531003
_cell_angle_alpha   90.00000000
_cell_angle_beta   90.00000000
_cell_angle_gamma   90.00000000
_symmetry_Int_Tables_number   1
_chemical_formula_structural   Ba5Fe4S11
_chemical_formula_sum   'Ba10 Fe8 S22'
_cell_volume   1025.95210386
_cell_formula_units_Z   2
loop_
 _symmetry_equiv_pos_site_id
 _symmetry_equiv_pos_as_xyz
  1  'x, y, z'
loop_
 _atom_site_type_symbol
 _atom_site_label
 _atom_site_symmetry_multiplicity
 _atom_site_fract_x
 _atom_site_fract_y
 _atom_site_fract_z
 _atom_site_occupancy
  Ba  Ba0  1  0.02538862  0.25152265  0.50000000  1
  Ba  Ba1  1  0.02148957  0.37024606  0.80319382  1
  Ba  Ba2  1  0.97851043  0.87024606  0.69680618  1
  Ba  Ba3  1  0.02148957  0.37024606  0.19680618  1
  Ba  Ba4  1  0.53115704  0.49044123  0.67262686  1
  Ba  Ba5  1  0.97461138  0.75152265  0.00000000  1
  Ba  Ba6  1  0.53115704  0.49044123  0.32737314  1
  Ba  Ba7  1  0.97851043  0.87024606  0.30319382  1
  Ba  Ba8  1  0.46884296  0.99044123  0.17262686  1
  Ba  Ba9  1  0.46884296  0.99044123  0.82737314  1
  Fe  Fe10  1  0.05416258  0.63724463  0.50000000  1
  Fe  Fe11  1  0.94583742  0.13724463  0.00000000  1
  Fe  Fe12  1  0.48212640  0.59618676  0.11202902  1
  Fe  Fe13  1  0.51787360  0.09618676  0.38797098  1
  Fe  Fe14  1  0.51787360  0.09618676  0.61202902  1
  Fe  Fe15  1  0.62294089  0.30317989  0.00000000  1
  Fe  Fe16  1  0.37705911  0.80317989  0.50000000  1
  Fe  Fe17  1  0.48212640  0.59618676  0.88797098  1
  S  S18  1  0.74341176  0.16681873  0.69649826  1
  S  S19  1  0.05891448  0.04153848  0.11839166  1
  S  S20  1  0.58224290  0.23966254  0.50000000  1
  S  S21  1  0.74341176  0.16681873  0.30350174  1
  S  S22  1  0.74217533  0.67671641  0.17083624  1
  S  S23  1  0.25658824  0.66681873  0.80350174  1
  S  S24  1  0.08976458  0.89162465  0.50000000  1
  S  S25  1  0.46848517  0.34146484  0.11822158  1
  S  S26  1  0.65487049  0.05684064  0.00000000  1
  S  S27  1  0.53151483  0.84146484  0.61822158  1
  S  S28  1  0.94108552  0.54153848  0.38160834  1
  S  S29  1  0.25782467  0.17671641  0.32916376  1
  S  S30  1  0.25782467  0.17671641  0.67083624  1
  S  S31  1  0.34512951  0.55684064  0.50000000  1
  S  S32  1  0.91023542  0.39162465  0.00000000  1
  S  S33  1  0.25658824  0.66681873  0.19649826  1
  S  S34  1  0.74217533  0.67671641  0.82916376  1
  S  S35  1  0.94108552  0.54153848  0.61839166  1
  S  S36  1  0.05891448  0.04153848  0.88160834  1
  S  S37  1  0.53151483  0.84146484  0.38177842  1
  S  S38  1  0.41775710  0.73966254  0.00000000  1
  S  S39  1  0.46848517  0.34146484  0.88177842  1
