# generated using pymatgen
data_NdPIr
_symmetry_space_group_name_H-M   'P 1'
_cell_length_a   4.11381235
_cell_length_b   4.11381235
_cell_length_c   7.70717159
_cell_angle_alpha   105.47881784
_cell_angle_beta   105.47881786
_cell_angle_gamma   90.00000003
_symmetry_Int_Tables_number   1
_chemical_formula_structural   NdPIr
_chemical_formula_sum   'Nd2 P2 Ir2'
_cell_volume   120.78504733
_cell_formula_units_Z   2
loop_
 _symmetry_equiv_pos_site_id
 _symmetry_equiv_pos_as_xyz
  1  'x, y, z'
loop_
 _atom_site_type_symbol
 _atom_site_label
 _atom_site_symmetry_multiplicity
 _atom_site_fract_x
 _atom_site_fract_y
 _atom_site_fract_z
 _atom_site_occupancy
  P  P0  1  0.32926645  0.82926645  0.65853289  1
  P  P1  1  0.57926645  0.57926645  0.15853289  1
  Nd  Nd2  1  0.75117553  0.25117553  0.50235106  1
  Nd  Nd3  1  0.00117553  0.00117553  0.00235106  1
  Ir  Ir4  1  0.41225802  0.41225802  0.82451605  1
  Ir  Ir5  1  0.16225802  0.66225802  0.32451605  1
