# generated using pymatgen
data_TmTaO4
_symmetry_space_group_name_H-M   'P 1'
_cell_length_a   5.10296435
_cell_length_b   5.28599491
_cell_length_c   5.48378724
_cell_angle_alpha   90.00000000
_cell_angle_beta   90.00000000
_cell_angle_gamma   96.18015453
_symmetry_Int_Tables_number   1
_chemical_formula_structural   TmTaO4
_chemical_formula_sum   'Tm2 Ta2 O8'
_cell_volume   147.06134195
_cell_formula_units_Z   2
loop_
 _symmetry_equiv_pos_site_id
 _symmetry_equiv_pos_as_xyz
  1  'x, y, z'
loop_
 _atom_site_type_symbol
 _atom_site_label
 _atom_site_symmetry_multiplicity
 _atom_site_fract_x
 _atom_site_fract_y
 _atom_site_fract_z
 _atom_site_occupancy
  O  O0  1  0.73295001  0.00060813  0.56711312  1
  O  O1  1  0.26704999  0.49939187  0.56711312  1
  O  O2  1  0.26704999  0.99939187  0.43288688  1
  O  O3  1  0.73295001  0.50060813  0.43288688  1
  O  O4  1  0.24700271  0.59612419  0.08421758  1
  O  O5  1  0.75299729  0.90387581  0.08421758  1
  O  O6  1  0.75299729  0.40387581  0.91578242  1
  O  O7  1  0.24700271  0.09612419  0.91578242  1
  Tm  Tm8  1  0.00000000  0.75000000  0.76933581  1
  Tm  Tm9  1  0.00000000  0.25000000  0.23066419  1
  Ta  Ta10  1  0.50000000  0.25000000  0.69535826  1
  Ta  Ta11  1  0.50000000  0.75000000  0.30464174  1
