# generated using pymatgen
data_CePIr
_symmetry_space_group_name_H-M   'P 1'
_cell_length_a   4.03103279
_cell_length_b   4.03103278
_cell_length_c   7.75447398
_cell_angle_alpha   105.06511266
_cell_angle_beta   105.06511267
_cell_angle_gamma   90.00000000
_symmetry_Int_Tables_number   1
_chemical_formula_structural   CePIr
_chemical_formula_sum   'Ce2 P2 Ir2'
_cell_volume   117.18300274
_cell_formula_units_Z   2
loop_
 _symmetry_equiv_pos_site_id
 _symmetry_equiv_pos_as_xyz
  1  'x, y, z'
loop_
 _atom_site_type_symbol
 _atom_site_label
 _atom_site_symmetry_multiplicity
 _atom_site_fract_x
 _atom_site_fract_y
 _atom_site_fract_z
 _atom_site_occupancy
  P  P0  1  0.33004543  0.83004543  0.66009086  1
  P  P1  1  0.58004543  0.58004543  0.16009086  1
  Ce  Ce2  1  0.74934474  0.24934474  0.49868948  1
  Ce  Ce3  1  0.99934474  0.99934474  0.99868948  1
  Ir  Ir4  1  0.41507983  0.41507983  0.83015966  1
  Ir  Ir5  1  0.16507983  0.66507983  0.33015966  1
