# generated using pymatgen
data_Tl9Pd13
_symmetry_space_group_name_H-M   'P 1'
_cell_length_a   9.16591402
_cell_length_b   9.16591402
_cell_length_c   5.77193321
_cell_angle_alpha   90.00000000
_cell_angle_beta   90.00000000
_cell_angle_gamma   120.00000000
_symmetry_Int_Tables_number   1
_chemical_formula_structural   Tl9Pd13
_chemical_formula_sum   'Tl9 Pd13'
_cell_volume   419.95570636
_cell_formula_units_Z   1
loop_
 _symmetry_equiv_pos_site_id
 _symmetry_equiv_pos_as_xyz
  1  'x, y, z'
loop_
 _atom_site_type_symbol
 _atom_site_label
 _atom_site_symmetry_multiplicity
 _atom_site_fract_x
 _atom_site_fract_y
 _atom_site_fract_z
 _atom_site_occupancy
  Pd  Pd0  1  0.00000000  0.00000000  0.00000000  1
  Pd  Pd1  1  0.50000000  0.00000000  0.00000000  1
  Pd  Pd2  1  0.00000000  0.50000000  0.00000000  1
  Pd  Pd3  1  0.50000000  0.50000000  0.00000000  1
  Pd  Pd4  1  0.50000000  0.00000000  0.50000000  1
  Pd  Pd5  1  0.00000000  0.50000000  0.50000000  1
  Pd  Pd6  1  0.50000000  0.50000000  0.50000000  1
  Pd  Pd7  1  0.15957678  0.84042322  0.75307800  1
  Pd  Pd8  1  0.15957678  0.31915356  0.75307800  1
  Pd  Pd9  1  0.68084644  0.84042322  0.75307800  1
  Pd  Pd10  1  0.31915356  0.15957678  0.24692200  1
  Pd  Pd11  1  0.84042322  0.68084644  0.24692200  1
  Pd  Pd12  1  0.84042322  0.15957678  0.24692200  1
  Tl  Tl13  1  0.00000000  0.00000000  0.50000000  1
  Tl  Tl14  1  0.33333333  0.66666667  0.74947429  1
  Tl  Tl15  1  0.66666667  0.33333333  0.25052571  1
  Tl  Tl16  1  0.19270188  0.80729812  0.24659110  1
  Tl  Tl17  1  0.19270188  0.38540376  0.24659110  1
  Tl  Tl18  1  0.61459624  0.80729812  0.24659110  1
  Tl  Tl19  1  0.38540376  0.19270188  0.75340890  1
  Tl  Tl20  1  0.80729812  0.61459624  0.75340890  1
  Tl  Tl21  1  0.80729812  0.19270188  0.75340890  1
