# generated using pymatgen
data_Er5Sb3
_symmetry_space_group_name_H-M   'P 1'
_cell_length_a   8.90240336
_cell_length_b   8.90240336
_cell_length_c   6.25005098
_cell_angle_alpha   90.00000000
_cell_angle_beta   90.00000000
_cell_angle_gamma   120.00000001
_symmetry_Int_Tables_number   1
_chemical_formula_structural   Er5Sb3
_chemical_formula_sum   'Er10 Sb6'
_cell_volume   428.97178399
_cell_formula_units_Z   2
loop_
 _symmetry_equiv_pos_site_id
 _symmetry_equiv_pos_as_xyz
  1  'x, y, z'
loop_
 _atom_site_type_symbol
 _atom_site_label
 _atom_site_symmetry_multiplicity
 _atom_site_fract_x
 _atom_site_fract_y
 _atom_site_fract_z
 _atom_site_occupancy
  Sb  Sb0  1  0.38913536  0.00000000  0.75000000  1
  Sb  Sb1  1  0.38913536  0.38913536  0.25000000  1
  Sb  Sb2  1  0.00000000  0.61086464  0.25000000  1
  Sb  Sb3  1  0.00000000  0.38913536  0.75000000  1
  Sb  Sb4  1  0.61086464  0.61086464  0.75000000  1
  Sb  Sb5  1  0.61086464  0.00000000  0.25000000  1
  Er  Er6  1  0.00000000  0.75396224  0.75000000  1
  Er  Er7  1  0.00000000  0.24603776  0.25000000  1
  Er  Er8  1  0.75396224  0.75396224  0.25000000  1
  Er  Er9  1  0.75396224  0.00000000  0.75000000  1
  Er  Er10  1  0.24603776  0.24603776  0.75000000  1
  Er  Er11  1  0.24603776  0.00000000  0.25000000  1
  Er  Er12  1  0.33333333  0.66666667  0.50000000  1
  Er  Er13  1  0.66666667  0.33333333  0.00000000  1
  Er  Er14  1  0.66666667  0.33333333  0.50000000  1
  Er  Er15  1  0.33333333  0.66666667  0.00000000  1
