# generated using pymatgen
data_FeHO2
_symmetry_space_group_name_H-M   'P 1'
_cell_length_a   9.97776546
_cell_length_b   3.14856573
_cell_length_c   4.91511082
_cell_angle_alpha   90.00000000
_cell_angle_beta   90.00000000
_cell_angle_gamma   90.00000000
_symmetry_Int_Tables_number   1
_chemical_formula_structural   FeHO2
_chemical_formula_sum   'Fe4 H4 O8'
_cell_volume   154.41140315
_cell_formula_units_Z   4
loop_
 _symmetry_equiv_pos_site_id
 _symmetry_equiv_pos_as_xyz
  1  'x, y, z'
loop_
 _atom_site_type_symbol
 _atom_site_label
 _atom_site_symmetry_multiplicity
 _atom_site_fract_x
 _atom_site_fract_y
 _atom_site_fract_z
 _atom_site_occupancy
  Fe  Fe0  1  0.65366075  0.27910278  0.52951139  1
  Fe  Fe1  1  0.15366075  0.27910278  0.97048861  1
  Fe  Fe2  1  0.34633925  0.77910278  0.47048861  1
  Fe  Fe3  1  0.84633925  0.77910278  0.02951139  1
  H  H4  1  0.47531418  0.02772861  0.87795521  1
  H  H5  1  0.97531418  0.02772861  0.62204479  1
  H  H6  1  0.52468582  0.52772861  0.12204479  1
  H  H7  1  0.02468582  0.52772861  0.37795521  1
  O  O8  1  0.28414574  0.27106301  0.27119613  1
  O  O9  1  0.78414574  0.27106301  0.22880387  1
  O  O10  1  0.71585426  0.77106301  0.72880387  1
  O  O11  1  0.21585426  0.77106301  0.77119613  1
  O  O12  1  0.46725696  0.18435859  0.70644642  1
  O  O13  1  0.96725696  0.18435859  0.79355358  1
  O  O14  1  0.53274304  0.68435859  0.29355358  1
  O  O15  1  0.03274304  0.68435859  0.20644642  1
