# generated using pymatgen
data_Yb(FeP3)4
_symmetry_space_group_name_H-M   'P 1'
_cell_length_a   6.73867492
_cell_length_b   6.73867492
_cell_length_c   6.73867492
_cell_angle_alpha   109.47122062
_cell_angle_beta   109.47122062
_cell_angle_gamma   109.47122065
_symmetry_Int_Tables_number   1
_chemical_formula_structural   Yb(FeP3)4
_chemical_formula_sum   'Yb1 Fe4 P12'
_cell_volume   235.56004423
_cell_formula_units_Z   1
loop_
 _symmetry_equiv_pos_site_id
 _symmetry_equiv_pos_as_xyz
  1  'x, y, z'
loop_
 _atom_site_type_symbol
 _atom_site_label
 _atom_site_symmetry_multiplicity
 _atom_site_fract_x
 _atom_site_fract_y
 _atom_site_fract_z
 _atom_site_occupancy
  P  P0  1  0.49629210  0.84971407  0.64657802  1
  P  P1  1  0.20313605  0.84971407  0.35342198  1
  P  P2  1  0.79686395  0.15028593  0.64657802  1
  P  P3  1  0.15028593  0.35342198  0.50370790  1
  P  P4  1  0.35342198  0.50370790  0.15028593  1
  P  P5  1  0.50370790  0.15028593  0.35342198  1
  P  P6  1  0.15028593  0.64657802  0.79686395  1
  P  P7  1  0.35342198  0.20313605  0.84971407  1
  P  P8  1  0.84971407  0.64657802  0.49629210  1
  P  P9  1  0.64657802  0.79686395  0.15028593  1
  P  P10  1  0.84971407  0.35342198  0.20313605  1
  P  P11  1  0.64657802  0.49629210  0.84971407  1
  Fe  Fe12  1  0.50000000  0.00000000  0.00000000  1
  Fe  Fe13  1  0.00000000  0.00000000  0.50000000  1
  Fe  Fe14  1  0.00000000  0.50000000  0.00000000  1
  Fe  Fe15  1  0.50000000  0.50000000  0.50000000  1
  Yb  Yb16  1  0.00000000  0.00000000  0.00000000  1
