# generated using pymatgen
data_HoAsO4
_symmetry_space_group_name_H-M   'P 1'
_cell_length_a   5.95236504
_cell_length_b   5.95236504
_cell_length_c   5.95236504
_cell_angle_alpha   106.48982440
_cell_angle_beta   106.48982444
_cell_angle_gamma   115.61424098
_symmetry_Int_Tables_number   1
_chemical_formula_structural   HoAsO4
_chemical_formula_sum   'Ho2 As2 O8'
_cell_volume   160.93345268
_cell_formula_units_Z   2
loop_
 _symmetry_equiv_pos_site_id
 _symmetry_equiv_pos_as_xyz
  1  'x, y, z'
loop_
 _atom_site_type_symbol
 _atom_site_label
 _atom_site_symmetry_multiplicity
 _atom_site_fract_x
 _atom_site_fract_y
 _atom_site_fract_z
 _atom_site_occupancy
  O  O0  1  0.80323544  0.73509804  0.43186260  1
  O  O1  1  0.37137284  0.80323544  0.56813740  1
  O  O2  1  0.73509804  0.80323544  0.93186260  1
  O  O3  1  0.80323544  0.37137284  0.06813740  1
  O  O4  1  0.62862716  0.19676456  0.43186260  1
  O  O5  1  0.19676456  0.26490196  0.56813740  1
  O  O6  1  0.19676456  0.62862716  0.93186260  1
  O  O7  1  0.26490196  0.19676456  0.06813740  1
  As  As8  1  0.37500000  0.62500000  0.75000000  1
  As  As9  1  0.62500000  0.37500000  0.25000000  1
  Ho  Ho10  1  0.12500000  0.87500000  0.25000000  1
  Ho  Ho11  1  0.87500000  0.12500000  0.75000000  1
