# generated using pymatgen
data_Dy2CdPd2
_symmetry_space_group_name_H-M   'P 1'
_cell_length_a   3.75454782
_cell_length_b   7.70890436
_cell_length_c   7.70890436
_cell_angle_alpha   90.00000000
_cell_angle_beta   90.00000000
_cell_angle_gamma   90.00000000
_symmetry_Int_Tables_number   1
_chemical_formula_structural   Dy2CdPd2
_chemical_formula_sum   'Dy4 Cd2 Pd4'
_cell_volume   223.12228836
_cell_formula_units_Z   2
loop_
 _symmetry_equiv_pos_site_id
 _symmetry_equiv_pos_as_xyz
  1  'x, y, z'
loop_
 _atom_site_type_symbol
 _atom_site_label
 _atom_site_symmetry_multiplicity
 _atom_site_fract_x
 _atom_site_fract_y
 _atom_site_fract_z
 _atom_site_occupancy
  Pd  Pd0  1  0.00000000  0.12923007  0.37076993  1
  Pd  Pd1  1  0.00000000  0.37076993  0.87076993  1
  Pd  Pd2  1  0.00000000  0.62923007  0.12923007  1
  Pd  Pd3  1  0.00000000  0.87076993  0.62923007  1
  Cd  Cd4  1  0.00000000  0.00000000  0.00000000  1
  Cd  Cd5  1  0.00000000  0.50000000  0.50000000  1
  Dy  Dy6  1  0.50000000  0.82829644  0.32829644  1
  Dy  Dy7  1  0.50000000  0.67170356  0.82829644  1
  Dy  Dy8  1  0.50000000  0.32829644  0.17170356  1
  Dy  Dy9  1  0.50000000  0.17170356  0.67170356  1
