# generated using pymatgen
data_Ti5CuSb2
_symmetry_space_group_name_H-M   'P 1'
_cell_length_a   5.13261135
_cell_length_b   7.82507075
_cell_length_c   7.82507076
_cell_angle_alpha   83.82547157
_cell_angle_beta   70.85503266
_cell_angle_gamma   70.85503262
_symmetry_Int_Tables_number   1
_chemical_formula_structural   Ti5CuSb2
_chemical_formula_sum   'Ti10 Cu2 Sb4'
_cell_volume   280.47569202
_cell_formula_units_Z   2
loop_
 _symmetry_equiv_pos_site_id
 _symmetry_equiv_pos_as_xyz
  1  'x, y, z'
loop_
 _atom_site_type_symbol
 _atom_site_label
 _atom_site_symmetry_multiplicity
 _atom_site_fract_x
 _atom_site_fract_y
 _atom_site_fract_z
 _atom_site_occupancy
  Ti  Ti0  1  0.57409574  0.71125217  0.14055634  1
  Ti  Ti1  1  0.42590426  0.28874783  0.85944366  1
  Ti  Ti2  1  0.25000000  0.50000000  0.50000000  1
  Ti  Ti3  1  0.75000000  0.50000000  0.50000000  1
  Ti  Ti4  1  0.71465208  0.85944366  0.71125217  1
  Ti  Ti5  1  0.28534792  0.14055634  0.28874783  1
  Ti  Ti6  1  0.92590426  0.85944366  0.28874783  1
  Ti  Ti7  1  0.21465208  0.71125217  0.85944366  1
  Ti  Ti8  1  0.07409574  0.14055634  0.71125217  1
  Ti  Ti9  1  0.78534792  0.28874783  0.14055634  1
  Cu  Cu10  1  0.25000000  0.00000000  0.00000000  1
  Cu  Cu11  1  0.75000000  0.00000000  0.00000000  1
  Sb  Sb12  1  0.33595883  0.82808234  0.50000000  1
  Sb  Sb13  1  0.16404117  0.50000000  0.17191766  1
  Sb  Sb14  1  0.66404117  0.17191766  0.50000000  1
  Sb  Sb15  1  0.83595883  0.50000000  0.82808234  1
