# generated using pymatgen
data_YbZnPd
_symmetry_space_group_name_H-M   'P 1'
_cell_length_a   4.37309279
_cell_length_b   6.98836439
_cell_length_c   7.77784129
_cell_angle_alpha   90.00000000
_cell_angle_beta   90.00000000
_cell_angle_gamma   90.00000000
_symmetry_Int_Tables_number   1
_chemical_formula_structural   YbZnPd
_chemical_formula_sum   'Yb4 Zn4 Pd4'
_cell_volume   237.69678709
_cell_formula_units_Z   4
loop_
 _symmetry_equiv_pos_site_id
 _symmetry_equiv_pos_as_xyz
  1  'x, y, z'
loop_
 _atom_site_type_symbol
 _atom_site_label
 _atom_site_symmetry_multiplicity
 _atom_site_fract_x
 _atom_site_fract_y
 _atom_site_fract_z
 _atom_site_occupancy
  Zn  Zn0  1  0.25000000  0.66194468  0.42619356  1
  Zn  Zn1  1  0.75000000  0.33805532  0.57380644  1
  Zn  Zn2  1  0.25000000  0.16194468  0.07380644  1
  Zn  Zn3  1  0.75000000  0.83805532  0.92619356  1
  Pd  Pd4  1  0.75000000  0.71823196  0.60739531  1
  Pd  Pd5  1  0.25000000  0.28176804  0.39260469  1
  Pd  Pd6  1  0.75000000  0.21823196  0.89260469  1
  Pd  Pd7  1  0.25000000  0.78176804  0.10739531  1
  Yb  Yb8  1  0.25000000  0.51634953  0.80727129  1
  Yb  Yb9  1  0.75000000  0.48365047  0.19272871  1
  Yb  Yb10  1  0.25000000  0.01634953  0.69272871  1
  Yb  Yb11  1  0.75000000  0.98365047  0.30727129  1
