# generated using pymatgen
data_TbCuSe2
_symmetry_space_group_name_H-M   'P 1'
_cell_length_a   6.61893744
_cell_length_b   7.10123301
_cell_length_c   7.34168945
_cell_angle_alpha   90.00000000
_cell_angle_beta   90.00000000
_cell_angle_gamma   96.07301528
_symmetry_Int_Tables_number   1
_chemical_formula_structural   TbCuSe2
_chemical_formula_sum   'Tb4 Cu4 Se8'
_cell_volume   343.14199545
_cell_formula_units_Z   4
loop_
 _symmetry_equiv_pos_site_id
 _symmetry_equiv_pos_as_xyz
  1  'x, y, z'
loop_
 _atom_site_type_symbol
 _atom_site_label
 _atom_site_symmetry_multiplicity
 _atom_site_fract_x
 _atom_site_fract_y
 _atom_site_fract_z
 _atom_site_occupancy
  Cu  Cu0  1  0.42574297  0.95503023  0.34115282  1
  Cu  Cu1  1  0.57425703  0.04496977  0.65884718  1
  Cu  Cu2  1  0.42574297  0.45503023  0.15884718  1
  Cu  Cu3  1  0.57425703  0.54496977  0.84115282  1
  Se  Se4  1  0.92864096  0.50272935  0.77567312  1
  Se  Se5  1  0.92864096  0.00272935  0.72432688  1
  Se  Se6  1  0.07135904  0.99727065  0.27567312  1
  Se  Se7  1  0.07135904  0.49727065  0.22432688  1
  Se  Se8  1  0.59988575  0.28225488  0.38798350  1
  Se  Se9  1  0.40011425  0.21774512  0.88798350  1
  Se  Se10  1  0.40011425  0.71774512  0.61201650  1
  Se  Se11  1  0.59988575  0.78225488  0.11201650  1
  Tb  Tb12  1  0.19600599  0.29893904  0.54191063  1
  Tb  Tb13  1  0.80399401  0.20106096  0.04191063  1
  Tb  Tb14  1  0.80399401  0.70106096  0.45808937  1
  Tb  Tb15  1  0.19600599  0.79893904  0.95808937  1
