# generated using pymatgen
data_LaMg2Pd
_symmetry_space_group_name_H-M   'P 1'
_cell_length_a   4.33861355
_cell_length_b   5.69299177
_cell_length_c   8.40615810
_cell_angle_alpha   90.00000000
_cell_angle_beta   90.00000000
_cell_angle_gamma   112.39865305
_symmetry_Int_Tables_number   1
_chemical_formula_structural   LaMg2Pd
_chemical_formula_sum   'La2 Mg4 Pd2'
_cell_volume   191.96489951
_cell_formula_units_Z   2
loop_
 _symmetry_equiv_pos_site_id
 _symmetry_equiv_pos_as_xyz
  1  'x, y, z'
loop_
 _atom_site_type_symbol
 _atom_site_label
 _atom_site_symmetry_multiplicity
 _atom_site_fract_x
 _atom_site_fract_y
 _atom_site_fract_z
 _atom_site_occupancy
  Mg  Mg0  1  0.84710845  0.69421689  0.44608387  1
  Mg  Mg1  1  0.15289155  0.30578311  0.55391613  1
  Mg  Mg2  1  0.15289155  0.30578311  0.94608387  1
  Mg  Mg3  1  0.84710845  0.69421689  0.05391613  1
  Pd  Pd4  1  0.27632238  0.55264476  0.25000000  1
  Pd  Pd5  1  0.72367762  0.44735524  0.75000000  1
  La  La6  1  0.56082367  0.12164735  0.25000000  1
  La  La7  1  0.43917633  0.87835265  0.75000000  1
