# generated using pymatgen
data_Ba2HoTaO6
_symmetry_space_group_name_H-M   'P 1'
_cell_length_a   6.01417296
_cell_length_b   6.01417296
_cell_length_c   6.02332398
_cell_angle_alpha   119.94975592
_cell_angle_beta   119.94975595
_cell_angle_gamma   90.00000003
_symmetry_Int_Tables_number   1
_chemical_formula_structural   Ba2HoTaO6
_chemical_formula_sum   'Ba2 Ho1 Ta1 O6'
_cell_volume   154.28771952
_cell_formula_units_Z   1
loop_
 _symmetry_equiv_pos_site_id
 _symmetry_equiv_pos_as_xyz
  1  'x, y, z'
loop_
 _atom_site_type_symbol
 _atom_site_label
 _atom_site_symmetry_multiplicity
 _atom_site_fract_x
 _atom_site_fract_y
 _atom_site_fract_z
 _atom_site_occupancy
  O  O0  1  0.71630855  0.75611682  0.00000000  1
  O  O1  1  0.24388318  0.71630855  0.00000000  1
  O  O2  1  0.75611682  0.28369145  0.00000000  1
  O  O3  1  0.28369145  0.24388318  0.00000000  1
  O  O4  1  0.26363554  0.26363554  0.52727108  1
  O  O5  1  0.73636446  0.73636446  0.47272892  1
  Ba  Ba6  1  0.25000000  0.75000000  0.50000000  1
  Ba  Ba7  1  0.75000000  0.25000000  0.50000000  1
  Ho  Ho8  1  0.00000000  0.00000000  0.00000000  1
  Ta  Ta9  1  0.50000000  0.50000000  0.00000000  1
