# generated using pymatgen
data_Sm2CdPd2
_symmetry_space_group_name_H-M   'P 1'
_cell_length_a   3.87091327
_cell_length_b   7.78711003
_cell_length_c   7.78711003
_cell_angle_alpha   90.00000000
_cell_angle_beta   90.00000000
_cell_angle_gamma   90.00000000
_symmetry_Int_Tables_number   1
_chemical_formula_structural   Sm2CdPd2
_chemical_formula_sum   'Sm4 Cd2 Pd4'
_cell_volume   234.72862959
_cell_formula_units_Z   2
loop_
 _symmetry_equiv_pos_site_id
 _symmetry_equiv_pos_as_xyz
  1  'x, y, z'
loop_
 _atom_site_type_symbol
 _atom_site_label
 _atom_site_symmetry_multiplicity
 _atom_site_fract_x
 _atom_site_fract_y
 _atom_site_fract_z
 _atom_site_occupancy
  Pd  Pd0  1  0.00000000  0.12798671  0.37201329  1
  Pd  Pd1  1  0.00000000  0.37201329  0.87201329  1
  Pd  Pd2  1  0.00000000  0.62798671  0.12798671  1
  Pd  Pd3  1  0.00000000  0.87201329  0.62798671  1
  Cd  Cd4  1  0.00000000  0.00000000  0.00000000  1
  Cd  Cd5  1  0.00000000  0.50000000  0.50000000  1
  Sm  Sm6  1  0.50000000  0.82668527  0.32668527  1
  Sm  Sm7  1  0.50000000  0.67331473  0.82668527  1
  Sm  Sm8  1  0.50000000  0.32668527  0.17331473  1
  Sm  Sm9  1  0.50000000  0.17331473  0.67331473  1
