# generated using pymatgen
data_YbZnAu
_symmetry_space_group_name_H-M   'P 1'
_cell_length_a   4.35574232
_cell_length_b   7.14007462
_cell_length_c   8.16301096
_cell_angle_alpha   90.00000000
_cell_angle_beta   90.00000000
_cell_angle_gamma   90.00000000
_symmetry_Int_Tables_number   1
_chemical_formula_structural   YbZnAu
_chemical_formula_sum   'Yb4 Zn4 Au4'
_cell_volume   253.87229539
_cell_formula_units_Z   4
loop_
 _symmetry_equiv_pos_site_id
 _symmetry_equiv_pos_as_xyz
  1  'x, y, z'
loop_
 _atom_site_type_symbol
 _atom_site_label
 _atom_site_symmetry_multiplicity
 _atom_site_fract_x
 _atom_site_fract_y
 _atom_site_fract_z
 _atom_site_occupancy
  Zn  Zn0  1  0.25000000  0.65560175  0.43251628  1
  Zn  Zn1  1  0.25000000  0.15560175  0.06748372  1
  Zn  Zn2  1  0.75000000  0.34439825  0.56748372  1
  Zn  Zn3  1  0.75000000  0.84439825  0.93251628  1
  Yb  Yb4  1  0.75000000  0.47248568  0.19109496  1
  Yb  Yb5  1  0.25000000  0.02751432  0.69109496  1
  Yb  Yb6  1  0.75000000  0.97248568  0.30890504  1
  Yb  Yb7  1  0.25000000  0.52751432  0.80890504  1
  Au  Au8  1  0.25000000  0.76762245  0.11467850  1
  Au  Au9  1  0.25000000  0.26762245  0.38532150  1
  Au  Au10  1  0.75000000  0.73237755  0.61467850  1
  Au  Au11  1  0.75000000  0.23237755  0.88532150  1
