# generated using pymatgen
data_Ba2LaTaO6
_symmetry_space_group_name_H-M   'P 1'
_cell_length_a   6.13693259
_cell_length_b   6.13693258
_cell_length_c   6.18689229
_cell_angle_alpha   90.31685082
_cell_angle_beta   119.49222345
_cell_angle_gamma   119.87515082
_symmetry_Int_Tables_number   1
_chemical_formula_structural   Ba2LaTaO6
_chemical_formula_sum   'Ba2 La1 Ta1 O6'
_cell_volume   165.87610844
_cell_formula_units_Z   1
loop_
 _symmetry_equiv_pos_site_id
 _symmetry_equiv_pos_as_xyz
  1  'x, y, z'
loop_
 _atom_site_type_symbol
 _atom_site_label
 _atom_site_symmetry_multiplicity
 _atom_site_fract_x
 _atom_site_fract_y
 _atom_site_fract_z
 _atom_site_occupancy
  O  O0  1  0.54252998  0.30618909  0.31145328  1
  O  O1  1  0.99473581  0.23107670  0.68854672  1
  O  O2  1  0.45747002  0.69381091  0.68854672  1
  O  O3  1  0.00526419  0.76892330  0.31145328  1
  O  O4  1  0.06814650  0.72710591  0.79525241  1
  O  O5  1  0.93185350  0.27289409  0.20474759  1
  Ba  Ba6  1  0.50696235  0.75191005  0.25887240  1
  Ba  Ba7  1  0.49303765  0.24808995  0.74112760  1
  La  La8  1  0.00000000  0.00000000  0.00000000  1
  Ta  Ta9  1  0.00000000  0.50000000  0.50000000  1
