# generated using pymatgen
data_V6H4O13
_symmetry_space_group_name_H-M   'P 1'
_cell_length_a   6.42585490
_cell_length_b   6.42585490
_cell_length_c   10.69808837
_cell_angle_alpha   80.35660609
_cell_angle_beta   99.64339391
_cell_angle_gamma   145.29161341
_symmetry_Int_Tables_number   1
_chemical_formula_structural   V6H4O13
_chemical_formula_sum   'V6 H4 O13'
_cell_volume   247.62338171
_cell_formula_units_Z   1
loop_
 _symmetry_equiv_pos_site_id
 _symmetry_equiv_pos_as_xyz
  1  'x, y, z'
loop_
 _atom_site_type_symbol
 _atom_site_label
 _atom_site_symmetry_multiplicity
 _atom_site_fract_x
 _atom_site_fract_y
 _atom_site_fract_z
 _atom_site_occupancy
  V  V0  1  0.65367447  0.35233919  0.99971598  1
  V  V1  1  0.35233919  0.65367447  0.00028402  1
  V  V2  1  0.58890310  0.41495986  0.61541949  1
  V  V3  1  0.41495986  0.58890310  0.38458051  1
  V  V4  1  0.27780410  0.71500830  0.61717424  1
  V  V5  1  0.71500830  0.27780410  0.38282576  1
  H  H6  1  0.31183193  0.18113140  0.80633874  1
  H  H7  1  0.18113140  0.31183193  0.19366126  1
  H  H8  1  0.61020533  0.82855906  0.80282373  1
  H  H9  1  0.82855906  0.61020533  0.19717627  1
  O  O10  1  0.82445595  0.19540502  0.00115978  1
  O  O11  1  0.19540502  0.82445595  0.99884022  1
  O  O12  1  0.12191696  0.88760088  0.62336982  1
  O  O13  1  0.88760088  0.12191696  0.37663018  1
  O  O14  1  0.74441259  0.24309291  0.58663012  1
  O  O15  1  0.24309291  0.74441259  0.41336988  1
  O  O16  1  0.51183299  0.51183299  0.00000000  1
  O  O17  1  0.57474098  0.37219277  0.80323837  1
  O  O18  1  0.37219277  0.57474098  0.19676163  1
  O  O19  1  0.37296344  0.70331919  0.80222437  1
  O  O20  1  0.70331919  0.37296344  0.19777563  1
  O  O21  1  0.43905631  0.56696428  0.57964142  1
  O  O22  1  0.56696428  0.43905631  0.42035858  1
