# generated using pymatgen
data_Tm2C(NO)2
_symmetry_space_group_name_H-M   'P 1'
_cell_length_a   3.66410077
_cell_length_b   3.66410077
_cell_length_c   8.13480159
_cell_angle_alpha   90.00000000
_cell_angle_beta   90.00000000
_cell_angle_gamma   120.00000006
_symmetry_Int_Tables_number   1
_chemical_formula_structural   Tm2C(NO)2
_chemical_formula_sum   'Tm2 C1 N2 O2'
_cell_volume   94.58285408
_cell_formula_units_Z   1
loop_
 _symmetry_equiv_pos_site_id
 _symmetry_equiv_pos_as_xyz
  1  'x, y, z'
loop_
 _atom_site_type_symbol
 _atom_site_label
 _atom_site_symmetry_multiplicity
 _atom_site_fract_x
 _atom_site_fract_y
 _atom_site_fract_z
 _atom_site_occupancy
  C  C0  1  0.00000000  0.00000000  0.50000000  1
  N  N1  1  0.00000000  0.00000000  0.65189906  1
  N  N2  1  0.00000000  0.00000000  0.34810094  1
  O  O3  1  0.33333333  0.66666667  0.89737000  1
  O  O4  1  0.66666667  0.33333333  0.10263000  1
  Tm  Tm5  1  0.66666667  0.33333333  0.82419142  1
  Tm  Tm6  1  0.33333333  0.66666667  0.17580858  1
