# generated using pymatgen
data_NaSr3TaO6
_symmetry_space_group_name_H-M   'P 1'
_cell_length_a   6.91430342
_cell_length_b   6.91430342
_cell_length_c   6.91430342
_cell_angle_alpha   91.24678188
_cell_angle_beta   91.24678188
_cell_angle_gamma   91.24678186
_symmetry_Int_Tables_number   1
_chemical_formula_structural   NaSr3TaO6
_chemical_formula_sum   'Na2 Sr6 Ta2 O12'
_cell_volume   330.31795539
_cell_formula_units_Z   2
loop_
 _symmetry_equiv_pos_site_id
 _symmetry_equiv_pos_as_xyz
  1  'x, y, z'
loop_
 _atom_site_type_symbol
 _atom_site_label
 _atom_site_symmetry_multiplicity
 _atom_site_fract_x
 _atom_site_fract_y
 _atom_site_fract_z
 _atom_site_occupancy
  O  O0  1  0.72123246  0.92802666  0.05349694  1
  O  O1  1  0.92802666  0.05349694  0.72123246  1
  O  O2  1  0.05349694  0.72123246  0.92802666  1
  O  O3  1  0.44650306  0.57197334  0.77876754  1
  O  O4  1  0.57197334  0.77876754  0.44650306  1
  O  O5  1  0.77876754  0.44650306  0.57197334  1
  O  O6  1  0.27876754  0.07197334  0.94650306  1
  O  O7  1  0.07197334  0.94650306  0.27876754  1
  O  O8  1  0.94650306  0.27876754  0.07197334  1
  O  O9  1  0.55349694  0.42802666  0.22123246  1
  O  O10  1  0.22123246  0.55349694  0.42802666  1
  O  O11  1  0.42802666  0.22123246  0.55349694  1
  Na  Na12  1  0.75000000  0.75000000  0.75000000  1
  Na  Na13  1  0.25000000  0.25000000  0.25000000  1
  Sr  Sr14  1  0.09936042  0.40063958  0.75000000  1
  Sr  Sr15  1  0.40063958  0.75000000  0.09936042  1
  Sr  Sr16  1  0.75000000  0.09936042  0.40063958  1
  Sr  Sr17  1  0.90063958  0.59936042  0.25000000  1
  Sr  Sr18  1  0.59936042  0.25000000  0.90063958  1
  Sr  Sr19  1  0.25000000  0.90063958  0.59936042  1
  Ta  Ta20  1  0.00000000  0.00000000  0.00000000  1
  Ta  Ta21  1  0.50000000  0.50000000  0.50000000  1
