# generated using pymatgen
data_SrLiGe2
_symmetry_space_group_name_H-M   'P 1'
_cell_length_a   4.49130106
_cell_length_b   7.21651836
_cell_length_c   11.62549622
_cell_angle_alpha   90.00000000
_cell_angle_beta   90.00000000
_cell_angle_gamma   90.00000000
_symmetry_Int_Tables_number   1
_chemical_formula_structural   SrLiGe2
_chemical_formula_sum   'Sr4 Li4 Ge8'
_cell_volume   376.80042827
_cell_formula_units_Z   4
loop_
 _symmetry_equiv_pos_site_id
 _symmetry_equiv_pos_as_xyz
  1  'x, y, z'
loop_
 _atom_site_type_symbol
 _atom_site_label
 _atom_site_symmetry_multiplicity
 _atom_site_fract_x
 _atom_site_fract_y
 _atom_site_fract_z
 _atom_site_occupancy
  Li  Li0  1  0.25000000  0.62438775  0.93941837  1
  Li  Li1  1  0.75000000  0.37561225  0.06058163  1
  Li  Li2  1  0.25000000  0.12438775  0.56058163  1
  Li  Li3  1  0.75000000  0.87561225  0.43941837  1
  Ge  Ge4  1  0.75000000  0.96352065  0.66089203  1
  Ge  Ge5  1  0.25000000  0.03647935  0.33910797  1
  Ge  Ge6  1  0.75000000  0.46352065  0.83910797  1
  Ge  Ge7  1  0.25000000  0.53647935  0.16089203  1
  Ge  Ge8  1  0.75000000  0.80923802  0.85707250  1
  Ge  Ge9  1  0.25000000  0.19076198  0.14292750  1
  Ge  Ge10  1  0.75000000  0.30923802  0.64292750  1
  Ge  Ge11  1  0.25000000  0.69076198  0.35707250  1
  Sr  Sr12  1  0.25000000  0.63733807  0.64472219  1
  Sr  Sr13  1  0.75000000  0.36266193  0.35527781  1
  Sr  Sr14  1  0.25000000  0.13733807  0.85527781  1
  Sr  Sr15  1  0.75000000  0.86266193  0.14472219  1
