# generated using pymatgen
data_CeSi3Ru
_symmetry_space_group_name_H-M   'P 1'
_cell_length_a   4.18689692
_cell_length_b   4.18689691
_cell_length_c   5.80884477
_cell_angle_alpha   111.12413752
_cell_angle_beta   111.12413744
_cell_angle_gamma   90.00000003
_symmetry_Int_Tables_number   1
_chemical_formula_structural   CeSi3Ru
_chemical_formula_sum   'Ce1 Si3 Ru1'
_cell_volume   87.61129584
_cell_formula_units_Z   1
loop_
 _symmetry_equiv_pos_site_id
 _symmetry_equiv_pos_as_xyz
  1  'x, y, z'
loop_
 _atom_site_type_symbol
 _atom_site_label
 _atom_site_symmetry_multiplicity
 _atom_site_fract_x
 _atom_site_fract_y
 _atom_site_fract_z
 _atom_site_occupancy
  Si  Si0  1  0.84345811  0.34345811  0.68691621  1
  Si  Si1  1  0.34345811  0.84345811  0.68691621  1
  Si  Si2  1  0.99983874  0.99983874  0.99967748  1
  Ru  Ru3  1  0.23430115  0.23430115  0.46860231  1
  Ce  Ce4  1  0.57400390  0.57400390  0.14800779  1
