# generated using pymatgen
data_PrCoGe3
_symmetry_space_group_name_H-M   'P 1'
_cell_length_a   4.34050794
_cell_length_b   4.34050794
_cell_length_c   5.84125063
_cell_angle_alpha   111.81057926
_cell_angle_beta   111.81057917
_cell_angle_gamma   89.99999991
_symmetry_Int_Tables_number   1
_chemical_formula_structural   PrCoGe3
_chemical_formula_sum   'Pr1 Co1 Ge3'
_cell_volume   93.63352691
_cell_formula_units_Z   1
loop_
 _symmetry_equiv_pos_site_id
 _symmetry_equiv_pos_as_xyz
  1  'x, y, z'
loop_
 _atom_site_type_symbol
 _atom_site_label
 _atom_site_symmetry_multiplicity
 _atom_site_fract_x
 _atom_site_fract_y
 _atom_site_fract_z
 _atom_site_occupancy
  Co  Co0  1  0.23370420  0.23370420  0.46740841  1
  Ge  Ge1  1  0.82579008  0.32579008  0.65158016  1
  Ge  Ge2  1  0.00254921  0.00254921  0.00509843  1
  Ge  Ge3  1  0.32579008  0.82579008  0.65158016  1
  Pr  Pr4  1  0.56752642  0.56752642  0.13505285  1
