# generated using pymatgen
data_Fe4H14O13
_symmetry_space_group_name_H-M   'P 1'
_cell_length_a   6.70451731
_cell_length_b   6.68027704
_cell_length_c   6.76059444
_cell_angle_alpha   110.27968930
_cell_angle_beta   110.28983004
_cell_angle_gamma   108.27372311
_symmetry_Int_Tables_number   1
_chemical_formula_structural   Fe4H14O13
_chemical_formula_sum   'Fe4 H14 O13'
_cell_volume   231.77584296
_cell_formula_units_Z   1
loop_
 _symmetry_equiv_pos_site_id
 _symmetry_equiv_pos_as_xyz
  1  'x, y, z'
loop_
 _atom_site_type_symbol
 _atom_site_label
 _atom_site_symmetry_multiplicity
 _atom_site_fract_x
 _atom_site_fract_y
 _atom_site_fract_z
 _atom_site_occupancy
  Fe  Fe0  1  0.99597542  0.99640232  0.49522476  1
  Fe  Fe1  1  0.01038217  0.50297918  0.00836800  1
  Fe  Fe2  1  0.49976554  0.99692988  0.99894689  1
  Fe  Fe3  1  0.49775546  0.49954080  0.49878491  1
  H  H4  1  0.74041104  0.05862688  0.68881197  1
  H  H5  1  0.26629030  0.95481714  0.31447256  1
  H  H6  1  0.34895597  0.79781199  0.54630307  1
  H  H7  1  0.63876572  0.19619395  0.45917810  1
  H  H8  1  0.55968113  0.68518892  0.24269868  1
  H  H9  1  0.31610086  0.54975113  0.86819948  1
  H  H10  1  0.58201543  0.34910545  0.91462653  1
  H  H11  1  0.06475151  0.88867247  0.82271892  1
  H  H12  1  0.80422336  0.75888683  0.93659584  1
  H  H13  1  0.94357625  0.12877357  0.18040618  1
  H  H14  1  0.20311017  0.24615885  0.05765873  1
  H  H15  1  0.86894666  0.48021803  0.34009171  1
  H  H16  1  0.93373039  0.55121719  0.60907205  1
  H  H17  1  0.15236321  0.39377990  0.55325789  1
  O  O18  1  0.86088303  0.18763211  0.68469502  1
  O  O19  1  0.14397888  0.82463797  0.31669055  1
  O  O20  1  0.48921952  0.80690035  0.67417132  1
  O  O21  1  0.50353031  0.19099936  0.32882414  1
  O  O22  1  0.69561408  0.69979344  0.37758471  1
  O  O23  1  0.31365691  0.68294676  0.99486720  1
  O  O24  1  0.70057625  0.31434120  0.00971693  1
  O  O25  1  0.26393649  0.32675551  0.61163114  1
  O  O26  1  0.19345829  0.01627589  0.82742022  1
  O  O27  1  0.80313373  0.62498063  0.80794868  1
  O  O28  1  0.81256434  0.99541028  0.16884744  1
  O  O29  1  0.19264277  0.36765524  0.18625840  1
  O  O30  1  0.99529081  0.51611480  0.49720299  1
