# generated using pymatgen
data_AgSbS2
_symmetry_space_group_name_H-M   'P 1'
_cell_length_a   5.79448057
_cell_length_b   7.44579032
_cell_length_c   13.57904447
_cell_angle_alpha   84.22146808
_cell_angle_beta   90.00000000
_cell_angle_gamma   112.89920601
_symmetry_Int_Tables_number   1
_chemical_formula_structural   AgSbS2
_chemical_formula_sum   'Ag4 Sb4 S8'
_cell_volume   536.45646617
_cell_formula_units_Z   4
loop_
 _symmetry_equiv_pos_site_id
 _symmetry_equiv_pos_as_xyz
  1  'x, y, z'
loop_
 _atom_site_type_symbol
 _atom_site_label
 _atom_site_symmetry_multiplicity
 _atom_site_fract_x
 _atom_site_fract_y
 _atom_site_fract_z
 _atom_site_occupancy
  Ag  Ag0  1  0.00568809  0.00631314  0.99149217  1
  Ag  Ag1  1  0.50520502  0.01802398  0.49996972  1
  Ag  Ag2  1  0.51281895  0.01802398  -0.00003028  1
  Ag  Ag3  1  0.00062505  0.00631314  0.49149217  1
  Sb  Sb4  1  0.33812079  0.57297780  0.13625974  1
  Sb  Sb5  1  0.77174688  0.44864280  0.34717421  1
  Sb  Sb6  1  0.23485701  0.57297780  0.63625974  1
  Sb  Sb7  1  0.67689592  0.44864280  0.84717421  1
  S  S8  1  0.47125965  0.67103230  0.78772740  1
  S  S9  1  0.18430657  0.88983319  0.62938556  1
  S  S10  1  0.32401053  0.12257075  0.86049147  1
  S  S11  1  0.79856022  0.12257075  0.36049147  1
  S  S12  1  0.81168715  0.34220603  0.69749973  1
  S  S13  1  0.53051888  0.34220603  0.19749973  1
  S  S14  1  0.19977265  0.67103230  0.28772740  1
  S  S15  1  0.70552662  0.88983319  0.12938556  1
