# generated using pymatgen
data_CeZnPO
_symmetry_space_group_name_H-M   'P 1'
_cell_length_a   10.58526512
_cell_length_b   10.58526511
_cell_length_c   10.58526512
_cell_angle_alpha   21.70469395
_cell_angle_beta   21.70469400
_cell_angle_gamma   21.70469397
_symmetry_Int_Tables_number   1
_chemical_formula_structural   CeZnPO
_chemical_formula_sum   'Ce2 Zn2 P2 O2'
_cell_volume   142.16220833
_cell_formula_units_Z   2
loop_
 _symmetry_equiv_pos_site_id
 _symmetry_equiv_pos_as_xyz
  1  'x, y, z'
loop_
 _atom_site_type_symbol
 _atom_site_label
 _atom_site_symmetry_multiplicity
 _atom_site_fract_x
 _atom_site_fract_y
 _atom_site_fract_z
 _atom_site_occupancy
  O  O0  1  0.69501836  0.69501836  0.69501836  1
  O  O1  1  0.30498164  0.30498164  0.30498164  1
  P  P2  1  0.11369372  0.11369372  0.11369372  1
  P  P3  1  0.88630628  0.88630628  0.88630628  1
  Zn  Zn4  1  0.19609290  0.19609290  0.19609290  1
  Zn  Zn5  1  0.80390710  0.80390710  0.80390710  1
  Ce  Ce6  1  0.61896445  0.61896445  0.61896445  1
  Ce  Ce7  1  0.38103555  0.38103555  0.38103555  1
