# generated using pymatgen
data_SrLuCuS3
_symmetry_space_group_name_H-M   'P 1'
_cell_length_a   3.89972394
_cell_length_b   6.79769911
_cell_length_c   10.03607176
_cell_angle_alpha   90.00000000
_cell_angle_beta   90.00000000
_cell_angle_gamma   106.66895329
_symmetry_Int_Tables_number   1
_chemical_formula_structural   SrLuCuS3
_chemical_formula_sum   'Sr2 Lu2 Cu2 S6'
_cell_volume   254.86789079
_cell_formula_units_Z   2
loop_
 _symmetry_equiv_pos_site_id
 _symmetry_equiv_pos_as_xyz
  1  'x, y, z'
loop_
 _atom_site_type_symbol
 _atom_site_label
 _atom_site_symmetry_multiplicity
 _atom_site_fract_x
 _atom_site_fract_y
 _atom_site_fract_z
 _atom_site_occupancy
  S  S0  1  0.92466892  0.84933783  0.75000000  1
  S  S1  1  0.07533108  0.15066217  0.25000000  1
  S  S2  1  0.36523856  0.73047711  0.06441875  1
  S  S3  1  0.36523856  0.73047711  0.43558125  1
  S  S4  1  0.63476144  0.26952289  0.56441875  1
  S  S5  1  0.63476144  0.26952289  0.93558125  1
  Cu  Cu6  1  0.47203967  0.94407934  0.25000000  1
  Cu  Cu7  1  0.52796033  0.05592066  0.75000000  1
  Sr  Sr8  1  0.25110340  0.50220680  0.75000000  1
  Sr  Sr9  1  0.74889660  0.49779320  0.25000000  1
  Lu  Lu10  1  0.00000000  0.00000000  0.00000000  1
  Lu  Lu11  1  0.00000000  0.00000000  0.50000000  1
