# generated using pymatgen
data_SmSbO4
_symmetry_space_group_name_H-M   'P 1'
_cell_length_a   5.49646528
_cell_length_b   7.67557998
_cell_length_c   7.73522922
_cell_angle_alpha   99.59644083
_cell_angle_beta   90.00000000
_cell_angle_gamma   90.00000000
_symmetry_Int_Tables_number   1
_chemical_formula_structural   SmSbO4
_chemical_formula_sum   'Sm4 Sb4 O16'
_cell_volume   321.77152583
_cell_formula_units_Z   4
loop_
 _symmetry_equiv_pos_site_id
 _symmetry_equiv_pos_as_xyz
  1  'x, y, z'
loop_
 _atom_site_type_symbol
 _atom_site_label
 _atom_site_symmetry_multiplicity
 _atom_site_fract_x
 _atom_site_fract_y
 _atom_site_fract_z
 _atom_site_occupancy
  O  O0  1  0.02267307  0.67365550  0.11783427  1
  O  O1  1  0.52267307  0.82634450  0.88216573  1
  O  O2  1  0.97732693  0.32634450  0.88216573  1
  O  O3  1  0.47732693  0.17365550  0.11783427  1
  O  O4  1  0.37064347  0.94162992  0.33003552  1
  O  O5  1  0.87064347  0.55837008  0.66996448  1
  O  O6  1  0.62935653  0.05837008  0.66996448  1
  O  O7  1  0.12935653  0.44162992  0.33003552  1
  O  O8  1  0.99704960  0.12526258  0.17446547  1
  O  O9  1  0.49704960  0.37473742  0.82553453  1
  O  O10  1  0.00295040  0.87473742  0.82553453  1
  O  O11  1  0.50295040  0.62526258  0.17446547  1
  O  O12  1  0.09182021  0.19741190  0.56431417  1
  O  O13  1  0.59182021  0.30258810  0.43568583  1
  O  O14  1  0.90817979  0.80258810  0.43568583  1
  O  O15  1  0.40817979  0.69741190  0.56431417  1
  Sb  Sb16  1  0.23177097  0.69575263  0.33688333  1
  Sb  Sb17  1  0.73177097  0.80424737  0.66311667  1
  Sb  Sb18  1  0.76822903  0.30424737  0.66311667  1
  Sb  Sb19  1  0.26822903  0.19575263  0.33688333  1
  Sm  Sm20  1  0.72509061  0.89468323  0.14693877  1
  Sm  Sm21  1  0.22509061  0.60531677  0.85306123  1
  Sm  Sm22  1  0.27490939  0.10531677  0.85306123  1
  Sm  Sm23  1  0.77490939  0.39468323  0.14693877  1
