# generated using pymatgen
data_NdSbO4
_symmetry_space_group_name_H-M   'P 1'
_cell_length_a   5.55912301
_cell_length_b   7.74260516
_cell_length_c   7.77257799
_cell_angle_alpha   100.16125684
_cell_angle_beta   90.00000000
_cell_angle_gamma   90.00000000
_symmetry_Int_Tables_number   1
_chemical_formula_structural   NdSbO4
_chemical_formula_sum   'Nd4 Sb4 O16'
_cell_volume   329.30069323
_cell_formula_units_Z   4
loop_
 _symmetry_equiv_pos_site_id
 _symmetry_equiv_pos_as_xyz
  1  'x, y, z'
loop_
 _atom_site_type_symbol
 _atom_site_label
 _atom_site_symmetry_multiplicity
 _atom_site_fract_x
 _atom_site_fract_y
 _atom_site_fract_z
 _atom_site_occupancy
  O  O0  1  0.02353672  0.67352738  0.11975399  1
  O  O1  1  0.52353672  0.82647262  0.88024601  1
  O  O2  1  0.97646328  0.32647262  0.88024601  1
  O  O3  1  0.47646328  0.17352738  0.11975399  1
  O  O4  1  0.36358860  0.94365596  0.33059767  1
  O  O5  1  0.86358860  0.55634404  0.66940233  1
  O  O6  1  0.63641140  0.05634404  0.66940233  1
  O  O7  1  0.13641140  0.44365596  0.33059767  1
  O  O8  1  0.00040229  0.12834182  0.17350585  1
  O  O9  1  0.50040229  0.37165818  0.82649415  1
  O  O10  1  0.99959771  0.87165818  0.82649415  1
  O  O11  1  0.49959771  0.62834182  0.17350585  1
  O  O12  1  0.09010579  0.20115226  0.56222372  1
  O  O13  1  0.59010579  0.29884774  0.43777628  1
  O  O14  1  0.90989421  0.79884774  0.43777628  1
  O  O15  1  0.40989421  0.70115226  0.56222372  1
  Sb  Sb16  1  0.23225550  0.69749875  0.33674379  1
  Sb  Sb17  1  0.73225550  0.80250125  0.66325621  1
  Sb  Sb18  1  0.76774450  0.30250125  0.66325621  1
  Sb  Sb19  1  0.26774450  0.19749875  0.33674379  1
  Nd  Nd20  1  0.72544248  0.89741120  0.14909620  1
  Nd  Nd21  1  0.22544248  0.60258880  0.85090380  1
  Nd  Nd22  1  0.27455752  0.10258880  0.85090380  1
  Nd  Nd23  1  0.77455752  0.39741120  0.14909620  1
