# generated using pymatgen
data_HoMg2Cu9
_symmetry_space_group_name_H-M   'P 1'
_cell_length_a   4.99248936
_cell_length_b   4.99248937
_cell_length_c   16.17753534
_cell_angle_alpha   90.00000000
_cell_angle_beta   90.00000000
_cell_angle_gamma   119.99999996
_symmetry_Int_Tables_number   1
_chemical_formula_structural   HoMg2Cu9
_chemical_formula_sum   'Ho2 Mg4 Cu18'
_cell_volume   349.20245276
_cell_formula_units_Z   2
loop_
 _symmetry_equiv_pos_site_id
 _symmetry_equiv_pos_as_xyz
  1  'x, y, z'
loop_
 _atom_site_type_symbol
 _atom_site_label
 _atom_site_symmetry_multiplicity
 _atom_site_fract_x
 _atom_site_fract_y
 _atom_site_fract_z
 _atom_site_occupancy
  Mg  Mg0  1  0.66666667  0.33333333  0.46713644  1
  Mg  Mg1  1  0.33333333  0.66666667  0.96713644  1
  Mg  Mg2  1  0.66666667  0.33333333  0.03286356  1
  Mg  Mg3  1  0.33333333  0.66666667  0.53286356  1
  Cu  Cu4  1  0.33333333  0.66666667  0.25000000  1
  Cu  Cu5  1  0.66666667  0.33333333  0.75000000  1
  Cu  Cu6  1  0.16805696  0.83194304  0.37662962  1
  Cu  Cu7  1  0.16805696  0.33611392  0.37662962  1
  Cu  Cu8  1  0.00000000  0.00000000  0.75000000  1
  Cu  Cu9  1  0.00000000  0.00000000  0.25000000  1
  Cu  Cu10  1  0.00000000  0.00000000  0.00000000  1
  Cu  Cu11  1  0.00000000  0.00000000  0.50000000  1
  Cu  Cu12  1  0.16805696  0.33611392  0.12337038  1
  Cu  Cu13  1  0.83194304  0.16805696  0.62337038  1
  Cu  Cu14  1  0.33611392  0.16805696  0.62337038  1
  Cu  Cu15  1  0.66388608  0.83194304  0.12337038  1
  Cu  Cu16  1  0.16805696  0.83194304  0.12337038  1
  Cu  Cu17  1  0.83194304  0.66388608  0.87662962  1
  Cu  Cu18  1  0.83194304  0.16805696  0.87662962  1
  Cu  Cu19  1  0.83194304  0.66388608  0.62337038  1
  Cu  Cu20  1  0.33611392  0.16805696  0.87662962  1
  Cu  Cu21  1  0.66388608  0.83194304  0.37662962  1
  Ho  Ho22  1  0.66666667  0.33333333  0.25000000  1
  Ho  Ho23  1  0.33333333  0.66666667  0.75000000  1
