# generated using pymatgen
data_K3YF6
_symmetry_space_group_name_H-M   'P 1'
_cell_length_a   6.40695357
_cell_length_b   6.65463810
_cell_length_c   9.16373742
_cell_angle_alpha   90.00000000
_cell_angle_beta   90.82123210
_cell_angle_gamma   90.00000000
_symmetry_Int_Tables_number   1
_chemical_formula_structural   K3YF6
_chemical_formula_sum   'K6 Y2 F12'
_cell_volume   390.66458506
_cell_formula_units_Z   2
loop_
 _symmetry_equiv_pos_site_id
 _symmetry_equiv_pos_as_xyz
  1  'x, y, z'
loop_
 _atom_site_type_symbol
 _atom_site_label
 _atom_site_symmetry_multiplicity
 _atom_site_fract_x
 _atom_site_fract_y
 _atom_site_fract_z
 _atom_site_occupancy
  F  F0  1  0.88345742  0.93741251  0.77722571  1
  F  F1  1  0.61654258  0.43741251  0.72277429  1
  F  F2  1  0.11654258  0.06258749  0.22277429  1
  F  F3  1  0.38345742  0.56258749  0.27722571  1
  F  F4  1  0.83091078  0.73082407  0.07477793  1
  F  F5  1  0.66908922  0.23082407  0.42522207  1
  F  F6  1  0.16908922  0.26917593  0.92522207  1
  F  F7  1  0.33091078  0.76917593  0.57477793  1
  F  F8  1  0.22068792  0.32331472  0.54952019  1
  F  F9  1  0.27931208  0.82331472  0.95047981  1
  F  F10  1  0.77931208  0.67668528  0.45047981  1
  F  F11  1  0.72068792  0.17668528  0.04952019  1
  K  K12  1  0.51599662  0.94891360  0.24326532  1
  K  K13  1  0.98400338  0.44891360  0.25673468  1
  K  K14  1  0.48400338  0.05108640  0.75673468  1
  K  K15  1  0.01599662  0.55108640  0.74326532  1
  K  K16  1  0.00000000  0.00000000  0.50000000  1
  K  K17  1  0.50000000  0.50000000  0.00000000  1
  Y  Y18  1  0.50000000  0.50000000  0.50000000  1
  Y  Y19  1  0.00000000  0.00000000  0.00000000  1
