# generated using pymatgen
data_PrMg2Cu9
_symmetry_space_group_name_H-M   'P 1'
_cell_length_a   5.06244047
_cell_length_b   5.06244047
_cell_length_c   16.16821944
_cell_angle_alpha   90.00000000
_cell_angle_beta   90.00000000
_cell_angle_gamma   119.99999996
_symmetry_Int_Tables_number   1
_chemical_formula_structural   PrMg2Cu9
_chemical_formula_sum   'Pr2 Mg4 Cu18'
_cell_volume   358.84978060
_cell_formula_units_Z   2
loop_
 _symmetry_equiv_pos_site_id
 _symmetry_equiv_pos_as_xyz
  1  'x, y, z'
loop_
 _atom_site_type_symbol
 _atom_site_label
 _atom_site_symmetry_multiplicity
 _atom_site_fract_x
 _atom_site_fract_y
 _atom_site_fract_z
 _atom_site_occupancy
  Mg  Mg0  1  0.66666667  0.33333333  0.46858639  1
  Mg  Mg1  1  0.33333333  0.66666667  0.96858639  1
  Mg  Mg2  1  0.66666667  0.33333333  0.03141361  1
  Mg  Mg3  1  0.33333333  0.66666667  0.53141361  1
  Cu  Cu4  1  0.33333333  0.66666667  0.25000000  1
  Cu  Cu5  1  0.66666667  0.33333333  0.75000000  1
  Cu  Cu6  1  0.16816603  0.83183397  0.37794180  1
  Cu  Cu7  1  0.16816603  0.33633205  0.37794180  1
  Cu  Cu8  1  0.00000000  0.00000000  0.75000000  1
  Cu  Cu9  1  0.00000000  0.00000000  0.25000000  1
  Cu  Cu10  1  0.00000000  0.00000000  0.00000000  1
  Cu  Cu11  1  0.00000000  0.00000000  0.50000000  1
  Cu  Cu12  1  0.16816603  0.33633205  0.12205820  1
  Cu  Cu13  1  0.83183397  0.16816603  0.62205820  1
  Cu  Cu14  1  0.33633205  0.16816603  0.62205820  1
  Cu  Cu15  1  0.66366795  0.83183397  0.12205820  1
  Cu  Cu16  1  0.16816603  0.83183397  0.12205820  1
  Cu  Cu17  1  0.83183397  0.66366795  0.87794180  1
  Cu  Cu18  1  0.83183397  0.16816603  0.87794180  1
  Cu  Cu19  1  0.83183397  0.66366795  0.62205820  1
  Cu  Cu20  1  0.33633205  0.16816603  0.87794180  1
  Cu  Cu21  1  0.66366795  0.83183397  0.37794180  1
  Pr  Pr22  1  0.66666667  0.33333333  0.25000000  1
  Pr  Pr23  1  0.33333333  0.66666667  0.75000000  1
