# generated using pymatgen
data_EuMg2Cu9
_symmetry_space_group_name_H-M   'P 1'
_cell_length_a   5.07074256
_cell_length_b   5.07074257
_cell_length_c   16.08856070
_cell_angle_alpha   90.00000000
_cell_angle_beta   90.00000000
_cell_angle_gamma   119.99999996
_symmetry_Int_Tables_number   1
_chemical_formula_structural   EuMg2Cu9
_chemical_formula_sum   'Eu2 Mg4 Cu18'
_cell_volume   358.25391907
_cell_formula_units_Z   2
loop_
 _symmetry_equiv_pos_site_id
 _symmetry_equiv_pos_as_xyz
  1  'x, y, z'
loop_
 _atom_site_type_symbol
 _atom_site_label
 _atom_site_symmetry_multiplicity
 _atom_site_fract_x
 _atom_site_fract_y
 _atom_site_fract_z
 _atom_site_occupancy
  Mg  Mg0  1  0.66666667  0.33333333  0.46805822  1
  Mg  Mg1  1  0.33333333  0.66666667  0.96805822  1
  Mg  Mg2  1  0.66666667  0.33333333  0.03194178  1
  Mg  Mg3  1  0.33333333  0.66666667  0.53194178  1
  Cu  Cu4  1  0.33333333  0.66666667  0.25000000  1
  Cu  Cu5  1  0.66666667  0.33333333  0.75000000  1
  Cu  Cu6  1  0.16841489  0.83158511  0.37794928  1
  Cu  Cu7  1  0.16841489  0.33682978  0.37794928  1
  Cu  Cu8  1  0.00000000  0.00000000  0.75000000  1
  Cu  Cu9  1  0.00000000  0.00000000  0.25000000  1
  Cu  Cu10  1  0.00000000  0.00000000  0.00000000  1
  Cu  Cu11  1  0.00000000  0.00000000  0.50000000  1
  Cu  Cu12  1  0.16841489  0.33682978  0.12205072  1
  Cu  Cu13  1  0.83158511  0.16841489  0.62205072  1
  Cu  Cu14  1  0.33682978  0.16841489  0.62205072  1
  Cu  Cu15  1  0.66317022  0.83158511  0.12205072  1
  Cu  Cu16  1  0.16841489  0.83158511  0.12205072  1
  Cu  Cu17  1  0.83158511  0.66317022  0.87794928  1
  Cu  Cu18  1  0.83158511  0.16841489  0.87794928  1
  Cu  Cu19  1  0.83158511  0.66317022  0.62205072  1
  Cu  Cu20  1  0.33682978  0.16841489  0.87794928  1
  Cu  Cu21  1  0.66317022  0.83158511  0.37794928  1
  Eu  Eu22  1  0.66666667  0.33333333  0.25000000  1
  Eu  Eu23  1  0.33333333  0.66666667  0.75000000  1
