# generated using pymatgen
data_NdMg2Cu9
_symmetry_space_group_name_H-M   'P 1'
_cell_length_a   5.05014563
_cell_length_b   5.05014563
_cell_length_c   16.17126802
_cell_angle_alpha   90.00000000
_cell_angle_beta   90.00000000
_cell_angle_gamma   120.00000004
_symmetry_Int_Tables_number   1
_chemical_formula_structural   NdMg2Cu9
_chemical_formula_sum   'Nd2 Mg4 Cu18'
_cell_volume   357.17619866
_cell_formula_units_Z   2
loop_
 _symmetry_equiv_pos_site_id
 _symmetry_equiv_pos_as_xyz
  1  'x, y, z'
loop_
 _atom_site_type_symbol
 _atom_site_label
 _atom_site_symmetry_multiplicity
 _atom_site_fract_x
 _atom_site_fract_y
 _atom_site_fract_z
 _atom_site_occupancy
  Mg  Mg0  1  0.66666667  0.33333333  0.46834701  1
  Mg  Mg1  1  0.33333333  0.66666667  0.96834701  1
  Mg  Mg2  1  0.66666667  0.33333333  0.03165299  1
  Mg  Mg3  1  0.33333333  0.66666667  0.53165299  1
  Cu  Cu4  1  0.33333333  0.66666667  0.25000000  1
  Cu  Cu5  1  0.66666667  0.33333333  0.75000000  1
  Cu  Cu6  1  0.16815260  0.83184740  0.37772824  1
  Cu  Cu7  1  0.16815260  0.33630520  0.37772824  1
  Cu  Cu8  1  0.00000000  0.00000000  0.75000000  1
  Cu  Cu9  1  0.00000000  0.00000000  0.25000000  1
  Cu  Cu10  1  0.00000000  0.00000000  0.00000000  1
  Cu  Cu11  1  0.00000000  0.00000000  0.50000000  1
  Cu  Cu12  1  0.16815260  0.33630520  0.12227176  1
  Cu  Cu13  1  0.83184740  0.16815260  0.62227176  1
  Cu  Cu14  1  0.33630520  0.16815260  0.62227176  1
  Cu  Cu15  1  0.66369480  0.83184740  0.12227176  1
  Cu  Cu16  1  0.16815260  0.83184740  0.12227176  1
  Cu  Cu17  1  0.83184740  0.66369480  0.87772824  1
  Cu  Cu18  1  0.83184740  0.16815260  0.87772824  1
  Cu  Cu19  1  0.83184740  0.66369480  0.62227176  1
  Cu  Cu20  1  0.33630520  0.16815260  0.87772824  1
  Cu  Cu21  1  0.66369480  0.83184740  0.37772824  1
  Nd  Nd22  1  0.66666667  0.33333333  0.25000000  1
  Nd  Nd23  1  0.33333333  0.66666667  0.75000000  1
