# generated using pymatgen
data_SmMg2Cu9
_symmetry_space_group_name_H-M   'P 1'
_cell_length_a   5.03133801
_cell_length_b   5.03133801
_cell_length_c   16.17737989
_cell_angle_alpha   90.00000000
_cell_angle_beta   90.00000000
_cell_angle_gamma   119.99999996
_symmetry_Int_Tables_number   1
_chemical_formula_structural   SmMg2Cu9
_chemical_formula_sum   'Sm2 Mg4 Cu18'
_cell_volume   354.65476956
_cell_formula_units_Z   2
loop_
 _symmetry_equiv_pos_site_id
 _symmetry_equiv_pos_as_xyz
  1  'x, y, z'
loop_
 _atom_site_type_symbol
 _atom_site_label
 _atom_site_symmetry_multiplicity
 _atom_site_fract_x
 _atom_site_fract_y
 _atom_site_fract_z
 _atom_site_occupancy
  Mg  Mg0  1  0.66666667  0.33333333  0.46793966  1
  Mg  Mg1  1  0.33333333  0.66666667  0.96793966  1
  Mg  Mg2  1  0.66666667  0.33333333  0.03206034  1
  Mg  Mg3  1  0.33333333  0.66666667  0.53206034  1
  Cu  Cu4  1  0.33333333  0.66666667  0.25000000  1
  Cu  Cu5  1  0.66666667  0.33333333  0.75000000  1
  Cu  Cu6  1  0.16812549  0.83187451  0.37736738  1
  Cu  Cu7  1  0.16812549  0.33625098  0.37736738  1
  Cu  Cu8  1  0.00000000  0.00000000  0.75000000  1
  Cu  Cu9  1  0.00000000  0.00000000  0.25000000  1
  Cu  Cu10  1  0.00000000  0.00000000  0.00000000  1
  Cu  Cu11  1  0.00000000  0.00000000  0.50000000  1
  Cu  Cu12  1  0.16812549  0.33625098  0.12263262  1
  Cu  Cu13  1  0.83187451  0.16812549  0.62263262  1
  Cu  Cu14  1  0.33625098  0.16812549  0.62263262  1
  Cu  Cu15  1  0.66374902  0.83187451  0.12263262  1
  Cu  Cu16  1  0.16812549  0.83187451  0.12263262  1
  Cu  Cu17  1  0.83187451  0.66374902  0.87736738  1
  Cu  Cu18  1  0.83187451  0.16812549  0.87736738  1
  Cu  Cu19  1  0.83187451  0.66374902  0.62263262  1
  Cu  Cu20  1  0.33625098  0.16812549  0.87736738  1
  Cu  Cu21  1  0.66374902  0.83187451  0.37736738  1
  Sm  Sm22  1  0.66666667  0.33333333  0.25000000  1
  Sm  Sm23  1  0.33333333  0.66666667  0.75000000  1
