# generated using pymatgen
data_YMg2Cu9
_symmetry_space_group_name_H-M   'P 1'
_cell_length_a   5.00799613
_cell_length_b   5.00799613
_cell_length_c   16.16618361
_cell_angle_alpha   90.00000000
_cell_angle_beta   90.00000000
_cell_angle_gamma   119.99999995
_symmetry_Int_Tables_number   1
_chemical_formula_structural   YMg2Cu9
_chemical_formula_sum   'Y2 Mg4 Cu18'
_cell_volume   351.12852156
_cell_formula_units_Z   2
loop_
 _symmetry_equiv_pos_site_id
 _symmetry_equiv_pos_as_xyz
  1  'x, y, z'
loop_
 _atom_site_type_symbol
 _atom_site_label
 _atom_site_symmetry_multiplicity
 _atom_site_fract_x
 _atom_site_fract_y
 _atom_site_fract_z
 _atom_site_occupancy
  Mg  Mg0  1  0.66666667  0.33333333  0.46718996  1
  Mg  Mg1  1  0.33333333  0.66666667  0.96718996  1
  Mg  Mg2  1  0.66666667  0.33333333  0.03281004  1
  Mg  Mg3  1  0.33333333  0.66666667  0.53281004  1
  Cu  Cu4  1  0.33333333  0.66666667  0.25000000  1
  Cu  Cu5  1  0.66666667  0.33333333  0.75000000  1
  Cu  Cu6  1  0.16811529  0.83188471  0.37690161  1
  Cu  Cu7  1  0.16811529  0.33623058  0.37690161  1
  Cu  Cu8  1  0.00000000  0.00000000  0.75000000  1
  Cu  Cu9  1  0.00000000  0.00000000  0.25000000  1
  Cu  Cu10  1  0.00000000  0.00000000  0.00000000  1
  Cu  Cu11  1  0.00000000  0.00000000  0.50000000  1
  Cu  Cu12  1  0.16811529  0.33623058  0.12309839  1
  Cu  Cu13  1  0.83188471  0.16811529  0.62309839  1
  Cu  Cu14  1  0.33623058  0.16811529  0.62309839  1
  Cu  Cu15  1  0.66376942  0.83188471  0.12309839  1
  Cu  Cu16  1  0.16811529  0.83188471  0.12309839  1
  Cu  Cu17  1  0.83188471  0.66376942  0.87690161  1
  Cu  Cu18  1  0.83188471  0.16811529  0.87690161  1
  Cu  Cu19  1  0.83188471  0.66376942  0.62309839  1
  Cu  Cu20  1  0.33623058  0.16811529  0.87690161  1
  Cu  Cu21  1  0.66376942  0.83188471  0.37690161  1
  Y  Y22  1  0.66666667  0.33333333  0.25000000  1
  Y  Y23  1  0.33333333  0.66666667  0.75000000  1
