# generated using pymatgen
data_YbMg2Cu9
_symmetry_space_group_name_H-M   'P 1'
_cell_length_a   4.97780123
_cell_length_b   4.97780123
_cell_length_c   16.19150179
_cell_angle_alpha   90.00000000
_cell_angle_beta   90.00000000
_cell_angle_gamma   120.00000005
_symmetry_Int_Tables_number   1
_chemical_formula_structural   YbMg2Cu9
_chemical_formula_sum   'Yb2 Mg4 Cu18'
_cell_volume   347.45043939
_cell_formula_units_Z   2
loop_
 _symmetry_equiv_pos_site_id
 _symmetry_equiv_pos_as_xyz
  1  'x, y, z'
loop_
 _atom_site_type_symbol
 _atom_site_label
 _atom_site_symmetry_multiplicity
 _atom_site_fract_x
 _atom_site_fract_y
 _atom_site_fract_z
 _atom_site_occupancy
  Mg  Mg0  1  0.66666667  0.33333333  0.46726253  1
  Mg  Mg1  1  0.33333333  0.66666667  0.96726253  1
  Mg  Mg2  1  0.66666667  0.33333333  0.03273747  1
  Mg  Mg3  1  0.33333333  0.66666667  0.53273747  1
  Cu  Cu4  1  0.33333333  0.66666667  0.25000000  1
  Cu  Cu5  1  0.66666667  0.33333333  0.75000000  1
  Cu  Cu6  1  0.16815275  0.83184725  0.37641453  1
  Cu  Cu7  1  0.16815275  0.33630550  0.37641453  1
  Cu  Cu8  1  0.00000000  0.00000000  0.75000000  1
  Cu  Cu9  1  0.00000000  0.00000000  0.25000000  1
  Cu  Cu10  1  0.00000000  0.00000000  0.00000000  1
  Cu  Cu11  1  0.00000000  0.00000000  0.50000000  1
  Cu  Cu12  1  0.16815275  0.33630550  0.12358547  1
  Cu  Cu13  1  0.83184725  0.16815275  0.62358547  1
  Cu  Cu14  1  0.33630550  0.16815275  0.62358547  1
  Cu  Cu15  1  0.66369450  0.83184725  0.12358547  1
  Cu  Cu16  1  0.16815275  0.83184725  0.12358547  1
  Cu  Cu17  1  0.83184725  0.66369450  0.87641453  1
  Cu  Cu18  1  0.83184725  0.16815275  0.87641453  1
  Cu  Cu19  1  0.83184725  0.66369450  0.62358547  1
  Cu  Cu20  1  0.33630550  0.16815275  0.87641453  1
  Cu  Cu21  1  0.66369450  0.83184725  0.37641453  1
  Yb  Yb22  1  0.66666667  0.33333333  0.25000000  1
  Yb  Yb23  1  0.33333333  0.66666667  0.75000000  1
