# generated using pymatgen
data_NaSrP
_symmetry_space_group_name_H-M   'P 1'
_cell_length_a   7.70670421
_cell_length_b   7.70670422
_cell_length_c   4.49808263
_cell_angle_alpha   90.00000000
_cell_angle_beta   90.00000000
_cell_angle_gamma   120.00000001
_symmetry_Int_Tables_number   1
_chemical_formula_structural   NaSrP
_chemical_formula_sum   'Na3 Sr3 P3'
_cell_volume   231.36381807
_cell_formula_units_Z   3
loop_
 _symmetry_equiv_pos_site_id
 _symmetry_equiv_pos_as_xyz
  1  'x, y, z'
loop_
 _atom_site_type_symbol
 _atom_site_label
 _atom_site_symmetry_multiplicity
 _atom_site_fract_x
 _atom_site_fract_y
 _atom_site_fract_z
 _atom_site_occupancy
  Na  Na0  1  0.75793633  0.00000000  0.00000000  1
  Na  Na1  1  0.24206367  0.24206367  0.00000000  1
  Na  Na2  1  0.00000000  0.75793633  0.00000000  1
  P  P3  1  0.33333333  0.66666667  0.00000000  1
  P  P4  1  0.00000000  0.00000000  0.50000000  1
  P  P5  1  0.66666667  0.33333333  0.00000000  1
  Sr  Sr6  1  0.00000000  0.41381624  0.50000000  1
  Sr  Sr7  1  0.41381624  0.00000000  0.50000000  1
  Sr  Sr8  1  0.58618376  0.58618376  0.50000000  1
