# generated using pymatgen
data_ErAsPd
_symmetry_space_group_name_H-M   'P 1'
_cell_length_a   4.11319431
_cell_length_b   7.01989774
_cell_length_c   7.94386319
_cell_angle_alpha   90.00000000
_cell_angle_beta   90.00000000
_cell_angle_gamma   90.00000000
_symmetry_Int_Tables_number   1
_chemical_formula_structural   ErAsPd
_chemical_formula_sum   'Er4 As4 Pd4'
_cell_volume   229.37272186
_cell_formula_units_Z   4
loop_
 _symmetry_equiv_pos_site_id
 _symmetry_equiv_pos_as_xyz
  1  'x, y, z'
loop_
 _atom_site_type_symbol
 _atom_site_label
 _atom_site_symmetry_multiplicity
 _atom_site_fract_x
 _atom_site_fract_y
 _atom_site_fract_z
 _atom_site_occupancy
  As  As0  1  0.25000000  0.74709719  0.12127062  1
  As  As1  1  0.75000000  0.25290281  0.87872938  1
  As  As2  1  0.25000000  0.24709719  0.37872938  1
  As  As3  1  0.75000000  0.75290281  0.62127062  1
  Pd  Pd4  1  0.75000000  0.35773828  0.56238458  1
  Pd  Pd5  1  0.25000000  0.64226172  0.43761542  1
  Pd  Pd6  1  0.75000000  0.85773828  0.93761542  1
  Pd  Pd7  1  0.25000000  0.14226172  0.06238458  1
  Er  Er8  1  0.25000000  0.53221209  0.80912530  1
  Er  Er9  1  0.75000000  0.46778791  0.19087470  1
  Er  Er10  1  0.25000000  0.03221209  0.69087470  1
  Er  Er11  1  0.75000000  0.96778791  0.30912530  1
