# generated using pymatgen
data_MgSi7Ir3
_symmetry_space_group_name_H-M   'P 1'
_cell_length_a   7.99258155
_cell_length_b   7.99258154
_cell_length_c   7.99258154
_cell_angle_alpha   56.53912833
_cell_angle_beta   56.53912835
_cell_angle_gamma   56.53912834
_symmetry_Int_Tables_number   1
_chemical_formula_structural   MgSi7Ir3
_chemical_formula_sum   'Mg2 Si14 Ir6'
_cell_volume   332.15769790
_cell_formula_units_Z   2
loop_
 _symmetry_equiv_pos_site_id
 _symmetry_equiv_pos_as_xyz
  1  'x, y, z'
loop_
 _atom_site_type_symbol
 _atom_site_label
 _atom_site_symmetry_multiplicity
 _atom_site_fract_x
 _atom_site_fract_y
 _atom_site_fract_z
 _atom_site_occupancy
  Mg  Mg0  1  0.50000000  0.50000000  0.50000000  1
  Mg  Mg1  1  0.00000000  0.00000000  0.00000000  1
  Si  Si2  1  0.06468655  0.85010973  0.67295816  1
  Si  Si3  1  0.85010973  0.67295816  0.06468655  1
  Si  Si4  1  0.67295816  0.06468655  0.85010973  1
  Si  Si5  1  0.82704184  0.64989027  0.43531345  1
  Si  Si6  1  0.25000000  0.25000000  0.25000000  1
  Si  Si7  1  0.75000000  0.75000000  0.75000000  1
  Si  Si8  1  0.56468655  0.17295816  0.35010973  1
  Si  Si9  1  0.35010973  0.56468655  0.17295816  1
  Si  Si10  1  0.17295816  0.35010973  0.56468655  1
  Si  Si11  1  0.32704184  0.93531345  0.14989027  1
  Si  Si12  1  0.14989027  0.32704184  0.93531345  1
  Si  Si13  1  0.93531345  0.14989027  0.32704184  1
  Si  Si14  1  0.43531345  0.82704184  0.64989027  1
  Si  Si15  1  0.64989027  0.43531345  0.82704184  1
  Ir  Ir16  1  0.07380701  0.75000000  0.42619299  1
  Ir  Ir17  1  0.75000000  0.42619299  0.07380701  1
  Ir  Ir18  1  0.42619299  0.07380701  0.75000000  1
  Ir  Ir19  1  0.92619299  0.25000000  0.57380701  1
  Ir  Ir20  1  0.25000000  0.57380701  0.92619299  1
  Ir  Ir21  1  0.57380701  0.92619299  0.25000000  1
