# generated using pymatgen
data_Sm2Mo2C3
_symmetry_space_group_name_H-M   'P 1'
_cell_length_a   3.46427995
_cell_length_b   5.83243292
_cell_length_c   5.94894902
_cell_angle_alpha   105.70324705
_cell_angle_beta   106.92785903
_cell_angle_gamma   90.00000004
_symmetry_Int_Tables_number   1
_chemical_formula_structural   Sm2Mo2C3
_chemical_formula_sum   'Sm2 Mo2 C3'
_cell_volume   110.29367902
_cell_formula_units_Z   1
loop_
 _symmetry_equiv_pos_site_id
 _symmetry_equiv_pos_as_xyz
  1  'x, y, z'
loop_
 _atom_site_type_symbol
 _atom_site_label
 _atom_site_symmetry_multiplicity
 _atom_site_fract_x
 _atom_site_fract_y
 _atom_site_fract_z
 _atom_site_occupancy
  C  C0  1  0.00000000  0.50000000  0.00000000  1
  C  C1  1  0.27542657  0.73394478  0.55085314  1
  C  C2  1  0.72457343  0.26605522  0.44914686  1
  Mo  Mo3  1  0.15241657  0.38224052  0.30483314  1
  Mo  Mo4  1  0.84758343  0.61775948  0.69516686  1
  Sm  Sm5  1  0.38887625  0.17625532  0.77775251  1
  Sm  Sm6  1  0.61112375  0.82374468  0.22224749  1
