# generated using pymatgen
data_InAgS2
_symmetry_space_group_name_H-M   'P 1'
_cell_length_a   15.88543546
_cell_length_b   6.73056710
_cell_length_c   8.15670611
_cell_angle_alpha   151.93483257
_cell_angle_beta   166.84687562
_cell_angle_gamma   25.01644586
_symmetry_Int_Tables_number   1
_chemical_formula_structural   InAgS2
_chemical_formula_sum   'In1 Ag1 S2'
_cell_volume   83.92011810
_cell_formula_units_Z   1
loop_
 _symmetry_equiv_pos_site_id
 _symmetry_equiv_pos_as_xyz
  1  'x, y, z'
loop_
 _atom_site_type_symbol
 _atom_site_label
 _atom_site_symmetry_multiplicity
 _atom_site_fract_x
 _atom_site_fract_y
 _atom_site_fract_z
 _atom_site_occupancy
  In  In0  1  0.00000000  0.00000000  0.00000000  1
  Ag  Ag1  1  0.00000000  0.50000000  0.00000000  1
  S  S2  1  0.35453804  0.06357038  0.99999959  1
  S  S3  1  0.64546196  0.93642962  0.00000041  1
