# generated using pymatgen
data_Nb2FeO6
_symmetry_space_group_name_H-M   'P 1'
_cell_length_a   5.46800415
_cell_length_b   5.89848749
_cell_length_c   15.28269579
_cell_angle_alpha   90.00179297
_cell_angle_beta   89.98889916
_cell_angle_gamma   89.99594302
_symmetry_Int_Tables_number   1
_chemical_formula_structural   Nb2FeO6
_chemical_formula_sum   'Nb8 Fe4 O24'
_cell_volume   492.91207451
_cell_formula_units_Z   4
loop_
 _symmetry_equiv_pos_site_id
 _symmetry_equiv_pos_as_xyz
  1  'x, y, z'
loop_
 _atom_site_type_symbol
 _atom_site_label
 _atom_site_symmetry_multiplicity
 _atom_site_fract_x
 _atom_site_fract_y
 _atom_site_fract_z
 _atom_site_occupancy
  Nb  Nb0  1  0.93579234  0.18086935  0.16244560  1
  Nb  Nb1  1  0.56458105  0.68073536  0.66236865  1
  Nb  Nb2  1  0.06469235  0.31921086  0.66236346  1
  Nb  Nb3  1  0.43575340  0.81914129  0.16246902  1
  Nb  Nb4  1  0.06440111  0.81915496  0.83757310  1
  Nb  Nb5  1  0.56436446  0.18081358  0.83760593  1
  Nb  Nb6  1  0.93579394  0.68122516  0.33767007  1
  Nb  Nb7  1  0.43574736  0.31874184  0.33769390  1
  Fe  Fe8  1  0.74861882  0.15979902  0.50033157  1
  Fe  Fe9  1  0.24999219  0.34054113  0.00007949  1
  Fe  Fe10  1  0.24877577  0.84041477  0.50024240  1
  Fe  Fe11  1  0.74990117  0.65995771  0.00003016  1
  O  O12  1  0.77504985  0.93330439  0.10618251  1
  O  O13  1  0.05137940  0.59717165  0.92278629  1
  O  O14  1  0.05164822  0.09782931  0.57727536  1
  O  O15  1  0.44830217  0.09697675  0.42266806  1
  O  O16  1  0.17495526  0.70495432  0.23327310  1
  O  O17  1  0.94823446  0.90304885  0.42264118  1
  O  O18  1  0.22519135  0.06657551  0.89375162  1
  O  O19  1  0.32534384  0.20489563  0.73336544  1
  O  O20  1  0.32507641  0.70476301  0.76663354  1
  O  O21  1  0.44854338  0.59723462  0.07727252  1
  O  O22  1  0.72512928  0.93332084  0.89376892  1
  O  O23  1  0.77508065  0.43330551  0.39362880  1
  O  O24  1  0.17507295  0.20486858  0.26658148  1
  O  O25  1  0.27503229  0.06666020  0.10618950  1
  O  O26  1  0.22531324  0.56678912  0.60615211  1
  O  O27  1  0.55150300  0.40277719  0.92283219  1
  O  O28  1  0.27506767  0.56664887  0.39364518  1
  O  O29  1  0.82530454  0.79501317  0.73335761  1
  O  O30  1  0.82504827  0.29502386  0.76663783  1
  O  O31  1  0.55158848  0.90225903  0.57727453  1
  O  O32  1  0.94841529  0.40277543  0.07722486  1
  O  O33  1  0.67495060  0.29492172  0.23327475  1
  O  O34  1  0.67504195  0.79511223  0.26658069  1
  O  O35  1  0.72531349  0.43316515  0.60612859  1
