# generated using pymatgen
data_Ba2EuNbO6
_symmetry_space_group_name_H-M   'P 1'
_cell_length_a   6.07279643
_cell_length_b   6.07279643
_cell_length_c   6.11469188
_cell_angle_alpha   119.77360833
_cell_angle_beta   119.77360839
_cell_angle_gamma   90.00000003
_symmetry_Int_Tables_number   1
_chemical_formula_structural   Ba2EuNbO6
_chemical_formula_sum   'Ba2 Eu1 Nb1 O6'
_cell_volume   160.53967546
_cell_formula_units_Z   1
loop_
 _symmetry_equiv_pos_site_id
 _symmetry_equiv_pos_as_xyz
  1  'x, y, z'
loop_
 _atom_site_type_symbol
 _atom_site_label
 _atom_site_symmetry_multiplicity
 _atom_site_fract_x
 _atom_site_fract_y
 _atom_site_fract_z
 _atom_site_occupancy
  O  O0  1  0.69099524  0.77425561  0.00000000  1
  O  O1  1  0.22574439  0.69099524  0.00000000  1
  O  O2  1  0.77425561  0.30900476  0.00000000  1
  O  O3  1  0.30900476  0.22574439  0.00000000  1
  O  O4  1  0.26665887  0.26665887  0.53331775  1
  O  O5  1  0.73334113  0.73334113  0.46668225  1
  Nb  Nb6  1  0.50000000  0.50000000  0.00000000  1
  Ba  Ba7  1  0.75000000  0.25000000  0.50000000  1
  Ba  Ba8  1  0.25000000  0.75000000  0.50000000  1
  Eu  Eu9  1  0.00000000  0.00000000  0.00000000  1
