# generated using pymatgen
data_NdLuSe3
_symmetry_space_group_name_H-M   'P 1'
_cell_length_a   4.02916119
_cell_length_b   6.86544777
_cell_length_c   9.96825210
_cell_angle_alpha   90.00000000
_cell_angle_beta   90.00000000
_cell_angle_gamma   107.06387337
_symmetry_Int_Tables_number   1
_chemical_formula_structural   NdLuSe3
_chemical_formula_sum   'Nd2 Lu2 Se6'
_cell_volume   263.60310594
_cell_formula_units_Z   2
loop_
 _symmetry_equiv_pos_site_id
 _symmetry_equiv_pos_as_xyz
  1  'x, y, z'
loop_
 _atom_site_type_symbol
 _atom_site_label
 _atom_site_symmetry_multiplicity
 _atom_site_fract_x
 _atom_site_fract_y
 _atom_site_fract_z
 _atom_site_occupancy
  Se  Se0  1  0.91332085  0.82664171  0.25000000  1
  Se  Se1  1  0.08667915  0.17335829  0.75000000  1
  Se  Se2  1  0.35668305  0.71336610  0.56212240  1
  Se  Se3  1  0.64331695  0.28663390  0.43787760  1
  Se  Se4  1  0.35668305  0.71336610  0.93787760  1
  Se  Se5  1  0.64331695  0.28663390  0.06212240  1
  Nd  Nd6  1  0.74837855  0.49675711  0.75000000  1
  Nd  Nd7  1  0.25162145  0.50324289  0.25000000  1
  Lu  Lu8  1  0.00000000  0.00000000  0.00000000  1
  Lu  Lu9  1  0.00000000  0.00000000  0.50000000  1
