# generated using pymatgen
data_PrLuSe3
_symmetry_space_group_name_H-M   'P 1'
_cell_length_a   4.04905358
_cell_length_b   6.88341664
_cell_length_c   9.99265166
_cell_angle_alpha   90.00000000
_cell_angle_beta   90.00000000
_cell_angle_gamma   107.10456973
_symmetry_Int_Tables_number   1
_chemical_formula_structural   PrLuSe3
_chemical_formula_sum   'Pr2 Lu2 Se6'
_cell_volume   266.18986984
_cell_formula_units_Z   2
loop_
 _symmetry_equiv_pos_site_id
 _symmetry_equiv_pos_as_xyz
  1  'x, y, z'
loop_
 _atom_site_type_symbol
 _atom_site_label
 _atom_site_symmetry_multiplicity
 _atom_site_fract_x
 _atom_site_fract_y
 _atom_site_fract_z
 _atom_site_occupancy
  Se  Se0  1  0.91468230  0.82936461  0.25000000  1
  Se  Se1  1  0.08531770  0.17063539  0.75000000  1
  Se  Se2  1  0.35726872  0.71453744  0.56130327  1
  Se  Se3  1  0.64273128  0.28546256  0.43869673  1
  Se  Se4  1  0.35726872  0.71453744  0.93869673  1
  Se  Se5  1  0.64273128  0.28546256  0.06130327  1
  Pr  Pr6  1  0.74801278  0.49602555  0.75000000  1
  Pr  Pr7  1  0.25198722  0.50397445  0.25000000  1
  Lu  Lu8  1  0.00000000  0.00000000  0.00000000  1
  Lu  Lu9  1  0.00000000  0.00000000  0.50000000  1
