# generated using pymatgen
data_HgS4(NCl)3
_symmetry_space_group_name_H-M   'P 1'
_cell_length_a   6.37405471
_cell_length_b   10.20882209
_cell_length_c   17.72675543
_cell_angle_alpha   90.00000000
_cell_angle_beta   90.00000000
_cell_angle_gamma   110.00582867
_symmetry_Int_Tables_number   1
_chemical_formula_structural   HgS4(NCl)3
_chemical_formula_sum   'Hg4 S16 N12 Cl12'
_cell_volume   1083.90297563
_cell_formula_units_Z   4
loop_
 _symmetry_equiv_pos_site_id
 _symmetry_equiv_pos_as_xyz
  1  'x, y, z'
loop_
 _atom_site_type_symbol
 _atom_site_label
 _atom_site_symmetry_multiplicity
 _atom_site_fract_x
 _atom_site_fract_y
 _atom_site_fract_z
 _atom_site_occupancy
  Hg  Hg0  1  0.23324212  0.44404996  0.42762573  1
  Hg  Hg1  1  0.76675788  0.55595004  0.57237427  1
  Hg  Hg2  1  0.73324212  0.94404996  0.07237427  1
  Hg  Hg3  1  0.26675788  0.05595004  0.92762573  1
  S  S4  1  0.20103185  0.90188358  0.45298648  1
  S  S5  1  0.81643719  0.47233279  0.26377684  1
  S  S6  1  0.29896815  0.59811642  0.95298648  1
  S  S7  1  0.79896815  0.09811642  0.54701352  1
  S  S8  1  0.39499892  0.32104164  0.17712606  1
  S  S9  1  0.70103185  0.40188358  0.04701352  1
  S  S10  1  0.60500108  0.67895836  0.82287394  1
  S  S11  1  0.03518344  0.53517015  0.17001445  1
  S  S12  1  0.18356281  0.52766721  0.73622316  1
  S  S13  1  0.68356281  0.02766721  0.76377684  1
  S  S14  1  0.53518344  0.03517015  0.32998555  1
  S  S15  1  0.31643719  0.97233279  0.23622316  1
  S  S16  1  0.96481656  0.46482985  0.82998555  1
  S  S17  1  0.46481656  0.96482985  0.67001445  1
  S  S18  1  0.10500108  0.17895836  0.67712606  1
  S  S19  1  0.89499892  0.82104164  0.32287394  1
  N  N20  1  0.08593789  0.51865086  0.90718886  1
  N  N21  1  0.91406211  0.48134914  0.09281114  1
  N  N22  1  0.97438484  0.83528651  0.40804022  1
  N  N23  1  0.07050325  0.89004376  0.26093803  1
  N  N24  1  0.57050325  0.39004376  0.23906197  1
  N  N25  1  0.42949675  0.60995624  0.76093803  1
  N  N26  1  0.41406211  0.98134914  0.40718886  1
  N  N27  1  0.92949675  0.10995624  0.73906197  1
  N  N28  1  0.52561516  0.66471349  0.90804022  1
  N  N29  1  0.58593789  0.01865086  0.59281114  1
  N  N30  1  0.02561516  0.16471349  0.59195978  1
  N  N31  1  0.47438484  0.33528651  0.09195978  1
  Cl  Cl32  1  0.71039682  0.37193223  0.67747864  1
  Cl  Cl33  1  0.29271208  0.56754669  0.54837296  1
  Cl  Cl34  1  0.59481630  0.71050760  0.12357131  1
  Cl  Cl35  1  0.20728792  0.93245331  0.04837296  1
  Cl  Cl36  1  0.28960318  0.62806777  0.32252136  1
  Cl  Cl37  1  0.40518370  0.28949240  0.87642869  1
  Cl  Cl38  1  0.79271208  0.06754669  0.95162704  1
  Cl  Cl39  1  0.21039682  0.87193223  0.82252136  1
  Cl  Cl40  1  0.70728792  0.43245331  0.45162704  1
  Cl  Cl41  1  0.78960318  0.12806777  0.17747864  1
  Cl  Cl42  1  0.90518370  0.78949240  0.62357131  1
  Cl  Cl43  1  0.09481630  0.21050760  0.37642869  1
