# generated using pymatgen
data_YB4Rh
_symmetry_space_group_name_H-M   'P 1'
_cell_length_a   3.57644638
_cell_length_b   5.97059368
_cell_length_c   11.58605748
_cell_angle_alpha   90.00000000
_cell_angle_beta   90.00000000
_cell_angle_gamma   90.00000000
_symmetry_Int_Tables_number   1
_chemical_formula_structural   YB4Rh
_chemical_formula_sum   'Y4 B16 Rh4'
_cell_volume   247.40297286
_cell_formula_units_Z   4
loop_
 _symmetry_equiv_pos_site_id
 _symmetry_equiv_pos_as_xyz
  1  'x, y, z'
loop_
 _atom_site_type_symbol
 _atom_site_label
 _atom_site_symmetry_multiplicity
 _atom_site_fract_x
 _atom_site_fract_y
 _atom_site_fract_z
 _atom_site_occupancy
  B  B0  1  0.50000000  0.78985110  0.68690607  1
  B  B1  1  0.50000000  0.21014890  0.31309393  1
  B  B2  1  0.50000000  0.28985110  0.81309393  1
  B  B3  1  0.50000000  0.71014890  0.18690607  1
  B  B4  1  0.50000000  0.86352046  0.53072538  1
  B  B5  1  0.50000000  0.13647954  0.46927462  1
  B  B6  1  0.50000000  0.36352046  0.96927462  1
  B  B7  1  0.50000000  0.63647954  0.03072538  1
  B  B8  1  0.50000000  0.02174307  0.19248235  1
  B  B9  1  0.50000000  0.97825693  0.80751765  1
  B  B10  1  0.50000000  0.52174307  0.30751765  1
  B  B11  1  0.50000000  0.47825693  0.69248235  1
  B  B12  1  0.50000000  0.11212986  0.04691830  1
  B  B13  1  0.50000000  0.88787014  0.95308170  1
  B  B14  1  0.50000000  0.61212986  0.45308170  1
  B  B15  1  0.50000000  0.38787014  0.54691830  1
  Y  Y16  1  0.00000000  0.36857615  0.14894113  1
  Y  Y17  1  0.00000000  0.63142385  0.85105887  1
  Y  Y18  1  0.00000000  0.86857615  0.35105887  1
  Y  Y19  1  0.00000000  0.13142385  0.64894113  1
  Rh  Rh20  1  0.00000000  0.85760425  0.09433513  1
  Rh  Rh21  1  0.00000000  0.14239575  0.90566487  1
  Rh  Rh22  1  0.00000000  0.35760425  0.40566487  1
  Rh  Rh23  1  0.00000000  0.64239575  0.59433513  1
