# generated using pymatgen
data_CsUAgS3
_symmetry_space_group_name_H-M   'P 1'
_cell_length_a   4.13707766
_cell_length_b   8.06236355
_cell_length_c   10.54877551
_cell_angle_alpha   90.00000000
_cell_angle_beta   90.00000000
_cell_angle_gamma   104.86647477
_symmetry_Int_Tables_number   1
_chemical_formula_structural   CsUAgS3
_chemical_formula_sum   'Cs2 U2 Ag2 S6'
_cell_volume   340.07273040
_cell_formula_units_Z   2
loop_
 _symmetry_equiv_pos_site_id
 _symmetry_equiv_pos_as_xyz
  1  'x, y, z'
loop_
 _atom_site_type_symbol
 _atom_site_label
 _atom_site_symmetry_multiplicity
 _atom_site_fract_x
 _atom_site_fract_y
 _atom_site_fract_z
 _atom_site_occupancy
  S  S0  1  0.38683206  0.77366413  0.53663384  1
  S  S1  1  0.61316794  0.22633587  0.46336616  1
  S  S2  1  0.61316794  0.22633587  0.03663384  1
  S  S3  1  0.05289817  0.10579633  0.75000000  1
  S  S4  1  0.94710183  0.89420367  0.25000000  1
  S  S5  1  0.38683206  0.77366413  0.96336616  1
  Ag  Ag6  1  0.45509071  0.91018142  0.75000000  1
  Ag  Ag7  1  0.54490929  0.08981858  0.25000000  1
  Cs  Cs8  1  0.26103671  0.52207342  0.25000000  1
  Cs  Cs9  1  0.73896329  0.47792658  0.75000000  1
  U  U10  1  0.00000000  0.00000000  0.50000000  1
  U  U11  1  0.00000000  0.00000000  0.00000000  1
