# generated using pymatgen
data_RbUAgS3
_symmetry_space_group_name_H-M   'P 1'
_cell_length_a   4.12002525
_cell_length_b   7.72451378
_cell_length_c   10.53494965
_cell_angle_alpha   90.00000000
_cell_angle_beta   90.00000000
_cell_angle_gamma   105.46710495
_symmetry_Int_Tables_number   1
_chemical_formula_structural   RbUAgS3
_chemical_formula_sum   'Rb2 U2 Ag2 S6'
_cell_volume   323.13431621
_cell_formula_units_Z   2
loop_
 _symmetry_equiv_pos_site_id
 _symmetry_equiv_pos_as_xyz
  1  'x, y, z'
loop_
 _atom_site_type_symbol
 _atom_site_label
 _atom_site_symmetry_multiplicity
 _atom_site_fract_x
 _atom_site_fract_y
 _atom_site_fract_z
 _atom_site_occupancy
  S  S0  1  0.38118511  0.76237023  0.03713379  1
  S  S1  1  0.61881489  0.23762977  0.96286621  1
  S  S2  1  0.61881489  0.23762977  0.53713379  1
  S  S3  1  0.05633838  0.11267676  0.25000000  1
  S  S4  1  0.94366162  0.88732324  0.75000000  1
  S  S5  1  0.38118511  0.76237023  0.46286621  1
  Rb  Rb6  1  0.73804959  0.47609918  0.25000000  1
  Rb  Rb7  1  0.26195041  0.52390082  0.75000000  1
  Ag  Ag8  1  0.54701794  0.09403587  0.75000000  1
  Ag  Ag9  1  0.45298206  0.90596413  0.25000000  1
  U  U10  1  0.00000000  0.00000000  0.00000000  1
  U  U11  1  0.00000000  0.00000000  0.50000000  1
