# generated using pymatgen
data_RbSc5Te8
_symmetry_space_group_name_H-M   'P 1'
_cell_length_a   4.17808805
_cell_length_b   10.35527473
_cell_length_c   10.98042956
_cell_angle_alpha   104.19271308
_cell_angle_beta   100.96746619
_cell_angle_gamma   90.00000001
_symmetry_Int_Tables_number   1
_chemical_formula_structural   RbSc5Te8
_chemical_formula_sum   'Rb1 Sc5 Te8'
_cell_volume   451.61469639
_cell_formula_units_Z   1
loop_
 _symmetry_equiv_pos_site_id
 _symmetry_equiv_pos_as_xyz
  1  'x, y, z'
loop_
 _atom_site_type_symbol
 _atom_site_label
 _atom_site_symmetry_multiplicity
 _atom_site_fract_x
 _atom_site_fract_y
 _atom_site_fract_z
 _atom_site_occupancy
  Sc  Sc0  1  0.20554868  0.84405806  0.41109735  1
  Sc  Sc1  1  0.50000000  0.50000000  0.00000000  1
  Sc  Sc2  1  0.84419568  0.52170099  0.68839135  1
  Sc  Sc3  1  0.15580432  0.47829901  0.31160865  1
  Sc  Sc4  1  0.79445132  0.15594194  0.58890265  1
  Rb  Rb5  1  0.00000000  0.00000000  0.00000000  1
  Te  Te6  1  0.92493222  0.33464573  0.84986444  1
  Te  Te7  1  0.07506778  0.66535427  0.15013556  1
  Te  Te8  1  0.58451554  0.31604396  0.16903109  1
  Te  Te9  1  0.41548446  0.68395604  0.83096891  1
  Te  Te10  1  0.66471762  0.99668786  0.32943525  1
  Te  Te11  1  0.33528238  0.00331214  0.67056475  1
  Te  Te12  1  0.73822296  0.65832543  0.47644593  1
  Te  Te13  1  0.26177704  0.34167457  0.52355407  1
