# generated using pymatgen
data_CsUCuS3
_symmetry_space_group_name_H-M   'P 1'
_cell_length_a   4.00009078
_cell_length_b   8.00505777
_cell_length_c   10.32876300
_cell_angle_alpha   90.00000000
_cell_angle_beta   90.00000000
_cell_angle_gamma   104.46850092
_symmetry_Int_Tables_number   1
_chemical_formula_structural   CsUCuS3
_chemical_formula_sum   'Cs2 U2 Cu2 S6'
_cell_volume   320.24761106
_cell_formula_units_Z   2
loop_
 _symmetry_equiv_pos_site_id
 _symmetry_equiv_pos_as_xyz
  1  'x, y, z'
loop_
 _atom_site_type_symbol
 _atom_site_label
 _atom_site_symmetry_multiplicity
 _atom_site_fract_x
 _atom_site_fract_y
 _atom_site_fract_z
 _atom_site_occupancy
  S  S0  1  0.38814203  0.77628405  0.55915255  1
  S  S1  1  0.61185797  0.22371595  0.44084745  1
  S  S2  1  0.61185797  0.22371595  0.05915255  1
  S  S3  1  0.05181179  0.10362358  0.75000000  1
  S  S4  1  0.94818821  0.89637642  0.25000000  1
  S  S5  1  0.38814203  0.77628405  0.94084745  1
  Cu  Cu6  1  0.46621405  0.93242811  0.75000000  1
  Cu  Cu7  1  0.53378595  0.06757189  0.25000000  1
  Cs  Cs8  1  0.25947458  0.51894916  0.25000000  1
  Cs  Cs9  1  0.74052542  0.48105084  0.75000000  1
  U  U10  1  0.00000000  0.00000000  0.50000000  1
  U  U11  1  0.00000000  0.00000000  0.00000000  1
