# generated using pymatgen
data_ErB4Rh
_symmetry_space_group_name_H-M   'P 1'
_cell_length_a   3.55383808
_cell_length_b   5.94177222
_cell_length_c   11.52929149
_cell_angle_alpha   90.00000000
_cell_angle_beta   90.00000000
_cell_angle_gamma   90.00000000
_symmetry_Int_Tables_number   1
_chemical_formula_structural   ErB4Rh
_chemical_formula_sum   'Er4 B16 Rh4'
_cell_volume   243.45363027
_cell_formula_units_Z   4
loop_
 _symmetry_equiv_pos_site_id
 _symmetry_equiv_pos_as_xyz
  1  'x, y, z'
loop_
 _atom_site_type_symbol
 _atom_site_label
 _atom_site_symmetry_multiplicity
 _atom_site_fract_x
 _atom_site_fract_y
 _atom_site_fract_z
 _atom_site_occupancy
  B  B0  1  0.50000000  0.79076691  0.68730498  1
  B  B1  1  0.50000000  0.20923309  0.31269502  1
  B  B2  1  0.50000000  0.29076691  0.81269502  1
  B  B3  1  0.50000000  0.70923309  0.18730498  1
  B  B4  1  0.50000000  0.86420798  0.53056915  1
  B  B5  1  0.50000000  0.13579202  0.46943085  1
  B  B6  1  0.50000000  0.36420798  0.96943085  1
  B  B7  1  0.50000000  0.63579202  0.03056915  1
  B  B8  1  0.50000000  0.02185370  0.19297726  1
  B  B9  1  0.50000000  0.97814630  0.80702274  1
  B  B10  1  0.50000000  0.52185370  0.30702274  1
  B  B11  1  0.50000000  0.47814630  0.69297726  1
  B  B12  1  0.50000000  0.11282372  0.04727263  1
  B  B13  1  0.50000000  0.88717628  0.95272737  1
  B  B14  1  0.50000000  0.61282372  0.45272737  1
  B  B15  1  0.50000000  0.38717628  0.54727263  1
  Rh  Rh16  1  0.00000000  0.64282038  0.59473810  1
  Rh  Rh17  1  0.00000000  0.35717962  0.40526190  1
  Rh  Rh18  1  0.00000000  0.14282038  0.90526190  1
  Rh  Rh19  1  0.00000000  0.85717962  0.09473810  1
  Er  Er20  1  0.00000000  0.13146343  0.64883909  1
  Er  Er21  1  0.00000000  0.86853657  0.35116091  1
  Er  Er22  1  0.00000000  0.63146343  0.85116091  1
  Er  Er23  1  0.00000000  0.36853657  0.14883909  1
