# generated using pymatgen
data_KUCuS3
_symmetry_space_group_name_H-M   'P 1'
_cell_length_a   3.96195785
_cell_length_b   7.34636645
_cell_length_c   10.29570839
_cell_angle_alpha   90.00000000
_cell_angle_beta   90.00000000
_cell_angle_gamma   105.64369364
_symmetry_Int_Tables_number   1
_chemical_formula_structural   KUCuS3
_chemical_formula_sum   'K2 U2 Cu2 S6'
_cell_volume   288.56633311
_cell_formula_units_Z   2
loop_
 _symmetry_equiv_pos_site_id
 _symmetry_equiv_pos_as_xyz
  1  'x, y, z'
loop_
 _atom_site_type_symbol
 _atom_site_label
 _atom_site_symmetry_multiplicity
 _atom_site_fract_x
 _atom_site_fract_y
 _atom_site_fract_z
 _atom_site_occupancy
  S  S0  1  0.37759893  0.75519786  0.56286231  1
  S  S1  1  0.62240107  0.24480214  0.43713769  1
  S  S2  1  0.62240107  0.24480214  0.06286231  1
  S  S3  1  0.06139469  0.12278938  0.75000000  1
  S  S4  1  0.93860531  0.87721062  0.25000000  1
  S  S5  1  0.37759893  0.75519786  0.93713769  1
  K  K6  1  0.25662014  0.51324029  0.25000000  1
  K  K7  1  0.74337986  0.48675971  0.75000000  1
  Cu  Cu8  1  0.46727043  0.93454086  0.75000000  1
  Cu  Cu9  1  0.53272957  0.06545914  0.25000000  1
  U  U10  1  0.00000000  0.00000000  0.50000000  1
  U  U11  1  0.00000000  0.00000000  0.00000000  1
