# generated using pymatgen
data_TmB4Rh
_symmetry_space_group_name_H-M   'P 1'
_cell_length_a   3.54376183
_cell_length_b   5.93107158
_cell_length_c   11.50666900
_cell_angle_alpha   90.00000000
_cell_angle_beta   90.00000000
_cell_angle_gamma   90.00000000
_symmetry_Int_Tables_number   1
_chemical_formula_structural   TmB4Rh
_chemical_formula_sum   'Tm4 B16 Rh4'
_cell_volume   241.85067945
_cell_formula_units_Z   4
loop_
 _symmetry_equiv_pos_site_id
 _symmetry_equiv_pos_as_xyz
  1  'x, y, z'
loop_
 _atom_site_type_symbol
 _atom_site_label
 _atom_site_symmetry_multiplicity
 _atom_site_fract_x
 _atom_site_fract_y
 _atom_site_fract_z
 _atom_site_occupancy
  B  B0  1  0.50000000  0.79154990  0.68737104  1
  B  B1  1  0.50000000  0.20845010  0.31262896  1
  B  B2  1  0.50000000  0.29154990  0.81262896  1
  B  B3  1  0.50000000  0.70845010  0.18737104  1
  B  B4  1  0.50000000  0.86452932  0.53037487  1
  B  B5  1  0.50000000  0.13547068  0.46962513  1
  B  B6  1  0.50000000  0.36452932  0.96962513  1
  B  B7  1  0.50000000  0.63547068  0.03037487  1
  B  B8  1  0.50000000  0.02149719  0.19325895  1
  B  B9  1  0.50000000  0.97850281  0.80674105  1
  B  B10  1  0.50000000  0.52149719  0.30674105  1
  B  B11  1  0.50000000  0.47850281  0.69325895  1
  B  B12  1  0.50000000  0.11298204  0.04751046  1
  B  B13  1  0.50000000  0.88701796  0.95248954  1
  B  B14  1  0.50000000  0.61298204  0.45248954  1
  B  B15  1  0.50000000  0.38701796  0.54751046  1
  Rh  Rh16  1  0.00000000  0.64319916  0.59485219  1
  Rh  Rh17  1  0.00000000  0.35680084  0.40514781  1
  Rh  Rh18  1  0.00000000  0.14319916  0.90514781  1
  Rh  Rh19  1  0.00000000  0.85680084  0.09485219  1
  Tm  Tm20  1  0.00000000  0.13175025  0.64887082  1
  Tm  Tm21  1  0.00000000  0.86824975  0.35112918  1
  Tm  Tm22  1  0.00000000  0.63175025  0.85112918  1
  Tm  Tm23  1  0.00000000  0.36824975  0.14887082  1
