# generated using pymatgen
data_TmAg(PSe3)2
_symmetry_space_group_name_H-M   'P 1'
_cell_length_a   6.63995735
_cell_length_b   6.63995736
_cell_length_c   15.09668414
_cell_angle_alpha   90.00000000
_cell_angle_beta   90.00000000
_cell_angle_gamma   120.00000002
_symmetry_Int_Tables_number   1
_chemical_formula_structural   TmAg(PSe3)2
_chemical_formula_sum   'Tm2 Ag2 P4 Se12'
_cell_volume   576.42496291
_cell_formula_units_Z   2
loop_
 _symmetry_equiv_pos_site_id
 _symmetry_equiv_pos_as_xyz
  1  'x, y, z'
loop_
 _atom_site_type_symbol
 _atom_site_label
 _atom_site_symmetry_multiplicity
 _atom_site_fract_x
 _atom_site_fract_y
 _atom_site_fract_z
 _atom_site_occupancy
  P  P0  1  0.66666667  0.33333333  0.67471728  1
  P  P1  1  0.66666667  0.33333333  0.82528272  1
  P  P2  1  0.33333333  0.66666667  0.32528272  1
  P  P3  1  0.33333333  0.66666667  0.17471728  1
  Se  Se4  1  0.02218280  0.34224641  0.13067833  1
  Se  Se5  1  0.65775359  0.67993639  0.13067833  1
  Se  Se6  1  0.32006361  0.97781720  0.13067833  1
  Se  Se7  1  0.65775359  0.97781720  0.36932167  1
  Se  Se8  1  0.32006361  0.34224641  0.36932167  1
  Se  Se9  1  0.02218280  0.67993639  0.36932167  1
  Se  Se10  1  0.97781720  0.65775359  0.86932167  1
  Se  Se11  1  0.34224641  0.32006361  0.86932167  1
  Se  Se12  1  0.67993639  0.02218280  0.86932167  1
  Se  Se13  1  0.34224641  0.02218280  0.63067833  1
  Se  Se14  1  0.67993639  0.65775359  0.63067833  1
  Se  Se15  1  0.97781720  0.32006361  0.63067833  1
  Ag  Ag16  1  0.33333333  0.66666667  0.75000000  1
  Ag  Ag17  1  0.66666667  0.33333333  0.25000000  1
  Tm  Tm18  1  0.00000000  0.00000000  0.75000000  1
  Tm  Tm19  1  0.00000000  0.00000000  0.25000000  1
