# generated using pymatgen
data_HoZnRh
_symmetry_space_group_name_H-M   'P 1'
_cell_length_a   4.03625323
_cell_length_b   6.91874281
_cell_length_c   8.12414237
_cell_angle_alpha   90.00000000
_cell_angle_beta   90.00000000
_cell_angle_gamma   90.00000000
_symmetry_Int_Tables_number   1
_chemical_formula_structural   HoZnRh
_chemical_formula_sum   'Ho4 Zn4 Rh4'
_cell_volume   226.87315886
_cell_formula_units_Z   4
loop_
 _symmetry_equiv_pos_site_id
 _symmetry_equiv_pos_as_xyz
  1  'x, y, z'
loop_
 _atom_site_type_symbol
 _atom_site_label
 _atom_site_symmetry_multiplicity
 _atom_site_fract_x
 _atom_site_fract_y
 _atom_site_fract_z
 _atom_site_occupancy
  Zn  Zn0  1  0.25000000  0.13663603  0.06342075  1
  Zn  Zn1  1  0.75000000  0.86336397  0.93657925  1
  Zn  Zn2  1  0.25000000  0.63663603  0.43657925  1
  Zn  Zn3  1  0.75000000  0.36336397  0.56342075  1
  Rh  Rh4  1  0.75000000  0.74577383  0.62393570  1
  Rh  Rh5  1  0.25000000  0.25422617  0.37606430  1
  Rh  Rh6  1  0.75000000  0.24577383  0.87606430  1
  Rh  Rh7  1  0.25000000  0.75422617  0.12393570  1
  Ho  Ho8  1  0.25000000  0.53924253  0.81648510  1
  Ho  Ho9  1  0.75000000  0.46075747  0.18351490  1
  Ho  Ho10  1  0.25000000  0.03924253  0.68351490  1
  Ho  Ho11  1  0.75000000  0.96075747  0.31648510  1
