# generated using pymatgen
data_DyZnRh
_symmetry_space_group_name_H-M   'P 1'
_cell_length_a   4.05091638
_cell_length_b   6.93961035
_cell_length_c   8.13660616
_cell_angle_alpha   90.00000000
_cell_angle_beta   90.00000000
_cell_angle_gamma   90.00000000
_symmetry_Int_Tables_number   1
_chemical_formula_structural   DyZnRh
_chemical_formula_sum   'Dy4 Zn4 Rh4'
_cell_volume   228.73449239
_cell_formula_units_Z   4
loop_
 _symmetry_equiv_pos_site_id
 _symmetry_equiv_pos_as_xyz
  1  'x, y, z'
loop_
 _atom_site_type_symbol
 _atom_site_label
 _atom_site_symmetry_multiplicity
 _atom_site_fract_x
 _atom_site_fract_y
 _atom_site_fract_z
 _atom_site_occupancy
  Zn  Zn0  1  0.25000000  0.13699712  0.06362759  1
  Zn  Zn1  1  0.75000000  0.86300288  0.93637241  1
  Zn  Zn2  1  0.25000000  0.63699712  0.43637241  1
  Zn  Zn3  1  0.75000000  0.36300288  0.56362759  1
  Rh  Rh4  1  0.75000000  0.74501856  0.62330642  1
  Rh  Rh5  1  0.25000000  0.25498144  0.37669358  1
  Rh  Rh6  1  0.75000000  0.24501856  0.87669358  1
  Rh  Rh7  1  0.25000000  0.75498144  0.12330642  1
  Dy  Dy8  1  0.25000000  0.53880050  0.81593439  1
  Dy  Dy9  1  0.75000000  0.46119950  0.18406561  1
  Dy  Dy10  1  0.25000000  0.03880050  0.68406561  1
  Dy  Dy11  1  0.75000000  0.96119950  0.31593439  1
