# generated using pymatgen
data_Y5Ge4
_symmetry_space_group_name_H-M   'P 1'
_cell_length_a   7.68036478
_cell_length_b   7.74727332
_cell_length_c   14.76830541
_cell_angle_alpha   90.00000000
_cell_angle_beta   90.00000000
_cell_angle_gamma   90.00000000
_symmetry_Int_Tables_number   1
_chemical_formula_structural   Y5Ge4
_chemical_formula_sum   'Y20 Ge16'
_cell_volume   878.74201234
_cell_formula_units_Z   4
loop_
 _symmetry_equiv_pos_site_id
 _symmetry_equiv_pos_as_xyz
  1  'x, y, z'
loop_
 _atom_site_type_symbol
 _atom_site_label
 _atom_site_symmetry_multiplicity
 _atom_site_fract_x
 _atom_site_fract_y
 _atom_site_fract_z
 _atom_site_occupancy
  Ge  Ge0  1  0.33523926  0.86254056  0.75000000  1
  Ge  Ge1  1  0.83523926  0.63745944  0.75000000  1
  Ge  Ge2  1  0.16476074  0.36254056  0.25000000  1
  Ge  Ge3  1  0.66476074  0.13745944  0.25000000  1
  Ge  Ge4  1  0.08444082  0.11715696  0.75000000  1
  Ge  Ge5  1  0.58444082  0.38284304  0.75000000  1
  Ge  Ge6  1  0.41555918  0.61715696  0.25000000  1
  Ge  Ge7  1  0.91555918  0.88284304  0.25000000  1
  Ge  Ge8  1  0.22061355  0.46835411  0.95571918  1
  Ge  Ge9  1  0.72061355  0.03164589  0.54428082  1
  Ge  Ge10  1  0.27938645  0.96835411  0.04428082  1
  Ge  Ge11  1  0.77938645  0.53164589  0.45571918  1
  Ge  Ge12  1  0.77938645  0.53164589  0.04428082  1
  Ge  Ge13  1  0.27938645  0.96835411  0.45571918  1
  Ge  Ge14  1  0.72061355  0.03164589  0.95571918  1
  Ge  Ge15  1  0.22061355  0.46835411  0.54428082  1
  Y  Y16  1  0.78507365  0.50160777  0.25000000  1
  Y  Y17  1  0.28507365  0.99839223  0.25000000  1
  Y  Y18  1  0.71492635  0.00160777  0.75000000  1
  Y  Y19  1  0.21492635  0.49839223  0.75000000  1
  Y  Y20  1  0.37912218  0.16063520  0.88300939  1
  Y  Y21  1  0.87912218  0.33936480  0.61699061  1
  Y  Y22  1  0.12087782  0.66063520  0.11699061  1
  Y  Y23  1  0.62087782  0.83936480  0.38300939  1
  Y  Y24  1  0.62087782  0.83936480  0.11699061  1
  Y  Y25  1  0.12087782  0.66063520  0.38300939  1
  Y  Y26  1  0.87912218  0.33936480  0.88300939  1
  Y  Y27  1  0.37912218  0.16063520  0.61699061  1
  Y  Y28  1  0.02943114  0.82405592  0.89850404  1
  Y  Y29  1  0.52943114  0.67594408  0.60149596  1
  Y  Y30  1  0.47056886  0.32405592  0.10149596  1
  Y  Y31  1  0.97056886  0.17594408  0.39850404  1
  Y  Y32  1  0.97056886  0.17594408  0.10149596  1
  Y  Y33  1  0.47056886  0.32405592  0.39850404  1
  Y  Y34  1  0.52943114  0.67594408  0.89850404  1
  Y  Y35  1  0.02943114  0.82405592  0.60149596  1
