# generated using pymatgen
data_SmZnRh
_symmetry_space_group_name_H-M   'P 1'
_cell_length_a   4.11861926
_cell_length_b   7.05329720
_cell_length_c   8.21794669
_cell_angle_alpha   90.00000000
_cell_angle_beta   90.00000000
_cell_angle_gamma   90.00000000
_symmetry_Int_Tables_number   1
_chemical_formula_structural   SmZnRh
_chemical_formula_sum   'Sm4 Zn4 Rh4'
_cell_volume   238.73008327
_cell_formula_units_Z   4
loop_
 _symmetry_equiv_pos_site_id
 _symmetry_equiv_pos_as_xyz
  1  'x, y, z'
loop_
 _atom_site_type_symbol
 _atom_site_label
 _atom_site_symmetry_multiplicity
 _atom_site_fract_x
 _atom_site_fract_y
 _atom_site_fract_z
 _atom_site_occupancy
  Zn  Zn0  1  0.25000000  0.13812130  0.06404798  1
  Zn  Zn1  1  0.75000000  0.86187870  0.93595202  1
  Zn  Zn2  1  0.25000000  0.63812130  0.43595202  1
  Zn  Zn3  1  0.75000000  0.36187870  0.56404798  1
  Rh  Rh4  1  0.75000000  0.74202178  0.62059755  1
  Rh  Rh5  1  0.25000000  0.25797822  0.37940245  1
  Rh  Rh6  1  0.75000000  0.24202178  0.87940245  1
  Rh  Rh7  1  0.25000000  0.75797822  0.12059755  1
  Sm  Sm8  1  0.25000000  0.53759224  0.81363593  1
  Sm  Sm9  1  0.75000000  0.46240776  0.18636407  1
  Sm  Sm10  1  0.25000000  0.03759224  0.68636407  1
  Sm  Sm11  1  0.75000000  0.96240776  0.31363593  1
