# generated using pymatgen
data_TbZnRh
_symmetry_space_group_name_H-M   'P 1'
_cell_length_a   4.06467371
_cell_length_b   6.96257520
_cell_length_c   8.15552706
_cell_angle_alpha   90.00000000
_cell_angle_beta   90.00000000
_cell_angle_gamma   90.00000000
_symmetry_Int_Tables_number   1
_chemical_formula_structural   TbZnRh
_chemical_formula_sum   'Tb4 Zn4 Rh4'
_cell_volume   230.80627950
_cell_formula_units_Z   4
loop_
 _symmetry_equiv_pos_site_id
 _symmetry_equiv_pos_as_xyz
  1  'x, y, z'
loop_
 _atom_site_type_symbol
 _atom_site_label
 _atom_site_symmetry_multiplicity
 _atom_site_fract_x
 _atom_site_fract_y
 _atom_site_fract_z
 _atom_site_occupancy
  Zn  Zn0  1  0.25000000  0.13709700  0.06344767  1
  Zn  Zn1  1  0.75000000  0.86290300  0.93655233  1
  Zn  Zn2  1  0.25000000  0.63709700  0.43655233  1
  Zn  Zn3  1  0.75000000  0.36290300  0.56344767  1
  Rh  Rh4  1  0.75000000  0.74434854  0.62317402  1
  Rh  Rh5  1  0.25000000  0.25565146  0.37682598  1
  Rh  Rh6  1  0.75000000  0.24434854  0.87682598  1
  Rh  Rh7  1  0.25000000  0.75565146  0.12317402  1
  Tb  Tb8  1  0.25000000  0.53852993  0.81557064  1
  Tb  Tb9  1  0.75000000  0.46147007  0.18442936  1
  Tb  Tb10  1  0.25000000  0.03852993  0.68442936  1
  Tb  Tb11  1  0.75000000  0.96147007  0.31557064  1
