# generated using pymatgen
data_ScAg(PSe3)2
_symmetry_space_group_name_H-M   'P 1'
_cell_length_a   6.53503237
_cell_length_b   6.53503237
_cell_length_c   15.16892307
_cell_angle_alpha   90.00000000
_cell_angle_beta   90.00000000
_cell_angle_gamma   119.99999995
_symmetry_Int_Tables_number   1
_chemical_formula_structural   ScAg(PSe3)2
_chemical_formula_sum   'Sc2 Ag2 P4 Se12'
_cell_volume   561.02325934
_cell_formula_units_Z   2
loop_
 _symmetry_equiv_pos_site_id
 _symmetry_equiv_pos_as_xyz
  1  'x, y, z'
loop_
 _atom_site_type_symbol
 _atom_site_label
 _atom_site_symmetry_multiplicity
 _atom_site_fract_x
 _atom_site_fract_y
 _atom_site_fract_z
 _atom_site_occupancy
  P  P0  1  0.66666667  0.33333333  0.67575026  1
  P  P1  1  0.66666667  0.33333333  0.82424974  1
  P  P2  1  0.33333333  0.66666667  0.32424974  1
  P  P3  1  0.33333333  0.66666667  0.17575026  1
  Sc  Sc4  1  0.00000000  0.00000000  0.25000000  1
  Sc  Sc5  1  0.00000000  0.00000000  0.75000000  1
  Se  Se6  1  0.67141019  0.69545339  0.13306718  1
  Se  Se7  1  0.02404319  0.69545339  0.36693282  1
  Se  Se8  1  0.02404319  0.32858981  0.13306718  1
  Se  Se9  1  0.32858981  0.30454661  0.86693282  1
  Se  Se10  1  0.69545339  0.02404319  0.86693282  1
  Se  Se11  1  0.32858981  0.02404319  0.63306718  1
  Se  Se12  1  0.69545339  0.67141019  0.63306718  1
  Se  Se13  1  0.97595681  0.30454661  0.63306718  1
  Se  Se14  1  0.30454661  0.97595681  0.13306718  1
  Se  Se15  1  0.67141019  0.97595681  0.36693282  1
  Se  Se16  1  0.97595681  0.67141019  0.86693282  1
  Se  Se17  1  0.30454661  0.32858981  0.36693282  1
  Ag  Ag18  1  0.33333333  0.66666667  0.75000000  1
  Ag  Ag19  1  0.66666667  0.33333333  0.25000000  1
