# generated using pymatgen
data_ErAg(PSe3)2
_symmetry_space_group_name_H-M   'P 1'
_cell_length_a   6.65356518
_cell_length_b   6.65356518
_cell_length_c   15.23170827
_cell_angle_alpha   90.00000000
_cell_angle_beta   90.00000000
_cell_angle_gamma   120.00000001
_symmetry_Int_Tables_number   1
_chemical_formula_structural   ErAg(PSe3)2
_chemical_formula_sum   'Er2 Ag2 P4 Se12'
_cell_volume   583.96669116
_cell_formula_units_Z   2
loop_
 _symmetry_equiv_pos_site_id
 _symmetry_equiv_pos_as_xyz
  1  'x, y, z'
loop_
 _atom_site_type_symbol
 _atom_site_label
 _atom_site_symmetry_multiplicity
 _atom_site_fract_x
 _atom_site_fract_y
 _atom_site_fract_z
 _atom_site_occupancy
  P  P0  1  0.66666667  0.33333333  0.67532824  1
  P  P1  1  0.66666667  0.33333333  0.82467176  1
  P  P2  1  0.33333333  0.66666667  0.32467176  1
  P  P3  1  0.33333333  0.66666667  0.17532824  1
  Se  Se4  1  0.02213137  0.34378484  0.13156546  1
  Se  Se5  1  0.65621516  0.67834653  0.13156546  1
  Se  Se6  1  0.32165347  0.97786863  0.13156546  1
  Se  Se7  1  0.65621516  0.97786863  0.36843454  1
  Se  Se8  1  0.32165347  0.34378484  0.36843454  1
  Se  Se9  1  0.02213137  0.67834653  0.36843454  1
  Se  Se10  1  0.97786863  0.65621516  0.86843454  1
  Se  Se11  1  0.34378484  0.32165347  0.86843454  1
  Se  Se12  1  0.67834653  0.02213137  0.86843454  1
  Se  Se13  1  0.34378484  0.02213137  0.63156546  1
  Se  Se14  1  0.67834653  0.65621516  0.63156546  1
  Se  Se15  1  0.97786863  0.32165347  0.63156546  1
  Ag  Ag16  1  0.33333333  0.66666667  0.75000000  1
  Ag  Ag17  1  0.66666667  0.33333333  0.25000000  1
  Er  Er18  1  0.00000000  0.00000000  0.75000000  1
  Er  Er19  1  0.00000000  0.00000000  0.25000000  1
