# generated using pymatgen
data_Cd2Cu(PO4)2
_symmetry_space_group_name_H-M   'P 1'
_cell_length_a   4.87300469
_cell_length_b   5.71340508
_cell_length_c   6.86984904
_cell_angle_alpha   74.24088104
_cell_angle_beta   87.08333745
_cell_angle_gamma   69.82602562
_symmetry_Int_Tables_number   1
_chemical_formula_structural   Cd2Cu(PO4)2
_chemical_formula_sum   'Cd2 Cu1 P2 O8'
_cell_volume   172.59018742
_cell_formula_units_Z   1
loop_
 _symmetry_equiv_pos_site_id
 _symmetry_equiv_pos_as_xyz
  1  'x, y, z'
loop_
 _atom_site_type_symbol
 _atom_site_label
 _atom_site_symmetry_multiplicity
 _atom_site_fract_x
 _atom_site_fract_y
 _atom_site_fract_z
 _atom_site_occupancy
  O  O0  1  0.61407387  0.86478756  0.35035932  1
  O  O1  1  0.38592613  0.13521244  0.64964068  1
  O  O2  1  0.76867820  0.77993475  0.01115652  1
  O  O3  1  0.23132180  0.22006525  0.98884348  1
  O  O4  1  0.68479780  0.30900004  0.83974389  1
  O  O5  1  0.80174744  0.39927987  0.32323064  1
  O  O6  1  0.19825256  0.60072013  0.67676936  1
  O  O7  1  0.31520220  0.69099996  0.16025611  1
  P  P8  1  0.62871339  0.68360642  0.21422606  1
  P  P9  1  0.37128661  0.31639358  0.78577394  1
  Cu  Cu10  1  0.00000000  0.00000000  0.00000000  1
  Cd  Cd11  1  0.29691063  0.28174986  0.30622807  1
  Cd  Cd12  1  0.70308937  0.71825014  0.69377193  1
