# generated using pymatgen
data_Tb2AlCo2
_symmetry_space_group_name_H-M   'P 1'
_cell_length_a   4.02564393
_cell_length_b   5.42120869
_cell_length_c   5.42120868
_cell_angle_alpha   60.77651824
_cell_angle_beta   68.20501483
_cell_angle_gamma   68.20501489
_symmetry_Int_Tables_number   1
_chemical_formula_structural   Tb2AlCo2
_chemical_formula_sum   'Tb2 Al1 Co2'
_cell_volume   93.19938233
_cell_formula_units_Z   1
loop_
 _symmetry_equiv_pos_site_id
 _symmetry_equiv_pos_as_xyz
  1  'x, y, z'
loop_
 _atom_site_type_symbol
 _atom_site_label
 _atom_site_symmetry_multiplicity
 _atom_site_fract_x
 _atom_site_fract_y
 _atom_site_fract_z
 _atom_site_occupancy
  Al  Al0  1  0.00000000  0.00000000  0.00000000  1
  Co  Co1  1  0.50000000  0.27717982  0.72282018  1
  Co  Co2  1  0.50000000  0.72282018  0.27717982  1
  Tb  Tb3  1  0.20341359  0.29658641  0.29658641  1
  Tb  Tb4  1  0.79658641  0.70341359  0.70341359  1
