# generated using pymatgen
data_Gd2MnS4
_symmetry_space_group_name_H-M   'P 1'
_cell_length_a   7.22764798
_cell_length_b   7.22764872
_cell_length_c   7.22764804
_cell_angle_alpha   111.01794299
_cell_angle_beta   106.42018204
_cell_angle_gamma   111.01794630
_symmetry_Int_Tables_number   1
_chemical_formula_structural   Gd2MnS4
_chemical_formula_sum   'Gd4 Mn2 S8'
_cell_volume   290.03525901
_cell_formula_units_Z   2
loop_
 _symmetry_equiv_pos_site_id
 _symmetry_equiv_pos_as_xyz
  1  'x, y, z'
loop_
 _atom_site_type_symbol
 _atom_site_label
 _atom_site_symmetry_multiplicity
 _atom_site_fract_x
 _atom_site_fract_y
 _atom_site_fract_z
 _atom_site_occupancy
  Gd  Gd0  1  0.25000000  0.63169938  0.38169938  1
  Gd  Gd1  1  0.61830062  0.36830062  0.25000000  1
  Gd  Gd2  1  0.75000000  0.86830062  0.11830062  1
  Gd  Gd3  1  0.88169938  0.13169938  0.75000000  1
  Mn  Mn4  1  0.12500000  0.75000000  0.87500000  1
  Mn  Mn5  1  0.37500000  0.25000000  0.62500000  1
  S  S6  1  0.48607267  0.98252980  0.86771416  1
  S  S7  1  0.13228584  0.11835850  0.11481563  1
  S  S8  1  0.36771416  0.48252980  0.98607267  1
  S  S9  1  0.61481563  0.61835850  0.63228584  1
  S  S10  1  0.50354287  0.01747020  0.38518437  1
  S  S11  1  0.01392733  0.88164150  0.49645713  1
  S  S12  1  0.88518437  0.51747020  0.00354287  1
  S  S13  1  0.99645713  0.38164150  0.51392733  1
