# generated using pymatgen
data_Sr(As3Pt2)2
_symmetry_space_group_name_H-M   'P 1'
_cell_length_a   6.07258360
_cell_length_b   6.07258360
_cell_length_c   12.15198912
_cell_angle_alpha   89.32578709
_cell_angle_beta   89.32578711
_cell_angle_gamma   88.14957236
_symmetry_Int_Tables_number   1
_chemical_formula_structural   Sr(As3Pt2)2
_chemical_formula_sum   'Sr2 As12 Pt8'
_cell_volume   447.82628928
_cell_formula_units_Z   2
loop_
 _symmetry_equiv_pos_site_id
 _symmetry_equiv_pos_as_xyz
  1  'x, y, z'
loop_
 _atom_site_type_symbol
 _atom_site_label
 _atom_site_symmetry_multiplicity
 _atom_site_fract_x
 _atom_site_fract_y
 _atom_site_fract_z
 _atom_site_occupancy
  As  As0  1  0.13649846  0.09627645  0.30843067  1
  As  As1  1  0.90372355  0.86350154  0.19156933  1
  As  As2  1  0.86350154  0.90372355  0.69156933  1
  As  As3  1  0.09627645  0.13649846  0.80843067  1
  As  As4  1  0.87922241  0.62336046  0.94368683  1
  As  As5  1  0.37663954  0.12077759  0.55631317  1
  As  As6  1  0.12077759  0.37663954  0.05631317  1
  As  As7  1  0.62336046  0.87922241  0.44368683  1
  As  As8  1  0.38449959  0.87674549  0.05495750  1
  As  As9  1  0.12325451  0.61550041  0.44504250  1
  As  As10  1  0.87674549  0.38449959  0.55495750  1
  As  As11  1  0.61550041  0.12325451  0.94504250  1
  Sr  Sr12  1  0.40392422  0.59607578  0.75000000  1
  Sr  Sr13  1  0.59607578  0.40392422  0.25000000  1
  Pt  Pt14  1  0.92339599  0.50609754  0.74970590  1
  Pt  Pt15  1  0.49390246  0.07660401  0.75029410  1
  Pt  Pt16  1  0.50000000  0.50000000  0.50000000  1
  Pt  Pt17  1  0.50000000  0.50000000  0.00000000  1
  Pt  Pt18  1  0.00000000  0.00000000  0.50000000  1
  Pt  Pt19  1  0.00000000  0.00000000  0.00000000  1
  Pt  Pt20  1  0.50609754  0.92339599  0.24970590  1
  Pt  Pt21  1  0.07660401  0.49390246  0.25029410  1
