# generated using pymatgen
data_Ba2SiTe4
_symmetry_space_group_name_H-M   'P 1'
_cell_length_a   7.65290558
_cell_length_b   7.68620986
_cell_length_c   9.73722563
_cell_angle_alpha   90.00000000
_cell_angle_beta   108.53741243
_cell_angle_gamma   90.00000000
_symmetry_Int_Tables_number   1
_chemical_formula_structural   Ba2SiTe4
_chemical_formula_sum   'Ba4 Si2 Te8'
_cell_volume   543.04450406
_cell_formula_units_Z   2
loop_
 _symmetry_equiv_pos_site_id
 _symmetry_equiv_pos_as_xyz
  1  'x, y, z'
loop_
 _atom_site_type_symbol
 _atom_site_label
 _atom_site_symmetry_multiplicity
 _atom_site_fract_x
 _atom_site_fract_y
 _atom_site_fract_z
 _atom_site_occupancy
  Si  Si0  1  0.78906207  0.25000000  0.70556181  1
  Si  Si1  1  0.21093793  0.75000000  0.29443819  1
  Te  Te2  1  0.00550446  0.99338000  0.76685347  1
  Te  Te3  1  0.99449554  0.49338000  0.23314653  1
  Te  Te4  1  0.37554816  0.75000000  0.56469760  1
  Te  Te5  1  0.62445184  0.25000000  0.43530240  1
  Te  Te6  1  0.40485169  0.75000000  0.12576185  1
  Te  Te7  1  0.59514831  0.25000000  0.87423815  1
  Te  Te8  1  0.00550446  0.50662000  0.76685347  1
  Te  Te9  1  0.99449554  0.00662000  0.23314653  1
  Ba  Ba10  1  0.27069563  0.25000000  0.07113942  1
  Ba  Ba11  1  0.72930437  0.75000000  0.92886058  1
  Ba  Ba12  1  0.22367791  0.25000000  0.55177481  1
  Ba  Ba13  1  0.77632209  0.75000000  0.44822519  1
