# generated using pymatgen
data_Ta2PtSe7
_symmetry_space_group_name_H-M   'P 1'
_cell_length_a   3.57388920
_cell_length_b   8.04898663
_cell_length_c   18.07415585
_cell_angle_alpha   83.95953214
_cell_angle_beta   84.32604658
_cell_angle_gamma   77.17296229
_symmetry_Int_Tables_number   1
_chemical_formula_structural   Ta2PtSe7
_chemical_formula_sum   'Ta4 Pt2 Se14'
_cell_volume   502.60418871
_cell_formula_units_Z   2
loop_
 _symmetry_equiv_pos_site_id
 _symmetry_equiv_pos_as_xyz
  1  'x, y, z'
loop_
 _atom_site_type_symbol
 _atom_site_label
 _atom_site_symmetry_multiplicity
 _atom_site_fract_x
 _atom_site_fract_y
 _atom_site_fract_z
 _atom_site_occupancy
  Se  Se0  1  0.26693383  0.77309088  0.69304146  1
  Se  Se1  1  0.73306617  0.22690912  0.30695854  1
  Se  Se2  1  0.20562860  0.14080626  0.44793655  1
  Se  Se3  1  0.79437140  0.85919374  0.55206345  1
  Se  Se4  1  0.54638836  0.32500029  0.58222300  1
  Se  Se5  1  0.45361164  0.67499971  0.41777700  1
  Se  Se6  1  0.65262425  0.68478349  0.00996801  1
  Se  Se7  1  0.34737575  0.31521651  0.99003199  1
  Se  Se8  1  0.41352969  0.87959728  0.29334334  1
  Se  Se9  1  0.58647031  0.12040272  0.70665666  1
  Se  Se10  1  0.90456494  0.06109084  0.12977927  1
  Se  Se11  1  0.09543506  0.93890916  0.87022073  1
  Se  Se12  1  0.15553966  0.51817521  0.17074547  1
  Se  Se13  1  0.84446034  0.48182479  0.82925453  1
  Ta  Ta14  1  0.83916530  0.92322698  0.39844241  1
  Ta  Ta15  1  0.16083470  0.07677302  0.60155759  1
  Ta  Ta16  1  0.23482697  0.62347578  0.90687028  1
  Ta  Ta17  1  0.76517303  0.37652422  0.09312972  1
  Pt  Pt18  1  0.30154159  0.18630251  0.21061432  1
  Pt  Pt19  1  0.69845841  0.81369749  0.78938568  1
