# generated using pymatgen
data_Cu4Ag(AsO4)3
_symmetry_space_group_name_H-M   'P 1'
_cell_length_a   7.58887985
_cell_length_b   8.77826999
_cell_length_c   8.77826999
_cell_angle_alpha   91.36217281
_cell_angle_beta   109.65724268
_cell_angle_gamma   109.65724269
_symmetry_Int_Tables_number   1
_chemical_formula_structural   Cu4Ag(AsO4)3
_chemical_formula_sum   'Cu8 Ag2 As6 O24'
_cell_volume   512.39061395
_cell_formula_units_Z   2
loop_
 _symmetry_equiv_pos_site_id
 _symmetry_equiv_pos_as_xyz
  1  'x, y, z'
loop_
 _atom_site_type_symbol
 _atom_site_label
 _atom_site_symmetry_multiplicity
 _atom_site_fract_x
 _atom_site_fract_y
 _atom_site_fract_z
 _atom_site_occupancy
  O  O0  1  0.03564149  0.15462247  0.75451077  1
  O  O1  1  0.46435851  0.24548923  0.84537753  1
  O  O2  1  0.96435851  0.84537753  0.24548923  1
  O  O3  1  0.53564149  0.75451077  0.15462247  1
  O  O4  1  0.19804533  0.97347692  0.58596129  1
  O  O5  1  0.30195467  0.41403871  0.02652308  1
  O  O6  1  0.80195467  0.02652308  0.41403871  1
  O  O7  1  0.69804533  0.58596129  0.97347692  1
  O  O8  1  0.37337441  0.97665594  0.31378787  1
  O  O9  1  0.12662559  0.68621213  0.02334406  1
  O  O10  1  0.62662559  0.02334406  0.68621213  1
  O  O11  1  0.87337441  0.31378787  0.97665594  1
  O  O12  1  0.23807688  0.27301389  0.51940138  1
  O  O13  1  0.26192312  0.48059862  0.72698611  1
  O  O14  1  0.76192312  0.72698611  0.48059862  1
  O  O15  1  0.73807688  0.51940138  0.27301389  1
  O  O16  1  0.60804142  0.17155483  0.16031586  1
  O  O17  1  0.89195858  0.83968414  0.82844517  1
  O  O18  1  0.39195858  0.82844517  0.83968414  1
  O  O19  1  0.10804142  0.16031586  0.17155483  1
  O  O20  1  0.82584182  0.50449109  0.72652695  1
  O  O21  1  0.67415818  0.27347305  0.49550891  1
  O  O22  1  0.17415818  0.49550891  0.27347305  1
  O  O23  1  0.32584182  0.72652695  0.50449109  1
  Cu  Cu24  1  0.14151212  0.06470220  0.37933986  1
  Cu  Cu25  1  0.75000000  0.26469717  0.73530283  1
  Cu  Cu26  1  0.25000000  0.73530283  0.26469717  1
  Cu  Cu27  1  0.64151212  0.37933986  0.06470220  1
  Cu  Cu28  1  0.85848788  0.93529780  0.62066014  1
  Cu  Cu29  1  0.35848788  0.62066014  0.93529780  1
  Cu  Cu30  1  0.75000000  0.50685583  0.49314417  1
  Cu  Cu31  1  0.25000000  0.49314417  0.50685583  1
  As  As32  1  0.61613599  0.10786957  0.34670192  1
  As  As33  1  0.75000000  0.72675301  0.27324699  1
  As  As34  1  0.25000000  0.27324699  0.72675301  1
  As  As35  1  0.88386401  0.65329808  0.89213043  1
  As  As36  1  0.11613599  0.34670192  0.10786957  1
  As  As37  1  0.38386401  0.89213043  0.65329808  1
  Ag  Ag38  1  0.25000000  0.01132309  0.98867691  1
  Ag  Ag39  1  0.75000000  0.98867691  0.01132309  1
