# generated using pymatgen
data_KNaLi2(SO4)2
_symmetry_space_group_name_H-M   'P 1'
_cell_length_a   4.99856845
_cell_length_b   7.88121113
_cell_length_c   19.33226709
_cell_angle_alpha   90.00000000
_cell_angle_beta   90.00000000
_cell_angle_gamma   90.00000000
_symmetry_Int_Tables_number   1
_chemical_formula_structural   KNaLi2(SO4)2
_chemical_formula_sum   'K4 Na4 Li8 S8 O32'
_cell_volume   761.59027943
_cell_formula_units_Z   4
loop_
 _symmetry_equiv_pos_site_id
 _symmetry_equiv_pos_as_xyz
  1  'x, y, z'
loop_
 _atom_site_type_symbol
 _atom_site_label
 _atom_site_symmetry_multiplicity
 _atom_site_fract_x
 _atom_site_fract_y
 _atom_site_fract_z
 _atom_site_occupancy
  Li  Li0  1  0.00476022  0.74371499  0.91116699  1
  Li  Li1  1  0.50476022  0.75628501  0.08883301  1
  Li  Li2  1  0.99523978  0.24371499  0.58883301  1
  Li  Li3  1  0.49523978  0.25628501  0.41116699  1
  Li  Li4  1  0.03565700  0.09932846  0.85940605  1
  Li  Li5  1  0.53565700  0.40067154  0.14059395  1
  Li  Li6  1  0.96434300  0.59932846  0.64059395  1
  Li  Li7  1  0.46434300  0.90067154  0.35940605  1
  O  O8  1  0.19964595  0.46160728  0.57700639  1
  O  O9  1  0.69964595  0.03839272  0.42299361  1
  O  O10  1  0.80035405  0.96160728  0.92299361  1
  O  O11  1  0.30035405  0.53839272  0.07700639  1
  O  O12  1  0.51840581  0.43367072  0.48285825  1
  O  O13  1  0.01840581  0.06632928  0.51714175  1
  O  O14  1  0.48159419  0.93367072  0.01714175  1
  O  O15  1  0.98159419  0.56632928  0.98285825  1
  O  O16  1  0.63089849  0.60910931  0.58185653  1
  O  O17  1  0.13089849  0.89089069  0.41814347  1
  O  O18  1  0.36910151  0.10910931  0.91814347  1
  O  O19  1  0.86910151  0.39089069  0.08185653  1
  O  O20  1  0.61033548  0.30101893  0.59468910  1
  O  O21  1  0.11033548  0.19898107  0.40531090  1
  O  O22  1  0.38966452  0.80101893  0.90531090  1
  O  O23  1  0.88966452  0.69898107  0.09468910  1
  O  O24  1  0.63173936  0.38084204  0.33234705  1
  O  O25  1  0.13173936  0.11915796  0.66765295  1
  O  O26  1  0.36826064  0.88084204  0.16765295  1
  O  O27  1  0.86826064  0.61915796  0.83234705  1
  O  O28  1  0.87135153  0.31068211  0.82875020  1
  O  O29  1  0.37135153  0.18931789  0.17124980  1
  O  O30  1  0.12864847  0.81068211  0.67124980  1
  O  O31  1  0.62864847  0.68931789  0.32875020  1
  O  O32  1  0.26509837  0.47011973  0.79023986  1
  O  O33  1  0.76509837  0.02988027  0.20976014  1
  O  O34  1  0.73490163  0.97011973  0.70976014  1
  O  O35  1  0.23490163  0.52988027  0.29023986  1
  O  O36  1  0.84975481  0.47282436  0.72237261  1
  O  O37  1  0.34975481  0.02717564  0.27762739  1
  O  O38  1  0.15024519  0.97282436  0.77762739  1
  O  O39  1  0.65024519  0.52717564  0.22237261  1
  Na  Na40  1  0.01522313  0.24928180  0.27618249  1
  Na  Na41  1  0.98477687  0.74928180  0.22381751  1
  Na  Na42  1  0.48477687  0.75071820  0.77618249  1
  Na  Na43  1  0.51522313  0.25071820  0.72381751  1
  S  S44  1  0.96724300  0.46788111  0.79319365  1
  S  S45  1  0.53275700  0.53211889  0.29319365  1
  S  S46  1  0.46724300  0.03211889  0.20680635  1
  S  S47  1  0.03275700  0.96788111  0.70680635  1
  S  S48  1  0.00792087  0.54818352  0.05928698  1
  S  S49  1  0.50792087  0.95181648  0.94071302  1
  S  S50  1  0.99207913  0.04818352  0.44071302  1
  S  S51  1  0.49207913  0.45181648  0.55928698  1
  K  K52  1  0.49760192  0.94340246  0.57272706  1
  K  K53  1  0.99760192  0.55659754  0.42727294  1
  K  K54  1  0.50239808  0.44340246  0.92727294  1
  K  K55  1  0.00239808  0.05659754  0.07272706  1
