# generated using pymatgen
data_KLi6IrO6
_symmetry_space_group_name_H-M   'P 1'
_cell_length_a   5.35518182
_cell_length_b   5.35518182
_cell_length_c   5.35518181
_cell_angle_alpha   101.37779666
_cell_angle_beta   101.37779667
_cell_angle_gamma   101.37779670
_symmetry_Int_Tables_number   1
_chemical_formula_structural   KLi6IrO6
_chemical_formula_sum   'K1 Li6 Ir1 O6'
_cell_volume   143.07206613
_cell_formula_units_Z   1
loop_
 _symmetry_equiv_pos_site_id
 _symmetry_equiv_pos_as_xyz
  1  'x, y, z'
loop_
 _atom_site_type_symbol
 _atom_site_label
 _atom_site_symmetry_multiplicity
 _atom_site_fract_x
 _atom_site_fract_y
 _atom_site_fract_z
 _atom_site_occupancy
  Li  Li0  1  0.33816484  0.00000000  0.66183516  1
  Li  Li1  1  0.00000000  0.66183516  0.33816484  1
  Li  Li2  1  0.33816484  0.66183516  0.00000000  1
  Li  Li3  1  0.00000000  0.33816484  0.66183516  1
  Li  Li4  1  0.66183516  0.00000000  0.33816484  1
  Li  Li5  1  0.66183516  0.33816484  0.00000000  1
  O  O6  1  0.72571030  0.07702085  0.72571030  1
  O  O7  1  0.72571030  0.72571030  0.07702085  1
  O  O8  1  0.27428970  0.92297915  0.27428970  1
  O  O9  1  0.27428970  0.27428970  0.92297915  1
  O  O10  1  0.92297915  0.27428970  0.27428970  1
  O  O11  1  0.07702085  0.72571030  0.72571030  1
  K  K12  1  0.50000000  0.50000000  0.50000000  1
  Ir  Ir13  1  0.00000000  0.00000000  0.00000000  1
