# generated using pymatgen
data_KHg(PO3)3
_symmetry_space_group_name_H-M   'P 1'
_cell_length_a   5.72746820
_cell_length_b   11.45017955
_cell_length_c   12.73286005
_cell_angle_alpha   90.00000000
_cell_angle_beta   90.00000000
_cell_angle_gamma   90.00000000
_symmetry_Int_Tables_number   1
_chemical_formula_structural   KHg(PO3)3
_chemical_formula_sum   'K4 Hg4 P12 O36'
_cell_volume   835.02782836
_cell_formula_units_Z   4
loop_
 _symmetry_equiv_pos_site_id
 _symmetry_equiv_pos_as_xyz
  1  'x, y, z'
loop_
 _atom_site_type_symbol
 _atom_site_label
 _atom_site_symmetry_multiplicity
 _atom_site_fract_x
 _atom_site_fract_y
 _atom_site_fract_z
 _atom_site_occupancy
  O  O0  1  0.97346849  0.92740528  0.91806410  1
  O  O1  1  0.47346849  0.57259472  0.08193590  1
  O  O2  1  0.02653151  0.42740528  0.58193590  1
  O  O3  1  0.52653151  0.07259472  0.41806410  1
  O  O4  1  0.34470942  0.87139949  0.81108643  1
  O  O5  1  0.84470942  0.62860051  0.18891357  1
  O  O6  1  0.65529058  0.37139949  0.68891357  1
  O  O7  1  0.15529058  0.12860051  0.31108643  1
  O  O8  1  0.69472980  0.68378787  0.62904504  1
  O  O9  1  0.19472980  0.81621213  0.37095496  1
  O  O10  1  0.30527020  0.18378787  0.87095496  1
  O  O11  1  0.80527020  0.31621213  0.12904504  1
  O  O12  1  0.14373474  0.67865042  0.62000278  1
  O  O13  1  0.64373474  0.82134958  0.37999722  1
  O  O14  1  0.85626526  0.17865042  0.87999722  1
  O  O15  1  0.35626526  0.32134958  0.12000278  1
  O  O16  1  0.93758257  0.80908855  0.75221865  1
  O  O17  1  0.43758257  0.69091145  0.24778135  1
  O  O18  1  0.06241743  0.30908855  0.74778135  1
  O  O19  1  0.56241743  0.19091145  0.25221865  1
  O  O20  1  0.38244574  0.28231054  0.41516762  1
  O  O21  1  0.88244574  0.21768946  0.58483238  1
  O  O22  1  0.61755426  0.78231054  0.08483238  1
  O  O23  1  0.11755426  0.71768946  0.91516762  1
  O  O24  1  0.57892019  0.40760453  0.27908419  1
  O  O25  1  0.07892019  0.09239547  0.72091581  1
  O  O26  1  0.42107981  0.90760453  0.22091581  1
  O  O27  1  0.92107981  0.59239547  0.77908419  1
  O  O28  1  0.48459858  0.49351859  0.45466131  1
  O  O29  1  0.98459858  0.00648141  0.54533869  1
  O  O30  1  0.51540142  0.99351859  0.04533869  1
  O  O31  1  0.01540142  0.50648141  0.95466131  1
  O  O32  1  0.15159164  0.44722925  0.32312343  1
  O  O33  1  0.65159164  0.05277075  0.67687657  1
  O  O34  1  0.84840836  0.94722925  0.17687657  1
  O  O35  1  0.34840836  0.55277075  0.82312343  1
  P  P36  1  0.10457427  0.84104429  0.85246424  1
  P  P37  1  0.60457427  0.65895571  0.14753576  1
  P  P38  1  0.89542573  0.34104429  0.64753576  1
  P  P39  1  0.39542573  0.15895571  0.35246424  1
  P  P40  1  0.92377150  0.68836212  0.68562702  1
  P  P41  1  0.42377150  0.81163788  0.31437298  1
  P  P42  1  0.07622850  0.18836212  0.81437298  1
  P  P43  1  0.57622850  0.31163788  0.18562702  1
  P  P44  1  0.11751295  0.58466952  0.87176295  1
  P  P45  1  0.61751295  0.91533048  0.12823705  1
  P  P46  1  0.88248705  0.08466952  0.62823705  1
  P  P47  1  0.38248705  0.41533048  0.37176295  1
  K  K48  1  0.40518284  0.88210070  0.57889790  1
  K  K49  1  0.90518284  0.61789930  0.42110210  1
  K  K50  1  0.59481716  0.38210070  0.92110210  1
  K  K51  1  0.09481716  0.11789930  0.07889790  1
  Hg  Hg52  1  0.40454758  0.51841075  0.63708883  1
  Hg  Hg53  1  0.90454758  0.98158925  0.36291117  1
  Hg  Hg54  1  0.59545242  0.01841075  0.86291117  1
  Hg  Hg55  1  0.09545242  0.48158925  0.13708883  1
