# generated using pymatgen
data_Ba2SiSe4
_symmetry_space_group_name_H-M   'P 1'
_cell_length_a   7.07032915
_cell_length_b   7.12572773
_cell_length_c   9.30405179
_cell_angle_alpha   90.00000000
_cell_angle_beta   108.40863462
_cell_angle_gamma   90.00000000
_symmetry_Int_Tables_number   1
_chemical_formula_structural   Ba2SiSe4
_chemical_formula_sum   'Ba4 Si2 Se8'
_cell_volume   444.76301495
_cell_formula_units_Z   2
loop_
 _symmetry_equiv_pos_site_id
 _symmetry_equiv_pos_as_xyz
  1  'x, y, z'
loop_
 _atom_site_type_symbol
 _atom_site_label
 _atom_site_symmetry_multiplicity
 _atom_site_fract_x
 _atom_site_fract_y
 _atom_site_fract_z
 _atom_site_occupancy
  Si  Si0  1  0.79487322  0.25000000  0.71113065  1
  Si  Si1  1  0.20512678  0.75000000  0.28886935  1
  Se  Se2  1  0.00284792  0.99638109  0.77159484  1
  Se  Se3  1  0.99715208  0.49638109  0.22840516  1
  Se  Se4  1  0.35749681  0.75000000  0.54647245  1
  Se  Se5  1  0.64250319  0.25000000  0.45352755  1
  Se  Se6  1  0.41070427  0.75000000  0.14021679  1
  Se  Se7  1  0.58929573  0.25000000  0.85978321  1
  Se  Se8  1  0.00284792  0.50361891  0.77159484  1
  Se  Se9  1  0.99715208  0.00361891  0.22840516  1
  Ba  Ba10  1  0.28156648  0.25000000  0.07289335  1
  Ba  Ba11  1  0.71843352  0.75000000  0.92710665  1
  Ba  Ba12  1  0.21533663  0.25000000  0.54438191  1
  Ba  Ba13  1  0.78466337  0.75000000  0.45561809  1
