# generated using pymatgen
data_CsCu2F6
_symmetry_space_group_name_H-M   'P 1'
_cell_length_a   7.34455146
_cell_length_b   7.29191601
_cell_length_c   7.29191582
_cell_angle_alpha   60.29031695
_cell_angle_beta   59.76092709
_cell_angle_gamma   59.76093092
_symmetry_Int_Tables_number   1
_chemical_formula_structural   CsCu2F6
_chemical_formula_sum   'Cs2 Cu4 F12'
_cell_volume   275.73479608
_cell_formula_units_Z   2
loop_
 _symmetry_equiv_pos_site_id
 _symmetry_equiv_pos_as_xyz
  1  'x, y, z'
loop_
 _atom_site_type_symbol
 _atom_site_label
 _atom_site_symmetry_multiplicity
 _atom_site_fract_x
 _atom_site_fract_y
 _atom_site_fract_z
 _atom_site_occupancy
  Cs  Cs0  1  0.62569563  0.12430437  0.62430437  1
  Cs  Cs1  1  0.37430437  0.87569563  0.37569563  1
  Cu  Cu2  1  0.00000000  0.50000000  0.50000000  1
  Cu  Cu3  1  0.00000000  -0.00000000  0.00000000  1
  Cu  Cu4  1  0.50000000  0.50000000  0.00000000  1
  Cu  Cu5  1  0.00000000  0.50000000  0.00000000  1
  F  F6  1  0.93469737  0.43361647  0.31604419  1
  F  F7  1  0.68435804  0.56638353  0.68395581  1
  F  F8  1  0.06530263  0.18395581  0.06638353  1
  F  F9  1  0.31564196  0.81604419  0.93361647  1
  F  F10  1  0.06530263  0.56638353  0.68395581  1
  F  F11  1  0.31564196  0.43361647  0.31604419  1
  F  F12  1  0.31966877  0.43033123  0.93033123  1
  F  F13  1  0.68033123  0.56966877  0.06966877  1
  F  F14  1  0.06941207  0.18058793  0.68058793  1
  F  F15  1  0.93058793  0.81941207  0.31941207  1
  F  F16  1  0.68435804  0.18395581  0.06638353  1
  F  F17  1  0.93469737  0.81604419  0.93361647  1
