# generated using pymatgen
data_RbGa7
_symmetry_space_group_name_H-M   'P 1'
_cell_length_a   10.35170802
_cell_length_b   10.35170802
_cell_length_c   10.35170803
_cell_angle_alpha   38.11715792
_cell_angle_beta   38.11715795
_cell_angle_gamma   38.11715792
_symmetry_Int_Tables_number   1
_chemical_formula_structural   RbGa7
_chemical_formula_sum   'Rb2 Ga14'
_cell_volume   379.47815503
_cell_formula_units_Z   2
loop_
 _symmetry_equiv_pos_site_id
 _symmetry_equiv_pos_as_xyz
  1  'x, y, z'
loop_
 _atom_site_type_symbol
 _atom_site_label
 _atom_site_symmetry_multiplicity
 _atom_site_fract_x
 _atom_site_fract_y
 _atom_site_fract_z
 _atom_site_occupancy
  Ga  Ga0  1  0.45551793  0.45551793  0.45551793  1
  Ga  Ga1  1  0.54448207  0.54448207  0.54448207  1
  Ga  Ga2  1  0.18158059  0.58192300  0.18158059  1
  Ga  Ga3  1  0.18158059  0.18158059  0.58192300  1
  Ga  Ga4  1  0.58192300  0.18158059  0.18158059  1
  Ga  Ga5  1  0.41807700  0.81841941  0.81841941  1
  Ga  Ga6  1  0.81841941  0.41807700  0.81841941  1
  Ga  Ga7  1  0.81841941  0.81841941  0.41807700  1
  Ga  Ga8  1  0.21628941  0.79820694  0.21628941  1
  Ga  Ga9  1  0.21628941  0.21628941  0.79820694  1
  Ga  Ga10  1  0.79820694  0.21628941  0.21628941  1
  Ga  Ga11  1  0.20179306  0.78371059  0.78371059  1
  Ga  Ga12  1  0.78371059  0.20179306  0.78371059  1
  Ga  Ga13  1  0.78371059  0.78371059  0.20179306  1
  Rb  Rb14  1  0.19577220  0.19577220  0.19577220  1
  Rb  Rb15  1  0.80422780  0.80422780  0.80422780  1
