# generated using pymatgen
data_Ba2Mg(PO4)2
_symmetry_space_group_name_H-M   'P 1'
_cell_length_a   5.39517775
_cell_length_b   8.96467655
_cell_length_c   16.33962020
_cell_angle_alpha   90.00000000
_cell_angle_beta   90.51856260
_cell_angle_gamma   90.00000000
_symmetry_Int_Tables_number   1
_chemical_formula_structural   Ba2Mg(PO4)2
_chemical_formula_sum   'Ba8 Mg4 P8 O32'
_cell_volume   790.25008601
_cell_formula_units_Z   4
loop_
 _symmetry_equiv_pos_site_id
 _symmetry_equiv_pos_as_xyz
  1  'x, y, z'
loop_
 _atom_site_type_symbol
 _atom_site_label
 _atom_site_symmetry_multiplicity
 _atom_site_fract_x
 _atom_site_fract_y
 _atom_site_fract_z
 _atom_site_occupancy
  O  O0  1  0.46095686  0.89100873  0.66547943  1
  O  O1  1  0.03904314  0.39100873  0.83452057  1
  O  O2  1  0.53904314  0.10899127  0.33452057  1
  O  O3  1  0.96095686  0.60899127  0.16547943  1
  O  O4  1  0.85390078  0.72805296  0.66770371  1
  O  O5  1  0.64609922  0.22805296  0.83229629  1
  O  O6  1  0.14609922  0.27194704  0.33229629  1
  O  O7  1  0.35390078  0.77194704  0.16770371  1
  O  O8  1  0.85236082  0.97331575  0.58982181  1
  O  O9  1  0.64763918  0.47331575  0.91017819  1
  O  O10  1  0.14763918  0.02668425  0.41017819  1
  O  O11  1  0.35236082  0.52668425  0.08982181  1
  O  O12  1  0.84780227  0.97265379  0.74501285  1
  O  O13  1  0.65219773  0.47265379  0.75498715  1
  O  O14  1  0.15219773  0.02734621  0.25498715  1
  O  O15  1  0.34780227  0.52734621  0.24501285  1
  O  O16  1  0.47763377  0.86430679  0.87680707  1
  O  O17  1  0.02236623  0.36430679  0.62319293  1
  O  O18  1  0.52236623  0.13569321  0.12319293  1
  O  O19  1  0.97763377  0.63569321  0.37680707  1
  O  O20  1  0.78572582  0.58526567  0.51499281  1
  O  O21  1  0.71427418  0.08526567  0.98500719  1
  O  O22  1  0.21427418  0.41473433  0.48500719  1
  O  O23  1  0.28572582  0.91473433  0.01499281  1
  O  O24  1  0.52304071  0.69881487  0.40097954  1
  O  O25  1  0.97695929  0.19881487  0.09902046  1
  O  O26  1  0.47695929  0.30118513  0.59902046  1
  O  O27  1  0.02304071  0.80118513  0.90097954  1
  O  O28  1  0.65029999  0.43434120  0.38736111  1
  O  O29  1  0.84970001  0.93434120  0.11263889  1
  O  O30  1  0.34970001  0.56565880  0.61263889  1
  O  O31  1  0.15029999  0.06565880  0.88736111  1
  Mg  Mg32  1  0.22715658  0.98362400  0.13391092  1
  Mg  Mg33  1  0.27284342  0.48362400  0.36608908  1
  Mg  Mg34  1  0.72715658  0.51637600  0.63391092  1
  Mg  Mg35  1  0.77284342  0.01637600  0.86608908  1
  P  P36  1  0.26380087  0.41178251  0.57750118  1
  P  P37  1  0.75003918  0.89146692  0.66666463  1
  P  P38  1  0.76380087  0.08821749  0.07750118  1
  P  P39  1  0.73619913  0.58821749  0.42249882  1
  P  P40  1  0.25003918  0.60853308  0.16666463  1
  P  P41  1  0.24996082  0.10853308  0.33333537  1
  P  P42  1  0.74996082  0.39146692  0.83333537  1
  P  P43  1  0.23619913  0.91178251  0.92249882  1
  Ba  Ba44  1  0.24681775  0.65756694  0.77138498  1
  Ba  Ba45  1  0.25318225  0.15756694  0.72861502  1
  Ba  Ba46  1  0.75318225  0.34243306  0.22861502  1
  Ba  Ba47  1  0.74681775  0.84243306  0.27138498  1
  Ba  Ba48  1  0.79885158  0.20396541  0.48028947  1
  Ba  Ba49  1  0.70114842  0.70396541  0.01971053  1
  Ba  Ba50  1  0.20114842  0.79603459  0.51971053  1
  Ba  Ba51  1  0.29885158  0.29603459  0.98028947  1
