# generated using pymatgen
data_LaCd(BO2)5
_symmetry_space_group_name_H-M   'P 1'
_cell_length_a   7.98793560
_cell_length_b   8.88334383
_cell_length_c   9.70770654
_cell_angle_alpha   91.01547699
_cell_angle_beta   90.00000000
_cell_angle_gamma   90.00000000
_symmetry_Int_Tables_number   1
_chemical_formula_structural   LaCd(BO2)5
_chemical_formula_sum   'La4 Cd4 B20 O40'
_cell_volume   688.74657513
_cell_formula_units_Z   4
loop_
 _symmetry_equiv_pos_site_id
 _symmetry_equiv_pos_as_xyz
  1  'x, y, z'
loop_
 _atom_site_type_symbol
 _atom_site_label
 _atom_site_symmetry_multiplicity
 _atom_site_fract_x
 _atom_site_fract_y
 _atom_site_fract_z
 _atom_site_occupancy
  B  B0  1  0.42158496  0.08402558  0.74519628  1
  B  B1  1  0.82614376  0.56740299  0.09274692  1
  B  B2  1  0.32614376  0.93259701  0.40725308  1
  B  B3  1  0.17385624  0.43259701  0.90725308  1
  B  B4  1  0.67385624  0.06740299  0.59274692  1
  B  B5  1  0.10477748  0.64863241  0.50271055  1
  B  B6  1  0.60477748  0.85136759  0.99728945  1
  B  B7  1  0.89522252  0.35136759  0.49728945  1
  B  B8  1  0.39522252  0.14863241  0.00271055  1
  B  B9  1  0.92158496  0.41597442  0.75480372  1
  B  B10  1  0.57841504  0.91597442  0.25480372  1
  B  B11  1  0.07841504  0.58402558  0.24519628  1
  B  B12  1  0.67317917  0.51540988  0.59962264  1
  B  B13  1  0.17317917  0.98459012  0.90037736  1
  B  B14  1  0.32682083  0.48459012  0.40037736  1
  B  B15  1  0.82682083  0.01540988  0.09962264  1
  B  B16  1  0.47039553  0.28205299  0.55752264  1
  B  B17  1  0.97039553  0.21794701  0.94247736  1
  B  B18  1  0.52960447  0.71794701  0.44247736  1
  B  B19  1  0.02960447  0.78205299  0.05752264  1
  O  O20  1  0.78708056  0.52838558  0.72460301  1
  O  O21  1  0.32885972  0.50109761  0.92162911  1
  O  O22  1  0.82885972  0.99890239  0.57837089  1
  O  O23  1  0.67114028  0.49890239  0.07837089  1
  O  O24  1  0.17114028  0.00109761  0.42162911  1
  O  O25  1  0.55550849  0.76439381  0.88755005  1
  O  O26  1  0.05550849  0.73560619  0.61244995  1
  O  O27  1  0.44449151  0.23560619  0.11244995  1
  O  O28  1  0.28708056  0.97161442  0.77539699  1
  O  O29  1  0.94449151  0.26439381  0.38755005  1
  O  O30  1  0.71291944  0.02838558  0.22460301  1
  O  O31  1  0.21291944  0.47161442  0.27539699  1
  O  O32  1  0.46522464  0.16679851  0.87473969  1
  O  O33  1  0.96522464  0.33320149  0.62526031  1
  O  O34  1  0.53477536  0.83320149  0.12526031  1
  O  O35  1  0.03477536  0.66679851  0.37473969  1
  O  O36  1  0.57522271  0.00810257  0.69569096  1
  O  O37  1  0.07522271  0.49189743  0.80430904  1
  O  O38  1  0.42477729  0.99189743  0.30430904  1
  O  O39  1  0.92477729  0.50810257  0.19569096  1
  O  O40  1  0.35970391  0.19125325  0.64293693  1
  O  O41  1  0.85970391  0.30874675  0.85706307  1
  O  O42  1  0.64029609  0.80874675  0.35706307  1
  O  O43  1  0.14029609  0.69125325  0.14293693  1
  O  O44  1  0.53194070  0.41559984  0.63875509  1
  O  O45  1  0.03194070  0.08440016  0.86124491  1
  O  O46  1  0.46805930  0.58440016  0.36124491  1
  O  O47  1  0.96805930  0.91559984  0.13875509  1
  O  O48  1  0.60941509  0.67065683  0.57582635  1
  O  O49  1  0.10941509  0.82934317  0.92417365  1
  O  O50  1  0.39058491  0.32934317  0.42417365  1
  O  O51  1  0.88043672  0.68561470  0.01432885  1
  O  O52  1  0.76779332  0.45622454  0.48005752  1
  O  O53  1  0.26779332  0.04377546  0.01994248  1
  O  O54  1  0.23220668  0.54377546  0.51994248  1
  O  O55  1  0.73220668  0.95622454  0.98005752  1
  O  O56  1  0.61956328  0.18561470  0.51432885  1
  O  O57  1  0.11956328  0.31438530  0.98567115  1
  O  O58  1  0.38043672  0.81438530  0.48567115  1
  O  O59  1  0.89058491  0.17065683  0.07582635  1
  Cd  Cd60  1  0.59102571  0.39053526  0.87595188  1
  Cd  Cd61  1  0.09102571  0.10946474  0.62404812  1
  Cd  Cd62  1  0.40897429  0.60946474  0.12404812  1
  Cd  Cd63  1  0.90897429  0.89053526  0.37595188  1
  La  La64  1  0.82263957  0.80712611  0.76499194  1
  La  La65  1  0.32263957  0.69287389  0.73500806  1
  La  La66  1  0.17736043  0.19287389  0.23500806  1
  La  La67  1  0.67736043  0.30712611  0.26499194  1
