# generated using pymatgen
data_Na4Hf2(GeO4)3
_symmetry_space_group_name_H-M   'P 1'
_cell_length_a   9.33738098
_cell_length_b   9.33738097
_cell_length_c   9.33738098
_cell_angle_alpha   61.35818455
_cell_angle_beta   61.35818457
_cell_angle_gamma   61.35818453
_symmetry_Int_Tables_number   1
_chemical_formula_structural   Na4Hf2(GeO4)3
_chemical_formula_sum   'Na8 Hf4 Ge6 O24'
_cell_volume   593.22000678
_cell_formula_units_Z   2
loop_
 _symmetry_equiv_pos_site_id
 _symmetry_equiv_pos_as_xyz
  1  'x, y, z'
loop_
 _atom_site_type_symbol
 _atom_site_label
 _atom_site_symmetry_multiplicity
 _atom_site_fract_x
 _atom_site_fract_y
 _atom_site_fract_z
 _atom_site_occupancy
  O  O0  1  0.86313891  0.70659925  0.49025833  1
  O  O1  1  0.70659925  0.49025833  0.86313891  1
  O  O2  1  0.49025833  0.86313891  0.70659925  1
  O  O3  1  0.00974167  0.79340075  0.63686109  1
  O  O4  1  0.79340075  0.63686109  0.00974167  1
  O  O5  1  0.63686109  0.00974167  0.79340075  1
  O  O6  1  0.13686109  0.29340075  0.50974167  1
  O  O7  1  0.29340075  0.50974167  0.13686109  1
  O  O8  1  0.50974167  0.13686109  0.29340075  1
  O  O9  1  0.99025833  0.20659925  0.36313891  1
  O  O10  1  0.20659925  0.36313891  0.99025833  1
  O  O11  1  0.36313891  0.99025833  0.20659925  1
  O  O12  1  0.76184620  0.42407066  0.56121178  1
  O  O13  1  0.42407066  0.56121178  0.76184620  1
  O  O14  1  0.56121178  0.76184620  0.42407066  1
  O  O15  1  0.93878822  0.07592934  0.73815380  1
  O  O16  1  0.07592934  0.73815380  0.93878822  1
  O  O17  1  0.73815380  0.93878822  0.07592934  1
  O  O18  1  0.26184620  0.06121178  0.92407066  1
  O  O19  1  0.92407066  0.26184620  0.06121178  1
  O  O20  1  0.06121178  0.92407066  0.26184620  1
  O  O21  1  0.43878822  0.23815380  0.57592934  1
  O  O22  1  0.57592934  0.43878822  0.23815380  1
  O  O23  1  0.23815380  0.57592934  0.43878822  1
  Na  Na24  1  0.00000000  0.00000000  0.00000000  1
  Na  Na25  1  0.12915410  0.37084590  0.75000000  1
  Na  Na26  1  0.75000000  0.12915410  0.37084590  1
  Na  Na27  1  0.37084590  0.75000000  0.12915410  1
  Na  Na28  1  0.62915410  0.25000000  0.87084590  1
  Na  Na29  1  0.25000000  0.87084590  0.62915410  1
  Na  Na30  1  0.50000000  0.50000000  0.50000000  1
  Na  Na31  1  0.87084590  0.62915410  0.25000000  1
  Ge  Ge32  1  0.54268946  0.95731054  0.25000000  1
  Ge  Ge33  1  0.04268946  0.75000000  0.45731054  1
  Ge  Ge34  1  0.95731054  0.25000000  0.54268946  1
  Ge  Ge35  1  0.45731054  0.04268946  0.75000000  1
  Ge  Ge36  1  0.75000000  0.45731054  0.04268946  1
  Ge  Ge37  1  0.25000000  0.54268946  0.95731054  1
  Hf  Hf38  1  0.35614543  0.35614543  0.35614543  1
  Hf  Hf39  1  0.85614543  0.85614543  0.85614543  1
  Hf  Hf40  1  0.64385457  0.64385457  0.64385457  1
  Hf  Hf41  1  0.14385457  0.14385457  0.14385457  1
