# generated using pymatgen
data_Y3FeB7
_symmetry_space_group_name_H-M   'P 1'
_cell_length_a   3.42114595
_cell_length_b   8.04952868
_cell_length_c   9.31454015
_cell_angle_alpha   90.00000000
_cell_angle_beta   90.00000000
_cell_angle_gamma   102.26924963
_symmetry_Int_Tables_number   1
_chemical_formula_structural   Y3FeB7
_chemical_formula_sum   'Y6 Fe2 B14'
_cell_volume   250.65077397
_cell_formula_units_Z   2
loop_
 _symmetry_equiv_pos_site_id
 _symmetry_equiv_pos_as_xyz
  1  'x, y, z'
loop_
 _atom_site_type_symbol
 _atom_site_label
 _atom_site_symmetry_multiplicity
 _atom_site_fract_x
 _atom_site_fract_y
 _atom_site_fract_z
 _atom_site_occupancy
  B  B0  1  0.46062412  0.92124823  0.25000000  1
  B  B1  1  0.53937588  0.07875177  0.75000000  1
  B  B2  1  0.47813415  0.95626830  0.90134918  1
  B  B3  1  0.52186585  0.04373170  0.09865082  1
  B  B4  1  0.52186585  0.04373170  0.40134918  1
  B  B5  1  0.47813415  0.95626830  0.59865082  1
  B  B6  1  0.37022504  0.74045008  0.84679643  1
  B  B7  1  0.62977496  0.25954992  0.15320357  1
  B  B8  1  0.27247465  0.54494930  0.96698006  1
  B  B9  1  0.72752535  0.45505070  0.03301994  1
  B  B10  1  0.72752535  0.45505070  0.46698006  1
  B  B11  1  0.27247465  0.54494930  0.53301994  1
  B  B12  1  0.37022504  0.74045008  0.65320357  1
  B  B13  1  0.62977496  0.25954992  0.34679643  1
  Fe  Fe14  1  0.05432217  0.10864434  0.25000000  1
  Fe  Fe15  1  0.94567783  0.89135566  0.75000000  1
  Y  Y16  1  0.24260492  0.48520984  0.25000000  1
  Y  Y17  1  0.75739508  0.51479016  0.75000000  1
  Y  Y18  1  0.10482190  0.20964380  0.56062160  1
  Y  Y19  1  0.89517810  0.79035620  0.43937840  1
  Y  Y20  1  0.89517810  0.79035620  0.06062160  1
  Y  Y21  1  0.10482190  0.20964380  0.93937840  1
