# generated using pymatgen
data_Pr10Se19
_symmetry_space_group_name_H-M   'P 1'
_cell_length_a   9.39952558
_cell_length_b   9.39952558
_cell_length_c   17.17786119
_cell_angle_alpha   90.00000000
_cell_angle_beta   90.00000000
_cell_angle_gamma   90.00000000
_symmetry_Int_Tables_number   1
_chemical_formula_structural   Pr10Se19
_chemical_formula_sum   'Pr20 Se38'
_cell_volume   1517.68260762
_cell_formula_units_Z   2
loop_
 _symmetry_equiv_pos_site_id
 _symmetry_equiv_pos_as_xyz
  1  'x, y, z'
loop_
 _atom_site_type_symbol
 _atom_site_label
 _atom_site_symmetry_multiplicity
 _atom_site_fract_x
 _atom_site_fract_y
 _atom_site_fract_z
 _atom_site_occupancy
  Se  Se0  1  0.25000000  0.75000000  0.06441894  1
  Se  Se1  1  0.25000000  0.75000000  0.56441894  1
  Se  Se2  1  0.75000000  0.25000000  0.93558106  1
  Se  Se3  1  0.75000000  0.25000000  0.43558106  1
  Se  Se4  1  0.64928932  0.55209247  0.56324305  1
  Se  Se5  1  0.44790753  0.14928932  0.06324305  1
  Se  Se6  1  0.05209247  0.35071068  0.06324305  1
  Se  Se7  1  0.85071068  0.94790753  0.56324305  1
  Se  Se8  1  0.35071068  0.44790753  0.43675695  1
  Se  Se9  1  0.55209247  0.85071068  0.93675695  1
  Se  Se10  1  0.94790753  0.64928932  0.93675695  1
  Se  Se11  1  0.14928932  0.05209247  0.43675695  1
  Se  Se12  1  0.04894977  0.34767915  0.57131413  1
  Se  Se13  1  0.65232085  0.54894977  0.07131413  1
  Se  Se14  1  0.84767915  0.95105023  0.07131413  1
  Se  Se15  1  0.45105023  0.15232085  0.57131413  1
  Se  Se16  1  0.95105023  0.65232085  0.42868587  1
  Se  Se17  1  0.34767915  0.45105023  0.92868587  1
  Se  Se18  1  0.15232085  0.04894977  0.92868587  1
  Se  Se19  1  0.54894977  0.84767915  0.42868587  1
  Se  Se20  1  0.06616533  0.88266139  0.24918290  1
  Se  Se21  1  0.11733861  0.56616533  0.74918290  1
  Se  Se22  1  0.38266139  0.93383467  0.74918290  1
  Se  Se23  1  0.43383467  0.61733861  0.24918290  1
  Se  Se24  1  0.93383467  0.11733861  0.75081710  1
  Se  Se25  1  0.88266139  0.43383467  0.25081710  1
  Se  Se26  1  0.61733861  0.06616533  0.25081710  1
  Se  Se27  1  0.56616533  0.38266139  0.75081710  1
  Se  Se28  1  0.32608557  0.97026310  0.25020624  1
  Se  Se29  1  0.02973690  0.82608557  0.75020624  1
  Se  Se30  1  0.47026310  0.67391443  0.75020624  1
  Se  Se31  1  0.17391443  0.52973690  0.25020624  1
  Se  Se32  1  0.67391443  0.02973690  0.74979376  1
  Se  Se33  1  0.97026310  0.17391443  0.24979376  1
  Se  Se34  1  0.52973690  0.32608557  0.24979376  1
  Se  Se35  1  0.82608557  0.47026310  0.74979376  1
  Se  Se36  1  0.25000000  0.25000000  0.75000000  1
  Se  Se37  1  0.75000000  0.75000000  0.25000000  1
  Pr  Pr38  1  0.25000000  0.75000000  0.38342324  1
  Pr  Pr39  1  0.25000000  0.75000000  0.88342324  1
  Pr  Pr40  1  0.75000000  0.25000000  0.61657676  1
  Pr  Pr41  1  0.75000000  0.25000000  0.11657676  1
  Pr  Pr42  1  0.64800332  0.55349967  0.89435814  1
  Pr  Pr43  1  0.44650033  0.14800332  0.39435814  1
  Pr  Pr44  1  0.05349967  0.35199668  0.39435814  1
  Pr  Pr45  1  0.85199668  0.94650033  0.89435814  1
  Pr  Pr46  1  0.35199668  0.44650033  0.10564186  1
  Pr  Pr47  1  0.55349967  0.85199668  0.60564186  1
  Pr  Pr48  1  0.94650033  0.64800332  0.60564186  1
  Pr  Pr49  1  0.14800332  0.05349967  0.10564186  1
  Pr  Pr50  1  0.45664443  0.15288215  0.88021004  1
  Pr  Pr51  1  0.84711785  0.95664443  0.38021004  1
  Pr  Pr52  1  0.65288215  0.54335557  0.38021004  1
  Pr  Pr53  1  0.04335557  0.34711785  0.88021004  1
  Pr  Pr54  1  0.54335557  0.84711785  0.11978996  1
  Pr  Pr55  1  0.15288215  0.04335557  0.61978996  1
  Pr  Pr56  1  0.34711785  0.45664443  0.61978996  1
  Pr  Pr57  1  0.95664443  0.65288215  0.11978996  1
