# generated using pymatgen
data_Hf2Si4Ni3
_symmetry_space_group_name_H-M   'P 1'
_cell_length_a   5.18922431
_cell_length_b   6.87358857
_cell_length_c   7.30987948
_cell_angle_alpha   90.00000000
_cell_angle_beta   110.79013210
_cell_angle_gamma   90.00000000
_symmetry_Int_Tables_number   1
_chemical_formula_structural   Hf2Si4Ni3
_chemical_formula_sum   'Hf4 Si8 Ni6'
_cell_volume   243.75595328
_cell_formula_units_Z   2
loop_
 _symmetry_equiv_pos_site_id
 _symmetry_equiv_pos_as_xyz
  1  'x, y, z'
loop_
 _atom_site_type_symbol
 _atom_site_label
 _atom_site_symmetry_multiplicity
 _atom_site_fract_x
 _atom_site_fract_y
 _atom_site_fract_z
 _atom_site_occupancy
  Si  Si0  1  0.31881472  0.52268373  0.63762944  1
  Si  Si1  1  0.68118528  0.47731627  0.36237056  1
  Si  Si2  1  0.18118528  0.02268373  0.36237056  1
  Si  Si3  1  0.81881472  0.97731627  0.63762944  1
  Si  Si4  1  0.31145094  0.75000000  0.12290187  1
  Si  Si5  1  0.18854906  0.25000000  0.87709813  1
  Si  Si6  1  0.81145094  0.75000000  0.12290187  1
  Si  Si7  1  0.68854906  0.25000000  0.87709813  1
  Ni  Ni8  1  0.97922611  0.75000000  0.45845223  1
  Ni  Ni9  1  0.52077389  0.25000000  0.54154777  1
  Ni  Ni10  1  0.50000000  0.50000000  0.00000000  1
  Ni  Ni11  1  0.00000000  0.00000000  0.00000000  1
  Ni  Ni12  1  0.02077389  0.25000000  0.54154777  1
  Ni  Ni13  1  0.47922611  0.75000000  0.45845223  1
  Hf  Hf14  1  0.39613365  0.90256413  0.79226731  1
  Hf  Hf15  1  0.60386635  0.09743587  0.20773269  1
  Hf  Hf16  1  0.10386635  0.40256413  0.20773269  1
  Hf  Hf17  1  0.89613365  0.59743587  0.79226731  1
