# generated using pymatgen
data_Sr2CaUO6
_symmetry_space_group_name_H-M   'P 1'
_cell_length_a   5.97358517
_cell_length_b   6.13709503
_cell_length_c   8.53458022
_cell_angle_alpha   90.00000000
_cell_angle_beta   90.22073325
_cell_angle_gamma   90.00000000
_symmetry_Int_Tables_number   1
_chemical_formula_structural   Sr2CaUO6
_chemical_formula_sum   'Sr4 Ca2 U2 O12'
_cell_volume   312.87931365
_cell_formula_units_Z   2
loop_
 _symmetry_equiv_pos_site_id
 _symmetry_equiv_pos_as_xyz
  1  'x, y, z'
loop_
 _atom_site_type_symbol
 _atom_site_label
 _atom_site_symmetry_multiplicity
 _atom_site_fract_x
 _atom_site_fract_y
 _atom_site_fract_z
 _atom_site_occupancy
  O  O0  1  0.89609488  0.54390010  0.76647891  1
  O  O1  1  0.60390512  0.04390010  0.73352109  1
  O  O2  1  0.10390512  0.45609990  0.23352109  1
  O  O3  1  0.39609488  0.95609990  0.26647891  1
  O  O4  1  0.78266133  0.81149130  0.45100888  1
  O  O5  1  0.71733867  0.31149130  0.04899112  1
  O  O6  1  0.21733867  0.18850870  0.54899112  1
  O  O7  1  0.28266133  0.68850870  0.95100888  1
  O  O8  1  0.18639244  0.22090581  0.93820596  1
  O  O9  1  0.31360756  0.72090581  0.56179404  1
  O  O10  1  0.81360756  0.77909419  0.06179404  1
  O  O11  1  0.68639244  0.27909419  0.43820596  1
  Ca  Ca12  1  0.00000000  0.50000000  0.50000000  1
  Ca  Ca13  1  0.50000000  0.00000000  0.00000000  1
  Sr  Sr14  1  0.51316149  0.54738259  0.24705880  1
  Sr  Sr15  1  0.98683851  0.04738259  0.25294120  1
  Sr  Sr16  1  0.01316149  0.95261741  0.74705880  1
  Sr  Sr17  1  0.48683851  0.45261741  0.75294120  1
  U  U18  1  0.00000000  0.50000000  0.00000000  1
  U  U19  1  0.50000000  0.00000000  0.50000000  1
