# generated using pymatgen
data_La12Cu10O31
_symmetry_space_group_name_H-M   'P 1'
_cell_length_a   6.70774727
_cell_length_b   6.70774755
_cell_length_c   20.68413937
_cell_angle_alpha   89.94231506
_cell_angle_beta   89.94231506
_cell_angle_gamma   120.34579874
_symmetry_Int_Tables_number   1
_chemical_formula_structural   La12Cu10O31
_chemical_formula_sum   'La12 Cu10 O31'
_cell_volume   803.15011993
_cell_formula_units_Z   1
loop_
 _symmetry_equiv_pos_site_id
 _symmetry_equiv_pos_as_xyz
  1  'x, y, z'
loop_
 _atom_site_type_symbol
 _atom_site_label
 _atom_site_symmetry_multiplicity
 _atom_site_fract_x
 _atom_site_fract_y
 _atom_site_fract_z
 _atom_site_occupancy
  La  La0  1  0.99969750  -0.00029361  0.00396487  1
  La  La1  1  0.00000645  0.98611192  0.26133584  1
  La  La2  1  0.01388808  -0.00000645  0.48866416  1
  La  La3  1  0.00029361  0.00030250  0.74603513  1
  La  La4  1  0.33306879  0.66592534  0.00470926  1
  La  La5  1  0.32899826  0.66512054  0.49244965  1
  La  La6  1  0.33487946  0.67100174  0.25755035  1
  La  La7  1  0.33407466  0.66693121  0.74529074  1
  La  La8  1  0.66717205  0.33311450  0.74598904  1
  La  La9  1  0.64983077  0.33315370  0.25751214  1
  La  La10  1  0.66684630  0.35016923  0.49248786  1
  La  La11  1  0.66688550  0.33282795  0.00401096  1
  Cu  Cu12  1  0.32997525  0.15934227  0.13062645  1
  Cu  Cu13  1  0.33467292  0.17054307  0.61909249  1
  Cu  Cu14  1  0.33298358  0.16638432  0.87501314  1
  Cu  Cu15  1  0.82945693  0.66532708  0.13090751  1
  Cu  Cu16  1  0.83361568  0.66701642  0.87498686  1
  Cu  Cu17  1  0.84065773  0.67002475  0.61937355  1
  Cu  Cu18  1  0.83881833  0.16118167  0.37500000  1
  Cu  Cu19  1  0.83361967  0.16638033  0.87500000  1
  Cu  Cu20  1  0.83990571  0.17066003  0.13142368  1
  Cu  Cu21  1  0.82933997  0.16009429  0.61857632  1
  O  O22  1  0.99251032  0.00748968  0.37500000  1
  O  O23  1  0.99905536  0.00094464  0.87500000  1
  O  O24  1  0.00024130  0.66714445  0.20266961  1
  O  O25  1  0.00612538  0.64840530  0.44920724  1
  O  O26  1  0.00198227  0.66893152  0.95113124  1
  O  O27  1  0.33241543  -0.00496303  0.05504281  1
  O  O28  1  -0.00120801  -0.00236522  0.12921468  1
  O  O29  1  0.00236522  0.00120801  0.62078532  1
  O  O30  1  0.32364244  0.32544503  0.20217635  1
  O  O31  1  0.33731335  0.33861289  0.69466681  1
  O  O32  1  0.34280611  0.35715848  0.45286600  1
  O  O33  1  0.33452187  0.33447903  0.95115915  1
  O  O34  1  0.67608989  0.00465767  0.20336716  1
  O  O35  1  0.35159469  0.99387462  0.30079276  1
  O  O36  1  0.33106848  0.99801773  0.79886876  1
  O  O37  1  0.33285555  0.99975870  0.54733039  1
  O  O38  1  0.66138711  0.66268665  0.05533319  1
  O  O39  1  0.67455497  0.67635756  0.54782365  1
  O  O40  1  0.64284152  0.65719389  0.29713400  1
  O  O41  1  0.66552097  0.66547813  0.79884085  1
  O  O42  1  0.66779919  0.33220081  0.87500000  1
  O  O43  1  0.66596037  0.33065794  0.13103834  1
  O  O44  1  0.66934206  0.33403963  0.61896166  1
  O  O45  1  0.00496303  0.66758457  0.69495719  1
  O  O46  1  0.66045430  0.01336129  0.44322850  1
  O  O47  1  0.66232105  -0.00420859  0.69476399  1
  O  O48  1  0.66724836  0.99964840  0.95165115  1
  O  O49  1  0.00420859  0.33767895  0.05523601  1
  O  O50  1  -0.00465767  0.32391011  0.54663284  1
  O  O51  1  0.98663871  0.33954570  0.30677150  1
  O  O52  1  0.00035160  0.33275164  0.79834885  1
