# generated using pymatgen
data_Cs2NbAgSe4
_symmetry_space_group_name_H-M   'P 1'
_cell_length_a   6.17789020
_cell_length_b   8.10174740
_cell_length_c   13.34295341
_cell_angle_alpha   84.93618447
_cell_angle_beta   76.61437403
_cell_angle_gamma   67.58769059
_symmetry_Int_Tables_number   1
_chemical_formula_structural   Cs2NbAgSe4
_chemical_formula_sum   'Cs4 Nb2 Ag2 Se8'
_cell_volume   600.61981952
_cell_formula_units_Z   2
loop_
 _symmetry_equiv_pos_site_id
 _symmetry_equiv_pos_as_xyz
  1  'x, y, z'
loop_
 _atom_site_type_symbol
 _atom_site_label
 _atom_site_symmetry_multiplicity
 _atom_site_fract_x
 _atom_site_fract_y
 _atom_site_fract_z
 _atom_site_occupancy
  Se  Se0  1  0.55716422  0.55700884  0.63990024  1
  Se  Se1  1  0.25407330  0.94299116  0.86009976  1
  Se  Se2  1  0.88582693  0.55700884  0.86009976  1
  Se  Se3  1  0.80293554  0.94299116  0.63990024  1
  Se  Se4  1  0.19706446  0.05700884  0.36009976  1
  Se  Se5  1  0.74592670  0.05700884  0.13990024  1
  Se  Se6  1  0.11417307  0.44299116  0.13990024  1
  Se  Se7  1  0.44283578  0.44299116  0.36009976  1
  Nb  Nb8  1  0.37500000  0.25000000  0.25000000  1
  Nb  Nb9  1  0.62500000  0.75000000  0.75000000  1
  Ag  Ag10  1  0.12500000  0.75000000  0.75000000  1
  Ag  Ag11  1  0.87500000  0.25000000  0.25000000  1
  Cs  Cs12  1  0.19567207  0.25000000  0.60865587  1
  Cs  Cs13  1  0.55432793  0.25000000  0.89134413  1
  Cs  Cs14  1  0.44567207  0.75000000  0.10865587  1
  Cs  Cs15  1  0.80432793  0.75000000  0.39134413  1
