# generated using pymatgen
data_K2VAgSe4
_symmetry_space_group_name_H-M   'P 1'
_cell_length_a   6.02782565
_cell_length_b   7.45776760
_cell_length_c   12.16199929
_cell_angle_alpha   84.25223692
_cell_angle_beta   75.65181068
_cell_angle_gamma   66.16333637
_symmetry_Int_Tables_number   1
_chemical_formula_structural   K2VAgSe4
_chemical_formula_sum   'K4 V2 Ag2 Se8'
_cell_volume   484.49726912
_cell_formula_units_Z   2
loop_
 _symmetry_equiv_pos_site_id
 _symmetry_equiv_pos_as_xyz
  1  'x, y, z'
loop_
 _atom_site_type_symbol
 _atom_site_label
 _atom_site_symmetry_multiplicity
 _atom_site_fract_x
 _atom_site_fract_y
 _atom_site_fract_z
 _atom_site_occupancy
  K  K0  1  0.94297862  0.75000000  0.11404276  1
  K  K1  1  0.30702138  0.75000000  0.38595724  1
  K  K2  1  0.05702138  0.25000000  0.88595724  1
  K  K3  1  0.69297862  0.25000000  0.61404276  1
  V  V4  1  0.12500000  0.75000000  0.75000000  1
  V  V5  1  0.87500000  0.25000000  0.25000000  1
  Se  Se6  1  0.24299809  0.04537876  0.13325977  1
  Se  Se7  1  0.37625786  0.54537876  0.86674023  1
  Se  Se8  1  0.62374214  0.45462124  0.13325977  1
  Se  Se9  1  0.92163662  0.45462124  0.36674023  1
  Se  Se10  1  0.71162315  0.04537876  0.36674023  1
  Se  Se11  1  0.07836338  0.54537876  0.63325977  1
  Se  Se12  1  0.75700191  0.95462124  0.86674023  1
  Se  Se13  1  0.28837685  0.95462124  0.63325977  1
  Ag  Ag14  1  0.62500000  0.75000000  0.75000000  1
  Ag  Ag15  1  0.37500000  0.25000000  0.25000000  1
