# generated using pymatgen
data_K5P2Au
_symmetry_space_group_name_H-M   'P 1'
_cell_length_a   5.70624270
_cell_length_b   5.70624270
_cell_length_c   18.90472430
_cell_angle_alpha   90.00000000
_cell_angle_beta   90.00000000
_cell_angle_gamma   119.99999999
_symmetry_Int_Tables_number   1
_chemical_formula_structural   K5P2Au
_chemical_formula_sum   'K10 P4 Au2'
_cell_volume   533.09113259
_cell_formula_units_Z   2
loop_
 _symmetry_equiv_pos_site_id
 _symmetry_equiv_pos_as_xyz
  1  'x, y, z'
loop_
 _atom_site_type_symbol
 _atom_site_label
 _atom_site_symmetry_multiplicity
 _atom_site_fract_x
 _atom_site_fract_y
 _atom_site_fract_z
 _atom_site_occupancy
  P  P0  1  0.33333333  0.66666667  0.12239647  1
  P  P1  1  0.66666667  0.33333333  0.62239647  1
  P  P2  1  0.66666667  0.33333333  0.87760353  1
  P  P3  1  0.33333333  0.66666667  0.37760353  1
  K  K4  1  0.00000000  0.00000000  0.85604090  1
  K  K5  1  0.00000000  0.00000000  0.64395910  1
  K  K6  1  0.33333333  0.66666667  0.75000000  1
  K  K7  1  0.00000000  0.00000000  0.35604090  1
  K  K8  1  0.33333333  0.66666667  0.54798656  1
  K  K9  1  0.66666667  0.33333333  0.25000000  1
  K  K10  1  0.66666667  0.33333333  0.45201344  1
  K  K11  1  0.66666667  0.33333333  0.04798656  1
  K  K12  1  0.33333333  0.66666667  0.95201344  1
  K  K13  1  0.00000000  0.00000000  0.14395910  1
  Au  Au14  1  0.66666667  0.33333333  0.75000000  1
  Au  Au15  1  0.33333333  0.66666667  0.25000000  1
