# generated using pymatgen
data_Y(BIr)2
_symmetry_space_group_name_H-M   'P 1'
_cell_length_a   5.50696136
_cell_length_b   5.50696135
_cell_length_c   6.15978922
_cell_angle_alpha   104.77746930
_cell_angle_beta   104.77746921
_cell_angle_gamma   115.42916738
_symmetry_Int_Tables_number   1
_chemical_formula_structural   Y(BIr)2
_chemical_formula_sum   'Y2 B4 Ir4'
_cell_volume   148.22899560
_cell_formula_units_Z   2
loop_
 _symmetry_equiv_pos_site_id
 _symmetry_equiv_pos_as_xyz
  1  'x, y, z'
loop_
 _atom_site_type_symbol
 _atom_site_label
 _atom_site_symmetry_multiplicity
 _atom_site_fract_x
 _atom_site_fract_y
 _atom_site_fract_z
 _atom_site_occupancy
  B  B0  1  0.80650706  0.19349294  0.75000000  1
  B  B1  1  0.55650706  0.44349294  0.25000000  1
  B  B2  1  0.44349294  0.55650706  0.75000000  1
  B  B3  1  0.19349294  0.80650706  0.25000000  1
  Y  Y4  1  0.12500000  0.87500000  0.75000000  1
  Y  Y5  1  0.87500000  0.12500000  0.25000000  1
  Ir  Ir6  1  0.75302537  0.50302537  0.00605073  1
  Ir  Ir7  1  0.50302537  0.75302537  0.50605073  1
  Ir  Ir8  1  0.24697463  0.49697463  0.99394927  1
  Ir  Ir9  1  0.49697463  0.24697463  0.49394927  1
