# generated using pymatgen
data_LaZr9O20
_symmetry_space_group_name_H-M   'P 1'
_cell_length_a   7.37237137
_cell_length_b   18.42228115
_cell_length_c   9.74607104
_cell_angle_alpha   19.10872571
_cell_angle_beta   55.50265927
_cell_angle_gamma   60.01398512
_symmetry_Int_Tables_number   1
_chemical_formula_structural   LaZr9O20
_chemical_formula_sum   'La1 Zr9 O20'
_cell_volume   354.03873927
_cell_formula_units_Z   1
loop_
 _symmetry_equiv_pos_site_id
 _symmetry_equiv_pos_as_xyz
  1  'x, y, z'
loop_
 _atom_site_type_symbol
 _atom_site_label
 _atom_site_symmetry_multiplicity
 _atom_site_fract_x
 _atom_site_fract_y
 _atom_site_fract_z
 _atom_site_occupancy
  La  La0  1  0.50000000  0.80000000  0.00000000  1
  Zr  Zr1  1  0.99744416  0.00189430  0.99901966  1
  Zr  Zr2  1  0.00225599  0.20064330  0.99805834  1
  Zr  Zr3  1  0.99774401  0.39935670  0.00194166  1
  Zr  Zr4  1  0.49942319  0.00153256  -0.00010932  1
  Zr  Zr5  1  0.00255584  0.59810570  0.00098034  1
  Zr  Zr6  1  0.49896777  0.19966350  0.00038715  1
  Zr  Zr7  1  0.00000000  0.80000000  0.00000000  1
  Zr  Zr8  1  0.50103223  0.40033650  0.99961285  1
  Zr  Zr9  1  0.50057681  0.59846744  0.00010932  1
  O  O10  1  0.12246528  0.15533318  0.24110332  1
  O  O11  1  0.12080065  0.35732198  0.23976225  1
  O  O12  1  0.36932578  0.07119197  0.72419190  1
  O  O13  1  0.12424444  0.53748570  0.27451643  1
  O  O14  1  0.63768630  0.17231700  0.19887702  1
  O  O15  1  0.37250146  0.24307948  0.76154017  1
  O  O16  1  0.62749854  0.35692052  0.23845983  1
  O  O17  1  0.09954842  0.75189240  0.25643972  1
  O  O18  1  0.87575556  0.06251430  0.72548357  1
  O  O19  1  0.36231370  0.42768300  0.80112298  1
  O  O20  1  0.12576045  0.94361407  0.25906005  1
  O  O21  1  0.63067422  0.52880803  0.27580810  1
  O  O22  1  0.87919935  0.24267802  0.76023775  1
  O  O23  1  0.37018327  0.64993378  0.75573435  1
  O  O24  1  0.63310824  0.74720844  0.26840957  1
  O  O25  1  0.87753472  0.44466682  0.75889668  1
  O  O26  1  0.62981673  0.95006622  0.24426565  1
  O  O27  1  0.36689176  0.85279156  0.73159043  1
  O  O28  1  0.87423955  0.65638593  0.74093995  1
  O  O29  1  0.90045158  0.84810760  0.74356028  1
