# generated using pymatgen
data_Rb2VAgSe4
_symmetry_space_group_name_H-M   'P 1'
_cell_length_a   6.05150026
_cell_length_b   7.69558391
_cell_length_c   12.63641361
_cell_angle_alpha   84.59784561
_cell_angle_beta   76.14610143
_cell_angle_gamma   66.84748280
_symmetry_Int_Tables_number   1
_chemical_formula_structural   Rb2VAgSe4
_chemical_formula_sum   'Rb4 V2 Ag2 Se8'
_cell_volume   525.34033471
_cell_formula_units_Z   2
loop_
 _symmetry_equiv_pos_site_id
 _symmetry_equiv_pos_as_xyz
  1  'x, y, z'
loop_
 _atom_site_type_symbol
 _atom_site_label
 _atom_site_symmetry_multiplicity
 _atom_site_fract_x
 _atom_site_fract_y
 _atom_site_fract_z
 _atom_site_occupancy
  V  V0  1  0.87500000  0.25000000  0.25000000  1
  V  V1  1  0.12500000  0.75000000  0.75000000  1
  Se  Se2  1  0.07163723  0.55373029  0.63774499  1
  Se  Se3  1  0.76311251  0.94626971  0.86225501  1
  Se  Se4  1  0.62536752  0.44626971  0.13774499  1
  Se  Se5  1  0.70938222  0.05373029  0.36225501  1
  Se  Se6  1  0.37463248  0.55373029  0.86225501  1
  Se  Se7  1  0.29061778  0.94626971  0.63774499  1
  Se  Se8  1  0.23688749  0.05373029  0.13774499  1
  Se  Se9  1  0.92836277  0.44626971  0.36225501  1
  Rb  Rb10  1  0.94408608  0.75000000  0.11182784  1
  Rb  Rb11  1  0.30591392  0.75000000  0.38817216  1
  Rb  Rb12  1  0.69408608  0.25000000  0.61182784  1
  Rb  Rb13  1  0.05591392  0.25000000  0.88817216  1
  Ag  Ag14  1  0.37500000  0.25000000  0.25000000  1
  Ag  Ag15  1  0.62500000  0.75000000  0.75000000  1
