# generated using pymatgen
data_Rb2LiGaF6
_symmetry_space_group_name_H-M   'P 1'
_cell_length_a   10.27361366
_cell_length_b   10.27361366
_cell_length_c   10.27361366
_cell_angle_alpha   33.76325801
_cell_angle_beta   33.76325806
_cell_angle_gamma   33.76325800
_symmetry_Int_Tables_number   1
_chemical_formula_structural   Rb2LiGaF6
_chemical_formula_sum   'Rb4 Li2 Ga2 F12'
_cell_volume   298.42746003
_cell_formula_units_Z   2
loop_
 _symmetry_equiv_pos_site_id
 _symmetry_equiv_pos_as_xyz
  1  'x, y, z'
loop_
 _atom_site_type_symbol
 _atom_site_label
 _atom_site_symmetry_multiplicity
 _atom_site_fract_x
 _atom_site_fract_y
 _atom_site_fract_z
 _atom_site_occupancy
  Li  Li0  1  0.40405797  0.40405797  0.40405797  1
  Li  Li1  1  0.59594203  0.59594203  0.59594203  1
  F  F2  1  0.72753502  0.19317362  0.19317362  1
  F  F3  1  0.27246498  0.80682638  0.80682638  1
  F  F4  1  0.19317362  0.19317362  0.72753502  1
  F  F5  1  0.19317362  0.72753502  0.19317362  1
  F  F6  1  0.80682638  0.80682638  0.27246498  1
  F  F7  1  0.80682638  0.27246498  0.80682638  1
  F  F8  1  0.60673497  0.16486641  0.60673497  1
  F  F9  1  0.60673497  0.60673497  0.16486641  1
  F  F10  1  0.16486641  0.60673497  0.60673497  1
  F  F11  1  0.83513359  0.39326503  0.39326503  1
  F  F12  1  0.39326503  0.83513359  0.39326503  1
  F  F13  1  0.39326503  0.39326503  0.83513359  1
  Ga  Ga14  1  0.50000000  0.50000000  0.50000000  1
  Ga  Ga15  1  0.00000000  0.00000000  0.00000000  1
  Rb  Rb16  1  0.71712374  0.71712374  0.71712374  1
  Rb  Rb17  1  0.28287626  0.28287626  0.28287626  1
  Rb  Rb18  1  0.87243822  0.87243822  0.87243822  1
  Rb  Rb19  1  0.12756178  0.12756178  0.12756178  1
