# generated using pymatgen
data_Cs2P3
_symmetry_space_group_name_H-M   'P 1'
_cell_length_a   6.98115919
_cell_length_b   6.98115919
_cell_length_c   9.03955681
_cell_angle_alpha   111.29535617
_cell_angle_beta   111.29535612
_cell_angle_gamma   93.41016967
_symmetry_Int_Tables_number   1
_chemical_formula_structural   Cs2P3
_chemical_formula_sum   'Cs4 P6'
_cell_volume   373.03954975
_cell_formula_units_Z   2
loop_
 _symmetry_equiv_pos_site_id
 _symmetry_equiv_pos_as_xyz
  1  'x, y, z'
loop_
 _atom_site_type_symbol
 _atom_site_label
 _atom_site_symmetry_multiplicity
 _atom_site_fract_x
 _atom_site_fract_y
 _atom_site_fract_z
 _atom_site_occupancy
  P  P0  1  0.73356619  0.73356619  0.85865616  1
  P  P1  1  0.87491003  0.87491003  0.14134384  1
  P  P2  1  0.26643381  0.26643381  0.14134384  1
  P  P3  1  0.12508997  0.12508997  0.85865616  1
  P  P4  1  0.85794149  0.85794149  0.71588297  1
  P  P5  1  0.14205851  0.14205851  0.28411703  1
  Cs  Cs6  1  0.75000000  0.25000000  0.50000000  1
  Cs  Cs7  1  0.25000000  0.75000000  0.50000000  1
  Cs  Cs8  1  0.71822845  0.28177155  0.00000000  1
  Cs  Cs9  1  0.28177155  0.71822845  0.00000000  1
