# generated using pymatgen
data_AgSb2F12
_symmetry_space_group_name_H-M   'P 1'
_cell_length_a   5.43027134
_cell_length_b   5.60626987
_cell_length_c   9.03434484
_cell_angle_alpha   75.96447414
_cell_angle_beta   88.53351033
_cell_angle_gamma   65.28615497
_symmetry_Int_Tables_number   1
_chemical_formula_structural   AgSb2F12
_chemical_formula_sum   'Ag1 Sb2 F12'
_cell_volume   241.48886139
_cell_formula_units_Z   1
loop_
 _symmetry_equiv_pos_site_id
 _symmetry_equiv_pos_as_xyz
  1  'x, y, z'
loop_
 _atom_site_type_symbol
 _atom_site_label
 _atom_site_symmetry_multiplicity
 _atom_site_fract_x
 _atom_site_fract_y
 _atom_site_fract_z
 _atom_site_occupancy
  F  F0  1  0.22724916  0.77291150  0.62747029  1
  F  F1  1  0.77275084  0.22708850  0.37252971  1
  F  F2  1  0.64736738  0.77341710  0.77136774  1
  F  F3  1  0.69371849  0.76906658  0.13426977  1
  F  F4  1  0.30628151  0.23093342  0.86573023  1
  F  F5  1  0.11368299  0.79555200  0.28955959  1
  F  F6  1  0.88631701  0.20444800  0.71044041  1
  F  F7  1  0.69383782  0.77198661  0.43242506  1
  F  F8  1  0.30616218  0.22801339  0.56757494  1
  F  F9  1  0.79176849  0.24032020  0.06296874  1
  F  F10  1  0.20823151  0.75967980  0.93703126  1
  F  F11  1  0.35263262  0.22658290  0.22863226  1
  Ag  Ag12  1  0.50000000  0.50000000  0.50000000  1
  Sb  Sb13  1  0.73091183  0.01154830  0.23502743  1
  Sb  Sb14  1  0.26908817  0.98845170  0.76497257  1
