# generated using pymatgen
data_P4S3
_symmetry_space_group_name_H-M   'P 1'
_cell_length_a   10.58265216
_cell_length_b   11.56383077
_cell_length_c   15.27687207
_cell_angle_alpha   90.00000000
_cell_angle_beta   90.00000000
_cell_angle_gamma   90.00000000
_symmetry_Int_Tables_number   1
_chemical_formula_structural   P4S3
_chemical_formula_sum   'P32 S24'
_cell_volume   1869.52247621
_cell_formula_units_Z   8
loop_
 _symmetry_equiv_pos_site_id
 _symmetry_equiv_pos_as_xyz
  1  'x, y, z'
loop_
 _atom_site_type_symbol
 _atom_site_label
 _atom_site_symmetry_multiplicity
 _atom_site_fract_x
 _atom_site_fract_y
 _atom_site_fract_z
 _atom_site_occupancy
  P  P0  1  0.85654714  0.05209165  0.23643556  1
  P  P1  1  0.35654714  0.94790835  0.76356444  1
  P  P2  1  0.64345286  0.55209165  0.26356444  1
  P  P3  1  0.14345286  0.44790835  0.73643556  1
  P  P4  1  0.14345286  0.94790835  0.76356444  1
  P  P5  1  0.64345286  0.05209165  0.23643556  1
  P  P6  1  0.35654714  0.44790835  0.73643556  1
  P  P7  1  0.85654714  0.55209165  0.26356444  1
  P  P8  1  0.25000000  0.79969643  0.82507755  1
  P  P9  1  0.75000000  0.20030357  0.17492245  1
  P  P10  1  0.25000000  0.29969643  0.67492245  1
  P  P11  1  0.75000000  0.70030357  0.32507755  1
  P  P12  1  0.85666654  0.72413218  0.84262925  1
  P  P13  1  0.35666654  0.27586782  0.15737075  1
  P  P14  1  0.64333346  0.22413218  0.65737075  1
  P  P15  1  0.14333346  0.77586782  0.34262925  1
  P  P16  1  0.14333346  0.27586782  0.15737075  1
  P  P17  1  0.64333346  0.72413218  0.84262925  1
  P  P18  1  0.35666654  0.77586782  0.34262925  1
  P  P19  1  0.85666654  0.22413218  0.65737075  1
  P  P20  1  0.25000000  0.46960708  0.01676450  1
  P  P21  1  0.75000000  0.53039292  0.98323550  1
  P  P22  1  0.25000000  0.96960708  0.48323550  1
  P  P23  1  0.75000000  0.03039292  0.51676450  1
  P  P24  1  0.75000000  0.08414018  0.72906782  1
  P  P25  1  0.25000000  0.91585982  0.27093218  1
  P  P26  1  0.75000000  0.58414018  0.77093218  1
  P  P27  1  0.25000000  0.41585982  0.22906782  1
  P  P28  1  0.75000000  0.47479914  0.45817537  1
  P  P29  1  0.25000000  0.52520086  0.54182463  1
  P  P30  1  0.75000000  0.97479914  0.04182463  1
  P  P31  1  0.25000000  0.02520086  0.95817537  1
  S  S32  1  0.90255796  0.64629026  0.96271940  1
  S  S33  1  0.40255796  0.35370974  0.03728060  1
  S  S34  1  0.59744204  0.14629026  0.53728060  1
  S  S35  1  0.09744204  0.85370974  0.46271940  1
  S  S36  1  0.09744204  0.35370974  0.03728060  1
  S  S37  1  0.59744204  0.64629026  0.96271940  1
  S  S38  1  0.40255796  0.85370974  0.46271940  1
  S  S39  1  0.90255796  0.14629026  0.53728060  1
  S  S40  1  0.90268866  0.94645423  0.12926738  1
  S  S41  1  0.40268866  0.05354577  0.87073262  1
  S  S42  1  0.59731134  0.44645423  0.37073262  1
  S  S43  1  0.09731134  0.55354577  0.62926738  1
  S  S44  1  0.09731134  0.05354577  0.87073262  1
  S  S45  1  0.59731134  0.94645423  0.12926738  1
  S  S46  1  0.40268866  0.55354577  0.62926738  1
  S  S47  1  0.90268866  0.44645423  0.37073262  1
  S  S48  1  0.25000000  0.84169366  0.95895479  1
  S  S49  1  0.75000000  0.15830634  0.04104521  1
  S  S50  1  0.25000000  0.34169366  0.54104521  1
  S  S51  1  0.75000000  0.65830634  0.45895479  1
  S  S52  1  0.25000000  0.55414729  0.14000693  1
  S  S53  1  0.75000000  0.44585271  0.85999307  1
  S  S54  1  0.25000000  0.05414729  0.35999307  1
  S  S55  1  0.75000000  0.94585271  0.64000693  1
