# generated using pymatgen
data_Zr2AgPdF11
_symmetry_space_group_name_H-M   'P 1'
_cell_length_a   5.95741942
_cell_length_b   5.95741942
_cell_length_c   7.96529483
_cell_angle_alpha   69.55585017
_cell_angle_beta   69.55585019
_cell_angle_gamma   73.16523772
_symmetry_Int_Tables_number   1
_chemical_formula_structural   Zr2AgPdF11
_chemical_formula_sum   'Zr2 Ag1 Pd1 F11'
_cell_volume   243.63999068
_cell_formula_units_Z   1
loop_
 _symmetry_equiv_pos_site_id
 _symmetry_equiv_pos_as_xyz
  1  'x, y, z'
loop_
 _atom_site_type_symbol
 _atom_site_label
 _atom_site_symmetry_multiplicity
 _atom_site_fract_x
 _atom_site_fract_y
 _atom_site_fract_z
 _atom_site_occupancy
  F  F0  1  0.80171825  0.23235498  0.69198719  1
  F  F1  1  0.76764502  0.19828175  0.30801281  1
  F  F2  1  0.19828175  0.76764502  0.30801281  1
  F  F3  1  0.23235498  0.80171825  0.69198719  1
  F  F4  1  0.50000000  0.50000000  0.50000000  1
  F  F5  1  0.33699980  0.66300020  0.00000000  1
  F  F6  1  0.66300020  0.33699980  0.00000000  1
  F  F7  1  0.25507684  0.25507684  0.34752948  1
  F  F8  1  0.74492316  0.74492316  0.65247052  1
  F  F9  1  0.27727481  0.27727481  0.88718111  1
  F  F10  1  0.72272519  0.72272519  0.11281889  1
  Zr  Zr11  1  0.49256152  0.49256152  0.23723342  1
  Zr  Zr12  1  0.50743848  0.50743848  0.76276658  1
  Pd  Pd13  1  0.00000000  0.00000000  0.50000000  1
  Ag  Ag14  1  0.00000000  0.00000000  0.00000000  1
