# generated using pymatgen
data_KNd(SO4)2
_symmetry_space_group_name_H-M   'P 1'
_cell_length_a   7.27941657
_cell_length_b   8.77436352
_cell_length_c   10.79501803
_cell_angle_alpha   92.64203101
_cell_angle_beta   90.00000000
_cell_angle_gamma   90.00000000
_symmetry_Int_Tables_number   1
_chemical_formula_structural   KNd(SO4)2
_chemical_formula_sum   'K4 Nd4 S8 O32'
_cell_volume   688.76913539
_cell_formula_units_Z   4
loop_
 _symmetry_equiv_pos_site_id
 _symmetry_equiv_pos_as_xyz
  1  'x, y, z'
loop_
 _atom_site_type_symbol
 _atom_site_label
 _atom_site_symmetry_multiplicity
 _atom_site_fract_x
 _atom_site_fract_y
 _atom_site_fract_z
 _atom_site_occupancy
  O  O0  1  0.96738789  0.39392338  0.13285957  1
  O  O1  1  0.46738789  0.60607662  0.36714043  1
  O  O2  1  0.03261211  0.60607662  0.86714043  1
  O  O3  1  0.53261211  0.39392338  0.63285957  1
  O  O4  1  0.74756816  0.30073532  0.46964874  1
  O  O5  1  0.24756816  0.69926468  0.03035126  1
  O  O6  1  0.25243184  0.69926468  0.53035126  1
  O  O7  1  0.75243184  0.30073532  0.96964874  1
  O  O8  1  0.69867322  0.24548995  0.18712102  1
  O  O9  1  0.19867322  0.75451005  0.31287898  1
  O  O10  1  0.30132678  0.75451005  0.81287898  1
  O  O11  1  0.80132678  0.24548995  0.68712102  1
  O  O12  1  0.44471529  0.87602146  0.43759229  1
  O  O13  1  0.94471529  0.12397854  0.06240771  1
  O  O14  1  0.55528471  0.12397854  0.56240771  1
  O  O15  1  0.05528471  0.87602146  0.93759229  1
  O  O16  1  0.68038859  0.87497134  0.98254321  1
  O  O17  1  0.18038859  0.12502866  0.51745679  1
  O  O18  1  0.31961141  0.12502866  0.01745679  1
  O  O19  1  0.81961141  0.87497134  0.48254321  1
  O  O20  1  0.85729459  0.65375688  0.60624302  1
  O  O21  1  0.35729459  0.34624312  0.89375698  1
  O  O22  1  0.14270541  0.34624312  0.39375698  1
  O  O23  1  0.64270541  0.65375688  0.10624302  1
  O  O24  1  0.66796741  0.86462289  0.68886022  1
  O  O25  1  0.16796741  0.13537711  0.81113978  1
  O  O26  1  0.33203259  0.13537711  0.31113978  1
  O  O27  1  0.83203259  0.86462289  0.18886022  1
  O  O28  1  0.98885263  0.90323217  0.67653906  1
  O  O29  1  0.48885263  0.09676783  0.82346094  1
  O  O30  1  0.01114737  0.09676783  0.32346094  1
  O  O31  1  0.51114737  0.90323217  0.17653906  1
  S  S32  1  0.84245261  0.27304080  0.09128301  1
  S  S33  1  0.34245261  0.72695920  0.40871699  1
  S  S34  1  0.15754739  0.72695920  0.90871699  1
  S  S35  1  0.65754739  0.27304080  0.59128301  1
  S  S36  1  0.66643278  0.81834748  0.10921309  1
  S  S37  1  0.16643278  0.18165252  0.39078691  1
  S  S38  1  0.33356722  0.18165252  0.89078691  1
  S  S39  1  0.83356722  0.81834748  0.60921309  1
  K  K40  1  0.84886243  0.56069253  0.34546641  1
  K  K41  1  0.34886243  0.43930747  0.15453359  1
  K  K42  1  0.15113757  0.43930747  0.65453359  1
  K  K43  1  0.65113757  0.56069253  0.84546641  1
  Nd  Nd44  1  0.66901848  0.05669791  0.34958997  1
  Nd  Nd45  1  0.16901848  0.94330209  0.15041003  1
  Nd  Nd46  1  0.33098152  0.94330209  0.65041003  1
  Nd  Nd47  1  0.83098152  0.05669791  0.84958997  1
