# generated using pymatgen
data_KAsSe2
_symmetry_space_group_name_H-M   'P 1'
_cell_length_a   6.87592395
_cell_length_b   6.87885883
_cell_length_c   12.97994774
_cell_angle_alpha   100.59541208
_cell_angle_beta   100.51564756
_cell_angle_gamma   109.50357297
_symmetry_Int_Tables_number   1
_chemical_formula_structural   KAsSe2
_chemical_formula_sum   'K4 As4 Se8'
_cell_volume   548.77758897
_cell_formula_units_Z   4
loop_
 _symmetry_equiv_pos_site_id
 _symmetry_equiv_pos_as_xyz
  1  'x, y, z'
loop_
 _atom_site_type_symbol
 _atom_site_label
 _atom_site_symmetry_multiplicity
 _atom_site_fract_x
 _atom_site_fract_y
 _atom_site_fract_z
 _atom_site_occupancy
  K  K0  1  0.03522686  0.04530385  0.25550396  1
  K  K1  1  0.06689724  0.62107938  0.49501260  1
  K  K2  1  0.98396359  0.09525654  0.75535168  1
  K  K3  1  0.56001641  0.12832621  0.99521989  1
  As  As4  1  0.31048312  0.58454707  0.17662231  1
  As  As5  1  0.57932700  0.98626297  0.44440193  1
  As  As6  1  0.52362975  0.37191799  0.67685298  1
  As  As7  1  0.92557008  0.64223109  0.94443799  1
  Se  Se8  1  0.97222839  0.51987608  0.20874339  1
  Se  Se9  1  0.27074814  0.59671530  0.98390909  1
  Se  Se10  1  0.94951103  0.08017737  0.49765079  1
  Se  Se11  1  0.50581977  0.97925448  0.24799208  1
  Se  Se12  1  0.45927585  0.03368236  0.70854114  1
  Se  Se13  1  0.53521242  0.33203450  0.48395665  1
  Se  Se14  1  0.01981720  0.01245782  0.99771106  1
  Se  Se15  1  0.91857314  0.56727697  0.74799248  1
