# generated using pymatgen
data_Nd10Se19
_symmetry_space_group_name_H-M   'P 1'
_cell_length_a   9.33813417
_cell_length_b   9.33813417
_cell_length_c   17.07018946
_cell_angle_alpha   90.00000000
_cell_angle_beta   90.00000000
_cell_angle_gamma   90.00000000
_symmetry_Int_Tables_number   1
_chemical_formula_structural   Nd10Se19
_chemical_formula_sum   'Nd20 Se38'
_cell_volume   1488.53331975
_cell_formula_units_Z   2
loop_
 _symmetry_equiv_pos_site_id
 _symmetry_equiv_pos_as_xyz
  1  'x, y, z'
loop_
 _atom_site_type_symbol
 _atom_site_label
 _atom_site_symmetry_multiplicity
 _atom_site_fract_x
 _atom_site_fract_y
 _atom_site_fract_z
 _atom_site_occupancy
  Se  Se0  1  0.75000000  0.25000000  0.06434748  1
  Se  Se1  1  0.75000000  0.25000000  0.56434748  1
  Se  Se2  1  0.25000000  0.75000000  0.93565252  1
  Se  Se3  1  0.25000000  0.75000000  0.43565252  1
  Se  Se4  1  0.85055931  0.55229181  0.93682154  1
  Se  Se5  1  0.44770819  0.35055931  0.43682154  1
  Se  Se6  1  0.05229181  0.14944069  0.43682154  1
  Se  Se7  1  0.64944069  0.94770819  0.93682154  1
  Se  Se8  1  0.14944069  0.44770819  0.06317846  1
  Se  Se9  1  0.55229181  0.64944069  0.56317846  1
  Se  Se10  1  0.94770819  0.85055931  0.56317846  1
  Se  Se11  1  0.35055931  0.05229181  0.06317846  1
  Se  Se12  1  0.45110960  0.34770893  0.92915279  1
  Se  Se13  1  0.65229107  0.95110960  0.42915279  1
  Se  Se14  1  0.84770893  0.54889040  0.42915279  1
  Se  Se15  1  0.04889040  0.15229107  0.92915279  1
  Se  Se16  1  0.54889040  0.65229107  0.07084721  1
  Se  Se17  1  0.34770893  0.04889040  0.57084721  1
  Se  Se18  1  0.15229107  0.45110960  0.57084721  1
  Se  Se19  1  0.95110960  0.84770893  0.07084721  1
  Se  Se20  1  0.88145061  0.06521640  0.24933128  1
  Se  Se21  1  0.93478360  0.38145061  0.74933128  1
  Se  Se22  1  0.56521640  0.11854939  0.74933128  1
  Se  Se23  1  0.61854939  0.43478360  0.24933128  1
  Se  Se24  1  0.11854939  0.93478360  0.75066872  1
  Se  Se25  1  0.06521640  0.61854939  0.25066872  1
  Se  Se26  1  0.43478360  0.88145061  0.25066872  1
  Se  Se27  1  0.38145061  0.56521640  0.75066872  1
  Se  Se28  1  0.97027772  0.32700134  0.25019124  1
  Se  Se29  1  0.67299866  0.47027772  0.75019124  1
  Se  Se30  1  0.82700134  0.02972228  0.75019124  1
  Se  Se31  1  0.52972228  0.17299866  0.25019124  1
  Se  Se32  1  0.02972228  0.67299866  0.74980876  1
  Se  Se33  1  0.32700134  0.52972228  0.24980876  1
  Se  Se34  1  0.17299866  0.97027772  0.24980876  1
  Se  Se35  1  0.47027772  0.82700134  0.74980876  1
  Se  Se36  1  0.75000000  0.75000000  0.25000000  1
  Se  Se37  1  0.25000000  0.25000000  0.75000000  1
  Nd  Nd38  1  0.25000000  0.75000000  0.11665405  1
  Nd  Nd39  1  0.25000000  0.75000000  0.61665405  1
  Nd  Nd40  1  0.75000000  0.25000000  0.88334595  1
  Nd  Nd41  1  0.75000000  0.25000000  0.38334595  1
  Nd  Nd42  1  0.55325982  0.64791597  0.89389579  1
  Nd  Nd43  1  0.35208403  0.05325982  0.39389579  1
  Nd  Nd44  1  0.14791597  0.44674018  0.39389579  1
  Nd  Nd45  1  0.94674018  0.85208403  0.89389579  1
  Nd  Nd46  1  0.44674018  0.35208403  0.10610421  1
  Nd  Nd47  1  0.64791597  0.94674018  0.60610421  1
  Nd  Nd48  1  0.85208403  0.55325982  0.60610421  1
  Nd  Nd49  1  0.05325982  0.14791597  0.10610421  1
  Nd  Nd50  1  0.45645661  0.34716639  0.61958745  1
  Nd  Nd51  1  0.65283361  0.95645661  0.11958745  1
  Nd  Nd52  1  0.84716639  0.54354339  0.11958745  1
  Nd  Nd53  1  0.04354339  0.15283361  0.61958745  1
  Nd  Nd54  1  0.54354339  0.65283361  0.38041255  1
  Nd  Nd55  1  0.34716639  0.04354339  0.88041255  1
  Nd  Nd56  1  0.15283361  0.45645661  0.88041255  1
  Nd  Nd57  1  0.95645661  0.84716639  0.38041255  1
