# generated using pymatgen
data_Er2Te3
_symmetry_space_group_name_H-M   'P 1'
_cell_length_a   7.51274555
_cell_length_b   7.51274554
_cell_length_c   13.68955508
_cell_angle_alpha   100.58576235
_cell_angle_beta   100.58576234
_cell_angle_gamma   109.29950166
_symmetry_Int_Tables_number   1
_chemical_formula_structural   Er2Te3
_chemical_formula_sum   'Er8 Te12'
_cell_volume   691.50032175
_cell_formula_units_Z   4
loop_
 _symmetry_equiv_pos_site_id
 _symmetry_equiv_pos_as_xyz
  1  'x, y, z'
loop_
 _atom_site_type_symbol
 _atom_site_label
 _atom_site_symmetry_multiplicity
 _atom_site_fract_x
 _atom_site_fract_y
 _atom_site_fract_z
 _atom_site_occupancy
  Te  Te0  1  0.54073058  0.28999968  0.08445383  1
  Te  Te1  1  0.20554585  0.95627675  0.41554617  1
  Te  Te2  1  0.71000032  0.45926942  0.41554617  1
  Te  Te3  1  0.04372325  0.79445415  0.08445383  1
  Te  Te4  1  0.45926942  0.71000032  0.91554617  1
  Te  Te5  1  0.79445415  0.04372325  0.58445383  1
  Te  Te6  1  0.28999968  0.54073058  0.58445383  1
  Te  Te7  1  0.95627675  0.20554585  0.91554617  1
  Te  Te8  1  0.62359598  0.87359598  0.25000000  1
  Te  Te9  1  0.12640402  0.37640402  0.25000000  1
  Te  Te10  1  0.37640402  0.12640402  0.75000000  1
  Te  Te11  1  0.87359598  0.62359598  0.75000000  1
  Er  Er12  1  0.37546936  0.12546936  0.25093872  1
  Er  Er13  1  0.87453064  0.62453064  0.24906128  1
  Er  Er14  1  0.62453064  0.87453064  0.74906128  1
  Er  Er15  1  0.12546936  0.37546936  0.75093872  1
  Er  Er16  1  0.04231939  0.79231939  0.58463878  1
  Er  Er17  1  0.20768061  0.95768061  0.91536122  1
  Er  Er18  1  0.95768061  0.20768061  0.41536122  1
  Er  Er19  1  0.79231939  0.04231939  0.08463878  1
