# generated using pymatgen
data_Li2Mg2(SO4)3
_symmetry_space_group_name_H-M   'P 1'
_cell_length_a   8.63804870
_cell_length_b   8.80974753
_cell_length_c   12.34857652
_cell_angle_alpha   90.00000000
_cell_angle_beta   90.00000000
_cell_angle_gamma   90.00000000
_symmetry_Int_Tables_number   1
_chemical_formula_structural   Li2Mg2(SO4)3
_chemical_formula_sum   'Li8 Mg8 S12 O48'
_cell_volume   939.71467281
_cell_formula_units_Z   4
loop_
 _symmetry_equiv_pos_site_id
 _symmetry_equiv_pos_as_xyz
  1  'x, y, z'
loop_
 _atom_site_type_symbol
 _atom_site_label
 _atom_site_symmetry_multiplicity
 _atom_site_fract_x
 _atom_site_fract_y
 _atom_site_fract_z
 _atom_site_occupancy
  Li  Li0  1  0.28561081  0.77679633  0.68128821  1
  Li  Li1  1  0.28561081  0.72320367  0.31871179  1
  Li  Li2  1  0.21438919  0.27679633  0.81871179  1
  Li  Li3  1  0.21438919  0.22320367  0.18128821  1
  Li  Li4  1  0.71438919  0.22320367  0.31871179  1
  Li  Li5  1  0.71438919  0.27679633  0.68128821  1
  Li  Li6  1  0.78561081  0.72320367  0.18128821  1
  Li  Li7  1  0.78561081  0.77679633  0.81871179  1
  O  O8  1  0.33239231  0.25636707  0.68050026  1
  O  O9  1  0.16990400  0.48667871  0.77638672  1
  O  O10  1  0.16990400  0.01332129  0.22361328  1
  O  O11  1  0.33009600  0.98667871  0.72361328  1
  O  O12  1  0.33009600  0.51332129  0.27638672  1
  O  O13  1  0.83009600  0.51332129  0.22361328  1
  O  O14  1  0.83009600  0.98667871  0.77638672  1
  O  O15  1  0.66990400  0.01332129  0.27638672  1
  O  O16  1  0.66990400  0.48667871  0.72361328  1
  O  O17  1  0.15105281  0.56674165  0.96272674  1
  O  O18  1  0.15105281  0.93325835  0.03727326  1
  O  O19  1  0.34894719  0.06674165  0.53727326  1
  O  O20  1  0.34894719  0.43325835  0.46272674  1
  O  O21  1  0.84894719  0.43325835  0.03727326  1
  O  O22  1  0.84894719  0.06674165  0.96272674  1
  O  O23  1  0.65105281  0.93325835  0.46272674  1
  O  O24  1  0.65105281  0.56674165  0.53727326  1
  O  O25  1  0.16760769  0.75636707  0.81949974  1
  O  O26  1  0.83239231  0.24363293  0.18050026  1
  O  O27  1  0.33239231  0.24363293  0.31949974  1
  O  O28  1  0.15105322  0.66819560  0.57771594  1
  O  O29  1  0.15105322  0.83180440  0.42228406  1
  O  O30  1  0.34894678  0.16819560  0.92228406  1
  O  O31  1  0.34894678  0.33180440  0.07771594  1
  O  O32  1  0.84894678  0.33180440  0.42228406  1
  O  O33  1  0.84894678  0.16819560  0.57771594  1
  O  O34  1  0.65105322  0.83180440  0.07771594  1
  O  O35  1  0.65105322  0.66819560  0.92228406  1
  O  O36  1  0.95418982  0.85791131  0.56245377  1
  O  O37  1  0.95418982  0.64208869  0.43754623  1
  O  O38  1  0.54581018  0.35791131  0.93754623  1
  O  O39  1  0.54581018  0.14208869  0.06245377  1
  O  O40  1  0.04581018  0.14208869  0.43754623  1
  O  O41  1  0.04581018  0.35791131  0.56245377  1
  O  O42  1  0.45418982  0.64208869  0.06245377  1
  O  O43  1  0.45418982  0.85791131  0.93754623  1
  O  O44  1  0.43423334  0.60703506  0.65846034  1
  O  O45  1  0.43423334  0.89296494  0.34153966  1
  O  O46  1  0.06576666  0.10703506  0.84153966  1
  O  O47  1  0.06576666  0.39296494  0.15846034  1
  O  O48  1  0.56576666  0.39296494  0.34153966  1
  O  O49  1  0.56576666  0.10703506  0.65846034  1
  O  O50  1  0.93423334  0.89296494  0.15846034  1
  O  O51  1  0.93423334  0.60703506  0.84153966  1
  O  O52  1  0.66760769  0.75636707  0.68050026  1
  O  O53  1  0.66760769  0.74363293  0.31949974  1
  O  O54  1  0.83239231  0.25636707  0.81949974  1
  O  O55  1  0.16760769  0.74363293  0.18050026  1
  Mg  Mg56  1  0.24536364  0.04168958  0.39096833  1
  Mg  Mg57  1  0.24536364  0.45831042  0.60903167  1
  Mg  Mg58  1  0.25463636  0.95831042  0.89096833  1
  Mg  Mg59  1  0.25463636  0.54168958  0.10903167  1
  Mg  Mg60  1  0.75463636  0.54168958  0.39096833  1
  Mg  Mg61  1  0.75463636  0.95831042  0.60903167  1
  Mg  Mg62  1  0.74536364  0.04168958  0.10903167  1
  Mg  Mg63  1  0.74536364  0.45831042  0.89096833  1
  S  S64  1  0.95250592  0.25000000  0.50000000  1
  S  S65  1  0.54749408  0.75000000  0.00000000  1
  S  S66  1  0.60613842  0.60414244  0.64838478  1
  S  S67  1  0.45250592  0.25000000  0.00000000  1
  S  S68  1  0.04749408  0.75000000  0.50000000  1
  S  S69  1  0.60613842  0.89585756  0.35161522  1
  S  S70  1  0.89386158  0.10414244  0.85161522  1
  S  S71  1  0.89386158  0.39585756  0.14838478  1
  S  S72  1  0.39386158  0.39585756  0.35161522  1
  S  S73  1  0.39386158  0.10414244  0.64838478  1
  S  S74  1  0.10613842  0.89585756  0.14838478  1
  S  S75  1  0.10613842  0.60414244  0.85161522  1
