# generated using pymatgen
data_NdTa7O19
_symmetry_space_group_name_H-M   'P 1'
_cell_length_a   6.29076704
_cell_length_b   6.29076704
_cell_length_c   20.15391887
_cell_angle_alpha   90.00000000
_cell_angle_beta   90.00000000
_cell_angle_gamma   119.99999998
_symmetry_Int_Tables_number   1
_chemical_formula_structural   NdTa7O19
_chemical_formula_sum   'Nd2 Ta14 O38'
_cell_volume   690.71254407
_cell_formula_units_Z   2
loop_
 _symmetry_equiv_pos_site_id
 _symmetry_equiv_pos_as_xyz
  1  'x, y, z'
loop_
 _atom_site_type_symbol
 _atom_site_label
 _atom_site_symmetry_multiplicity
 _atom_site_fract_x
 _atom_site_fract_y
 _atom_site_fract_z
 _atom_site_occupancy
  O  O0  1  0.33333333  0.66666667  0.63204942  1
  O  O1  1  0.33333333  0.66666667  0.86795058  1
  O  O2  1  0.33333333  0.66666667  0.36795058  1
  O  O3  1  0.33333333  0.66666667  0.13204942  1
  O  O4  1  0.66666667  0.33333333  0.66714387  1
  O  O5  1  0.66666667  0.33333333  0.83285613  1
  O  O6  1  0.66666667  0.33333333  0.33285613  1
  O  O7  1  0.66666667  0.33333333  0.16714387  1
  O  O8  1  0.37494450  0.95852101  0.75000000  1
  O  O9  1  0.04147899  0.41642350  0.75000000  1
  O  O10  1  0.58357650  0.62505550  0.75000000  1
  O  O11  1  0.58357650  0.95852101  0.25000000  1
  O  O12  1  0.04147899  0.62505550  0.25000000  1
  O  O13  1  0.37494450  0.41642350  0.25000000  1
  O  O14  1  0.94881754  0.56895069  0.44322085  1
  O  O15  1  0.43104931  0.05118246  0.55677915  1
  O  O16  1  0.24490797  0.99986121  0.15327072  1
  O  O17  1  0.75495324  0.75509203  0.34672928  1
  O  O18  1  0.00013879  0.24504676  0.34672928  1
  O  O19  1  0.00013879  0.24504676  0.15327072  1
  O  O20  1  0.75495324  0.75509203  0.15327072  1
  O  O21  1  0.00013879  0.75509203  0.84672928  1
  O  O22  1  0.75495324  0.99986121  0.84672928  1
  O  O23  1  0.24490797  0.24504676  0.84672928  1
  O  O24  1  0.75495324  0.99986121  0.65327072  1
  O  O25  1  0.24490797  0.24504676  0.65327072  1
  O  O26  1  0.24490797  0.99986121  0.34672928  1
  O  O27  1  0.00013879  0.75509203  0.65327072  1
  O  O28  1  0.43104931  0.05118246  0.94322085  1
  O  O29  1  0.62013314  0.56895069  0.55677915  1
  O  O30  1  0.94881754  0.37986686  0.55677915  1
  O  O31  1  0.94881754  0.37986686  0.94322085  1
  O  O32  1  0.62013314  0.56895069  0.94322085  1
  O  O33  1  0.94881754  0.56895069  0.05677915  1
  O  O34  1  0.62013314  0.05118246  0.05677915  1
  O  O35  1  0.43104931  0.37986686  0.05677915  1
  O  O36  1  0.62013314  0.05118246  0.44322085  1
  O  O37  1  0.43104931  0.37986686  0.44322085  1
  Nd  Nd38  1  0.33333333  0.66666667  0.00000000  1
  Nd  Nd39  1  0.33333333  0.66666667  0.50000000  1
  Ta  Ta40  1  0.35921819  0.00131987  0.65589761  1
  Ta  Ta41  1  0.99868013  0.35789832  0.65589761  1
  Ta  Ta42  1  0.35921819  0.00131987  0.84410239  1
  Ta  Ta43  1  0.99868013  0.35789832  0.84410239  1
  Ta  Ta44  1  0.64210168  0.64078181  0.84410239  1
  Ta  Ta45  1  0.99868013  0.64078181  0.15589761  1
  Ta  Ta46  1  0.64210168  0.00131987  0.15589761  1
  Ta  Ta47  1  0.64210168  0.00131987  0.34410239  1
  Ta  Ta48  1  0.99868013  0.64078181  0.34410239  1
  Ta  Ta49  1  0.35921819  0.35789832  0.15589761  1
  Ta  Ta50  1  0.66666667  0.33333333  0.50000000  1
  Ta  Ta51  1  0.66666667  0.33333333  0.00000000  1
  Ta  Ta52  1  0.35921819  0.35789832  0.34410239  1
  Ta  Ta53  1  0.64210168  0.64078181  0.65589761  1
