# generated using pymatgen
data_CsCOF3
_symmetry_space_group_name_H-M   'P 1'
_cell_length_a   6.07783384
_cell_length_b   7.90487241
_cell_length_c   9.63091333
_cell_angle_alpha   90.00000000
_cell_angle_beta   89.20278857
_cell_angle_gamma   90.00000000
_symmetry_Int_Tables_number   1
_chemical_formula_structural   CsCOF3
_chemical_formula_sum   'Cs4 C4 O4 F12'
_cell_volume   462.66763590
_cell_formula_units_Z   4
loop_
 _symmetry_equiv_pos_site_id
 _symmetry_equiv_pos_as_xyz
  1  'x, y, z'
loop_
 _atom_site_type_symbol
 _atom_site_label
 _atom_site_symmetry_multiplicity
 _atom_site_fract_x
 _atom_site_fract_y
 _atom_site_fract_z
 _atom_site_occupancy
  C  C0  1  0.26688121  0.29525857  0.56743122  1
  C  C1  1  0.73311879  0.79525857  0.93256878  1
  C  C2  1  0.73311879  0.70474143  0.43256878  1
  C  C3  1  0.26688121  0.20474143  0.06743122  1
  O  O4  1  0.43287324  0.29162459  0.08321346  1
  O  O5  1  0.56712676  0.70837541  0.91678654  1
  O  O6  1  0.43287324  0.20837541  0.58321346  1
  O  O7  1  0.56712676  0.79162459  0.41678654  1
  F  F8  1  0.24201968  0.12177843  0.93699815  1
  F  F9  1  0.24201968  0.37822157  0.43699815  1
  F  F10  1  0.75798032  0.62177843  0.56300185  1
  F  F11  1  0.75798032  0.87822157  0.06300185  1
  F  F12  1  0.05645402  0.29464569  0.08019242  1
  F  F13  1  0.94354598  0.79464569  0.41980758  1
  F  F14  1  0.94354598  0.70535431  0.91980758  1
  F  F15  1  0.05645402  0.20535431  0.58019242  1
  F  F16  1  0.23163512  0.06843247  0.16496606  1
  F  F17  1  0.76836488  0.56843247  0.33503394  1
  F  F18  1  0.76836488  0.93156753  0.83503394  1
  F  F19  1  0.23163512  0.43156753  0.66496606  1
  Cs  Cs20  1  0.26772445  0.65818648  0.17908149  1
  Cs  Cs21  1  0.73227555  0.15818648  0.32091851  1
  Cs  Cs22  1  0.73227555  0.34181352  0.82091851  1
  Cs  Cs23  1  0.26772445  0.84181352  0.67908149  1
