# generated using pymatgen
data_Ba(Cu2P)4
_symmetry_space_group_name_H-M   'P 1'
_cell_length_a   3.86506642
_cell_length_b   7.46811198
_cell_length_c   7.46811198
_cell_angle_alpha   86.16045279
_cell_angle_beta   75.00283076
_cell_angle_gamma   75.00283081
_symmetry_Int_Tables_number   1
_chemical_formula_structural   Ba(Cu2P)4
_chemical_formula_sum   'Ba1 Cu8 P4'
_cell_volume   201.13037227
_cell_formula_units_Z   1
loop_
 _symmetry_equiv_pos_site_id
 _symmetry_equiv_pos_as_xyz
  1  'x, y, z'
loop_
 _atom_site_type_symbol
 _atom_site_label
 _atom_site_symmetry_multiplicity
 _atom_site_fract_x
 _atom_site_fract_y
 _atom_site_fract_z
 _atom_site_occupancy
  P  P0  1  0.76635593  0.80879492  0.65849323  1
  P  P1  1  0.23364407  0.19120508  0.34150677  1
  P  P2  1  0.42484915  0.34150677  0.80879492  1
  P  P3  1  0.57515085  0.65849323  0.19120508  1
  Cu  Cu4  1  0.66139499  0.10957004  0.56763998  1
  Cu  Cu5  1  0.77096503  0.56763998  0.89042996  1
  Cu  Cu6  1  0.63437040  0.37927200  0.35198720  1
  Cu  Cu7  1  0.36562960  0.62072800  0.64801280  1
  Cu  Cu8  1  0.98635760  0.64801280  0.37927200  1
  Cu  Cu9  1  0.22903497  0.43236002  0.10957004  1
  Cu  Cu10  1  0.01364240  0.35198720  0.62072800  1
  Cu  Cu11  1  0.33860501  0.89042996  0.43236002  1
  Ba  Ba12  1  0.00000000  0.00000000  0.00000000  1
