# generated using pymatgen
data_TmAu2F9
_symmetry_space_group_name_H-M   'P 1'
_cell_length_a   9.18500664
_cell_length_b   11.21885270
_cell_length_c   21.87257418
_cell_angle_alpha   90.00000000
_cell_angle_beta   90.00000000
_cell_angle_gamma   90.00000000
_symmetry_Int_Tables_number   1
_chemical_formula_structural   TmAu2F9
_chemical_formula_sum   'Tm12 Au24 F108'
_cell_volume   2253.86458018
_cell_formula_units_Z   12
loop_
 _symmetry_equiv_pos_site_id
 _symmetry_equiv_pos_as_xyz
  1  'x, y, z'
loop_
 _atom_site_type_symbol
 _atom_site_label
 _atom_site_symmetry_multiplicity
 _atom_site_fract_x
 _atom_site_fract_y
 _atom_site_fract_z
 _atom_site_occupancy
  F  F0  1  0.50000000  0.00000000  0.00000000  1
  F  F1  1  0.50000000  0.00000000  0.50000000  1
  F  F2  1  0.00000000  0.50000000  0.00000000  1
  F  F3  1  0.00000000  0.50000000  0.50000000  1
  F  F4  1  0.36546466  0.47672515  0.32140270  1
  F  F5  1  0.36546466  0.52327485  0.17859730  1
  F  F6  1  0.13453534  0.97672515  0.67859730  1
  F  F7  1  0.13453534  0.02327485  0.82140270  1
  F  F8  1  0.63453534  0.52327485  0.67859730  1
  F  F9  1  0.63453534  0.47672515  0.82140270  1
  F  F10  1  0.86546466  0.02327485  0.32140270  1
  F  F11  1  0.86546466  0.97672515  0.17859730  1
  F  F12  1  0.29859614  0.32150143  0.23827957  1
  F  F13  1  0.29859614  0.67849857  0.26172043  1
  F  F14  1  0.20140386  0.82150143  0.76172043  1
  F  F15  1  0.20140386  0.17849857  0.73827957  1
  F  F16  1  0.70140386  0.67849857  0.76172043  1
  F  F17  1  0.70140386  0.32150143  0.73827957  1
  F  F18  1  0.79859614  0.17849857  0.23827957  1
  F  F19  1  0.79859614  0.82150143  0.26172043  1
  F  F20  1  0.73387297  0.54783882  0.03535063  1
  F  F21  1  0.73387297  0.45216118  0.46464937  1
  F  F22  1  0.76612703  0.04783882  0.96464937  1
  F  F23  1  0.76612703  0.95216118  0.53535063  1
  F  F24  1  0.26612703  0.45216118  0.96464937  1
  F  F25  1  0.26612703  0.54783882  0.53535063  1
  F  F26  1  0.23387297  0.95216118  0.03535063  1
  F  F27  1  0.23387297  0.04783882  0.46464937  1
  F  F28  1  0.91165244  0.60364979  0.39609097  1
  F  F29  1  0.91165244  0.39635021  0.10390903  1
  F  F30  1  0.58834756  0.10364979  0.60390903  1
  F  F31  1  0.58834756  0.89635021  0.89609097  1
  F  F32  1  0.08834756  0.39635021  0.60390903  1
  F  F33  1  0.08834756  0.60364979  0.89609097  1
  F  F34  1  0.41165244  0.89635021  0.39609097  1
  F  F35  1  0.41165244  0.10364979  0.10390903  1
  F  F36  1  0.00413901  0.64021760  0.27081791  1
  F  F37  1  0.00413901  0.35978240  0.22918209  1
  F  F38  1  0.49586099  0.14021760  0.72918209  1
  F  F39  1  0.49586099  0.85978240  0.77081791  1
  F  F40  1  0.99586099  0.35978240  0.72918209  1
  F  F41  1  0.99586099  0.64021760  0.77081791  1
  F  F42  1  0.50413901  0.85978240  0.27081791  1
  F  F43  1  0.50413901  0.14021760  0.22918209  1
  F  F44  1  0.30865352  0.13824659  0.94449850  1
  F  F45  1  0.30865352  0.86175341  0.55550150  1
  F  F46  1  0.19134648  0.63824659  0.05550150  1
  F  F47  1  0.19134648  0.36175341  0.44449850  1
  F  F48  1  0.69134648  0.86175341  0.05550150  1
  F  F49  1  0.69134648  0.13824659  0.44449850  1
  F  F50  1  0.80865352  0.36175341  0.94449850  1
  F  F51  1  0.80865352  0.63824659  0.55550150  1
  F  F52  1  0.08505731  0.55124594  0.16377129  1
  F  F53  1  0.08505731  0.44875406  0.33622871  1
  F  F54  1  0.41494269  0.05124594  0.83622871  1
  F  F55  1  0.41494269  0.94875406  0.66377129  1
  F  F56  1  0.91494269  0.44875406  0.83622871  1
  F  F57  1  0.91494269  0.55124594  0.66377129  1
  F  F58  1  0.58505731  0.94875406  0.16377129  1
  F  F59  1  0.58505731  0.05124594  0.33622871  1
  F  F60  1  0.22035076  0.28805639  0.11803956  1
  F  F61  1  0.22035076  0.71194361  0.38196044  1
  F  F62  1  0.27964924  0.78805639  0.88196044  1
  F  F63  1  0.27964924  0.21194361  0.61803956  1
  F  F64  1  0.77964924  0.71194361  0.88196044  1
  F  F65  1  0.77964924  0.28805639  0.61803956  1
  F  F66  1  0.72035076  0.21194361  0.11803956  1
  F  F67  1  0.72035076  0.78805639  0.38196044  1
  F  F68  1  0.50338532  0.41493879  0.06728230  1
  F  F69  1  0.50338532  0.58506121  0.43271770  1
  F  F70  1  0.99661468  0.91493879  0.93271770  1
  F  F71  1  0.99661468  0.08506121  0.56728230  1
  F  F72  1  0.49661468  0.58506121  0.93271770  1
  F  F73  1  0.49661468  0.41493879  0.56728230  1
  F  F74  1  0.00338532  0.08506121  0.06728230  1
  F  F75  1  0.00338532  0.91493879  0.43271770  1
  F  F76  1  0.63077114  0.42443466  0.20013977  1
  F  F77  1  0.63077114  0.57556534  0.29986023  1
  F  F78  1  0.86922886  0.92443466  0.79986023  1
  F  F79  1  0.86922886  0.07556534  0.70013977  1
  F  F80  1  0.36922886  0.57556534  0.79986023  1
  F  F81  1  0.36922886  0.42443466  0.70013977  1
  F  F82  1  0.13077114  0.07556534  0.20013977  1
  F  F83  1  0.13077114  0.92443466  0.29986023  1
  F  F84  1  0.49660459  0.72484576  0.12705418  1
  F  F85  1  0.49660459  0.27515424  0.37294582  1
  F  F86  1  0.00339541  0.22484576  0.87294582  1
  F  F87  1  0.00339541  0.77515424  0.62705418  1
  F  F88  1  0.50339541  0.27515424  0.87294582  1
  F  F89  1  0.50339541  0.72484576  0.62705418  1
  F  F90  1  0.99660459  0.77515424  0.12705418  1
  F  F91  1  0.99660459  0.22484576  0.37294582  1
  F  F92  1  0.77380896  0.62191485  0.15127640  1
  F  F93  1  0.77380896  0.37808515  0.34872360  1
  F  F94  1  0.72619104  0.12191485  0.84872360  1
  F  F95  1  0.72619104  0.87808515  0.65127640  1
  F  F96  1  0.22619104  0.37808515  0.84872360  1
  F  F97  1  0.22619104  0.62191485  0.65127640  1
  F  F98  1  0.27380896  0.87808515  0.15127640  1
  F  F99  1  0.27380896  0.12191485  0.34872360  1
  F  F100  1  0.57909301  0.23289933  0.98835275  1
  F  F101  1  0.57909301  0.76710067  0.51164725  1
  F  F102  1  0.92090699  0.73289933  0.01164725  1
  F  F103  1  0.92090699  0.26710067  0.48835275  1
  F  F104  1  0.42090699  0.76710067  0.01164725  1
  F  F105  1  0.42090699  0.23289933  0.48835275  1
  F  F106  1  0.07909301  0.26710067  0.98835275  1
  F  F107  1  0.07909301  0.73289933  0.51164725  1
  Tm  Tm108  1  0.67717973  0.00000000  0.25000000  1
  Tm  Tm109  1  0.82282027  0.50000000  0.75000000  1
  Tm  Tm110  1  0.32282027  0.00000000  0.75000000  1
  Tm  Tm111  1  0.17717973  0.50000000  0.25000000  1
  Tm  Tm112  1  0.46078523  0.09320276  0.41637820  1
  Tm  Tm113  1  0.46078523  0.90679724  0.08362180  1
  Tm  Tm114  1  0.03921477  0.59320276  0.58362180  1
  Tm  Tm115  1  0.03921477  0.40679724  0.91637820  1
  Tm  Tm116  1  0.53921477  0.90679724  0.58362180  1
  Tm  Tm117  1  0.53921477  0.09320276  0.91637820  1
  Tm  Tm118  1  0.96078523  0.40679724  0.41637820  1
  Tm  Tm119  1  0.96078523  0.59320276  0.08362180  1
  Au  Au120  1  0.84023372  0.89049895  0.99097612  1
  Au  Au121  1  0.84023372  0.10950105  0.50902388  1
  Au  Au122  1  0.65976628  0.39049895  0.00902388  1
  Au  Au123  1  0.65976628  0.60950105  0.49097612  1
  Au  Au124  1  0.15976628  0.10950105  0.00902388  1
  Au  Au125  1  0.15976628  0.89049895  0.49097612  1
  Au  Au126  1  0.34023372  0.60950105  0.99097612  1
  Au  Au127  1  0.34023372  0.39049895  0.50902388  1
  Au  Au128  1  0.56762762  0.57471155  0.16480778  1
  Au  Au129  1  0.56762762  0.42528845  0.33519222  1
  Au  Au130  1  0.93237238  0.07471155  0.83519222  1
  Au  Au131  1  0.93237238  0.92528845  0.66480778  1
  Au  Au132  1  0.43237238  0.42528845  0.83519222  1
  Au  Au133  1  0.43237238  0.57471155  0.66480778  1
  Au  Au134  1  0.06762762  0.92528845  0.16480778  1
  Au  Au135  1  0.06762762  0.07471155  0.33519222  1
  Au  Au136  1  0.86149414  0.71406546  0.32849667  1
  Au  Au137  1  0.86149414  0.28593454  0.17150333  1
  Au  Au138  1  0.63850586  0.21406546  0.67150333  1
  Au  Au139  1  0.63850586  0.78593454  0.82849667  1
  Au  Au140  1  0.13850586  0.28593454  0.67150333  1
  Au  Au141  1  0.13850586  0.71406546  0.82849667  1
  Au  Au142  1  0.36149414  0.78593454  0.32849667  1
  Au  Au143  1  0.36149414  0.21406546  0.17150333  1
