# generated using pymatgen
data_KSiSbO5
_symmetry_space_group_name_H-M   'P 1'
_cell_length_a   6.56847435
_cell_length_b   10.79028307
_cell_length_c   13.20997727
_cell_angle_alpha   90.00000000
_cell_angle_beta   90.00000000
_cell_angle_gamma   90.00000000
_symmetry_Int_Tables_number   1
_chemical_formula_structural   KSiSbO5
_chemical_formula_sum   'K8 Si8 Sb8 O40'
_cell_volume   936.26635395
_cell_formula_units_Z   8
loop_
 _symmetry_equiv_pos_site_id
 _symmetry_equiv_pos_as_xyz
  1  'x, y, z'
loop_
 _atom_site_type_symbol
 _atom_site_label
 _atom_site_symmetry_multiplicity
 _atom_site_fract_x
 _atom_site_fract_y
 _atom_site_fract_z
 _atom_site_occupancy
  O  O0  1  0.53279851  0.87589057  0.27133418  1
  O  O1  1  0.46720149  0.37589057  0.72866582  1
  O  O2  1  0.96720149  0.87589057  0.77133418  1
  O  O3  1  0.03279851  0.37589057  0.22866582  1
  O  O4  1  0.47889984  0.13139079  0.27390417  1
  O  O5  1  0.52110016  0.63139079  0.72609583  1
  O  O6  1  0.02110016  0.13139079  0.77390417  1
  O  O7  1  0.97889984  0.63139079  0.22609583  1
  O  O8  1  0.95797547  0.88582717  0.24056167  1
  O  O9  1  0.04202453  0.38582717  0.75943833  1
  O  O10  1  0.54202453  0.88582717  0.74056167  1
  O  O11  1  0.45797547  0.38582717  0.25943833  1
  O  O12  1  0.04065842  0.11917781  0.24124311  1
  O  O13  1  0.95934158  0.61917781  0.75875689  1
  O  O14  1  0.45934158  0.11917781  0.74124311  1
  O  O15  1  0.68155378  0.73098910  0.90073334  1
  O  O16  1  0.54065842  0.61917781  0.25875689  1
  O  O17  1  0.80086401  0.47373918  0.60786297  1
  O  O18  1  0.30086401  0.97373918  0.89213703  1
  O  O19  1  0.69913599  0.47373918  0.10786297  1
  O  O20  1  0.80507166  0.03184598  0.39114122  1
  O  O21  1  0.19492834  0.53184598  0.60885878  1
  O  O22  1  0.69492834  0.03184598  0.89114122  1
  O  O23  1  0.30507166  0.53184598  0.10885878  1
  O  O24  1  0.48775506  0.13378462  0.48666278  1
  O  O25  1  0.51224494  0.63378462  0.51333722  1
  O  O26  1  0.01224494  0.13378462  0.98666278  1
  O  O27  1  0.98775506  0.63378462  0.01333722  1
  O  O28  1  0.47158552  0.37587053  0.51016059  1
  O  O29  1  0.52841448  0.87587053  0.48983941  1
  O  O30  1  0.02841448  0.37587053  0.01016059  1
  O  O31  1  0.97158552  0.87587053  0.98983941  1
  O  O32  1  0.18647622  0.26898088  0.39841304  1
  O  O33  1  0.81352378  0.76898088  0.60158696  1
  O  O34  1  0.31352378  0.26898088  0.89841304  1
  O  O35  1  0.68647622  0.76898088  0.10158696  1
  O  O36  1  0.18155378  0.23098910  0.59926666  1
  O  O37  1  0.81844622  0.73098910  0.40073334  1
  O  O38  1  0.31844622  0.23098910  0.09926666  1
  O  O39  1  0.19913599  0.97373918  0.39213703  1
  Si  Si40  1  0.82849699  0.75060000  0.99997286  1
  Si  Si41  1  0.32849699  0.25060000  0.50002714  1
  Si  Si42  1  0.67150301  0.75060000  0.49997286  1
  Si  Si43  1  0.17150301  0.25060000  0.00002714  1
  Si  Si44  1  0.50304932  0.50144160  0.18104237  1
  Si  Si45  1  0.49695068  0.00144160  0.81895763  1
  Si  Si46  1  0.99695068  0.50144160  0.68104237  1
  Si  Si47  1  0.00304932  0.00144160  0.31895763  1
  K  K48  1  0.19708341  0.56322855  0.39251055  1
  K  K49  1  0.22502781  0.80714877  0.61943812  1
  K  K50  1  0.72502781  0.30714877  0.88056188  1
  K  K51  1  0.27497219  0.80714877  0.11943812  1
  K  K52  1  0.77497219  0.30714877  0.38056188  1
  K  K53  1  0.69708341  0.06322855  0.10748945  1
  K  K54  1  0.30291659  0.56322855  0.89251055  1
  K  K55  1  0.80291659  0.06322855  0.60748945  1
  Sb  Sb56  1  0.75302042  0.75007501  0.25215400  1
  Sb  Sb57  1  0.24697958  0.25007501  0.74784600  1
  Sb  Sb58  1  0.74697958  0.75007501  0.75215400  1
  Sb  Sb59  1  0.25302042  0.25007501  0.24784600  1
  Sb  Sb60  1  0.99981782  0.50100943  0.11938445  1
  Sb  Sb61  1  0.00018218  0.00100943  0.88061555  1
  Sb  Sb62  1  0.50018218  0.50100943  0.61938445  1
  Sb  Sb63  1  0.49981782  0.00100943  0.38061555  1
