# generated using pymatgen
data_Na4TiO4
_symmetry_space_group_name_H-M   'P 1'
_cell_length_a   5.80638570
_cell_length_b   5.82035947
_cell_length_c   8.78023308
_cell_angle_alpha   81.86259609
_cell_angle_beta   71.46355881
_cell_angle_gamma   68.40022933
_symmetry_Int_Tables_number   1
_chemical_formula_structural   Na4TiO4
_chemical_formula_sum   'Na8 Ti2 O8'
_cell_volume   261.47910760
_cell_formula_units_Z   2
loop_
 _symmetry_equiv_pos_site_id
 _symmetry_equiv_pos_as_xyz
  1  'x, y, z'
loop_
 _atom_site_type_symbol
 _atom_site_label
 _atom_site_symmetry_multiplicity
 _atom_site_fract_x
 _atom_site_fract_y
 _atom_site_fract_z
 _atom_site_occupancy
  O  O0  1  0.86244758  0.97368471  0.69495774  1
  O  O1  1  0.13755242  0.02631529  0.30504226  1
  O  O2  1  0.66637679  0.02970011  0.13692582  1
  O  O3  1  0.33362321  0.97029989  0.86307418  1
  O  O4  1  0.20573885  0.47473852  0.12434531  1
  O  O5  1  0.79426115  0.52526148  0.87565469  1
  O  O6  1  0.35037035  0.34175135  0.43658851  1
  O  O7  1  0.64962965  0.65824865  0.56341149  1
  Na  Na8  1  0.74112887  0.25775857  0.48855759  1
  Na  Na9  1  0.25887113  0.74224143  0.51144241  1
  Na  Na10  1  0.44303586  0.74372022  0.10050988  1
  Na  Na11  1  0.55696414  0.25627978  0.89949012  1
  Na  Na12  1  0.98019092  0.23464730  0.06449020  1
  Na  Na13  1  0.01980908  0.76535270  0.93550980  1
  Na  Na14  1  0.88939809  0.77355169  0.31638561  1
  Na  Na15  1  0.11060191  0.22644831  0.68361439  1
  Ti  Ti16  1  0.65758633  0.77982270  0.74183125  1
  Ti  Ti17  1  0.34241367  0.22017730  0.25816875  1
