# generated using pymatgen
data_Li6Y(BO3)3
_symmetry_space_group_name_H-M   'P 1'
_cell_length_a   6.72409088
_cell_length_b   7.26765545
_cell_length_c   16.54186048
_cell_angle_alpha   90.00000000
_cell_angle_beta   90.00000000
_cell_angle_gamma   105.41200267
_symmetry_Int_Tables_number   1
_chemical_formula_structural   Li6Y(BO3)3
_chemical_formula_sum   'Li24 Y4 B12 O36'
_cell_volume   779.30452884
_cell_formula_units_Z   4
loop_
 _symmetry_equiv_pos_site_id
 _symmetry_equiv_pos_as_xyz
  1  'x, y, z'
loop_
 _atom_site_type_symbol
 _atom_site_label
 _atom_site_symmetry_multiplicity
 _atom_site_fract_x
 _atom_site_fract_y
 _atom_site_fract_z
 _atom_site_occupancy
  Li  Li0  1  0.41526768  0.86242462  0.44721111  1
  Li  Li1  1  0.08473232  0.13757538  0.94721111  1
  Li  Li2  1  0.58473232  0.13757538  0.55278889  1
  Li  Li3  1  0.91526768  0.86242462  0.05278889  1
  Li  Li4  1  0.45437692  0.43837904  0.20472369  1
  Li  Li5  1  0.04562308  0.56162096  0.70472369  1
  Li  Li6  1  0.54562308  0.56162096  0.79527631  1
  Li  Li7  1  0.95437692  0.43837904  0.29527631  1
  Li  Li8  1  0.44428311  0.30664288  0.03527476  1
  Li  Li9  1  0.05571689  0.69335712  0.53527476  1
  Li  Li10  1  0.55571689  0.69335712  0.96472524  1
  Li  Li11  1  0.94428311  0.30664288  0.46472524  1
  Li  Li12  1  0.36549268  0.71508115  0.29423826  1
  Li  Li13  1  0.13450732  0.28491885  0.79423826  1
  Li  Li14  1  0.63450732  0.28491885  0.70576174  1
  Li  Li15  1  0.86549268  0.71508115  0.20576174  1
  Li  Li16  1  0.17022156  0.54670055  0.03010906  1
  Li  Li17  1  0.32977844  0.45329945  0.53010906  1
  Li  Li18  1  0.82977844  0.45329945  0.96989094  1
  Li  Li19  1  0.67022156  0.54670055  0.46989094  1
  Li  Li20  1  0.67600796  0.07138810  0.99594570  1
  Li  Li21  1  0.82399204  0.92861190  0.49594570  1
  Li  Li22  1  0.32399204  0.92861190  0.00405430  1
  Li  Li23  1  0.17600796  0.07138810  0.50405430  1
  B  B24  1  0.66172463  0.08354452  0.36439242  1
  B  B25  1  0.83827537  0.91645548  0.86439242  1
  B  B26  1  0.33827537  0.91645548  0.63560758  1
  B  B27  1  0.16172463  0.08354452  0.13560758  1
  B  B28  1  0.00067140  0.71403473  0.37922631  1
  B  B29  1  0.49932860  0.28596527  0.87922631  1
  B  B30  1  0.99932860  0.28596527  0.62077369  1
  B  B31  1  0.50067140  0.71403473  0.12077369  1
  B  B32  1  0.81061685  0.43927842  0.11518372  1
  B  B33  1  0.68938315  0.56072158  0.61518372  1
  B  B34  1  0.18938315  0.56072158  0.88481628  1
  B  B35  1  0.31061685  0.43927842  0.38481628  1
  O  O36  1  0.97226342  0.00748918  0.17387991  1
  O  O37  1  0.52773658  0.99251082  0.67387991  1
  O  O38  1  0.02773658  0.99251082  0.82612009  1
  O  O39  1  0.47226342  0.00748918  0.32612009  1
  O  O40  1  0.83373786  0.14577063  0.31460565  1
  O  O41  1  0.66626214  0.85422937  0.81460565  1
  O  O42  1  0.16626214  0.85422937  0.68539435  1
  O  O43  1  0.33373786  0.14577063  0.18539435  1
  O  O44  1  0.67622403  0.08759648  0.44665041  1
  O  O45  1  0.82377597  0.91240352  0.94665041  1
  O  O46  1  0.32377597  0.91240352  0.55334959  1
  O  O47  1  0.17622403  0.08759648  0.05334959  1
  O  O48  1  0.04174579  0.87977371  0.42595378  1
  O  O49  1  0.45825421  0.12022629  0.92595378  1
  O  O50  1  0.95825421  0.12022629  0.57404622  1
  O  O51  1  0.54174579  0.87977371  0.07404622  1
  O  O52  1  0.55763318  0.74007406  0.20217998  1
  O  O53  1  0.94236682  0.25992594  0.70217998  1
  O  O54  1  0.44236682  0.25992594  0.79782002  1
  O  O55  1  0.05763318  0.74007406  0.29782002  1
  O  O56  1  0.91369171  0.53741965  0.41157287  1
  O  O57  1  0.58630829  0.46258035  0.91157287  1
  O  O58  1  0.08630829  0.46258035  0.58842713  1
  O  O59  1  0.41369171  0.53741965  0.08842713  1
  O  O60  1  0.22875564  0.27642922  0.43132791  1
  O  O61  1  0.27124436  0.72357078  0.93132791  1
  O  O62  1  0.77124436  0.72357078  0.56867209  1
  O  O63  1  0.72875564  0.27642922  0.06867209  1
  O  O64  1  0.77158393  0.42138556  0.19790704  1
  O  O65  1  0.72841607  0.57861444  0.69790704  1
  O  O66  1  0.22841607  0.57861444  0.80209296  1
  O  O67  1  0.27158393  0.42138556  0.30209296  1
  O  O68  1  0.92286601  0.60507943  0.07857997  1
  O  O69  1  0.57713399  0.39492057  0.57857997  1
  O  O70  1  0.07713399  0.39492057  0.92142003  1
  O  O71  1  0.42286601  0.60507943  0.42142003  1
  Y  Y72  1  0.65278446  0.07974264  0.18980085  1
  Y  Y73  1  0.84721554  0.92025736  0.68980085  1
  Y  Y74  1  0.34721554  0.92025736  0.81019915  1
  Y  Y75  1  0.15278446  0.07974264  0.31019915  1
