# generated using pymatgen
data_LiTiCl3
_symmetry_space_group_name_H-M   'P 1'
_cell_length_a   7.44327443
_cell_length_b   7.44327409
_cell_length_c   14.36412236
_cell_angle_alpha   58.36381359
_cell_angle_beta   58.36381489
_cell_angle_gamma   57.46468903
_symmetry_Int_Tables_number   1
_chemical_formula_structural   LiTiCl3
_chemical_formula_sum   'Li4 Ti4 Cl12'
_cell_volume   537.64644550
_cell_formula_units_Z   4
loop_
 _symmetry_equiv_pos_site_id
 _symmetry_equiv_pos_as_xyz
  1  'x, y, z'
loop_
 _atom_site_type_symbol
 _atom_site_label
 _atom_site_symmetry_multiplicity
 _atom_site_fract_x
 _atom_site_fract_y
 _atom_site_fract_z
 _atom_site_occupancy
  Li  Li0  1  0.21473017  0.21473017  0.12728304  1
  Li  Li1  1  0.24061652  0.24061652  0.63687336  1
  Li  Li2  1  0.64474654  0.64474654  0.30238722  1
  Li  Li3  1  0.62163474  0.62163474  0.81687701  1
  Ti  Ti4  1  0.68065667  0.68065667  0.02865985  1
  Ti  Ti5  1  0.05479321  0.66565123  0.83185173  1
  Ti  Ti6  1  0.66565123  0.05479321  0.83185173  1
  Ti  Ti7  1  0.60605150  0.60605150  0.55196344  1
  Cl  Cl8  1  0.39144599  0.83736924  0.19155232  1
  Cl  Cl9  1  0.83736924  0.39144599  0.19155232  1
  Cl  Cl10  1  0.36835353  0.36835353  0.70348615  1
  Cl  Cl11  1  0.41258679  0.88655085  0.42022206  1
  Cl  Cl12  1  0.88655085  0.41258679  0.42022206  1
  Cl  Cl13  1  0.37689902  0.37689902  0.92853211  1
  Cl  Cl14  1  0.37093183  0.84833297  0.68654458  1
  Cl  Cl15  1  0.84833297  0.37093183  0.68654458  1
  Cl  Cl16  1  0.39482615  0.86614127  0.94288832  1
  Cl  Cl17  1  0.86614127  0.39482615  0.94288832  1
  Cl  Cl18  1  0.86621223  0.86621223  0.69152574  1
  Cl  Cl19  1  0.90146955  0.90146955  0.94129407  1
