# generated using pymatgen
data_Y5(Si7Os2)2
_symmetry_space_group_name_H-M   'P 1'
_cell_length_a   7.97830254
_cell_length_b   8.05312640
_cell_length_c   12.80701262
_cell_angle_alpha   90.00000000
_cell_angle_beta   98.62806329
_cell_angle_gamma   90.00000000
_symmetry_Int_Tables_number   1
_chemical_formula_structural   Y5(Si7Os2)2
_chemical_formula_sum   'Y10 Si28 Os8'
_cell_volume   813.54190778
_cell_formula_units_Z   2
loop_
 _symmetry_equiv_pos_site_id
 _symmetry_equiv_pos_as_xyz
  1  'x, y, z'
loop_
 _atom_site_type_symbol
 _atom_site_label
 _atom_site_symmetry_multiplicity
 _atom_site_fract_x
 _atom_site_fract_y
 _atom_site_fract_z
 _atom_site_occupancy
  Si  Si0  1  0.39225553  0.00026878  0.55847870  1
  Si  Si1  1  0.10774447  0.50026878  0.44152130  1
  Si  Si2  1  0.60774447  0.99973122  0.44152130  1
  Si  Si3  1  0.89225553  0.49973122  0.55847870  1
  Si  Si4  1  0.61296625  0.50028185  0.44735511  1
  Si  Si5  1  0.88703375  0.00028185  0.55264489  1
  Si  Si6  1  0.38703375  0.49971815  0.55264489  1
  Si  Si7  1  0.11296625  0.99971815  0.44735511  1
  Si  Si8  1  0.17695323  0.00565991  0.82110681  1
  Si  Si9  1  0.32304677  0.50565991  0.17889319  1
  Si  Si10  1  0.82304677  0.99434009  0.17889319  1
  Si  Si11  1  0.67695323  0.49434009  0.82110681  1
  Si  Si12  1  0.23715644  0.50638987  0.82112903  1
  Si  Si13  1  0.26284356  0.00638987  0.17887097  1
  Si  Si14  1  0.76284356  0.49361013  0.17887097  1
  Si  Si15  1  0.73715644  0.99361013  0.82112903  1
  Si  Si16  1  0.46193525  0.27945316  0.82063771  1
  Si  Si17  1  0.03806475  0.77945316  0.17936229  1
  Si  Si18  1  0.33370378  0.33248379  0.99932132  1
  Si  Si19  1  0.16629622  0.83248379  0.00067868  1
  Si  Si20  1  0.66629622  0.66751621  0.00067868  1
  Si  Si21  1  0.83370378  0.16751621  0.99932132  1
  Si  Si22  1  0.95032429  0.77919860  0.82128068  1
  Si  Si23  1  0.54967571  0.27919860  0.17871932  1
  Si  Si24  1  0.04967571  0.22080140  0.17871932  1
  Si  Si25  1  0.45032429  0.72080140  0.82128068  1
  Si  Si26  1  0.96193525  0.22054684  0.82063771  1
  Si  Si27  1  0.53806475  0.72054684  0.17936229  1
  Y  Y28  1  0.65748210  0.74568648  0.63558115  1
  Y  Y29  1  0.84251790  0.24568648  0.36441885  1
  Y  Y30  1  0.34251790  0.25431352  0.36441885  1
  Y  Y31  1  0.15748210  0.75431352  0.63558115  1
  Y  Y32  1  0.83823723  0.74835369  0.36576625  1
  Y  Y33  1  0.66176277  0.24835369  0.63423375  1
  Y  Y34  1  0.16176277  0.25164631  0.63423375  1
  Y  Y35  1  0.33823723  0.75164631  0.36576625  1
  Y  Y36  1  0.00000000  0.50000000  0.00000000  1
  Y  Y37  1  0.50000000  0.00000000  0.00000000  1
  Os  Os38  1  0.12858426  0.12637733  0.99935196  1
  Os  Os39  1  0.37141574  0.62637733  0.00064804  1
  Os  Os40  1  0.87141574  0.87362267  0.00064804  1
  Os  Os41  1  0.62858426  0.37362267  0.99935196  1
  Os  Os42  1  0.93924569  0.50005803  0.74687207  1
  Os  Os43  1  0.56075431  0.00005803  0.25312793  1
  Os  Os44  1  0.06075431  0.49994197  0.25312793  1
  Os  Os45  1  0.43924569  0.99994197  0.74687207  1
