# generated using pymatgen
data_La2B4Rh5
_symmetry_space_group_name_H-M   'P 1'
_cell_length_a   5.55161940
_cell_length_b   5.76491646
_cell_length_c   6.32954142
_cell_angle_alpha   77.80958997
_cell_angle_beta   63.98870571
_cell_angle_gamma   61.21655716
_symmetry_Int_Tables_number   1
_chemical_formula_structural   La2B4Rh5
_chemical_formula_sum   'La2 B4 Rh5'
_cell_volume   159.56163027
_cell_formula_units_Z   1
loop_
 _symmetry_equiv_pos_site_id
 _symmetry_equiv_pos_as_xyz
  1  'x, y, z'
loop_
 _atom_site_type_symbol
 _atom_site_label
 _atom_site_symmetry_multiplicity
 _atom_site_fract_x
 _atom_site_fract_y
 _atom_site_fract_z
 _atom_site_occupancy
  B  B0  1  0.20873456  0.32332195  0.25920892  1
  B  B1  1  0.79126544  0.67667805  0.74079108  1
  B  B2  1  0.46794349  0.32332195  0.74079108  1
  B  B3  1  0.53205651  0.67667805  0.25920892  1
  Rh  Rh4  1  0.25000000  0.50000000  0.50000000  1
  Rh  Rh5  1  0.50000000  0.50000000  0.00000000  1
  Rh  Rh6  1  0.50000000  0.00000000  0.00000000  1
  Rh  Rh7  1  0.00000000  0.50000000  0.00000000  1
  Rh  Rh8  1  0.75000000  0.50000000  0.50000000  1
  La  La9  1  0.14365056  0.00000000  0.71269887  1
  La  La10  1  0.85634944  0.00000000  0.28730113  1
