# generated using pymatgen
data_Rb4Tc6S13
_symmetry_space_group_name_H-M   'P 1'
_cell_length_a   9.80534692
_cell_length_b   9.80534692
_cell_length_c   14.23166597
_cell_angle_alpha   94.51010854
_cell_angle_beta   94.51010853
_cell_angle_gamma   119.35827290
_symmetry_Int_Tables_number   1
_chemical_formula_structural   Rb4Tc6S13
_chemical_formula_sum   'Rb8 Tc12 S26'
_cell_volume   1178.01595170
_cell_formula_units_Z   2
loop_
 _symmetry_equiv_pos_site_id
 _symmetry_equiv_pos_as_xyz
  1  'x, y, z'
loop_
 _atom_site_type_symbol
 _atom_site_label
 _atom_site_symmetry_multiplicity
 _atom_site_fract_x
 _atom_site_fract_y
 _atom_site_fract_z
 _atom_site_occupancy
  S  S0  1  0.64696254  0.35303746  0.25000000  1
  S  S1  1  0.35303746  0.64696254  0.75000000  1
  S  S2  1  0.26324310  0.64255328  0.17866293  1
  S  S3  1  0.35744672  0.73675690  0.32133707  1
  S  S4  1  0.73675690  0.35744672  0.82133707  1
  S  S5  1  0.64255328  0.26324310  0.67866293  1
  S  S6  1  0.91898538  0.94989557  0.04929130  1
  S  S7  1  0.05010443  0.08101462  0.45070870  1
  S  S8  1  0.08101462  0.05010443  0.95070870  1
  S  S9  1  0.94989557  0.91898538  0.54929130  1
  S  S10  1  0.64441009  0.98014109  0.18329655  1
  S  S11  1  0.01985891  0.35558991  0.31670345  1
  S  S12  1  0.35558991  0.01985891  0.81670345  1
  S  S13  1  0.98014109  0.64441009  0.68329655  1
  S  S14  1  0.82668188  0.26661480  0.04550394  1
  S  S15  1  0.73338520  0.17331812  0.45449606  1
  S  S16  1  0.17331812  0.73338520  0.95449606  1
  S  S17  1  0.26661480  0.82668188  0.54550394  1
  S  S18  1  0.49695176  0.30037720  0.01060702  1
  S  S19  1  0.69962280  0.50304824  0.48939298  1
  S  S20  1  0.00694554  0.31029568  0.64841444  1
  S  S21  1  0.68970432  0.99305446  0.85158556  1
  S  S22  1  0.99305446  0.68970432  0.35158556  1
  S  S23  1  0.31029568  0.00694554  0.14841444  1
  S  S24  1  0.30037720  0.49695176  0.51060702  1
  S  S25  1  0.50304824  0.69962280  0.98939298  1
  Rb  Rb26  1  0.62126502  0.90738358  0.62038766  1
  Rb  Rb27  1  0.09261642  0.37873498  0.87961234  1
  Rb  Rb28  1  0.37873498  0.09261642  0.37961234  1
  Rb  Rb29  1  0.90738358  0.62126502  0.12038766  1
  Rb  Rb30  1  0.76639548  0.70353458  0.84091247  1
  Rb  Rb31  1  0.29646542  0.23360452  0.65908753  1
  Rb  Rb32  1  0.23360452  0.29646542  0.15908753  1
  Rb  Rb33  1  0.70353458  0.76639548  0.34091247  1
  Tc  Tc34  1  0.31963157  0.01730514  0.98134761  1
  Tc  Tc35  1  0.98269486  0.68036843  0.51865239  1
  Tc  Tc36  1  0.68036843  0.98269486  0.01865239  1
  Tc  Tc37  1  0.01730514  0.31963157  0.48134761  1
  Tc  Tc38  1  0.42470618  0.84765399  0.89224556  1
  Tc  Tc39  1  0.15234601  0.57529382  0.60775444  1
  Tc  Tc40  1  0.57529382  0.15234601  0.10775444  1
  Tc  Tc41  1  0.84765399  0.42470618  0.39224556  1
  Tc  Tc42  1  0.84413921  0.40172085  0.57583097  1
  Tc  Tc43  1  0.59827915  0.15586079  0.92416903  1
  Tc  Tc44  1  0.15586079  0.59827915  0.42416903  1
  Tc  Tc45  1  0.40172085  0.84413921  0.07583097  1
