# generated using pymatgen
data_LuAu2F9
_symmetry_space_group_name_H-M   'P 1'
_cell_length_a   9.12945627
_cell_length_b   11.19143533
_cell_length_c   21.73646210
_cell_angle_alpha   90.00000000
_cell_angle_beta   90.00000000
_cell_angle_gamma   90.00000000
_symmetry_Int_Tables_number   1
_chemical_formula_structural   LuAu2F9
_chemical_formula_sum   'Lu12 Au24 F108'
_cell_volume   2220.85170738
_cell_formula_units_Z   12
loop_
 _symmetry_equiv_pos_site_id
 _symmetry_equiv_pos_as_xyz
  1  'x, y, z'
loop_
 _atom_site_type_symbol
 _atom_site_label
 _atom_site_symmetry_multiplicity
 _atom_site_fract_x
 _atom_site_fract_y
 _atom_site_fract_z
 _atom_site_occupancy
  F  F0  1  0.50000000  0.00000000  0.00000000  1
  F  F1  1  0.50000000  0.00000000  0.50000000  1
  F  F2  1  0.00000000  0.50000000  0.00000000  1
  F  F3  1  0.00000000  0.50000000  0.50000000  1
  F  F4  1  0.36329846  0.47616177  0.32193218  1
  F  F5  1  0.36329846  0.52383823  0.17806782  1
  F  F6  1  0.13670154  0.97616177  0.67806782  1
  F  F7  1  0.13670154  0.02383823  0.82193218  1
  F  F8  1  0.63670154  0.52383823  0.67806782  1
  F  F9  1  0.63670154  0.47616177  0.82193218  1
  F  F10  1  0.86329846  0.02383823  0.32193218  1
  F  F11  1  0.86329846  0.97616177  0.17806782  1
  F  F12  1  0.29758281  0.32379090  0.23802741  1
  F  F13  1  0.29758281  0.67620910  0.26197259  1
  F  F14  1  0.20241719  0.82379090  0.76197259  1
  F  F15  1  0.20241719  0.17620910  0.73802741  1
  F  F16  1  0.70241719  0.67620910  0.76197259  1
  F  F17  1  0.70241719  0.32379090  0.73802741  1
  F  F18  1  0.79758281  0.17620910  0.23802741  1
  F  F19  1  0.79758281  0.82379090  0.26197259  1
  F  F20  1  0.73305898  0.54830149  0.03493169  1
  F  F21  1  0.73305898  0.45169851  0.46506831  1
  F  F22  1  0.76694102  0.04830149  0.96506831  1
  F  F23  1  0.76694102  0.95169851  0.53493169  1
  F  F24  1  0.26694102  0.45169851  0.96506831  1
  F  F25  1  0.26694102  0.54830149  0.53493169  1
  F  F26  1  0.23305898  0.95169851  0.03493169  1
  F  F27  1  0.23305898  0.04830149  0.46506831  1
  F  F28  1  0.90909091  0.60289563  0.39651836  1
  F  F29  1  0.90909091  0.39710437  0.10348164  1
  F  F30  1  0.59090909  0.10289563  0.60348164  1
  F  F31  1  0.59090909  0.89710437  0.89651836  1
  F  F32  1  0.09090909  0.39710437  0.60348164  1
  F  F33  1  0.09090909  0.60289563  0.89651836  1
  F  F34  1  0.40909091  0.89710437  0.39651836  1
  F  F35  1  0.40909091  0.10289563  0.10348164  1
  F  F36  1  0.00267014  0.64044369  0.27050413  1
  F  F37  1  0.00267014  0.35955631  0.22949587  1
  F  F38  1  0.49732986  0.14044369  0.72949587  1
  F  F39  1  0.49732986  0.85955631  0.77050413  1
  F  F40  1  0.99732986  0.35955631  0.72949587  1
  F  F41  1  0.99732986  0.64044369  0.77050413  1
  F  F42  1  0.50267014  0.85955631  0.27050413  1
  F  F43  1  0.50267014  0.14044369  0.22949587  1
  F  F44  1  0.30965018  0.13778908  0.94354124  1
  F  F45  1  0.30965018  0.86221092  0.55645876  1
  F  F46  1  0.19034982  0.63778908  0.05645876  1
  F  F47  1  0.19034982  0.36221092  0.44354124  1
  F  F48  1  0.69034982  0.86221092  0.05645876  1
  F  F49  1  0.69034982  0.13778908  0.44354124  1
  F  F50  1  0.80965018  0.36221092  0.94354124  1
  F  F51  1  0.80965018  0.63778908  0.55645876  1
  F  F52  1  0.08288432  0.55025182  0.16393687  1
  F  F53  1  0.08288432  0.44974818  0.33606313  1
  F  F54  1  0.41711568  0.05025182  0.83606313  1
  F  F55  1  0.41711568  0.94974818  0.66393687  1
  F  F56  1  0.91711568  0.44974818  0.83606313  1
  F  F57  1  0.91711568  0.55025182  0.66393687  1
  F  F58  1  0.58288432  0.94974818  0.16393687  1
  F  F59  1  0.58288432  0.05025182  0.33606313  1
  F  F60  1  0.21910940  0.28965124  0.11708493  1
  F  F61  1  0.21910940  0.71034876  0.38291507  1
  F  F62  1  0.28089060  0.78965124  0.88291507  1
  F  F63  1  0.28089060  0.21034876  0.61708493  1
  F  F64  1  0.78089060  0.71034876  0.88291507  1
  F  F65  1  0.78089060  0.28965124  0.61708493  1
  F  F66  1  0.71910940  0.21034876  0.11708493  1
  F  F67  1  0.71910940  0.78965124  0.38291507  1
  F  F68  1  0.50270719  0.41364611  0.06736984  1
  F  F69  1  0.50270719  0.58635389  0.43263016  1
  F  F70  1  0.99729281  0.91364611  0.93263016  1
  F  F71  1  0.99729281  0.08635389  0.56736984  1
  F  F72  1  0.49729281  0.58635389  0.93263016  1
  F  F73  1  0.49729281  0.41364611  0.56736984  1
  F  F74  1  0.00270719  0.08635389  0.06736984  1
  F  F75  1  0.00270719  0.91364611  0.43263016  1
  F  F76  1  0.63016582  0.42445323  0.19995582  1
  F  F77  1  0.63016582  0.57554677  0.30004418  1
  F  F78  1  0.86983418  0.92445323  0.80004418  1
  F  F79  1  0.86983418  0.07554677  0.69995582  1
  F  F80  1  0.36983418  0.57554677  0.80004418  1
  F  F81  1  0.36983418  0.42445323  0.69995582  1
  F  F82  1  0.13016582  0.07554677  0.19995582  1
  F  F83  1  0.13016582  0.92445323  0.30004418  1
  F  F84  1  0.49593791  0.72599581  0.12655652  1
  F  F85  1  0.49593791  0.27400419  0.37344348  1
  F  F86  1  0.00406209  0.22599581  0.87344348  1
  F  F87  1  0.00406209  0.77400419  0.62655652  1
  F  F88  1  0.50406209  0.27400419  0.87344348  1
  F  F89  1  0.50406209  0.72599581  0.62655652  1
  F  F90  1  0.99593791  0.77400419  0.12655652  1
  F  F91  1  0.99593791  0.22599581  0.37344348  1
  F  F92  1  0.77451344  0.62242212  0.15092695  1
  F  F93  1  0.77451344  0.37757788  0.34907305  1
  F  F94  1  0.72548656  0.12242212  0.84907305  1
  F  F95  1  0.72548656  0.87757788  0.65092695  1
  F  F96  1  0.22548656  0.37757788  0.84907305  1
  F  F97  1  0.22548656  0.62242212  0.65092695  1
  F  F98  1  0.27451344  0.87757788  0.15092695  1
  F  F99  1  0.27451344  0.12242212  0.34907305  1
  F  F100  1  0.58038975  0.23111716  0.98828042  1
  F  F101  1  0.58038975  0.76888284  0.51171958  1
  F  F102  1  0.91961025  0.73111716  0.01171958  1
  F  F103  1  0.91961025  0.26888284  0.48828042  1
  F  F104  1  0.41961025  0.76888284  0.01171958  1
  F  F105  1  0.41961025  0.23111716  0.48828042  1
  F  F106  1  0.08038975  0.26888284  0.98828042  1
  F  F107  1  0.08038975  0.73111716  0.51171958  1
  Lu  Lu108  1  0.67485061  0.00000000  0.25000000  1
  Lu  Lu109  1  0.82514939  0.50000000  0.75000000  1
  Lu  Lu110  1  0.32514939  0.00000000  0.75000000  1
  Lu  Lu111  1  0.17485061  0.50000000  0.25000000  1
  Lu  Lu112  1  0.46044365  0.09258588  0.41649393  1
  Lu  Lu113  1  0.46044365  0.90741412  0.08350607  1
  Lu  Lu114  1  0.03955635  0.59258588  0.58350607  1
  Lu  Lu115  1  0.03955635  0.40741412  0.91649393  1
  Lu  Lu116  1  0.53955635  0.90741412  0.58350607  1
  Lu  Lu117  1  0.53955635  0.09258588  0.91649393  1
  Lu  Lu118  1  0.96044365  0.40741412  0.41649393  1
  Lu  Lu119  1  0.96044365  0.59258588  0.08350607  1
  Au  Au120  1  0.84015727  0.89006390  0.99136696  1
  Au  Au121  1  0.84015727  0.10993610  0.50863304  1
  Au  Au122  1  0.65984273  0.39006390  0.00863304  1
  Au  Au123  1  0.65984273  0.60993610  0.49136696  1
  Au  Au124  1  0.15984273  0.10993610  0.00863304  1
  Au  Au125  1  0.15984273  0.89006390  0.49136696  1
  Au  Au126  1  0.34015727  0.60993610  0.99136696  1
  Au  Au127  1  0.34015727  0.39006390  0.50863304  1
  Au  Au128  1  0.56693392  0.57518029  0.16448338  1
  Au  Au129  1  0.56693392  0.42481971  0.33551662  1
  Au  Au130  1  0.93306608  0.07518029  0.83551662  1
  Au  Au131  1  0.93306608  0.92481971  0.66448338  1
  Au  Au132  1  0.43306608  0.42481971  0.83551662  1
  Au  Au133  1  0.43306608  0.57518029  0.66448338  1
  Au  Au134  1  0.06693392  0.92481971  0.16448338  1
  Au  Au135  1  0.06693392  0.07518029  0.33551662  1
  Au  Au136  1  0.86013876  0.71500036  0.32886986  1
  Au  Au137  1  0.86013876  0.28499964  0.17113014  1
  Au  Au138  1  0.63986124  0.21500036  0.67113014  1
  Au  Au139  1  0.63986124  0.78499964  0.82886986  1
  Au  Au140  1  0.13986124  0.28499964  0.67113014  1
  Au  Au141  1  0.13986124  0.71500036  0.82886986  1
  Au  Au142  1  0.36013876  0.78499964  0.32886986  1
  Au  Au143  1  0.36013876  0.21500036  0.17113014  1
