# generated using pymatgen
data_Ba3Er4O9
_symmetry_space_group_name_H-M   'P 1'
_cell_length_a   9.16862361
_cell_length_b   9.16862361
_cell_length_c   9.16862361
_cell_angle_alpha   38.88120097
_cell_angle_beta   38.88120094
_cell_angle_gamma   38.88120092
_symmetry_Int_Tables_number   1
_chemical_formula_structural   Ba3Er4O9
_chemical_formula_sum   'Ba3 Er4 O9'
_cell_volume   273.05025783
_cell_formula_units_Z   1
loop_
 _symmetry_equiv_pos_site_id
 _symmetry_equiv_pos_as_xyz
  1  'x, y, z'
loop_
 _atom_site_type_symbol
 _atom_site_label
 _atom_site_symmetry_multiplicity
 _atom_site_fract_x
 _atom_site_fract_y
 _atom_site_fract_z
 _atom_site_occupancy
  O  O0  1  0.46232067  0.57805726  0.04236741  1
  O  O1  1  0.57805726  0.04236741  0.46232067  1
  O  O2  1  0.04236741  0.46232067  0.57805726  1
  O  O3  1  0.59689872  0.69489203  0.12769790  1
  O  O4  1  0.69489203  0.12769790  0.59689872  1
  O  O5  1  0.12769790  0.59689872  0.69489203  1
  O  O6  1  0.02681990  0.58169647  0.14004466  1
  O  O7  1  0.14004466  0.02681990  0.58169647  1
  O  O8  1  0.58169647  0.14004466  0.02681990  1
  Ba  Ba9  1  0.00014838  0.00014838  0.00014838  1
  Ba  Ba10  1  0.16517964  0.16517964  0.16517964  1
  Ba  Ba11  1  0.57844693  0.57844693  0.57844693  1
  Er  Er12  1  0.42617850  0.42617850  0.42617850  1
  Er  Er13  1  0.86483622  0.86483622  0.86483622  1
  Er  Er14  1  0.73937788  0.73937788  0.73937788  1
  Er  Er15  1  0.30123743  0.30123743  0.30123743  1
