# generated using pymatgen
data_TaTe5Pt
_symmetry_space_group_name_H-M   'P 1'
_cell_length_a   3.78293182
_cell_length_b   7.45494305
_cell_length_c   15.67169074
_cell_angle_alpha   90.00000000
_cell_angle_beta   90.00000000
_cell_angle_gamma   104.69773458
_symmetry_Int_Tables_number   1
_chemical_formula_structural   TaTe5Pt
_chemical_formula_sum   'Ta2 Te10 Pt2'
_cell_volume   427.50373227
_cell_formula_units_Z   2
loop_
 _symmetry_equiv_pos_site_id
 _symmetry_equiv_pos_as_xyz
  1  'x, y, z'
loop_
 _atom_site_type_symbol
 _atom_site_label
 _atom_site_symmetry_multiplicity
 _atom_site_fract_x
 _atom_site_fract_y
 _atom_site_fract_z
 _atom_site_occupancy
  Te  Te0  1  0.84333140  0.68666280  0.75000000  1
  Te  Te1  1  0.15666860  0.31333720  0.25000000  1
  Te  Te2  1  0.60012275  0.20024551  0.08362597  1
  Te  Te3  1  0.39987725  0.79975449  0.91637403  1
  Te  Te4  1  0.09666826  0.19333653  0.85083519  1
  Te  Te5  1  0.90333174  0.80666347  0.14916481  1
  Te  Te6  1  0.90333174  0.80666347  0.35083519  1
  Te  Te7  1  0.09666826  0.19333653  0.64916481  1
  Te  Te8  1  0.60012275  0.20024551  0.41637403  1
  Te  Te9  1  0.39987725  0.79975449  0.58362597  1
  Ta  Ta10  1  0.49338162  0.98676323  0.75000000  1
  Ta  Ta11  1  0.50661838  0.01323677  0.25000000  1
  Pt  Pt12  1  0.00000000  0.00000000  0.00000000  1
  Pt  Pt13  1  0.00000000  0.00000000  0.50000000  1
