# generated using pymatgen
data_Pr4Si2Se3O7
_symmetry_space_group_name_H-M   'P 1'
_cell_length_a   11.35350962
_cell_length_b   11.35350962
_cell_length_c   11.35350962
_cell_angle_alpha   99.59358708
_cell_angle_beta   114.62457926
_cell_angle_gamma   114.62457929
_symmetry_Int_Tables_number   1
_chemical_formula_structural   Pr4Si2Se3O7
_chemical_formula_sum   'Pr16 Si8 Se12 O28'
_cell_volume   1102.12446004
_cell_formula_units_Z   4
loop_
 _symmetry_equiv_pos_site_id
 _symmetry_equiv_pos_as_xyz
  1  'x, y, z'
loop_
 _atom_site_type_symbol
 _atom_site_label
 _atom_site_symmetry_multiplicity
 _atom_site_fract_x
 _atom_site_fract_y
 _atom_site_fract_z
 _atom_site_occupancy
  O  O0  1  0.25000000  0.38960930  0.13960930  1
  O  O1  1  0.75000000  0.13960930  0.38960930  1
  O  O2  1  0.75000000  0.61039070  0.86039070  1
  O  O3  1  0.25000000  0.86039070  0.61039070  1
  O  O4  1  0.02496297  0.83036305  0.35532602  1
  O  O5  1  0.47503703  0.83036305  0.80540009  1
  O  O6  1  0.47503703  0.64467398  0.16963695  1
  O  O7  1  0.97503703  0.80540009  0.83036305  1
  O  O8  1  0.52496297  0.35532602  0.83036305  1
  O  O9  1  0.52496297  0.16963695  0.19459991  1
  O  O10  1  0.97503703  0.16963695  0.64467398  1
  O  O11  1  0.02496297  0.19459991  0.16963695  1
  O  O12  1  0.77292913  0.92392114  0.43213754  1
  O  O13  1  0.72707087  0.15920840  0.15099200  1
  O  O14  1  0.72707087  0.56786246  0.07607886  1
  O  O15  1  0.99178360  0.15099200  0.92392114  1
  O  O16  1  0.50821640  0.43213754  0.15920840  1
  O  O17  1  0.50821640  0.07607886  0.84900800  1
  O  O18  1  0.99178360  0.84079160  0.56786246  1
  O  O19  1  0.77292913  0.84900800  0.84079160  1
  O  O20  1  0.22707087  0.07607886  0.56786246  1
  O  O21  1  0.27292913  0.84079160  0.84900800  1
  O  O22  1  0.27292913  0.43213754  0.92392114  1
  O  O23  1  0.00821640  0.84900800  0.07607886  1
  O  O24  1  0.49178360  0.56786246  0.84079160  1
  O  O25  1  0.49178360  0.92392114  0.15099200  1
  O  O26  1  0.00821640  0.15920840  0.43213754  1
  O  O27  1  0.22707087  0.15099200  0.15920840  1
  Si  Si28  1  0.37380484  0.90610101  0.77990585  1
  Si  Si29  1  0.12619516  0.90610101  0.53229617  1
  Si  Si30  1  0.12619516  0.22009415  0.09389899  1
  Si  Si31  1  0.62619516  0.53229617  0.90610101  1
  Si  Si32  1  0.87380484  0.77990585  0.90610101  1
  Si  Si33  1  0.87380484  0.09389899  0.46770383  1
  Si  Si34  1  0.62619516  0.09389899  0.22009415  1
  Si  Si35  1  0.37380484  0.46770383  0.09389899  1
  Se  Se36  1  0.25000000  0.12500000  0.87500000  1
  Se  Se37  1  0.75000000  0.87500000  0.12500000  1
  Se  Se38  1  0.75000000  0.37500000  0.62500000  1
  Se  Se39  1  0.25000000  0.62500000  0.37500000  1
  Se  Se40  1  0.85365427  0.50000000  0.35365427  1
  Se  Se41  1  0.85365427  0.35365427  0.00000000  1
  Se  Se42  1  0.64634573  0.64634573  0.50000000  1
  Se  Se43  1  0.64634573  0.00000000  0.64634573  1
  Se  Se44  1  0.14634573  0.50000000  0.64634573  1
  Se  Se45  1  0.14634573  0.64634573  0.00000000  1
  Se  Se46  1  0.35365427  0.35365427  0.50000000  1
  Se  Se47  1  0.35365427  0.00000000  0.35365427  1
  Pr  Pr48  1  0.09474031  0.04737015  0.29737015  1
  Pr  Pr49  1  0.25000000  0.29737015  0.70262985  1
  Pr  Pr50  1  0.25000000  0.95262985  0.04737015  1
  Pr  Pr51  1  0.40525969  0.70262985  0.95262985  1
  Pr  Pr52  1  0.90525969  0.95262985  0.70262985  1
  Pr  Pr53  1  0.75000000  0.70262985  0.29737015  1
  Pr  Pr54  1  0.75000000  0.04737015  0.95262985  1
  Pr  Pr55  1  0.59474031  0.29737015  0.04737015  1
  Pr  Pr56  1  0.01023602  0.66577787  0.17601389  1
  Pr  Pr57  1  0.48976398  0.66577787  0.65554185  1
  Pr  Pr58  1  0.48976398  0.82398611  0.33422213  1
  Pr  Pr59  1  0.98976398  0.65554185  0.66577787  1
  Pr  Pr60  1  0.51023602  0.17601389  0.66577787  1
  Pr  Pr61  1  0.51023602  0.33422213  0.34445815  1
  Pr  Pr62  1  0.98976398  0.33422213  0.82398611  1
  Pr  Pr63  1  0.01023602  0.34445815  0.33422213  1
