# generated using pymatgen
data_Nd4Si2S3O7
_symmetry_space_group_name_H-M   'P 1'
_cell_length_a   11.09115524
_cell_length_b   11.09115524
_cell_length_c   11.09115525
_cell_angle_alpha   100.25725775
_cell_angle_beta   114.26552578
_cell_angle_gamma   114.26552578
_symmetry_Int_Tables_number   1
_chemical_formula_structural   Nd4Si2S3O7
_chemical_formula_sum   'Nd16 Si8 S12 O28'
_cell_volume   1030.39484880
_cell_formula_units_Z   4
loop_
 _symmetry_equiv_pos_site_id
 _symmetry_equiv_pos_as_xyz
  1  'x, y, z'
loop_
 _atom_site_type_symbol
 _atom_site_label
 _atom_site_symmetry_multiplicity
 _atom_site_fract_x
 _atom_site_fract_y
 _atom_site_fract_z
 _atom_site_occupancy
  O  O0  1  0.25000000  0.39645072  0.14645072  1
  O  O1  1  0.75000000  0.14645072  0.39645072  1
  O  O2  1  0.75000000  0.60354928  0.85354928  1
  O  O3  1  0.25000000  0.85354928  0.60354928  1
  O  O4  1  0.02263314  0.82534658  0.34797972  1
  O  O5  1  0.47736686  0.82534658  0.80271344  1
  O  O6  1  0.47736686  0.65202028  0.17465342  1
  O  O7  1  0.97736686  0.80271344  0.82534658  1
  O  O8  1  0.52263314  0.34797972  0.82534658  1
  O  O9  1  0.52263314  0.17465342  0.19728656  1
  O  O10  1  0.97736686  0.17465342  0.65202028  1
  O  O11  1  0.02263314  0.19728656  0.17465342  1
  O  O12  1  0.77131906  0.92407854  0.43416331  1
  O  O13  1  0.72868094  0.16284425  0.15275948  1
  O  O14  1  0.72868094  0.56583669  0.07592146  1
  O  O15  1  0.98991523  0.15275948  0.92407854  1
  O  O16  1  0.51008477  0.43416331  0.16284425  1
  O  O17  1  0.51008477  0.07592146  0.84724052  1
  O  O18  1  0.98991523  0.83715575  0.56583669  1
  O  O19  1  0.77131906  0.84724052  0.83715575  1
  O  O20  1  0.22868094  0.07592146  0.56583669  1
  O  O21  1  0.27131906  0.83715575  0.84724052  1
  O  O22  1  0.27131906  0.43416331  0.92407854  1
  O  O23  1  0.01008477  0.84724052  0.07592146  1
  O  O24  1  0.48991523  0.56583669  0.83715575  1
  O  O25  1  0.48991523  0.92407854  0.15275948  1
  O  O26  1  0.01008477  0.16284425  0.43416331  1
  O  O27  1  0.22868094  0.15275948  0.16284425  1
  Si  Si28  1  0.37424191  0.90250509  0.77674700  1
  Si  Si29  1  0.12575809  0.90250509  0.52826319  1
  Si  Si30  1  0.12575809  0.22325300  0.09749491  1
  Si  Si31  1  0.62575809  0.52826319  0.90250509  1
  Si  Si32  1  0.87424191  0.77674700  0.90250509  1
  Si  Si33  1  0.87424191  0.09749491  0.47173681  1
  Si  Si34  1  0.62575809  0.09749491  0.22325300  1
  Si  Si35  1  0.37424191  0.47173681  0.09749491  1
  S  S36  1  0.25000000  0.12500000  0.87500000  1
  S  S37  1  0.75000000  0.87500000  0.12500000  1
  S  S38  1  0.75000000  0.37500000  0.62500000  1
  S  S39  1  0.25000000  0.62500000  0.37500000  1
  S  S40  1  0.85143378  0.50000000  0.35143378  1
  S  S41  1  0.85143378  0.35143378  0.00000000  1
  S  S42  1  0.64856622  0.64856622  0.50000000  1
  S  S43  1  0.64856622  0.00000000  0.64856622  1
  S  S44  1  0.14856622  0.50000000  0.64856622  1
  S  S45  1  0.14856622  0.64856622  0.00000000  1
  S  S46  1  0.35143378  0.35143378  0.50000000  1
  S  S47  1  0.35143378  0.00000000  0.35143378  1
  Nd  Nd48  1  0.09295429  0.04647714  0.29647714  1
  Nd  Nd49  1  0.25000000  0.29647714  0.70352286  1
  Nd  Nd50  1  0.25000000  0.95352286  0.04647714  1
  Nd  Nd51  1  0.40704571  0.70352286  0.95352286  1
  Nd  Nd52  1  0.90704571  0.95352286  0.70352286  1
  Nd  Nd53  1  0.75000000  0.70352286  0.29647714  1
  Nd  Nd54  1  0.75000000  0.04647714  0.95352286  1
  Nd  Nd55  1  0.59295429  0.29647714  0.04647714  1
  Nd  Nd56  1  0.01324844  0.65689009  0.17013853  1
  Nd  Nd57  1  0.48675156  0.65689009  0.64364165  1
  Nd  Nd58  1  0.48675156  0.82986147  0.34310991  1
  Nd  Nd59  1  0.98675156  0.64364165  0.65689009  1
  Nd  Nd60  1  0.51324844  0.17013853  0.65689009  1
  Nd  Nd61  1  0.51324844  0.34310991  0.35635835  1
  Nd  Nd62  1  0.98675156  0.34310991  0.82986147  1
  Nd  Nd63  1  0.01324844  0.35635835  0.34310991  1
