# generated using pymatgen
data_Yb2Zr8O19
_symmetry_space_group_name_H-M   'P 1'
_cell_length_a   3.65512900
_cell_length_b   36.61987618
_cell_length_c   34.93911975
_cell_angle_alpha   5.20680197
_cell_angle_beta   58.36980545
_cell_angle_gamma   59.97568795
_symmetry_Int_Tables_number   1
_chemical_formula_structural   Yb2Zr8O19
_chemical_formula_sum   'Yb2 Zr8 O19'
_cell_volume   346.53917474
_cell_formula_units_Z   1
loop_
 _symmetry_equiv_pos_site_id
 _symmetry_equiv_pos_as_xyz
  1  'x, y, z'
loop_
 _atom_site_type_symbol
 _atom_site_label
 _atom_site_symmetry_multiplicity
 _atom_site_fract_x
 _atom_site_fract_y
 _atom_site_fract_z
 _atom_site_occupancy
  Yb  Yb0  1  0.01405477  0.81657655  0.98041447  1
  Yb  Yb1  1  0.98540225  0.88017695  0.02419164  1
  Zr  Zr2  1  0.01006827  0.00158221  0.99764827  1
  Zr  Zr3  1  0.00148060  0.10397861  0.99586570  1
  Zr  Zr4  1  0.00053570  0.20394494  0.99589841  1
  Zr  Zr5  1  0.00314227  0.30055672  -0.00062094  1
  Zr  Zr6  1  0.00583799  0.40027520  -0.00004547  1
  Zr  Zr7  1  0.00162354  0.49677637  0.00360142  1
  Zr  Zr8  1  0.00056489  0.59340877  0.00703947  1
  Zr  Zr9  1  0.99285581  0.69613566  0.00533141  1
  O  O10  1  0.24163271  0.99673559  0.25462071  1
  O  O11  1  0.25699573  0.10298510  0.24647111  1
  O  O12  1  0.25646383  0.20054823  0.24940011  1
  O  O13  1  0.25852282  0.30014340  0.24875938  1
  O  O14  1  0.25536697  0.40007257  0.24881540  1
  O  O15  1  0.27610905  0.52501861  0.21955543  1
  O  O16  1  0.75678664  0.00793958  0.74050363  1
  O  O17  1  0.75530350  0.10346424  0.74717580  1
  O  O18  1  0.22704987  0.67479965  0.28107257  1
  O  O19  1  0.74325295  0.18717207  0.76540973  1
  O  O20  1  0.24145301  0.79328743  0.25903327  1
  O  O21  1  0.74204390  0.29411848  0.75798652  1
  O  O22  1  0.24955467  0.90135472  0.24875589  1
  O  O23  1  0.74052181  0.39434398  0.75754236  1
  O  O24  1  0.75222553  0.50462770  0.74482990  1
  O  O25  1  0.75270399  0.59876451  0.75186035  1
  O  O26  1  0.75917681  0.70344260  0.74597223  1
  O  O27  1  0.75547928  0.79931157  0.75007379  1
  O  O28  1  0.76272185  0.90585600  0.74147643  1
