# generated using pymatgen
data_Rb3AlO3
_symmetry_space_group_name_H-M   'P 1'
_cell_length_a   6.88580247
_cell_length_b   6.88580247
_cell_length_c   6.89648634
_cell_angle_alpha   97.54332105
_cell_angle_beta   97.54332106
_cell_angle_gamma   115.61289578
_symmetry_Int_Tables_number   1
_chemical_formula_structural   Rb3AlO3
_chemical_formula_sum   'Rb6 Al2 O6'
_cell_volume   285.76927149
_cell_formula_units_Z   2
loop_
 _symmetry_equiv_pos_site_id
 _symmetry_equiv_pos_as_xyz
  1  'x, y, z'
loop_
 _atom_site_type_symbol
 _atom_site_label
 _atom_site_symmetry_multiplicity
 _atom_site_fract_x
 _atom_site_fract_y
 _atom_site_fract_z
 _atom_site_occupancy
  O  O0  1  0.85312956  0.60189658  0.73831539  1
  O  O1  1  0.39810342  0.14687044  0.26168461  1
  O  O2  1  0.14687044  0.39810342  0.26168461  1
  O  O3  1  0.60189658  0.85312956  0.73831539  1
  O  O4  1  0.89990803  0.89990803  0.13100214  1
  O  O5  1  0.10009197  0.10009197  0.86899786  1
  Al  Al6  1  0.84443059  0.84443059  0.85350339  1
  Al  Al7  1  0.15556941  0.15556941  0.14649661  1
  Rb  Rb8  1  0.37061599  0.37061599  0.65408829  1
  Rb  Rb9  1  0.62938401  0.62938401  0.34591171  1
  Rb  Rb10  1  0.20027621  0.79972379  0.50000000  1
  Rb  Rb11  1  0.79972379  0.20027621  0.50000000  1
  Rb  Rb12  1  0.26520845  0.73479155  0.00000000  1
  Rb  Rb13  1  0.73479155  0.26520845  0.00000000  1
