# generated using pymatgen
data_SrCuP2O7
_symmetry_space_group_name_H-M   'P 1'
_cell_length_a   5.50011125
_cell_length_b   8.20893955
_cell_length_c   12.59811751
_cell_angle_alpha   90.00000000
_cell_angle_beta   90.97411744
_cell_angle_gamma   90.00000000
_symmetry_Int_Tables_number   1
_chemical_formula_structural   SrCuP2O7
_chemical_formula_sum   'Sr4 Cu4 P8 O28'
_cell_volume   568.72381755
_cell_formula_units_Z   4
loop_
 _symmetry_equiv_pos_site_id
 _symmetry_equiv_pos_as_xyz
  1  'x, y, z'
loop_
 _atom_site_type_symbol
 _atom_site_label
 _atom_site_symmetry_multiplicity
 _atom_site_fract_x
 _atom_site_fract_y
 _atom_site_fract_z
 _atom_site_occupancy
  O  O0  1  0.82971946  0.13974503  0.34874783  1
  O  O1  1  0.67028054  0.63974503  0.15125217  1
  O  O2  1  0.17028054  0.86025497  0.65125217  1
  O  O3  1  0.32971946  0.36025497  0.84874783  1
  O  O4  1  0.48097211  0.94169820  0.30235217  1
  O  O5  1  0.01902789  0.44169820  0.19764783  1
  O  O6  1  0.51902789  0.05830180  0.69764783  1
  O  O7  1  0.98097211  0.55830180  0.80235217  1
  O  O8  1  0.92742571  0.87574038  0.26530999  1
  O  O9  1  0.57257429  0.37574038  0.23469001  1
  O  O10  1  0.07257429  0.12425962  0.73469001  1
  O  O11  1  0.42742571  0.62425962  0.76530999  1
  O  O12  1  0.77255853  0.88341651  0.45520527  1
  O  O13  1  0.72744147  0.38341651  0.04479473  1
  O  O14  1  0.22744147  0.11658349  0.54479473  1
  O  O15  1  0.27255853  0.61658349  0.95520527  1
  O  O16  1  0.17566734  0.90622963  0.90264526  1
  O  O17  1  0.32433266  0.40622963  0.59735474  1
  O  O18  1  0.82433266  0.09377037  0.09735474  1
  O  O19  1  0.67566734  0.59377037  0.40264526  1
  O  O20  1  0.59594311  0.83598452  0.97658390  1
  O  O21  1  0.90405689  0.33598452  0.52341610  1
  O  O22  1  0.40405689  0.16401548  0.02341610  1
  O  O23  1  0.09594311  0.66401548  0.47658390  1
  O  O24  1  0.22095018  0.82258045  0.09895170  1
  O  O25  1  0.27904982  0.32258045  0.40104830  1
  O  O26  1  0.77904982  0.17741955  0.90104830  1
  O  O27  1  0.72095018  0.67741955  0.59895170  1
  P  P28  1  0.74389914  0.96301091  0.33860238  1
  P  P29  1  0.75610086  0.46301091  0.16139762  1
  P  P30  1  0.25610086  0.03698909  0.66139762  1
  P  P31  1  0.24389914  0.53698909  0.83860238  1
  P  P32  1  0.81862930  0.69375699  0.48781667  1
  P  P33  1  0.68137070  0.19375699  0.01218333  1
  P  P34  1  0.18137070  0.30624301  0.51218333  1
  P  P35  1  0.31862930  0.80624301  0.98781667  1
  Cu  Cu36  1  0.78689306  0.85441976  0.11268334  1
  Cu  Cu37  1  0.71310694  0.35441976  0.38731666  1
  Cu  Cu38  1  0.21310694  0.14558024  0.88731666  1
  Cu  Cu39  1  0.28689306  0.64558024  0.61268334  1
  Sr  Sr40  1  0.28910341  0.65631214  0.28132735  1
  Sr  Sr41  1  0.21089659  0.15631214  0.21867265  1
  Sr  Sr42  1  0.71089659  0.34368786  0.71867265  1
  Sr  Sr43  1  0.78910341  0.84368786  0.78132735  1
