# generated using pymatgen
data_Li16Ta2N8O
_symmetry_space_group_name_H-M   'P 1'
_cell_length_a   9.19911640
_cell_length_b   9.19911639
_cell_length_c   9.19911640
_cell_angle_alpha   38.06644394
_cell_angle_beta   38.06644392
_cell_angle_gamma   38.06644387
_symmetry_Int_Tables_number   1
_chemical_formula_structural   Li16Ta2N8O
_chemical_formula_sum   'Li16 Ta2 N8 O1'
_cell_volume   265.68541504
_cell_formula_units_Z   1
loop_
 _symmetry_equiv_pos_site_id
 _symmetry_equiv_pos_as_xyz
  1  'x, y, z'
loop_
 _atom_site_type_symbol
 _atom_site_label
 _atom_site_symmetry_multiplicity
 _atom_site_fract_x
 _atom_site_fract_y
 _atom_site_fract_z
 _atom_site_occupancy
  Li  Li0  1  0.58255549  0.58255549  0.58255549  1
  Li  Li1  1  0.41744451  0.41744451  0.41744451  1
  Li  Li2  1  0.92232813  0.92232813  0.92232813  1
  Li  Li3  1  0.07767187  0.07767187  0.07767187  1
  Li  Li4  1  0.66851916  0.31753925  0.94284159  1
  Li  Li5  1  0.31753925  0.94284159  0.66851916  1
  Li  Li6  1  0.94284159  0.66851916  0.31753925  1
  Li  Li7  1  0.33148084  0.68246075  0.05715841  1
  Li  Li8  1  0.68246075  0.05715841  0.33148084  1
  Li  Li9  1  0.05715841  0.33148084  0.68246075  1
  Li  Li10  1  0.58109083  0.82595237  0.16737922  1
  Li  Li11  1  0.83262078  0.41890917  0.17404763  1
  Li  Li12  1  0.17404763  0.83262078  0.41890917  1
  Li  Li13  1  0.41890917  0.17404763  0.83262078  1
  Li  Li14  1  0.16737922  0.58109083  0.82595237  1
  Li  Li15  1  0.82595237  0.16737922  0.58109083  1
  N  N16  1  0.46517287  0.77402267  0.08706851  1
  N  N17  1  0.67378518  0.67378518  0.67378518  1
  N  N18  1  0.32621482  0.32621482  0.32621482  1
  N  N19  1  0.77402267  0.08706851  0.46517287  1
  N  N20  1  0.08706851  0.46517287  0.77402267  1
  N  N21  1  0.91293149  0.53482713  0.22597733  1
  N  N22  1  0.22597733  0.91293149  0.53482713  1
  N  N23  1  0.53482713  0.22597733  0.91293149  1
  O  O24  1  0.00000000  0.00000000  0.00000000  1
  Ta  Ta25  1  0.75068789  0.75068789  0.75068789  1
  Ta  Ta26  1  0.24931211  0.24931211  0.24931211  1
