# generated using pymatgen
data_La4Si2Se3O7
_symmetry_space_group_name_H-M   'P 1'
_cell_length_a   11.45046458
_cell_length_b   11.45046458
_cell_length_c   11.45046459
_cell_angle_alpha   99.49862220
_cell_angle_beta   114.67609921
_cell_angle_gamma   114.67609922
_symmetry_Int_Tables_number   1
_chemical_formula_structural   La4Si2Se3O7
_chemical_formula_sum   'La16 Si8 Se12 O28'
_cell_volume   1130.12421790
_cell_formula_units_Z   4
loop_
 _symmetry_equiv_pos_site_id
 _symmetry_equiv_pos_as_xyz
  1  'x, y, z'
loop_
 _atom_site_type_symbol
 _atom_site_label
 _atom_site_symmetry_multiplicity
 _atom_site_fract_x
 _atom_site_fract_y
 _atom_site_fract_z
 _atom_site_occupancy
  O  O0  1  0.52671649  0.17005591  0.19677240  1
  O  O1  1  0.97328351  0.17005591  0.64333942  1
  O  O2  1  0.97328351  0.80322760  0.82994409  1
  O  O3  1  0.47328351  0.64333942  0.17005591  1
  O  O4  1  0.02671649  0.19677240  0.17005591  1
  O  O5  1  0.02671649  0.82994409  0.35666058  1
  O  O6  1  0.47328351  0.82994409  0.80322760  1
  O  O7  1  0.52671649  0.35666058  0.82994409  1
  O  O8  1  0.25000000  0.38883697  0.13883697  1
  O  O9  1  0.75000000  0.13883697  0.38883697  1
  O  O10  1  0.75000000  0.61116303  0.86116303  1
  O  O11  1  0.25000000  0.86116303  0.61116303  1
  O  O12  1  0.27367943  0.84157490  0.84813244  1
  O  O13  1  0.22632057  0.07445301  0.56789547  1
  O  O14  1  0.22632057  0.15186756  0.15842510  1
  O  O15  1  0.49344246  0.56789547  0.84157490  1
  O  O16  1  0.72632057  0.56789547  0.07445301  1
  O  O17  1  0.27367943  0.43210453  0.92554699  1
  O  O18  1  0.99344246  0.84157490  0.56789547  1
  O  O19  1  0.99344246  0.15186756  0.92554699  1
  O  O20  1  0.50655754  0.43210453  0.15842510  1
  O  O21  1  0.77367943  0.84813244  0.84157490  1
  O  O22  1  0.77367943  0.92554699  0.43210453  1
  O  O23  1  0.72632057  0.15842510  0.15186756  1
  O  O24  1  0.00655754  0.84813244  0.07445301  1
  O  O25  1  0.00655754  0.15842510  0.43210453  1
  O  O26  1  0.49344246  0.92554699  0.15186756  1
  O  O27  1  0.50655754  0.07445301  0.84813244  1
  Si  Si28  1  0.62665249  0.09426787  0.22092037  1
  Si  Si29  1  0.87334751  0.09426787  0.46761538  1
  Si  Si30  1  0.87334751  0.77907963  0.90573213  1
  Si  Si31  1  0.37334751  0.46761538  0.09426787  1
  Si  Si32  1  0.12665249  0.22092037  0.09426787  1
  Si  Si33  1  0.12665249  0.90573213  0.53238462  1
  Si  Si34  1  0.37334751  0.90573213  0.77907963  1
  Si  Si35  1  0.62665249  0.53238462  0.90573213  1
  Se  Se36  1  0.35340929  0.00000000  0.35340929  1
  Se  Se37  1  0.35340929  0.35340929  0.50000000  1
  Se  Se38  1  0.14659071  0.64659071  0.00000000  1
  Se  Se39  1  0.14659071  0.50000000  0.64659071  1
  Se  Se40  1  0.64659071  0.00000000  0.64659071  1
  Se  Se41  1  0.64659071  0.64659071  0.50000000  1
  Se  Se42  1  0.85340929  0.35340929  0.00000000  1
  Se  Se43  1  0.85340929  0.50000000  0.35340929  1
  Se  Se44  1  0.75000000  0.37500000  0.62500000  1
  Se  Se45  1  0.25000000  0.62500000  0.37500000  1
  Se  Se46  1  0.75000000  0.87500000  0.12500000  1
  Se  Se47  1  0.25000000  0.12500000  0.87500000  1
  La  La48  1  0.25000000  0.95284548  0.04715452  1
  La  La49  1  0.25000000  0.29715452  0.70284548  1
  La  La50  1  0.09430903  0.04715452  0.29715452  1
  La  La51  1  0.40569097  0.70284548  0.95284548  1
  La  La52  1  0.90569097  0.95284548  0.70284548  1
  La  La53  1  0.75000000  0.70284548  0.29715452  1
  La  La54  1  0.75000000  0.04715452  0.95284548  1
  La  La55  1  0.59430903  0.29715452  0.04715452  1
  La  La56  1  0.98997273  0.33430567  0.82427840  1
  La  La57  1  0.51002727  0.33430567  0.34433294  1
  La  La58  1  0.51002727  0.17572160  0.66569433  1
  La  La59  1  0.01002727  0.34433294  0.33430567  1
  La  La60  1  0.48997273  0.82427840  0.33430567  1
  La  La61  1  0.48997273  0.66569433  0.65566706  1
  La  La62  1  0.01002727  0.66569433  0.17572160  1
  La  La63  1  0.98997273  0.65566706  0.66569433  1
