# generated using pymatgen
data_Sr4LaCl11
_symmetry_space_group_name_H-M   'P 1'
_cell_length_a   5.02469931
_cell_length_b   50.17034438
_cell_length_c   47.85661121
_cell_angle_alpha   5.20802790
_cell_angle_beta   58.78576185
_cell_angle_gamma   60.36938334
_symmetry_Int_Tables_number   1
_chemical_formula_structural   Sr4LaCl11
_chemical_formula_sum   'Sr8 La2 Cl22'
_cell_volume   899.25274456
_cell_formula_units_Z   2
loop_
 _symmetry_equiv_pos_site_id
 _symmetry_equiv_pos_as_xyz
  1  'x, y, z'
loop_
 _atom_site_type_symbol
 _atom_site_label
 _atom_site_symmetry_multiplicity
 _atom_site_fract_x
 _atom_site_fract_y
 _atom_site_fract_z
 _atom_site_occupancy
  Sr  Sr0  1  -0.00688964  -0.00590535  0.00671792  1
  Sr  Sr1  1  -0.00216823  0.10241465  0.99752056  1
  Sr  Sr2  1  0.00133809  0.20182535  0.99780250  1
  Sr  Sr3  1  0.00110683  0.30361115  -0.00394708  1
  Sr  Sr4  1  0.00215425  0.40464480  0.99501521  1
  Sr  Sr5  1  0.00374914  0.50160443  0.99817930  1
  Sr  Sr6  1  0.00475481  0.60284964  0.99675056  1
  Sr  Sr7  1  0.00662942  0.69871286  0.00020356  1
  La  La8  1  0.96832976  0.80219528  0.00045557  1
  La  La9  1  0.03710139  0.91574015  0.98155464  1
  Cl  Cl10  1  0.25110936  0.00025387  0.24942494  1
  Cl  Cl11  1  0.25216567  0.10420834  0.24537525  1
  Cl  Cl12  1  0.25294542  0.20246493  0.24719332  1
  Cl  Cl13  1  0.25351903  0.30269133  0.24734139  1
  Cl  Cl14  1  0.25669286  0.40173774  0.24695952  1
  Cl  Cl15  1  0.26749045  0.50959472  0.23736665  1
  Cl  Cl16  1  0.77022735  0.00690611  0.73962397  1
  Cl  Cl17  1  0.49652657  0.26996433  0.53317478  1
  Cl  Cl18  1  0.23751381  0.59326618  0.25655670  1
  Cl  Cl19  1  0.76073718  0.10129613  0.74856351  1
  Cl  Cl20  1  0.49704097  0.41096046  0.48567003  1
  Cl  Cl21  1  0.23015632  0.68496228  0.26816091  1
  Cl  Cl22  1  0.72995580  0.18251015  0.77048525  1
  Cl  Cl23  1  0.24597732  0.79629507  0.25447958  1
  Cl  Cl24  1  0.74571681  0.29767501  0.75294142  1
  Cl  Cl25  1  0.25085778  0.90598999  0.24355395  1
  Cl  Cl26  1  0.74997312  0.40399296  0.74568740  1
  Cl  Cl27  1  0.75401071  0.50224296  0.74722690  1
  Cl  Cl28  1  0.75237940  0.60349634  0.74621353  1
  Cl  Cl29  1  0.75353530  0.69960051  0.75029515  1
  Cl  Cl30  1  0.75527985  0.80506999  0.74454311  1
  Cl  Cl31  1  0.75384009  0.90107363  0.74814501  1
