# generated using pymatgen
data_La2Ta3(SO4)2
_symmetry_space_group_name_H-M   'P 1'
_cell_length_a   7.70039102
_cell_length_b   9.96495187
_cell_length_c   11.89782852
_cell_angle_alpha   90.00000000
_cell_angle_beta   90.00000000
_cell_angle_gamma   90.00000000
_symmetry_Int_Tables_number   1
_chemical_formula_structural   La2Ta3(SO4)2
_chemical_formula_sum   'La8 Ta12 S8 O32'
_cell_volume   912.96828174
_cell_formula_units_Z   4
loop_
 _symmetry_equiv_pos_site_id
 _symmetry_equiv_pos_as_xyz
  1  'x, y, z'
loop_
 _atom_site_type_symbol
 _atom_site_label
 _atom_site_symmetry_multiplicity
 _atom_site_fract_x
 _atom_site_fract_y
 _atom_site_fract_z
 _atom_site_occupancy
  O  O0  1  0.50000000  0.36600394  0.05364339  1
  O  O1  1  0.50000000  0.63399606  0.94635661  1
  O  O2  1  0.00000000  0.86600394  0.44635661  1
  O  O3  1  0.00000000  0.13399606  0.55364339  1
  O  O4  1  0.50000000  0.15104215  0.54922532  1
  O  O5  1  0.50000000  0.84895785  0.45077468  1
  O  O6  1  0.00000000  0.65104215  0.95077468  1
  O  O7  1  0.00000000  0.34895785  0.04922532  1
  O  O8  1  0.74996688  0.78689789  0.27660070  1
  O  O9  1  0.74996688  0.21310211  0.72339930  1
  O  O10  1  0.75003312  0.28689789  0.22339930  1
  O  O11  1  0.75003312  0.71310211  0.77660070  1
  O  O12  1  0.25003312  0.21310211  0.72339930  1
  O  O13  1  0.25003312  0.78689789  0.27660070  1
  O  O14  1  0.26543265  0.19697812  0.97503253  1
  O  O15  1  0.24996688  0.71310211  0.77660070  1
  O  O16  1  0.75552493  0.55617942  0.10304727  1
  O  O17  1  0.75552493  0.44382058  0.89695273  1
  O  O18  1  0.74447507  0.05617942  0.39695273  1
  O  O19  1  0.74447507  0.94382058  0.60304727  1
  O  O20  1  0.24447507  0.44382058  0.89695273  1
  O  O21  1  0.24447507  0.55617942  0.10304727  1
  O  O22  1  0.25552493  0.94382058  0.60304727  1
  O  O23  1  0.25552493  0.05617942  0.39695273  1
  O  O24  1  0.73456735  0.80302188  0.02496747  1
  O  O25  1  0.73456735  0.19697812  0.97503253  1
  O  O26  1  0.76543265  0.30302188  0.47503253  1
  O  O27  1  0.76543265  0.69697812  0.52496747  1
  O  O28  1  0.23456735  0.30302188  0.47503253  1
  O  O29  1  0.23456735  0.69697812  0.52496747  1
  O  O30  1  0.26543265  0.80302188  0.02496747  1
  O  O31  1  0.24996688  0.28689789  0.22339930  1
  S  S32  1  0.50000000  0.98211767  0.84685278  1
  S  S33  1  0.50000000  0.01788233  0.15314722  1
  S  S34  1  0.00000000  0.48211767  0.65314722  1
  S  S35  1  0.00000000  0.51788233  0.34685278  1
  S  S36  1  0.50000000  0.48108940  0.63220091  1
  S  S37  1  0.50000000  0.51891060  0.36779909  1
  S  S38  1  0.00000000  0.98108940  0.86779909  1
  S  S39  1  0.00000000  0.01891060  0.13220091  1
  La  La40  1  0.00000000  0.79305626  0.66444219  1
  La  La41  1  0.50000000  0.70694374  0.16444219  1
  La  La42  1  0.50000000  0.29305626  0.83555781  1
  La  La43  1  0.00000000  0.72990800  0.15473324  1
  La  La44  1  0.00000000  0.27009200  0.84526676  1
  La  La45  1  0.50000000  0.22990800  0.34526676  1
  La  La46  1  0.00000000  0.20694374  0.33555781  1
  La  La47  1  0.50000000  0.77009200  0.65473324  1
  Ta  Ta48  1  0.25020393  0.13638918  0.58086815  1
  Ta  Ta49  1  0.25020393  0.86361082  0.41913185  1
  Ta  Ta50  1  0.24979607  0.63638918  0.91913185  1
  Ta  Ta51  1  0.24979607  0.36361082  0.08086815  1
  Ta  Ta52  1  0.75020393  0.63638918  0.91913185  1
  Ta  Ta53  1  0.74979607  0.13638918  0.58086815  1
  Ta  Ta54  1  0.74979607  0.86361082  0.41913185  1
  Ta  Ta55  1  0.28640888  0.00000000  0.00000000  1
  Ta  Ta56  1  0.21359112  0.50000000  0.50000000  1
  Ta  Ta57  1  0.71359112  0.00000000  0.00000000  1
  Ta  Ta58  1  0.78640888  0.50000000  0.50000000  1
  Ta  Ta59  1  0.75020393  0.36361082  0.08086815  1
