# generated using pymatgen
data_Pr3TaO7
_symmetry_space_group_name_H-M   'P 1'
_cell_length_a   6.73269226
_cell_length_b   6.73269227
_cell_length_c   7.76880821
_cell_angle_alpha   90.00000000
_cell_angle_beta   90.00000000
_cell_angle_gamma   111.08223955
_symmetry_Int_Tables_number   1
_chemical_formula_structural   Pr3TaO7
_chemical_formula_sum   'Pr6 Ta2 O14'
_cell_volume   328.58207345
_cell_formula_units_Z   2
loop_
 _symmetry_equiv_pos_site_id
 _symmetry_equiv_pos_as_xyz
  1  'x, y, z'
loop_
 _atom_site_type_symbol
 _atom_site_label
 _atom_site_symmetry_multiplicity
 _atom_site_fract_x
 _atom_site_fract_y
 _atom_site_fract_z
 _atom_site_occupancy
  O  O0  1  0.56482684  0.56482684  0.75000000  1
  O  O1  1  0.43517316  0.43517316  0.25000000  1
  O  O2  1  0.10926511  0.84690990  0.75000000  1
  O  O3  1  0.89073489  0.15309010  0.25000000  1
  O  O4  1  0.84690990  0.10926511  0.75000000  1
  O  O5  1  0.15309010  0.89073489  0.25000000  1
  O  O6  1  0.18804265  0.43927890  0.96696871  1
  O  O7  1  0.81195735  0.56072110  0.46696871  1
  O  O8  1  0.43927890  0.18804265  0.96696871  1
  O  O9  1  0.56072110  0.81195735  0.46696871  1
  O  O10  1  0.18804265  0.43927890  0.53303129  1
  O  O11  1  0.81195735  0.56072110  0.03303129  1
  O  O12  1  0.56072110  0.81195735  0.03303129  1
  O  O13  1  0.43927890  0.18804265  0.53303129  1
  Pr  Pr14  1  0.00000000  0.00000000  0.00000000  1
  Pr  Pr15  1  0.00000000  0.00000000  0.50000000  1
  Pr  Pr16  1  0.93231160  0.47885797  0.75000000  1
  Pr  Pr17  1  0.06768840  0.52114203  0.25000000  1
  Pr  Pr18  1  0.47885797  0.93231160  0.75000000  1
  Pr  Pr19  1  0.52114203  0.06768840  0.25000000  1
  Ta  Ta20  1  0.50000000  0.50000000  0.00000000  1
  Ta  Ta21  1  0.50000000  0.50000000  0.50000000  1
