# generated using pymatgen
data_BaErCuS3
_symmetry_space_group_name_H-M   'P 1'
_cell_length_a   4.00443502
_cell_length_b   7.08279052
_cell_length_c   10.17968177
_cell_angle_alpha   90.00000000
_cell_angle_beta   90.00000000
_cell_angle_gamma   106.42067861
_symmetry_Int_Tables_number   1
_chemical_formula_structural   BaErCuS3
_chemical_formula_sum   'Ba2 Er2 Cu2 S6'
_cell_volume   276.94559302
_cell_formula_units_Z   2
loop_
 _symmetry_equiv_pos_site_id
 _symmetry_equiv_pos_as_xyz
  1  'x, y, z'
loop_
 _atom_site_type_symbol
 _atom_site_label
 _atom_site_symmetry_multiplicity
 _atom_site_fract_x
 _atom_site_fract_y
 _atom_site_fract_z
 _atom_site_occupancy
  S  S0  1  0.93417274  0.86834548  0.75000000  1
  S  S1  1  0.06582726  0.13165452  0.25000000  1
  S  S2  1  0.63024802  0.26049605  0.56199167  1
  S  S3  1  0.63024802  0.26049605  0.93800833  1
  S  S4  1  0.36975198  0.73950395  0.06199167  1
  S  S5  1  0.36975198  0.73950395  0.43800833  1
  Cu  Cu6  1  0.53158238  0.06316476  0.75000000  1
  Cu  Cu7  1  0.46841762  0.93683524  0.25000000  1
  Ba  Ba8  1  0.74461443  0.48922886  0.25000000  1
  Ba  Ba9  1  0.25538557  0.51077114  0.75000000  1
  Er  Er10  1  0.00000000  0.00000000  0.50000000  1
  Er  Er11  1  0.00000000  0.00000000  0.00000000  1
