# generated using pymatgen
data_Sb2(PSe3)3
_symmetry_space_group_name_H-M   'P 1'
_cell_length_a   7.71195593
_cell_length_b   9.53240885
_cell_length_c   21.92381271
_cell_angle_alpha   90.20591758
_cell_angle_beta   90.00000000
_cell_angle_gamma   90.00000000
_symmetry_Int_Tables_number   1
_chemical_formula_structural   Sb2(PSe3)3
_chemical_formula_sum   'Sb8 P12 Se36'
_cell_volume   1611.68616882
_cell_formula_units_Z   4
loop_
 _symmetry_equiv_pos_site_id
 _symmetry_equiv_pos_as_xyz
  1  'x, y, z'
loop_
 _atom_site_type_symbol
 _atom_site_label
 _atom_site_symmetry_multiplicity
 _atom_site_fract_x
 _atom_site_fract_y
 _atom_site_fract_z
 _atom_site_occupancy
  P  P0  1  0.54685418  0.02904417  0.45211513  1
  P  P1  1  0.04685418  0.47095583  0.04788487  1
  P  P2  1  0.45314582  0.97095583  0.54788487  1
  P  P3  1  0.95314582  0.52904417  0.95211513  1
  P  P4  1  0.43731874  0.06705641  0.14546510  1
  P  P5  1  0.93731874  0.43294359  0.35453490  1
  P  P6  1  0.56268126  0.93294359  0.85453490  1
  P  P7  1  0.06268126  0.56705641  0.64546510  1
  P  P8  1  0.34649051  0.06634509  0.81512473  1
  P  P9  1  0.84649051  0.43365491  0.68487527  1
  P  P10  1  0.65350949  0.93365491  0.18487527  1
  P  P11  1  0.15350949  0.56634509  0.31512473  1
  Se  Se12  1  0.75272868  0.03935107  0.26622583  1
  Se  Se13  1  0.46462715  0.27812302  0.79831967  1
  Se  Se14  1  0.03537285  0.77812302  0.29831967  1
  Se  Se15  1  0.53537285  0.72187698  0.20168033  1
  Se  Se16  1  0.64907184  0.44517085  0.60967468  1
  Se  Se17  1  0.14907184  0.05482915  0.89032532  1
  Se  Se18  1  0.35092816  0.55482915  0.39032532  1
  Se  Se19  1  0.85092816  0.94517085  0.10967468  1
  Se  Se20  1  0.26664589  0.56640009  0.71475324  1
  Se  Se21  1  0.76664589  0.93359991  0.78524676  1
  Se  Se22  1  0.73335411  0.43359991  0.28524676  1
  Se  Se23  1  0.96462715  0.22187698  0.70168033  1
  Se  Se24  1  0.93802066  0.76931506  0.62091303  1
  Se  Se25  1  0.43802066  0.73068494  0.87908697  1
  Se  Se26  1  0.06197934  0.23068494  0.37908697  1
  Se  Se27  1  0.56197934  0.26931506  0.12091303  1
  Se  Se28  1  0.14612679  0.43549204  0.56550690  1
  Se  Se29  1  0.64612679  0.06450796  0.93449310  1
  Se  Se30  1  0.85387321  0.56450796  0.43449310  1
  Se  Se31  1  0.35387321  0.93549204  0.06550690  1
  Se  Se32  1  0.92434822  0.76255892  0.95581288  1
  Se  Se33  1  0.42434822  0.73744108  0.54418712  1
  Se  Se34  1  0.07565178  0.23744108  0.04418712  1
  Se  Se35  1  0.57565178  0.26255892  0.45581288  1
  Se  Se36  1  0.13896983  0.45978459  0.88388691  1
  Se  Se37  1  0.63896983  0.04021541  0.61611309  1
  Se  Se38  1  0.86103017  0.54021541  0.11611309  1
  Se  Se39  1  0.36103017  0.95978459  0.38388691  1
  Se  Se40  1  0.69359923  0.42419451  0.94580443  1
  Se  Se41  1  0.19359923  0.07580549  0.55419557  1
  Se  Se42  1  0.30640077  0.57580549  0.05419557  1
  Se  Se43  1  0.80640077  0.92419451  0.44580443  1
  Se  Se44  1  0.24727132  0.96064893  0.73377417  1
  Se  Se45  1  0.74727132  0.53935107  0.76622583  1
  Se  Se46  1  0.23335411  0.06640009  0.21475324  1
  Se  Se47  1  0.25272868  0.46064893  0.23377417  1
  Sb  Sb48  1  0.71706725  0.74560402  0.35440424  1
  Sb  Sb49  1  0.21706725  0.75439598  0.14559576  1
  Sb  Sb50  1  0.28293275  0.25439598  0.64559576  1
  Sb  Sb51  1  0.78293275  0.24560402  0.85440424  1
  Sb  Sb52  1  0.59407387  0.71238083  0.65340606  1
  Sb  Sb53  1  0.09407387  0.78761917  0.84659394  1
  Sb  Sb54  1  0.40592613  0.28761917  0.34659394  1
  Sb  Sb55  1  0.90592613  0.21238083  0.15340606  1
