# generated using pymatgen
data_KBS2
_symmetry_space_group_name_H-M   'P 1'
_cell_length_a   9.55678355
_cell_length_b   9.55678355
_cell_length_c   9.55678354
_cell_angle_alpha   111.15156954
_cell_angle_beta   111.15156946
_cell_angle_gamma   111.15156948
_symmetry_Int_Tables_number   1
_chemical_formula_structural   KBS2
_chemical_formula_sum   'K6 B6 S12'
_cell_volume   626.64131375
_cell_formula_units_Z   6
loop_
 _symmetry_equiv_pos_site_id
 _symmetry_equiv_pos_as_xyz
  1  'x, y, z'
loop_
 _atom_site_type_symbol
 _atom_site_label
 _atom_site_symmetry_multiplicity
 _atom_site_fract_x
 _atom_site_fract_y
 _atom_site_fract_z
 _atom_site_occupancy
  B  B0  1  0.86429881  0.75000000  0.63570119  1
  B  B1  1  0.75000000  0.63570119  0.86429881  1
  B  B2  1  0.63570119  0.86429881  0.75000000  1
  B  B3  1  0.13570119  0.25000000  0.36429881  1
  B  B4  1  0.25000000  0.36429881  0.13570119  1
  B  B5  1  0.36429881  0.13570119  0.25000000  1
  S  S6  1  0.13140988  0.36859012  0.25000000  1
  S  S7  1  0.25000000  0.13140988  0.36859012  1
  S  S8  1  0.36859012  0.25000000  0.13140988  1
  S  S9  1  0.86859012  0.63140988  0.75000000  1
  S  S10  1  0.75000000  0.86859012  0.63140988  1
  S  S11  1  0.63140988  0.75000000  0.86859012  1
  S  S12  1  0.47695542  0.02304458  0.25000000  1
  S  S13  1  0.25000000  0.47695542  0.02304458  1
  S  S14  1  0.02304458  0.25000000  0.47695542  1
  S  S15  1  0.52304458  0.97695542  0.75000000  1
  S  S16  1  0.75000000  0.52304458  0.97695542  1
  S  S17  1  0.97695542  0.75000000  0.52304458  1
  K  K18  1  0.20247705  0.75000000  0.29752295  1
  K  K19  1  0.75000000  0.29752295  0.20247705  1
  K  K20  1  0.29752295  0.20247705  0.75000000  1
  K  K21  1  0.79752295  0.25000000  0.70247705  1
  K  K22  1  0.25000000  0.70247705  0.79752295  1
  K  K23  1  0.70247705  0.79752295  0.25000000  1
