# generated using pymatgen
data_La3(GeRh)4
_symmetry_space_group_name_H-M   'P 1'
_cell_length_a   4.19233948
_cell_length_b   4.27594468
_cell_length_c   13.14083276
_cell_angle_alpha   99.36346685
_cell_angle_beta   99.17878942
_cell_angle_gamma   90.00000004
_symmetry_Int_Tables_number   1
_chemical_formula_structural   La3(GeRh)4
_chemical_formula_sum   'La3 Ge4 Rh4'
_cell_volume   229.36910579
_cell_formula_units_Z   1
loop_
 _symmetry_equiv_pos_site_id
 _symmetry_equiv_pos_as_xyz
  1  'x, y, z'
loop_
 _atom_site_type_symbol
 _atom_site_label
 _atom_site_symmetry_multiplicity
 _atom_site_fract_x
 _atom_site_fract_y
 _atom_site_fract_z
 _atom_site_occupancy
  Ge  Ge0  1  0.45082294  0.45082294  0.90164589  1
  Ge  Ge1  1  0.54917706  0.54917706  0.09835411  1
  Ge  Ge2  1  0.30178380  0.80178380  0.60356761  1
  Ge  Ge3  1  0.69821620  0.19821620  0.39643239  1
  Rh  Rh4  1  0.39987331  0.89987331  0.79974662  1
  Rh  Rh5  1  0.25008481  0.25008481  0.50016962  1
  Rh  Rh6  1  0.74991519  0.74991519  0.49983038  1
  Rh  Rh7  1  0.60012669  0.10012669  0.20025338  1
  La  La8  1  0.85540550  0.35540550  0.71081099  1
  La  La9  1  0.14459450  0.64459450  0.28918901  1
  La  La10  1  0.00000000  0.00000000  0.00000000  1
