# generated using pymatgen
data_Nd(FeSb3)4
_symmetry_space_group_name_H-M   'P 1'
_cell_length_a   7.95198373
_cell_length_b   7.95198373
_cell_length_c   7.95198373
_cell_angle_alpha   109.47122061
_cell_angle_beta   109.47122061
_cell_angle_gamma   109.47122065
_symmetry_Int_Tables_number   1
_chemical_formula_structural   Nd(FeSb3)4
_chemical_formula_sum   'Nd1 Fe4 Sb12'
_cell_volume   387.08340966
_cell_formula_units_Z   1
loop_
 _symmetry_equiv_pos_site_id
 _symmetry_equiv_pos_as_xyz
  1  'x, y, z'
loop_
 _atom_site_type_symbol
 _atom_site_label
 _atom_site_symmetry_multiplicity
 _atom_site_fract_x
 _atom_site_fract_y
 _atom_site_fract_z
 _atom_site_occupancy
  Fe  Fe0  1  0.50000000  0.50000000  0.50000000  1
  Fe  Fe1  1  0.50000000  0.00000000  0.00000000  1
  Fe  Fe2  1  0.00000000  0.50000000  0.00000000  1
  Fe  Fe3  1  0.00000000  0.00000000  0.50000000  1
  Sb  Sb4  1  0.50338013  0.83746230  0.66591784  1
  Sb  Sb5  1  0.49661987  0.16253770  0.33408216  1
  Sb  Sb6  1  0.16253770  0.66591784  0.82845554  1
  Sb  Sb7  1  0.33408216  0.17154446  0.83746230  1
  Sb  Sb8  1  0.83746230  0.66591784  0.50338013  1
  Sb  Sb9  1  0.66591784  0.82845554  0.16253770  1
  Sb  Sb10  1  0.83746230  0.33408216  0.17154446  1
  Sb  Sb11  1  0.66591784  0.50338013  0.83746230  1
  Sb  Sb12  1  0.33408216  0.49661987  0.16253770  1
  Sb  Sb13  1  0.16253770  0.33408216  0.49661987  1
  Sb  Sb14  1  0.82845554  0.16253770  0.66591784  1
  Sb  Sb15  1  0.17154446  0.83746230  0.33408216  1
  Nd  Nd16  1  0.00000000  0.00000000  0.00000000  1
