# generated using pymatgen
data_Sr2CaIrO6
_symmetry_space_group_name_H-M   'P 1'
_cell_length_a   5.80122648
_cell_length_b   5.93881703
_cell_length_c   8.26270563
_cell_angle_alpha   90.00000000
_cell_angle_beta   90.35110443
_cell_angle_gamma   90.00000000
_symmetry_Int_Tables_number   1
_chemical_formula_structural   Sr2CaIrO6
_chemical_formula_sum   'Sr4 Ca2 Ir2 O12'
_cell_volume   284.66488123
_cell_formula_units_Z   2
loop_
 _symmetry_equiv_pos_site_id
 _symmetry_equiv_pos_as_xyz
  1  'x, y, z'
loop_
 _atom_site_type_symbol
 _atom_site_label
 _atom_site_symmetry_multiplicity
 _atom_site_fract_x
 _atom_site_fract_y
 _atom_site_fract_z
 _atom_site_occupancy
  O  O0  1  0.41728033  0.02680486  0.72852190  1
  O  O1  1  0.08271967  0.52680486  0.77147810  1
  O  O2  1  0.58271967  0.97319514  0.27147810  1
  O  O3  1  0.91728033  0.47319514  0.22852190  1
  O  O4  1  0.68447266  0.72998830  0.54751383  1
  O  O5  1  0.81552734  0.22998830  0.95248617  1
  O  O6  1  0.31552734  0.27001170  0.45248617  1
  O  O7  1  0.18447266  0.77001170  0.04751383  1
  O  O8  1  0.27117133  0.31124379  0.04055054  1
  O  O9  1  0.22882867  0.81124379  0.45944946  1
  O  O10  1  0.72882867  0.68875621  0.95944946  1
  O  O11  1  0.77117133  0.18875621  0.54055054  1
  Ca  Ca12  1  0.00000000  0.50000000  0.50000000  1
  Ca  Ca13  1  0.50000000  0.00000000  0.00000000  1
  Sr  Sr14  1  0.01080952  0.04669349  0.25057537  1
  Sr  Sr15  1  0.48919048  0.54669349  0.24942463  1
  Sr  Sr16  1  0.51080952  0.45330651  0.75057537  1
  Sr  Sr17  1  0.98919048  0.95330651  0.74942463  1
  Ir  Ir18  1  0.50000000  0.00000000  0.50000000  1
  Ir  Ir19  1  0.00000000  0.50000000  0.00000000  1
