# generated using pymatgen
data_Ba3Ta5O15
_symmetry_space_group_name_H-M   'P 1'
_cell_length_a   4.01748713
_cell_length_b   12.76609361
_cell_length_c   12.76609361
_cell_angle_alpha   90.00000000
_cell_angle_beta   90.00000000
_cell_angle_gamma   90.00000000
_symmetry_Int_Tables_number   1
_chemical_formula_structural   Ba3Ta5O15
_chemical_formula_sum   'Ba6 Ta10 O30'
_cell_volume   654.74251683
_cell_formula_units_Z   2
loop_
 _symmetry_equiv_pos_site_id
 _symmetry_equiv_pos_as_xyz
  1  'x, y, z'
loop_
 _atom_site_type_symbol
 _atom_site_label
 _atom_site_symmetry_multiplicity
 _atom_site_fract_x
 _atom_site_fract_y
 _atom_site_fract_z
 _atom_site_occupancy
  O  O0  1  0.50000000  0.43152873  0.35929153  1
  O  O1  1  0.50000000  0.56847127  0.64070847  1
  O  O2  1  0.50000000  0.35929153  0.56847127  1
  O  O3  1  0.50000000  0.64070847  0.43152873  1
  O  O4  1  0.50000000  0.85929153  0.93152873  1
  O  O5  1  0.50000000  0.06847127  0.85929153  1
  O  O6  1  0.50000000  0.93152873  0.14070847  1
  O  O7  1  0.50000000  0.14070847  0.06847127  1
  O  O8  1  0.50000000  0.49370672  0.15624203  1
  O  O9  1  0.50000000  0.50629328  0.84375797  1
  O  O10  1  0.50000000  0.15624203  0.50629328  1
  O  O11  1  0.50000000  0.84375797  0.49370672  1
  O  O12  1  0.50000000  0.65624203  0.99370672  1
  O  O13  1  0.50000000  0.00629328  0.65624203  1
  O  O14  1  0.50000000  0.99370672  0.34375797  1
  O  O15  1  0.50000000  0.34375797  0.00629328  1
  O  O16  1  0.00000000  0.00000000  0.50000000  1
  O  O17  1  0.00000000  0.50000000  0.00000000  1
  O  O18  1  0.50000000  0.28192814  0.78192814  1
  O  O19  1  0.50000000  0.21807186  0.28192814  1
  O  O20  1  0.50000000  0.78192814  0.71807186  1
  O  O21  1  0.50000000  0.71807186  0.21807186  1
  O  O22  1  0.00000000  0.07768143  0.20824536  1
  O  O23  1  0.00000000  0.79175464  0.07768143  1
  O  O24  1  0.00000000  0.20824536  0.92231857  1
  O  O25  1  0.00000000  0.92231857  0.79175464  1
  O  O26  1  0.00000000  0.57768143  0.29175464  1
  O  O27  1  0.00000000  0.42231857  0.70824536  1
  O  O28  1  0.00000000  0.70824536  0.57768143  1
  O  O29  1  0.00000000  0.29175464  0.42231857  1
  Ba  Ba30  1  0.00000000  0.00000000  0.00000000  1
  Ba  Ba31  1  0.00000000  0.50000000  0.50000000  1
  Ba  Ba32  1  0.00000000  0.16876732  0.66876732  1
  Ba  Ba33  1  0.00000000  0.33123268  0.16876732  1
  Ba  Ba34  1  0.00000000  0.66876732  0.83123268  1
  Ba  Ba35  1  0.00000000  0.83123268  0.33123268  1
  Ta  Ta36  1  0.50000000  0.78717454  0.07665636  1
  Ta  Ta37  1  0.50000000  0.07665636  0.21282546  1
  Ta  Ta38  1  0.50000000  0.50000000  0.00000000  1
  Ta  Ta39  1  0.50000000  0.00000000  0.50000000  1
  Ta  Ta40  1  0.50000000  0.21282546  0.92334364  1
  Ta  Ta41  1  0.50000000  0.92334364  0.78717454  1
  Ta  Ta42  1  0.50000000  0.57665636  0.28717454  1
  Ta  Ta43  1  0.50000000  0.42334364  0.71282546  1
  Ta  Ta44  1  0.50000000  0.71282546  0.57665636  1
  Ta  Ta45  1  0.50000000  0.28717454  0.42334364  1
