# generated using pymatgen
data_Ca3HfSi2O9
_symmetry_space_group_name_H-M   'P 1'
_cell_length_a   7.42314418
_cell_length_b   10.25947471
_cell_length_c   10.50999262
_cell_angle_alpha   90.00000000
_cell_angle_beta   91.32931279
_cell_angle_gamma   90.00000000
_symmetry_Int_Tables_number   1
_chemical_formula_structural   Ca3HfSi2O9
_chemical_formula_sum   'Ca12 Hf4 Si8 O36'
_cell_volume   800.19997910
_cell_formula_units_Z   4
loop_
 _symmetry_equiv_pos_site_id
 _symmetry_equiv_pos_as_xyz
  1  'x, y, z'
loop_
 _atom_site_type_symbol
 _atom_site_label
 _atom_site_symmetry_multiplicity
 _atom_site_fract_x
 _atom_site_fract_y
 _atom_site_fract_z
 _atom_site_occupancy
  O  O0  1  0.66095918  0.60801098  0.48314091  1
  O  O1  1  0.33904082  0.10801098  0.01685909  1
  O  O2  1  0.33904082  0.39198902  0.51685909  1
  O  O3  1  0.66095918  0.89198902  0.98314091  1
  O  O4  1  0.09230098  0.88895742  0.01074565  1
  O  O5  1  0.90769902  0.38895742  0.48925435  1
  O  O6  1  0.90769902  0.11104258  0.98925435  1
  O  O7  1  0.09230098  0.61104258  0.51074565  1
  O  O8  1  0.37954090  0.83097048  0.45798301  1
  O  O9  1  0.62045910  0.33097048  0.04201699  1
  O  O10  1  0.62045910  0.16902952  0.54201699  1
  O  O11  1  0.37954090  0.66902952  0.95798301  1
  O  O12  1  0.30254054  0.99691069  0.26100990  1
  O  O13  1  0.69745946  0.49691069  0.23899010  1
  O  O14  1  0.14323037  0.11449146  0.52912323  1
  O  O15  1  0.69745946  0.00308931  0.73899010  1
  O  O16  1  0.35711377  0.76794619  0.72409512  1
  O  O17  1  0.64288623  0.26794619  0.77590488  1
  O  O18  1  0.64288623  0.23205381  0.27590488  1
  O  O19  1  0.35711377  0.73205381  0.22409512  1
  O  O20  1  0.10606898  0.23338776  0.23797024  1
  O  O21  1  0.89393102  0.73338776  0.26202976  1
  O  O22  1  0.89393102  0.76661224  0.76202976  1
  O  O23  1  0.10606898  0.26661224  0.73797024  1
  O  O24  1  0.61650907  0.60629718  0.77243207  1
  O  O25  1  0.38349093  0.10629718  0.72756793  1
  O  O26  1  0.38349093  0.39370282  0.22756793  1
  O  O27  1  0.61650907  0.89370282  0.27243207  1
  O  O28  1  0.08367375  0.99771829  0.75420984  1
  O  O29  1  0.91632625  0.49771829  0.74579016  1
  O  O30  1  0.91632625  0.00228171  0.24579016  1
  O  O31  1  0.08367375  0.50228171  0.25420984  1
  O  O32  1  0.14323037  0.38550854  0.02912323  1
  O  O33  1  0.85676963  0.88550854  0.47087677  1
  O  O34  1  0.85676963  0.61449146  0.97087677  1
  O  O35  1  0.30254054  0.50308931  0.76100990  1
  Si  Si36  1  0.40141272  0.86291447  0.30807066  1
  Si  Si37  1  0.59858728  0.36291447  0.19192934  1
  Si  Si38  1  0.59858728  0.13708553  0.69192934  1
  Si  Si39  1  0.40141272  0.63708553  0.80807066  1
  Si  Si40  1  0.83268144  0.87583285  0.31819250  1
  Si  Si41  1  0.16731856  0.37583285  0.18180750  1
  Si  Si42  1  0.16731856  0.12416715  0.68180750  1
  Si  Si43  1  0.83268144  0.62416715  0.81819250  1
  Ca  Ca44  1  0.63601170  0.07789802  0.11158758  1
  Ca  Ca45  1  0.36398830  0.57789802  0.38841242  1
  Ca  Ca46  1  0.36398830  0.92210198  0.88841242  1
  Ca  Ca47  1  0.63601170  0.42210198  0.61158758  1
  Ca  Ca48  1  0.11879532  0.67124693  0.08722613  1
  Ca  Ca49  1  0.88120468  0.17124693  0.41277387  1
  Ca  Ca50  1  0.88120468  0.32875307  0.91277387  1
  Ca  Ca51  1  0.11879532  0.82875307  0.58722613  1
  Ca  Ca52  1  0.62779448  0.69620235  0.09856005  1
  Ca  Ca53  1  0.37220552  0.19620235  0.40143995  1
  Ca  Ca54  1  0.37220552  0.30379765  0.90143995  1
  Ca  Ca55  1  0.62779448  0.80379765  0.59856005  1
  Hf  Hf56  1  0.12161175  0.43921653  0.61584982  1
  Hf  Hf57  1  0.87838825  0.93921653  0.88415018  1
  Hf  Hf58  1  0.87838825  0.56078347  0.38415018  1
  Hf  Hf59  1  0.12161175  0.06078347  0.11584982  1
