# generated using pymatgen
data_LiSnP2O7
_symmetry_space_group_name_H-M   'P 1'
_cell_length_a   13.22684567
_cell_length_b   5.18520104
_cell_length_c   8.92893645
_cell_angle_alpha   90.00000000
_cell_angle_beta   101.26931720
_cell_angle_gamma   90.00000000
_symmetry_Int_Tables_number   1
_chemical_formula_structural   LiSnP2O7
_chemical_formula_sum   'Li4 Sn4 P8 O28'
_cell_volume   600.57383364
_cell_formula_units_Z   4
loop_
 _symmetry_equiv_pos_site_id
 _symmetry_equiv_pos_as_xyz
  1  'x, y, z'
loop_
 _atom_site_type_symbol
 _atom_site_label
 _atom_site_symmetry_multiplicity
 _atom_site_fract_x
 _atom_site_fract_y
 _atom_site_fract_z
 _atom_site_occupancy
  Li  Li0  1  0.42012103  0.78213730  0.91522306  1
  Li  Li1  1  0.29813534  0.25367037  0.37560208  1
  Li  Li2  1  0.92012103  0.71786270  0.41522306  1
  Li  Li3  1  0.79813534  0.24632963  0.87560208  1
  Sn  Sn4  1  0.53048208  0.24722366  0.75893688  1
  Sn  Sn5  1  0.03048208  0.25277634  0.25893688  1
  Sn  Sn6  1  0.98161242  0.76075748  0.75617614  1
  Sn  Sn7  1  0.48161242  0.73924252  0.25617614  1
  P  P8  1  0.87493617  0.73938755  0.07097727  1
  P  P9  1  0.37493617  0.76061245  0.57097727  1
  P  P10  1  0.35117739  0.27156309  0.04017746  1
  P  P11  1  0.65182664  0.73753304  0.96318987  1
  P  P12  1  0.62076793  0.23952967  0.42981469  1
  P  P13  1  0.85117739  0.22843691  0.54017746  1
  P  P14  1  0.12076793  0.26047033  0.92981469  1
  P  P15  1  0.15182664  0.76246696  0.46318987  1
  O  O16  1  0.39113089  0.04955030  0.55526849  1
  O  O17  1  0.42298089  0.15050754  0.94610839  1
  O  O18  1  0.43663469  0.64600493  0.72024529  1
  O  O19  1  0.56223545  0.76734215  0.04741050  1
  O  O20  1  0.38993006  0.60692128  0.42645558  1
  O  O21  1  0.59124173  0.95087581  0.41626161  1
  O  O22  1  0.88993006  0.89307872  0.92645558  1
  O  O23  1  0.74084231  0.25268849  0.42432773  1
  O  O24  1  0.24084231  0.24731151  0.92432773  1
  O  O25  1  0.16099054  0.03923024  0.40342415  1
  O  O26  1  0.10840536  0.14027289  0.08125559  1
  O  O27  1  0.89113089  0.45044970  0.05526849  1
  O  O28  1  0.93663469  0.85399507  0.22024529  1
  O  O29  1  0.15098444  0.55963062  0.33702958  1
  O  O30  1  0.06762691  0.10499909  0.79005751  1
  O  O31  1  0.85168205  0.36990066  0.69118068  1
  O  O32  1  0.36818766  0.56775269  0.06528989  1
  O  O33  1  0.92298089  0.34949246  0.44610839  1
  O  O34  1  0.60840536  0.35972711  0.58125559  1
  O  O35  1  0.75638501  0.78999501  0.08852157  1
  O  O36  1  0.06223545  0.73265785  0.54741050  1
  O  O37  1  0.66099054  0.46076976  0.90342415  1
  O  O38  1  0.25638501  0.71000499  0.58852157  1
  O  O39  1  0.65098444  0.94036938  0.83702958  1
  O  O40  1  0.35168205  0.13009934  0.19118068  1
  O  O41  1  0.56762691  0.39500091  0.29005751  1
  O  O42  1  0.09124173  0.54912419  0.91626161  1
  O  O43  1  0.86818766  0.93224731  0.56528989  1
