# generated using pymatgen
data_Pr(PdO2)2
_symmetry_space_group_name_H-M   'P 1'
_cell_length_a   5.96757863
_cell_length_b   5.96757863
_cell_length_c   6.66430276
_cell_angle_alpha   116.59795386
_cell_angle_beta   116.59795381
_cell_angle_gamma   89.99999993
_symmetry_Int_Tables_number   1
_chemical_formula_structural   Pr(PdO2)2
_chemical_formula_sum   'Pr2 Pd4 O8'
_cell_volume   183.69346879
_cell_formula_units_Z   2
loop_
 _symmetry_equiv_pos_site_id
 _symmetry_equiv_pos_as_xyz
  1  'x, y, z'
loop_
 _atom_site_type_symbol
 _atom_site_label
 _atom_site_symmetry_multiplicity
 _atom_site_fract_x
 _atom_site_fract_y
 _atom_site_fract_z
 _atom_site_occupancy
  O  O0  1  0.82667789  0.62682362  0.35104832  1
  O  O1  1  0.72422470  0.32667789  0.85104832  1
  O  O2  1  0.12682362  0.02437043  0.85104832  1
  O  O3  1  0.52437043  0.22422470  0.35104832  1
  O  O4  1  0.17332211  0.37317638  0.64895168  1
  O  O5  1  0.27577530  0.67332211  0.14895168  1
  O  O6  1  0.47562957  0.77577530  0.64895168  1
  O  O7  1  0.87317638  0.97562957  0.14895168  1
  Pd  Pd8  1  0.50000000  0.00000000  0.00000000  1
  Pd  Pd9  1  0.00000000  0.00000000  0.50000000  1
  Pd  Pd10  1  0.50000000  0.00000000  0.50000000  1
  Pd  Pd11  1  0.50000000  0.50000000  0.00000000  1
  Pr  Pr12  1  0.87500000  0.62500000  0.75000000  1
  Pr  Pr13  1  0.12500000  0.37500000  0.25000000  1
