# generated using pymatgen
data_BaSmC2O6F
_symmetry_space_group_name_H-M   'P 1'
_cell_length_a   13.14754268
_cell_length_b   13.14754269
_cell_length_c   13.14754268
_cell_angle_alpha   22.22753442
_cell_angle_beta   22.22753441
_cell_angle_gamma   22.22753441
_symmetry_Int_Tables_number   1
_chemical_formula_structural   BaSmC2O6F
_chemical_formula_sum   'Ba2 Sm2 C4 O12 F2'
_cell_volume   285.17722459
_cell_formula_units_Z   2
loop_
 _symmetry_equiv_pos_site_id
 _symmetry_equiv_pos_as_xyz
  1  'x, y, z'
loop_
 _atom_site_type_symbol
 _atom_site_label
 _atom_site_symmetry_multiplicity
 _atom_site_fract_x
 _atom_site_fract_y
 _atom_site_fract_z
 _atom_site_occupancy
  C  C0  1  0.87468021  0.87468021  0.87468021  1
  C  C1  1  0.12531979  0.12531979  0.12531979  1
  C  C2  1  0.60654019  0.60654019  0.60654019  1
  C  C3  1  0.39345981  0.39345981  0.39345981  1
  O  O4  1  0.97854908  0.97854908  0.42158821  1
  O  O5  1  0.97854908  0.42158821  0.97854908  1
  O  O6  1  0.24703722  0.68888248  0.24703722  1
  O  O7  1  0.24703722  0.24703722  0.68888248  1
  O  O8  1  0.68888248  0.24703722  0.24703722  1
  O  O9  1  0.31111752  0.75296278  0.75296278  1
  O  O10  1  0.75296278  0.31111752  0.75296278  1
  O  O11  1  0.75296278  0.75296278  0.31111752  1
  O  O12  1  0.02145092  0.57841179  0.02145092  1
  O  O13  1  0.02145092  0.02145092  0.57841179  1
  O  O14  1  0.57841179  0.02145092  0.02145092  1
  O  O15  1  0.42158821  0.97854908  0.97854908  1
  F  F16  1  0.31410870  0.31410870  0.31410870  1
  F  F17  1  0.68589130  0.68589130  0.68589130  1
  Ba  Ba18  1  0.00000000  0.00000000  0.00000000  1
  Ba  Ba19  1  0.50000000  0.50000000  0.50000000  1
  Sm  Sm20  1  0.25490332  0.25490332  0.25490332  1
  Sm  Sm21  1  0.74509668  0.74509668  0.74509668  1
