# generated using pymatgen
data_Sm5Ge4
_symmetry_space_group_name_H-M   'P 1'
_cell_length_a   7.84324419
_cell_length_b   7.92852453
_cell_length_c   15.04720500
_cell_angle_alpha   90.00000000
_cell_angle_beta   90.00000000
_cell_angle_gamma   90.00000000
_symmetry_Int_Tables_number   1
_chemical_formula_structural   Sm5Ge4
_chemical_formula_sum   'Sm20 Ge16'
_cell_volume   935.71576896
_cell_formula_units_Z   4
loop_
 _symmetry_equiv_pos_site_id
 _symmetry_equiv_pos_as_xyz
  1  'x, y, z'
loop_
 _atom_site_type_symbol
 _atom_site_label
 _atom_site_symmetry_multiplicity
 _atom_site_fract_x
 _atom_site_fract_y
 _atom_site_fract_z
 _atom_site_occupancy
  Ge  Ge0  1  0.77992176  0.53297400  0.45545994  1
  Ge  Ge1  1  0.27992176  0.96702600  0.04454006  1
  Ge  Ge2  1  0.72007824  0.03297400  0.54454006  1
  Ge  Ge3  1  0.22007824  0.46702600  0.95545994  1
  Ge  Ge4  1  0.22007824  0.46702600  0.54454006  1
  Ge  Ge5  1  0.72007824  0.03297400  0.95545994  1
  Ge  Ge6  1  0.27992176  0.96702600  0.45545994  1
  Ge  Ge7  1  0.77992176  0.53297400  0.04454006  1
  Ge  Ge8  1  0.91503415  0.88754599  0.25000000  1
  Ge  Ge9  1  0.41503415  0.61245401  0.25000000  1
  Ge  Ge10  1  0.58496585  0.38754599  0.75000000  1
  Ge  Ge11  1  0.08496585  0.11245401  0.75000000  1
  Ge  Ge12  1  0.17340246  0.36532817  0.25000000  1
  Ge  Ge13  1  0.67340246  0.13467183  0.25000000  1
  Ge  Ge14  1  0.32659754  0.86532817  0.75000000  1
  Ge  Ge15  1  0.82659754  0.63467183  0.75000000  1
  Sm  Sm16  1  0.37769429  0.16029384  0.88435323  1
  Sm  Sm17  1  0.87769429  0.33970616  0.61564677  1
  Sm  Sm18  1  0.12230571  0.66029384  0.11564677  1
  Sm  Sm19  1  0.62230571  0.83970616  0.38435323  1
  Sm  Sm20  1  0.37769429  0.16029384  0.61564677  1
  Sm  Sm21  1  0.87769429  0.33970616  0.88435323  1
  Sm  Sm22  1  0.12230571  0.66029384  0.38435323  1
  Sm  Sm23  1  0.62230571  0.83970616  0.11564677  1
  Sm  Sm24  1  0.02374909  0.82173938  0.60199164  1
  Sm  Sm25  1  0.52374909  0.67826062  0.89800836  1
  Sm  Sm26  1  0.47625091  0.32173938  0.39800836  1
  Sm  Sm27  1  0.97625091  0.17826062  0.10199164  1
  Sm  Sm28  1  0.97625091  0.17826062  0.39800836  1
  Sm  Sm29  1  0.47625091  0.32173938  0.10199164  1
  Sm  Sm30  1  0.52374909  0.67826062  0.60199164  1
  Sm  Sm31  1  0.02374909  0.82173938  0.89800836  1
  Sm  Sm32  1  0.28695179  0.99757933  0.25000000  1
  Sm  Sm33  1  0.78695179  0.50242067  0.25000000  1
  Sm  Sm34  1  0.21304821  0.49757933  0.75000000  1
  Sm  Sm35  1  0.71304821  0.00242067  0.75000000  1
