# generated using pymatgen
data_GdSnF7
_symmetry_space_group_name_H-M   'P 1'
_cell_length_a   5.72789679
_cell_length_b   9.11161669
_cell_length_c   11.37882985
_cell_angle_alpha   107.51179823
_cell_angle_beta   90.00000000
_cell_angle_gamma   90.00000000
_symmetry_Int_Tables_number   1
_chemical_formula_structural   GdSnF7
_chemical_formula_sum   'Gd4 Sn4 F28'
_cell_volume   566.34298233
_cell_formula_units_Z   4
loop_
 _symmetry_equiv_pos_site_id
 _symmetry_equiv_pos_as_xyz
  1  'x, y, z'
loop_
 _atom_site_type_symbol
 _atom_site_label
 _atom_site_symmetry_multiplicity
 _atom_site_fract_x
 _atom_site_fract_y
 _atom_site_fract_z
 _atom_site_occupancy
  F  F0  1  0.04745075  0.82734623  0.54532598  1
  F  F1  1  0.54745075  0.67265377  0.95467402  1
  F  F2  1  0.95254925  0.17265377  0.45467402  1
  F  F3  1  0.45254925  0.32734623  0.04532598  1
  F  F4  1  0.95229390  0.37231548  0.08026751  1
  F  F5  1  0.45229390  0.12768452  0.41973249  1
  F  F6  1  0.04770610  0.62768452  0.91973249  1
  F  F7  1  0.54770610  0.87231548  0.58026751  1
  F  F8  1  0.27027828  0.62163502  0.14068221  1
  F  F9  1  0.77027828  0.87836498  0.35931779  1
  F  F10  1  0.72972172  0.37836498  0.85931779  1
  F  F11  1  0.22972172  0.12163502  0.64068221  1
  F  F12  1  0.25924514  0.92032686  0.94664087  1
  F  F13  1  0.75924514  0.57967314  0.55335913  1
  F  F14  1  0.74075486  0.07967314  0.05335913  1
  F  F15  1  0.24075486  0.42032686  0.44664087  1
  F  F16  1  0.95662253  0.58390853  0.32859636  1
  F  F17  1  0.45662253  0.91609147  0.17140364  1
  F  F18  1  0.04337747  0.41609147  0.67140364  1
  F  F19  1  0.54337747  0.08390853  0.82859636  1
  F  F20  1  0.98028163  0.87246149  0.14231752  1
  F  F21  1  0.48028163  0.62753851  0.35768248  1
  F  F22  1  0.01971837  0.12753851  0.85768248  1
  F  F23  1  0.51971837  0.37246149  0.64231752  1
  F  F24  1  0.92038573  0.79577788  0.76633779  1
  F  F25  1  0.42038573  0.70422212  0.73366221  1
  F  F26  1  0.07961427  0.20422212  0.23366221  1
  F  F27  1  0.57961427  0.29577788  0.26633779  1
  Sn  Sn28  1  0.75643207  0.72974171  0.45674257  1
  Sn  Sn29  1  0.25643207  0.77025829  0.04325743  1
  Sn  Sn30  1  0.24356793  0.27025829  0.54325743  1
  Sn  Sn31  1  0.74356793  0.22974171  0.95674257  1
  Gd  Gd32  1  0.24206054  0.92161894  0.73460605  1
  Gd  Gd33  1  0.74206054  0.57838106  0.76539395  1
  Gd  Gd34  1  0.75793946  0.07838106  0.26539395  1
  Gd  Gd35  1  0.25793946  0.42161894  0.23460605  1
