# generated using pymatgen
data_LaS2
_symmetry_space_group_name_H-M   'P 1'
_cell_length_a   4.15863666
_cell_length_b   8.17163101
_cell_length_c   16.40777999
_cell_angle_alpha   90.00000000
_cell_angle_beta   90.00000000
_cell_angle_gamma   90.00000000
_symmetry_Int_Tables_number   1
_chemical_formula_structural   LaS2
_chemical_formula_sum   'La8 S16'
_cell_volume   557.58303255
_cell_formula_units_Z   8
loop_
 _symmetry_equiv_pos_site_id
 _symmetry_equiv_pos_as_xyz
  1  'x, y, z'
loop_
 _atom_site_type_symbol
 _atom_site_label
 _atom_site_symmetry_multiplicity
 _atom_site_fract_x
 _atom_site_fract_y
 _atom_site_fract_z
 _atom_site_occupancy
  S  S0  1  0.73810082  0.37424604  0.43259476  1
  S  S1  1  0.23810082  0.12575396  0.56740524  1
  S  S2  1  0.76189918  0.87424604  0.06740524  1
  S  S3  1  0.26189918  0.62575396  0.93259476  1
  S  S4  1  0.26189918  0.62575396  0.56740524  1
  S  S5  1  0.76189918  0.87424604  0.43259476  1
  S  S6  1  0.23810082  0.12575396  0.93259476  1
  S  S7  1  0.73810082  0.37424604  0.06740524  1
  S  S8  1  0.14422887  0.39299674  0.25000000  1
  S  S9  1  0.64422887  0.10700326  0.75000000  1
  S  S10  1  0.35577113  0.89299674  0.25000000  1
  S  S11  1  0.85577113  0.60700326  0.75000000  1
  S  S12  1  0.65992058  0.09991425  0.25000000  1
  S  S13  1  0.15992058  0.40008575  0.75000000  1
  S  S14  1  0.84007942  0.59991425  0.25000000  1
  S  S15  1  0.34007942  0.90008575  0.75000000  1
  La  La16  1  0.21684607  0.12970993  0.38852665  1
  La  La17  1  0.71684607  0.37029007  0.61147335  1
  La  La18  1  0.28315393  0.62970993  0.11147335  1
  La  La19  1  0.78315393  0.87029007  0.88852665  1
  La  La20  1  0.78315393  0.87029007  0.61147335  1
  La  La21  1  0.28315393  0.62970993  0.38852665  1
  La  La22  1  0.71684607  0.37029007  0.88852665  1
  La  La23  1  0.21684607  0.12970993  0.11147335  1
