# generated using pymatgen
data_LiTmSiO4
_symmetry_space_group_name_H-M   'P 1'
_cell_length_a   4.94093711
_cell_length_b   6.26965514
_cell_length_c   10.85040927
_cell_angle_alpha   90.00000000
_cell_angle_beta   90.00000000
_cell_angle_gamma   90.00000000
_symmetry_Int_Tables_number   1
_chemical_formula_structural   LiTmSiO4
_chemical_formula_sum   'Li4 Tm4 Si4 O16'
_cell_volume   336.12367182
_cell_formula_units_Z   4
loop_
 _symmetry_equiv_pos_site_id
 _symmetry_equiv_pos_as_xyz
  1  'x, y, z'
loop_
 _atom_site_type_symbol
 _atom_site_label
 _atom_site_symmetry_multiplicity
 _atom_site_fract_x
 _atom_site_fract_y
 _atom_site_fract_z
 _atom_site_occupancy
  Li  Li0  1  0.00000000  0.00000000  0.00000000  1
  Li  Li1  1  0.50000000  0.00000000  0.50000000  1
  Li  Li2  1  0.00000000  0.50000000  0.00000000  1
  Li  Li3  1  0.50000000  0.50000000  0.50000000  1
  O  O4  1  0.22596301  0.54552581  0.33697646  1
  O  O5  1  0.77403699  0.45447419  0.66302354  1
  O  O6  1  0.27403699  0.54552581  0.83697646  1
  O  O7  1  0.22596301  0.95447419  0.33697646  1
  O  O8  1  0.72596301  0.04552581  0.16302354  1
  O  O9  1  0.25483722  0.25000000  0.09788033  1
  O  O10  1  0.72596301  0.45447419  0.16302354  1
  O  O11  1  0.77403699  0.04552581  0.66302354  1
  O  O12  1  0.74516278  0.75000000  0.90211967  1
  O  O13  1  0.24516278  0.25000000  0.59788033  1
  O  O14  1  0.71223007  0.25000000  0.94935905  1
  O  O15  1  0.75483722  0.75000000  0.40211967  1
  O  O16  1  0.78776993  0.25000000  0.44935905  1
  O  O17  1  0.21223007  0.75000000  0.55064095  1
  O  O18  1  0.28776993  0.75000000  0.05064095  1
  O  O19  1  0.27403699  0.95447419  0.83697646  1
  Si  Si20  1  0.41741540  0.75000000  0.91200289  1
  Si  Si21  1  0.08258460  0.75000000  0.41200289  1
  Si  Si22  1  0.58258460  0.25000000  0.08799711  1
  Si  Si23  1  0.91741540  0.25000000  0.58799711  1
  Tm  Tm24  1  0.98036767  0.75000000  0.72320592  1
  Tm  Tm25  1  0.51963233  0.75000000  0.22320592  1
  Tm  Tm26  1  0.01963233  0.25000000  0.27679408  1
  Tm  Tm27  1  0.48036767  0.25000000  0.77679408  1
