# generated using pymatgen
data_Cs4KLiGa2F12
_symmetry_space_group_name_H-M   'P 1'
_cell_length_a   11.05654176
_cell_length_b   11.05654176
_cell_length_c   11.05654176
_cell_angle_alpha   33.83235337
_cell_angle_beta   33.83235337
_cell_angle_gamma   33.83235339
_symmetry_Int_Tables_number   1
_chemical_formula_structural   Cs4KLiGa2F12
_chemical_formula_sum   'Cs4 K1 Li1 Ga2 F12'
_cell_volume   373.37179915
_cell_formula_units_Z   1
loop_
 _symmetry_equiv_pos_site_id
 _symmetry_equiv_pos_as_xyz
  1  'x, y, z'
loop_
 _atom_site_type_symbol
 _atom_site_label
 _atom_site_symmetry_multiplicity
 _atom_site_fract_x
 _atom_site_fract_y
 _atom_site_fract_z
 _atom_site_occupancy
  Li  Li0  1  0.50000000  0.50000000  0.50000000  1
  F  F1  1  0.76112446  0.33244301  0.76112446  1
  F  F2  1  0.66755699  0.23887554  0.23887554  1
  F  F3  1  0.33244301  0.76112446  0.76112446  1
  F  F4  1  0.76112446  0.76112446  0.33244301  1
  F  F5  1  0.23887554  0.23887554  0.66755699  1
  F  F6  1  0.23887554  0.66755699  0.23887554  1
  F  F7  1  0.40808607  0.40808607  0.81805896  1
  F  F8  1  0.59191393  0.18194104  0.59191393  1
  F  F9  1  0.59191393  0.59191393  0.18194104  1
  F  F10  1  0.18194104  0.59191393  0.59191393  1
  F  F11  1  0.81805896  0.40808607  0.40808607  1
  F  F12  1  0.40808607  0.81805896  0.40808607  1
  K  K13  1  0.00000000  0.00000000  0.00000000  1
  Ga  Ga14  1  0.41563569  0.41563569  0.41563569  1
  Ga  Ga15  1  0.58436431  0.58436431  0.58436431  1
  Cs  Cs16  1  0.28555756  0.28555756  0.28555756  1
  Cs  Cs17  1  0.71444244  0.71444244  0.71444244  1
  Cs  Cs18  1  0.86700124  0.86700124  0.86700124  1
  Cs  Cs19  1  0.13299876  0.13299876  0.13299876  1
