# generated using pymatgen
data_K2VCuS4
_symmetry_space_group_name_H-M   'P 1'
_cell_length_a   5.42875424
_cell_length_b   7.09938182
_cell_length_c   11.81425607
_cell_angle_alpha   84.96039815
_cell_angle_beta   76.71738823
_cell_angle_gamma   67.52130137
_symmetry_Int_Tables_number   1
_chemical_formula_structural   K2VCuS4
_chemical_formula_sum   'K4 V2 Cu2 S8'
_cell_volume   409.48037608
_cell_formula_units_Z   2
loop_
 _symmetry_equiv_pos_site_id
 _symmetry_equiv_pos_as_xyz
  1  'x, y, z'
loop_
 _atom_site_type_symbol
 _atom_site_label
 _atom_site_symmetry_multiplicity
 _atom_site_fract_x
 _atom_site_fract_y
 _atom_site_fract_z
 _atom_site_occupancy
  S  S0  1  0.10176378  0.44376856  0.14114859  1
  S  S1  1  0.89823622  0.55623144  0.85885141  1
  S  S2  1  0.24291237  0.94376856  0.85885141  1
  S  S3  1  0.54553233  0.55623144  0.64114859  1
  S  S4  1  0.18668093  0.05623144  0.35885141  1
  S  S5  1  0.45446767  0.44376856  0.35885141  1
  S  S6  1  0.75708763  0.05623144  0.14114859  1
  S  S7  1  0.81331907  0.94376856  0.64114859  1
  K  K8  1  0.44619172  0.75000000  0.10761656  1
  K  K9  1  0.19619172  0.25000000  0.60761656  1
  K  K10  1  0.80380828  0.75000000  0.39238344  1
  K  K11  1  0.55380828  0.25000000  0.89238344  1
  V  V12  1  0.37500000  0.25000000  0.25000000  1
  V  V13  1  0.62500000  0.75000000  0.75000000  1
  Cu  Cu14  1  0.12500000  0.75000000  0.75000000  1
  Cu  Cu15  1  0.87500000  0.25000000  0.25000000  1
