# generated using pymatgen
data_KSnAsO5
_symmetry_space_group_name_H-M   'P 1'
_cell_length_a   6.82048206
_cell_length_b   11.14481178
_cell_length_c   13.70401582
_cell_angle_alpha   90.00000000
_cell_angle_beta   90.00000000
_cell_angle_gamma   90.00000000
_symmetry_Int_Tables_number   1
_chemical_formula_structural   KSnAsO5
_chemical_formula_sum   'K8 Sn8 As8 O40'
_cell_volume   1041.68320114
_cell_formula_units_Z   8
loop_
 _symmetry_equiv_pos_site_id
 _symmetry_equiv_pos_as_xyz
  1  'x, y, z'
loop_
 _atom_site_type_symbol
 _atom_site_label
 _atom_site_symmetry_multiplicity
 _atom_site_fract_x
 _atom_site_fract_y
 _atom_site_fract_z
 _atom_site_occupancy
  O  O0  1  0.47012979  0.88631962  0.25921600  1
  O  O1  1  0.52987021  0.38631962  0.74078400  1
  O  O2  1  0.02987021  0.88631962  0.75921600  1
  O  O3  1  0.97012979  0.38631962  0.24078400  1
  O  O4  1  0.97668981  0.12462238  0.75302022  1
  O  O5  1  0.02331019  0.62462238  0.24697978  1
  O  O6  1  0.52331019  0.12462238  0.25302022  1
  O  O7  1  0.47668981  0.62462238  0.74697978  1
  O  O8  1  0.04470826  0.87747794  0.23279447  1
  O  O9  1  0.95529174  0.37747794  0.76720553  1
  O  O10  1  0.45529174  0.87747794  0.73279447  1
  O  O11  1  0.54470826  0.37747794  0.26720553  1
  O  O12  1  0.52520666  0.13481304  0.72329226  1
  O  O13  1  0.47479334  0.63481304  0.27670774  1
  O  O14  1  0.97479334  0.13481304  0.22329226  1
  O  O15  1  0.82086259  0.22570058  0.40035946  1
  O  O16  1  0.02520666  0.63481304  0.77670774  1
  O  O17  1  0.30325832  0.47350218  0.89856323  1
  O  O18  1  0.80325832  0.97350218  0.60143677  1
  O  O19  1  0.19674168  0.47350218  0.39856323  1
  O  O20  1  0.19204473  0.02847701  0.59992706  1
  O  O21  1  0.80795527  0.52847701  0.40007294  1
  O  O22  1  0.30795527  0.02847701  0.09992706  1
  O  O23  1  0.69204473  0.52847701  0.90007294  1
  O  O24  1  0.50514263  0.12918358  0.51010735  1
  O  O25  1  0.49485737  0.62918358  0.48989265  1
  O  O26  1  0.99485737  0.12918358  0.01010735  1
  O  O27  1  0.00514263  0.62918358  0.98989265  1
  O  O28  1  0.01680777  0.87278139  0.01093220  1
  O  O29  1  0.98319223  0.37278139  0.98906780  1
  O  O30  1  0.48319223  0.87278139  0.51093220  1
  O  O31  1  0.51680777  0.37278139  0.48906780  1
  O  O32  1  0.81716901  0.27083112  0.59662860  1
  O  O33  1  0.18283099  0.77083112  0.40337140  1
  O  O34  1  0.68283099  0.27083112  0.09662860  1
  O  O35  1  0.31716901  0.77083112  0.90337140  1
  O  O36  1  0.32086259  0.72570058  0.09964054  1
  O  O37  1  0.67913741  0.22570058  0.90035946  1
  O  O38  1  0.17913741  0.72570058  0.59964054  1
  O  O39  1  0.69674168  0.97350218  0.10143677  1
  K  K40  1  0.22468334  0.29830484  0.62998189  1
  K  K41  1  0.68947937  0.56144084  0.11211370  1
  K  K42  1  0.81052063  0.56144084  0.61211370  1
  K  K43  1  0.31052063  0.06144084  0.88788630  1
  K  K44  1  0.72468334  0.79830484  0.87001811  1
  K  K45  1  0.27531666  0.29830484  0.12998189  1
  K  K46  1  0.77531666  0.79830484  0.37001811  1
  K  K47  1  0.18947937  0.06144084  0.38788630  1
  As  As48  1  0.33392494  0.74774319  0.50227564  1
  As  As49  1  0.83392494  0.24774319  0.99772436  1
  As  As50  1  0.16607506  0.74774319  0.00227564  1
  As  As51  1  0.49771156  0.50153960  0.82281526  1
  As  As52  1  0.50228844  0.00153960  0.17718474  1
  As  As53  1  0.00228844  0.50153960  0.32281526  1
  As  As54  1  0.66607506  0.24774319  0.49772436  1
  As  As55  1  0.99771156  0.00153960  0.67718474  1
  Sn  Sn56  1  0.74607842  0.25039948  0.74982302  1
  Sn  Sn57  1  0.25392158  0.75039948  0.25017698  1
  Sn  Sn58  1  0.75392158  0.25039948  0.24982302  1
  Sn  Sn59  1  0.50023186  0.99896323  0.62598718  1
  Sn  Sn60  1  0.49976814  0.49896323  0.37401282  1
  Sn  Sn61  1  0.99976814  0.99896323  0.12598718  1
  Sn  Sn62  1  0.00023186  0.49896323  0.87401282  1
  Sn  Sn63  1  0.24607842  0.75039948  0.75017698  1
