# generated using pymatgen
data_Ca3Si2SnO9
_symmetry_space_group_name_H-M   'P 1'
_cell_length_a   7.41559373
_cell_length_b   10.20129019
_cell_length_c   10.53477580
_cell_angle_alpha   90.00000000
_cell_angle_beta   91.19631137
_cell_angle_gamma   90.00000000
_symmetry_Int_Tables_number   1
_chemical_formula_structural   Ca3Si2SnO9
_chemical_formula_sum   'Ca12 Si8 Sn4 O36'
_cell_volume   796.76757936
_cell_formula_units_Z   4
loop_
 _symmetry_equiv_pos_site_id
 _symmetry_equiv_pos_as_xyz
  1  'x, y, z'
loop_
 _atom_site_type_symbol
 _atom_site_label
 _atom_site_symmetry_multiplicity
 _atom_site_fract_x
 _atom_site_fract_y
 _atom_site_fract_z
 _atom_site_occupancy
  O  O0  1  0.65913850  0.60848717  0.48271622  1
  O  O1  1  0.34086150  0.10848717  0.01728378  1
  O  O2  1  0.34086150  0.39151283  0.51728378  1
  O  O3  1  0.65913850  0.89151283  0.98271622  1
  O  O4  1  0.09089485  0.88327856  0.00828389  1
  O  O5  1  0.90910515  0.38327856  0.49171611  1
  O  O6  1  0.90910515  0.11672144  0.99171611  1
  O  O7  1  0.09089485  0.61672144  0.50828389  1
  O  O8  1  0.38059384  0.83102495  0.45493431  1
  O  O9  1  0.61940616  0.33102495  0.04506569  1
  O  O10  1  0.61940616  0.16897505  0.54506569  1
  O  O11  1  0.38059384  0.66897505  0.95493431  1
  O  O12  1  0.30445119  0.00101325  0.26322821  1
  O  O13  1  0.69554881  0.50101325  0.23677179  1
  O  O14  1  0.14424559  0.10914478  0.53249982  1
  O  O15  1  0.69554881  0.99898675  0.73677179  1
  O  O16  1  0.35462829  0.76681016  0.72049777  1
  O  O17  1  0.64537171  0.26681016  0.77950223  1
  O  O18  1  0.64537171  0.23318984  0.27950223  1
  O  O19  1  0.35462829  0.73318984  0.22049777  1
  O  O20  1  0.10361869  0.23124430  0.23902835  1
  O  O21  1  0.89638131  0.73124430  0.26097165  1
  O  O22  1  0.89638131  0.76875570  0.76097165  1
  O  O23  1  0.10361869  0.26875570  0.73902835  1
  O  O24  1  0.61721618  0.60725599  0.76951965  1
  O  O25  1  0.38278382  0.10725599  0.73048035  1
  O  O26  1  0.38278382  0.39274401  0.23048035  1
  O  O27  1  0.61721618  0.89274401  0.26951965  1
  O  O28  1  0.08416186  0.99763673  0.75750093  1
  O  O29  1  0.91583814  0.49763673  0.74249907  1
  O  O30  1  0.91583814  0.00236327  0.24249907  1
  O  O31  1  0.08416186  0.50236327  0.25750093  1
  O  O32  1  0.14424559  0.39085522  0.03249982  1
  O  O33  1  0.85575441  0.89085522  0.46750018  1
  O  O34  1  0.85575441  0.60914478  0.96750018  1
  O  O35  1  0.30445119  0.49898675  0.76322821  1
  Si  Si36  1  0.40117911  0.86322347  0.30528349  1
  Si  Si37  1  0.59882089  0.36322347  0.19471651  1
  Si  Si38  1  0.59882089  0.13677653  0.69471651  1
  Si  Si39  1  0.40117911  0.63677653  0.80528349  1
  Si  Si40  1  0.83298345  0.87451502  0.31584327  1
  Si  Si41  1  0.16701655  0.37451502  0.18415673  1
  Si  Si42  1  0.16701655  0.12548498  0.68415673  1
  Si  Si43  1  0.83298345  0.62548498  0.81584327  1
  Ca  Ca44  1  0.63617378  0.07932388  0.11132435  1
  Ca  Ca45  1  0.36382622  0.57932388  0.38867565  1
  Ca  Ca46  1  0.36382622  0.92067612  0.88867565  1
  Ca  Ca47  1  0.63617378  0.42067612  0.61132435  1
  Ca  Ca48  1  0.11935607  0.66665251  0.08351267  1
  Ca  Ca49  1  0.88064393  0.16665251  0.41648733  1
  Ca  Ca50  1  0.88064393  0.33334749  0.91648733  1
  Ca  Ca51  1  0.11935607  0.83334749  0.58351267  1
  Ca  Ca52  1  0.62811901  0.69572582  0.09563559  1
  Ca  Ca53  1  0.37188099  0.19572582  0.40436441  1
  Ca  Ca54  1  0.37188099  0.30427418  0.90436441  1
  Ca  Ca55  1  0.62811901  0.80427418  0.59563559  1
  Sn  Sn56  1  0.12021261  0.44152370  0.61790363  1
  Sn  Sn57  1  0.87978739  0.94152370  0.88209637  1
  Sn  Sn58  1  0.87978739  0.55847630  0.38209637  1
  Sn  Sn59  1  0.12021261  0.05847630  0.11790363  1
