# generated using pymatgen
data_Sm2Se3
_symmetry_space_group_name_H-M   'P 1'
_cell_length_a   4.12959846
_cell_length_b   11.13257402
_cell_length_c   11.40329074
_cell_angle_alpha   90.00000000
_cell_angle_beta   90.00000000
_cell_angle_gamma   90.00000000
_symmetry_Int_Tables_number   1
_chemical_formula_structural   Sm2Se3
_chemical_formula_sum   'Sm8 Se12'
_cell_volume   524.24417542
_cell_formula_units_Z   4
loop_
 _symmetry_equiv_pos_site_id
 _symmetry_equiv_pos_as_xyz
  1  'x, y, z'
loop_
 _atom_site_type_symbol
 _atom_site_label
 _atom_site_symmetry_multiplicity
 _atom_site_fract_x
 _atom_site_fract_y
 _atom_site_fract_z
 _atom_site_occupancy
  Se  Se0  1  0.75000000  0.05568193  0.88005320  1
  Se  Se1  1  0.25000000  0.94431807  0.11994680  1
  Se  Se2  1  0.25000000  0.55568193  0.61994680  1
  Se  Se3  1  0.75000000  0.44431807  0.38005320  1
  Se  Se4  1  0.25000000  0.87467170  0.45521235  1
  Se  Se5  1  0.75000000  0.12532830  0.54478765  1
  Se  Se6  1  0.75000000  0.37467170  0.04478765  1
  Se  Se7  1  0.25000000  0.62532830  0.95521235  1
  Se  Se8  1  0.25000000  0.30212496  0.77221119  1
  Se  Se9  1  0.75000000  0.69787504  0.22778881  1
  Se  Se10  1  0.75000000  0.80212496  0.72778881  1
  Se  Se11  1  0.25000000  0.19787504  0.27221119  1
  Sm  Sm12  1  0.25000000  0.99779181  0.69364193  1
  Sm  Sm13  1  0.75000000  0.00220819  0.30635807  1
  Sm  Sm14  1  0.75000000  0.49779181  0.80635807  1
  Sm  Sm15  1  0.25000000  0.50220819  0.19364193  1
  Sm  Sm16  1  0.25000000  0.31292079  0.51168518  1
  Sm  Sm17  1  0.75000000  0.68707921  0.48831482  1
  Sm  Sm18  1  0.75000000  0.81292079  0.98831482  1
  Sm  Sm19  1  0.25000000  0.18707921  0.01168518  1
