# generated using pymatgen
data_NaZr2ZnF11
_symmetry_space_group_name_H-M   'P 1'
_cell_length_a   5.75233815
_cell_length_b   5.75233815
_cell_length_c   7.89395561
_cell_angle_alpha   69.25352138
_cell_angle_beta   69.25352140
_cell_angle_gamma   72.86422269
_symmetry_Int_Tables_number   1
_chemical_formula_structural   NaZr2ZnF11
_chemical_formula_sum   'Na1 Zr2 Zn1 F11'
_cell_volume   224.11570485
_cell_formula_units_Z   1
loop_
 _symmetry_equiv_pos_site_id
 _symmetry_equiv_pos_as_xyz
  1  'x, y, z'
loop_
 _atom_site_type_symbol
 _atom_site_label
 _atom_site_symmetry_multiplicity
 _atom_site_fract_x
 _atom_site_fract_y
 _atom_site_fract_z
 _atom_site_occupancy
  F  F0  1  0.81093194  0.22141465  0.68760584  1
  F  F1  1  0.77858535  0.18906806  0.31239416  1
  F  F2  1  0.18906806  0.77858535  0.31239416  1
  F  F3  1  0.22141465  0.81093194  0.68760584  1
  F  F4  1  0.50000000  0.50000000  0.50000000  1
  F  F5  1  0.32885904  0.67114096  0.00000000  1
  F  F6  1  0.67114096  0.32885904  0.00000000  1
  F  F7  1  0.24618014  0.24618014  0.35159152  1
  F  F8  1  0.75381986  0.75381986  0.64840848  1
  F  F9  1  0.26821430  0.26821430  0.88993094  1
  F  F10  1  0.73178570  0.73178570  0.11006906  1
  Na  Na11  1  0.00000000  0.00000000  0.00000000  1
  Zn  Zn12  1  0.00000000  0.00000000  0.50000000  1
  Zr  Zr13  1  0.50662715  0.50662715  0.76344913  1
  Zr  Zr14  1  0.49337285  0.49337285  0.23655087  1
