# generated using pymatgen
data_K2MgSiO4
_symmetry_space_group_name_H-M   'P 1'
_cell_length_a   5.53821553
_cell_length_b   11.11310192
_cell_length_c   15.78207218
_cell_angle_alpha   90.00000000
_cell_angle_beta   90.00000000
_cell_angle_gamma   90.00000000
_symmetry_Int_Tables_number   1
_chemical_formula_structural   K2MgSiO4
_chemical_formula_sum   'K16 Mg8 Si8 O32'
_cell_volume   971.33530839
_cell_formula_units_Z   8
loop_
 _symmetry_equiv_pos_site_id
 _symmetry_equiv_pos_as_xyz
  1  'x, y, z'
loop_
 _atom_site_type_symbol
 _atom_site_label
 _atom_site_symmetry_multiplicity
 _atom_site_fract_x
 _atom_site_fract_y
 _atom_site_fract_z
 _atom_site_occupancy
  O  O0  1  0.22107331  0.51221805  0.28677212  1
  O  O1  1  0.77892669  0.48778195  0.78677212  1
  O  O2  1  0.77892669  0.01221805  0.28677212  1
  O  O3  1  0.22107331  0.98778195  0.78677212  1
  O  O4  1  0.56091436  0.35206318  0.34177547  1
  O  O5  1  0.43908564  0.64793682  0.84177547  1
  O  O6  1  0.43908564  0.85206318  0.34177547  1
  O  O7  1  0.56091436  0.14793682  0.84177547  1
  O  O8  1  0.41864477  0.08493084  0.38931701  1
  O  O9  1  0.58135523  0.91506916  0.88931701  1
  O  O10  1  0.58135523  0.58493084  0.38931701  1
  O  O11  1  0.41864477  0.41506916  0.88931701  1
  O  O12  1  0.84028016  0.20729328  0.49306925  1
  O  O13  1  0.15971984  0.79270672  0.99306925  1
  O  O14  1  0.15971984  0.70729328  0.49306925  1
  O  O15  1  0.70680588  0.70935680  0.02089943  1
  O  O16  1  0.32482439  0.47877196  0.72610864  1
  O  O17  1  0.67517561  0.52122804  0.22610864  1
  O  O18  1  0.67517561  0.97877196  0.72610864  1
  O  O19  1  0.32482439  0.02122804  0.22610864  1
  O  O20  1  0.94366740  0.67361367  0.64649683  1
  O  O21  1  0.05633260  0.32638633  0.14649683  1
  O  O22  1  0.05633260  0.17361367  0.64649683  1
  O  O23  1  0.94366740  0.82638633  0.14649683  1
  O  O24  1  0.08689014  0.89462192  0.59791582  1
  O  O25  1  0.91310986  0.10537808  0.09791582  1
  O  O26  1  0.91310986  0.39462192  0.59791582  1
  O  O27  1  0.08689014  0.60537808  0.09791582  1
  O  O28  1  0.70680588  0.79064320  0.52089943  1
  O  O29  1  0.29319412  0.20935680  0.02089943  1
  O  O30  1  0.29319412  0.29064320  0.52089943  1
  O  O31  1  0.84028016  0.29270672  0.99306925  1
  Mg  Mg32  1  0.99166805  0.99036938  0.18874876  1
  Mg  Mg33  1  0.00833195  0.00963062  0.68874876  1
  Mg  Mg34  1  0.00833195  0.49036938  0.18874876  1
  Mg  Mg35  1  0.99166805  0.50963062  0.68874876  1
  Mg  Mg36  1  0.53145992  0.26080353  0.93633418  1
  Mg  Mg37  1  0.46854008  0.73919647  0.43633418  1
  Mg  Mg38  1  0.46854008  0.76080353  0.93633418  1
  Mg  Mg39  1  0.53145992  0.23919647  0.43633418  1
  Si  Si40  1  0.50906547  0.00768572  0.81107237  1
  Si  Si41  1  0.49093453  0.99231428  0.31107237  1
  Si  Si42  1  0.49093453  0.50768572  0.81107237  1
  Si  Si43  1  0.50906547  0.49231428  0.31107237  1
  Si  Si44  1  0.97343132  0.73518464  0.06445801  1
  Si  Si45  1  0.02656868  0.26481536  0.56445801  1
  Si  Si46  1  0.02656868  0.23518464  0.06445801  1
  Si  Si47  1  0.97343132  0.76481536  0.56445801  1
  K  K48  1  0.05143172  0.23506261  0.31396834  1
  K  K49  1  0.94856828  0.76493739  0.81396834  1
  K  K50  1  0.94856828  0.73506261  0.31396834  1
  K  K51  1  0.05143172  0.26493739  0.81396834  1
  K  K52  1  0.00460211  0.49014265  0.43817940  1
  K  K53  1  0.99539789  0.50985735  0.93817940  1
  K  K54  1  0.99539789  0.99014265  0.43817940  1
  K  K55  1  0.00460211  0.00985735  0.93817940  1
  K  K56  1  0.45688470  0.76052375  0.68359288  1
  K  K57  1  0.54311530  0.23947625  0.18359288  1
  K  K58  1  0.54311530  0.26052375  0.68359288  1
  K  K59  1  0.45688470  0.73947625  0.18359288  1
  K  K60  1  0.49363269  0.50821352  0.56129150  1
  K  K61  1  0.50636731  0.49178648  0.06129150  1
  K  K62  1  0.50636731  0.00821352  0.56129150  1
  K  K63  1  0.49363269  0.99178648  0.06129150  1
