# generated using pymatgen
data_Tb2Si5Ni3
_symmetry_space_group_name_H-M   'P 1'
_cell_length_a   5.66047616
_cell_length_b   7.88197310
_cell_length_c   7.88197310
_cell_angle_alpha   74.85579152
_cell_angle_beta   68.95645567
_cell_angle_gamma   68.95645569
_symmetry_Int_Tables_number   1
_chemical_formula_structural   Tb2Si5Ni3
_chemical_formula_sum   'Tb4 Si10 Ni6'
_cell_volume   302.76363239
_cell_formula_units_Z   2
loop_
 _symmetry_equiv_pos_site_id
 _symmetry_equiv_pos_as_xyz
  1  'x, y, z'
loop_
 _atom_site_type_symbol
 _atom_site_label
 _atom_site_symmetry_multiplicity
 _atom_site_fract_x
 _atom_site_fract_y
 _atom_site_fract_z
 _atom_site_occupancy
  Si  Si0  1  0.25000000  0.00000000  0.00000000  1
  Si  Si1  1  0.75000000  0.00000000  0.00000000  1
  Si  Si2  1  0.98339978  0.26660022  0.26660022  1
  Si  Si3  1  0.51660022  0.73339978  0.73339978  1
  Si  Si4  1  0.01660022  0.73339978  0.73339978  1
  Si  Si5  1  0.48339978  0.26660022  0.26660022  1
  Si  Si6  1  0.39258473  0.45514898  0.75968156  1
  Si  Si7  1  0.89258473  0.75968156  0.45514898  1
  Si  Si8  1  0.10741527  0.24031844  0.54485102  1
  Si  Si9  1  0.60741527  0.54485102  0.24031844  1
  Ni  Ni10  1  0.86576207  0.02250275  0.24597310  1
  Ni  Ni11  1  0.75000000  0.50000000  0.50000000  1
  Ni  Ni12  1  0.36576207  0.24597310  0.02250275  1
  Ni  Ni13  1  0.63423793  0.75402690  0.97749725  1
  Ni  Ni14  1  0.13423793  0.97749725  0.75402690  1
  Ni  Ni15  1  0.25000000  0.50000000  0.50000000  1
  Tb  Tb16  1  0.13117981  0.63203219  0.10560819  1
  Tb  Tb17  1  0.86882019  0.36796781  0.89439181  1
  Tb  Tb18  1  0.36882019  0.89439181  0.36796781  1
  Tb  Tb19  1  0.63117981  0.10560819  0.63203219  1
