# generated using pymatgen
data_Fe2CoO4
_symmetry_space_group_name_H-M   'P 1'
_cell_length_a   5.97724753
_cell_length_b   5.97724782
_cell_length_c   17.92684774
_cell_angle_alpha   60.07808425
_cell_angle_beta   60.07808264
_cell_angle_gamma   60.26482588
_symmetry_Int_Tables_number   1
_chemical_formula_structural   Fe2CoO4
_chemical_formula_sum   'Fe12 Co6 O24'
_cell_volume   454.32509484
_cell_formula_units_Z   6
loop_
 _symmetry_equiv_pos_site_id
 _symmetry_equiv_pos_as_xyz
  1  'x, y, z'
loop_
 _atom_site_type_symbol
 _atom_site_label
 _atom_site_symmetry_multiplicity
 _atom_site_fract_x
 _atom_site_fract_y
 _atom_site_fract_z
 _atom_site_occupancy
  Fe  Fe0  1  0.12718503  0.11820039  0.04366569  1
  Fe  Fe1  1  0.50156891  0.00013250  0.16510147  1
  Fe  Fe2  1  0.12312182  0.12645105  0.37711197  1
  Fe  Fe3  1  0.50118975  0.49902244  0.16643893  1
  Fe  Fe4  1  -0.00013250  0.49843109  0.50156553  1
  Fe  Fe5  1  0.11924840  0.12447335  0.71045576  1
  Fe  Fe6  1  0.50097756  0.49881025  0.50022807  1
  Fe  Fe7  1  0.87354895  0.87687818  0.28955503  1
  Fe  Fe8  1  0.49794518  0.99923431  0.83391700  1
  Fe  Fe9  1  0.88179961  0.87281497  0.62300131  1
  Fe  Fe10  1  0.00076569  0.50205482  0.83274900  1
  Fe  Fe11  1  0.87552665  0.88075160  0.95621024  1
  Co  Co12  1  0.49874677  0.50099101  0.99849685  1
  Co  Co13  1  0.50245798  0.49754202  0.33333300  1
  Co  Co14  1  0.50143016  -0.00148926  0.50023388  1
  Co  Co15  1  0.00148926  0.49856984  0.16643312  1
  Co  Co16  1  0.49900899  0.50125323  0.66817015  1
  Co  Co17  1  0.49874549  0.50125451  0.83333300  1
  O  O18  1  0.25623121  0.24867498  0.08632763  1
  O  O19  1  0.26699113  0.72521219  0.08843402  1
  O  O20  1  0.26884097  0.25429124  0.24289753  1
  O  O21  1  0.72648186  0.25802080  0.08946547  1
  O  O22  1  0.27610386  0.74114497  0.24305532  1
  O  O23  1  0.25072692  0.25941885  0.41975348  1
  O  O24  1  0.73109403  0.74844563  0.08893540  1
  O  O25  1  0.73548798  0.27117833  0.24455586  1
  O  O26  1  0.25885503  0.72389614  0.42361068  1
  O  O27  1  0.25155437  0.26890597  0.57773160  1
  O  O28  1  0.74058115  0.74927308  0.24691252  1
  O  O29  1  0.72882167  0.26451202  0.42211014  1
  O  O30  1  0.27478781  0.73300887  0.57823298  1
  O  O31  1  0.24896741  0.25070050  0.75605467  1
  O  O32  1  0.74197920  0.27351814  0.57720153  1
  O  O33  1  0.74570876  0.73115903  0.42376947  1
  O  O34  1  0.24453940  0.73609010  0.75317813  1
  O  O35  1  0.25759118  0.25878067  0.90928912  1
  O  O36  1  0.75132502  0.74376879  0.58033937  1
  O  O37  1  0.73034831  0.24606969  0.75372517  1
  O  O38  1  0.26390990  0.75546060  0.91348887  1
  O  O39  1  0.74121933  0.74240882  0.75737688  1
  O  O40  1  0.75393031  0.26965169  0.91294183  1
  O  O41  1  0.74929950  0.75103259  0.91061233  1
