# generated using pymatgen
data_Pr2Ti2O7
_symmetry_space_group_name_H-M   'P 1'
_cell_length_a   5.56015034
_cell_length_b   7.74419624
_cell_length_c   13.29877165
_cell_angle_alpha   98.46897418
_cell_angle_beta   90.00000000
_cell_angle_gamma   90.00000000
_symmetry_Int_Tables_number   1
_chemical_formula_structural   Pr2Ti2O7
_chemical_formula_sum   'Pr8 Ti8 O28'
_cell_volume   566.38631628
_cell_formula_units_Z   4
loop_
 _symmetry_equiv_pos_site_id
 _symmetry_equiv_pos_as_xyz
  1  'x, y, z'
loop_
 _atom_site_type_symbol
 _atom_site_label
 _atom_site_symmetry_multiplicity
 _atom_site_fract_x
 _atom_site_fract_y
 _atom_site_fract_z
 _atom_site_occupancy
  O  O0  1  0.29773005  0.82624148  0.30625801  1
  O  O1  1  0.79773005  0.17375852  0.69374199  1
  O  O2  1  0.14350390  0.32780768  0.30635052  1
  O  O3  1  0.64350390  0.67219232  0.69364948  1
  O  O4  1  0.40529554  0.59034891  0.44060906  1
  O  O5  1  0.90529554  0.40965109  0.55939094  1
  O  O6  1  0.42190027  0.12980057  0.42784047  1
  O  O7  1  0.92190027  0.87019943  0.57215953  1
  O  O8  1  0.91506648  0.62634138  0.38813997  1
  O  O9  1  0.41506648  0.37365862  0.61186003  1
  O  O10  1  0.93894843  0.07745460  0.40528702  1
  O  O11  1  0.43894843  0.92254540  0.59471298  1
  O  O12  1  0.05552832  0.56781009  0.18144567  1
  O  O13  1  0.55552832  0.43218991  0.81855433  1
  O  O14  1  0.05201756  0.02232340  0.18314803  1
  O  O15  1  0.55201756  0.97767660  0.81685197  1
  O  O16  1  0.18363522  0.22249836  0.88988477  1
  O  O17  1  0.68363522  0.77750164  0.11011523  1
  O  O18  1  0.32668638  0.72700342  0.90743021  1
  O  O19  1  0.82668638  0.27299658  0.09256979  1
  O  O20  1  0.98032429  0.95616111  0.97968778  1
  O  O21  1  0.48032429  0.04383889  0.02031222  1
  O  O22  1  0.98089081  0.53294886  0.97761851  1
  O  O23  1  0.48089081  0.46705114  0.02238149  1
  O  O24  1  0.04001595  0.88386949  0.77230657  1
  O  O25  1  0.54001595  0.11613051  0.22769343  1
  O  O26  1  0.04451289  0.50293289  0.76932409  1
  O  O27  1  0.54451289  0.49706711  0.23067591  1
  Ti  Ti28  1  0.19611237  0.58406391  0.32586289  1
  Ti  Ti29  1  0.69611237  0.41593609  0.67413711  1
  Ti  Ti30  1  0.20488969  0.07024373  0.32028098  1
  Ti  Ti31  1  0.70488969  0.92975627  0.67971902  1
  Ti  Ti32  1  0.73515495  0.52812782  0.12321058  1
  Ti  Ti33  1  0.23515495  0.47187218  0.87678942  1
  Ti  Ti34  1  0.73311273  0.03169198  0.12056072  1
  Ti  Ti35  1  0.23311273  0.96830802  0.87943928  1
  Pr  Pr36  1  0.63594028  0.85407796  0.42879500  1
  Pr  Pr37  1  0.13594028  0.14592204  0.57120500  1
  Pr  Pr38  1  0.70566844  0.35024694  0.38162044  1
  Pr  Pr39  1  0.20566844  0.64975306  0.61837956  1
  Pr  Pr40  1  0.23813638  0.77014882  0.08817999  1
  Pr  Pr41  1  0.73813638  0.22985118  0.91182001  1
  Pr  Pr42  1  0.24952907  0.28138992  0.12145305  1
  Pr  Pr43  1  0.74952907  0.71861008  0.87854695  1
