# generated using pymatgen
data_Lu4C7
_symmetry_space_group_name_H-M   'P 1'
_cell_length_a   3.60464613
_cell_length_b   6.29108659
_cell_length_c   13.53032784
_cell_angle_alpha   90.00000000
_cell_angle_beta   90.00000000
_cell_angle_gamma   105.30445548
_symmetry_Int_Tables_number   1
_chemical_formula_structural   Lu4C7
_chemical_formula_sum   'Lu8 C14'
_cell_volume   295.94803665
_cell_formula_units_Z   2
loop_
 _symmetry_equiv_pos_site_id
 _symmetry_equiv_pos_as_xyz
  1  'x, y, z'
loop_
 _atom_site_type_symbol
 _atom_site_label
 _atom_site_symmetry_multiplicity
 _atom_site_fract_x
 _atom_site_fract_y
 _atom_site_fract_z
 _atom_site_occupancy
  C  C0  1  0.00000000  0.50000000  0.50000000  1
  C  C1  1  0.00000000  0.00000000  0.00000000  1
  C  C2  1  0.53746196  0.07611563  0.78620065  1
  C  C3  1  0.46253804  0.42388437  0.28620065  1
  C  C4  1  0.46253804  0.92388437  0.21379935  1
  C  C5  1  0.53746196  0.57611563  0.71379935  1
  C  C6  1  0.62222919  0.45517779  0.19748269  1
  C  C7  1  0.37777081  0.04482221  0.69748269  1
  C  C8  1  0.73208943  0.94981021  0.39649689  1
  C  C9  1  0.26791057  0.55018979  0.89649689  1
  C  C10  1  0.26791057  0.05018979  0.60350311  1
  C  C11  1  0.73208943  0.44981021  0.10350311  1
  C  C12  1  0.62222919  0.95517779  0.30251731  1
  C  C13  1  0.37777081  0.54482221  0.80251731  1
  Lu  Lu14  1  0.63448414  0.25989153  0.94576617  1
  Lu  Lu15  1  0.36551586  0.24010847  0.44576617  1
  Lu  Lu16  1  0.36551586  0.74010847  0.05423383  1
  Lu  Lu17  1  0.63448414  0.75989153  0.55423383  1
  Lu  Lu18  1  0.94314013  0.33984510  0.65992941  1
  Lu  Lu19  1  0.05685987  0.16015490  0.15992941  1
  Lu  Lu20  1  0.05685987  0.66015490  0.34007059  1
  Lu  Lu21  1  0.94314013  0.83984510  0.84007059  1
