# generated using pymatgen
data_Pr2S3
_symmetry_space_group_name_H-M   'P 1'
_cell_length_a   4.09491676
_cell_length_b   7.56249222
_cell_length_c   15.78808098
_cell_angle_alpha   90.00000000
_cell_angle_beta   90.00000000
_cell_angle_gamma   90.00000000
_symmetry_Int_Tables_number   1
_chemical_formula_structural   Pr2S3
_chemical_formula_sum   'Pr8 S12'
_cell_volume   488.92175745
_cell_formula_units_Z   4
loop_
 _symmetry_equiv_pos_site_id
 _symmetry_equiv_pos_as_xyz
  1  'x, y, z'
loop_
 _atom_site_type_symbol
 _atom_site_label
 _atom_site_symmetry_multiplicity
 _atom_site_fract_x
 _atom_site_fract_y
 _atom_site_fract_z
 _atom_site_occupancy
  S  S0  1  0.25000000  0.64531999  0.71896082  1
  S  S1  1  0.75000000  0.35468001  0.28103918  1
  S  S2  1  0.25000000  0.14531999  0.78103918  1
  S  S3  1  0.75000000  0.85468001  0.21896082  1
  S  S4  1  0.25000000  0.87372652  0.93251623  1
  S  S5  1  0.75000000  0.12627348  0.06748377  1
  S  S6  1  0.25000000  0.37372652  0.56748377  1
  S  S7  1  0.75000000  0.62627348  0.43251623  1
  S  S8  1  0.75000000  0.99023520  0.60937264  1
  S  S9  1  0.25000000  0.00976480  0.39062736  1
  S  S10  1  0.75000000  0.49023520  0.89062736  1
  S  S11  1  0.25000000  0.50976480  0.10937264  1
  Pr  Pr12  1  0.25000000  0.76447399  0.54408289  1
  Pr  Pr13  1  0.75000000  0.23552601  0.45591711  1
  Pr  Pr14  1  0.25000000  0.26447399  0.95591711  1
  Pr  Pr15  1  0.75000000  0.73552601  0.04408289  1
  Pr  Pr16  1  0.25000000  0.64486525  0.29552003  1
  Pr  Pr17  1  0.75000000  0.35513475  0.70447997  1
  Pr  Pr18  1  0.25000000  0.14486525  0.20447997  1
  Pr  Pr19  1  0.75000000  0.85513475  0.79552003  1
