# generated using pymatgen
data_Dy2Si5Ni3
_symmetry_space_group_name_H-M   'P 1'
_cell_length_a   5.64667638
_cell_length_b   7.86499895
_cell_length_c   7.86499896
_cell_angle_alpha   74.99201136
_cell_angle_beta   68.96273795
_cell_angle_gamma   68.96273794
_symmetry_Int_Tables_number   1
_chemical_formula_structural   Dy2Si5Ni3
_chemical_formula_sum   'Dy4 Si10 Ni6'
_cell_volume   300.87029065
_cell_formula_units_Z   2
loop_
 _symmetry_equiv_pos_site_id
 _symmetry_equiv_pos_as_xyz
  1  'x, y, z'
loop_
 _atom_site_type_symbol
 _atom_site_label
 _atom_site_symmetry_multiplicity
 _atom_site_fract_x
 _atom_site_fract_y
 _atom_site_fract_z
 _atom_site_occupancy
  Si  Si0  1  0.25000000  0.00000000  0.00000000  1
  Si  Si1  1  0.75000000  0.00000000  0.00000000  1
  Si  Si2  1  0.98320026  0.26679974  0.26679974  1
  Si  Si3  1  0.51679974  0.73320026  0.73320026  1
  Si  Si4  1  0.01679974  0.73320026  0.73320026  1
  Si  Si5  1  0.48320026  0.26679974  0.26679974  1
  Si  Si6  1  0.39269928  0.45461705  0.75998438  1
  Si  Si7  1  0.89269928  0.75998438  0.45461705  1
  Si  Si8  1  0.10730072  0.24001562  0.54538295  1
  Si  Si9  1  0.60730072  0.54538295  0.24001562  1
  Ni  Ni10  1  0.86560234  0.02228662  0.24650871  1
  Ni  Ni11  1  0.75000000  0.50000000  0.50000000  1
  Ni  Ni12  1  0.36560234  0.24650871  0.02228662  1
  Ni  Ni13  1  0.63439766  0.75349129  0.97771338  1
  Ni  Ni14  1  0.13439766  0.97771338  0.75349129  1
  Ni  Ni15  1  0.25000000  0.50000000  0.50000000  1
  Dy  Dy16  1  0.13127104  0.63217155  0.10528638  1
  Dy  Dy17  1  0.86872896  0.36782845  0.89471362  1
  Dy  Dy18  1  0.36872896  0.89471362  0.36782845  1
  Dy  Dy19  1  0.63127104  0.10528638  0.63217155  1
