# generated using pymatgen
data_K2NbAgS4
_symmetry_space_group_name_H-M   'P 1'
_cell_length_a   5.96465187
_cell_length_b   7.38939585
_cell_length_c   11.93209906
_cell_angle_alpha   84.21042913
_cell_angle_beta   75.52595348
_cell_angle_gamma   66.19686447
_symmetry_Int_Tables_number   1
_chemical_formula_structural   K2NbAgS4
_chemical_formula_sum   'K4 Nb2 Ag2 S8'
_cell_volume   465.90220988
_cell_formula_units_Z   2
loop_
 _symmetry_equiv_pos_site_id
 _symmetry_equiv_pos_as_xyz
  1  'x, y, z'
loop_
 _atom_site_type_symbol
 _atom_site_label
 _atom_site_symmetry_multiplicity
 _atom_site_fract_x
 _atom_site_fract_y
 _atom_site_fract_z
 _atom_site_occupancy
  S  S0  1  0.88385420  0.54551799  0.86570901  1
  S  S1  1  0.79508121  0.95448201  0.63429099  1
  S  S2  1  0.57062780  0.54551799  0.63429099  1
  S  S3  1  0.25043678  0.95448201  0.86570901  1
  S  S4  1  0.11614580  0.45448201  0.13429099  1
  S  S5  1  0.74956322  0.04551799  0.13429099  1
  S  S6  1  0.42937220  0.45448201  0.36570901  1
  S  S7  1  0.20491879  0.04551799  0.36570901  1
  K  K8  1  0.19464606  0.25000000  0.61070788  1
  K  K9  1  0.80535394  0.75000000  0.38929212  1
  K  K10  1  0.55535394  0.25000000  0.88929212  1
  K  K11  1  0.44464606  0.75000000  0.11070788  1
  Nb  Nb12  1  0.37500000  0.25000000  0.25000000  1
  Nb  Nb13  1  0.62500000  0.75000000  0.75000000  1
  Ag  Ag14  1  0.87500000  0.25000000  0.25000000  1
  Ag  Ag15  1  0.12500000  0.75000000  0.75000000  1
