# generated using pymatgen
data_Cs2TaAgS4
_symmetry_space_group_name_H-M   'P 1'
_cell_length_a   6.03251711
_cell_length_b   7.87891620
_cell_length_c   12.97493412
_cell_angle_alpha   84.89420851
_cell_angle_beta   76.55757596
_cell_angle_gamma   67.49112211
_symmetry_Int_Tables_number   1
_chemical_formula_structural   Cs2TaAgS4
_chemical_formula_sum   'Cs4 Ta2 Ag2 S8'
_cell_volume   554.10711866
_cell_formula_units_Z   2
loop_
 _symmetry_equiv_pos_site_id
 _symmetry_equiv_pos_as_xyz
  1  'x, y, z'
loop_
 _atom_site_type_symbol
 _atom_site_label
 _atom_site_symmetry_multiplicity
 _atom_site_fract_x
 _atom_site_fract_y
 _atom_site_fract_z
 _atom_site_occupancy
  S  S0  1  0.87890124  0.56279147  0.85614542  1
  S  S1  1  0.79783813  0.93720853  0.64385458  1
  S  S2  1  0.55830729  0.56279147  0.64385458  1
  S  S3  1  0.26495333  0.93720853  0.85614542  1
  S  S4  1  0.73504667  0.06279147  0.14385458  1
  S  S5  1  0.20216187  0.06279147  0.35614542  1
  S  S6  1  0.44169271  0.43720853  0.35614542  1
  S  S7  1  0.12109876  0.43720853  0.14385458  1
  Ag  Ag8  1  0.12500000  0.75000000  0.75000000  1
  Ag  Ag9  1  0.87500000  0.25000000  0.25000000  1
  Cs  Cs10  1  0.44686402  0.75000000  0.10627196  1
  Cs  Cs11  1  0.80313598  0.75000000  0.39372804  1
  Cs  Cs12  1  0.55313598  0.25000000  0.89372804  1
  Cs  Cs13  1  0.19686402  0.25000000  0.60627196  1
  Ta  Ta14  1  0.62500000  0.75000000  0.75000000  1
  Ta  Ta15  1  0.37500000  0.25000000  0.25000000  1
