# generated using pymatgen
data_Cs2NbCuSe4
_symmetry_space_group_name_H-M   'P 1'
_cell_length_a   5.82861290
_cell_length_b   8.02981480
_cell_length_c   13.35981591
_cell_angle_alpha   85.45910136
_cell_angle_beta   77.40020695
_cell_angle_gamma   68.71940281
_symmetry_Int_Tables_number   1
_chemical_formula_structural   Cs2NbCuSe4
_chemical_formula_sum   'Cs4 Nb2 Cu2 Se8'
_cell_volume   568.60891133
_cell_formula_units_Z   2
loop_
 _symmetry_equiv_pos_site_id
 _symmetry_equiv_pos_as_xyz
  1  'x, y, z'
loop_
 _atom_site_type_symbol
 _atom_site_label
 _atom_site_symmetry_multiplicity
 _atom_site_fract_x
 _atom_site_fract_y
 _atom_site_fract_z
 _atom_site_occupancy
  Cu  Cu0  1  0.87500000  0.25000000  0.25000000  1
  Cu  Cu1  1  0.12500000  0.75000000  0.75000000  1
  Se  Se2  1  0.91063672  0.56317149  0.85663115  1
  Se  Se3  1  0.83043936  0.93682851  0.64336885  1
  Se  Se4  1  0.52619179  0.56317149  0.64336885  1
  Se  Se5  1  0.23273213  0.93682851  0.85663115  1
  Se  Se6  1  0.47380821  0.43682851  0.35663115  1
  Se  Se7  1  0.76726787  0.06317149  0.14336885  1
  Se  Se8  1  0.16956064  0.06317149  0.35663115  1
  Se  Se9  1  0.08936328  0.43682851  0.14336885  1
  Nb  Nb10  1  0.62500000  0.75000000  0.75000000  1
  Nb  Nb11  1  0.37500000  0.25000000  0.25000000  1
  Cs  Cs12  1  0.55276773  0.25000000  0.89446454  1
  Cs  Cs13  1  0.19723227  0.25000000  0.60553546  1
  Cs  Cs14  1  0.44723227  0.75000000  0.10553546  1
  Cs  Cs15  1  0.80276773  0.75000000  0.39446454  1
