# generated using pymatgen
data_Rb2TaAgS4
_symmetry_space_group_name_H-M   'P 1'
_cell_length_a   6.00564080
_cell_length_b   7.60170396
_cell_length_c   12.41833056
_cell_angle_alpha   84.51887387
_cell_angle_beta   76.00687411
_cell_angle_gamma   66.73281716
_symmetry_Int_Tables_number   1
_chemical_formula_structural   Rb2TaAgS4
_chemical_formula_sum   'Rb4 Ta2 Ag2 S8'
_cell_volume   505.37235345
_cell_formula_units_Z   2
loop_
 _symmetry_equiv_pos_site_id
 _symmetry_equiv_pos_as_xyz
  1  'x, y, z'
loop_
 _atom_site_type_symbol
 _atom_site_label
 _atom_site_symmetry_multiplicity
 _atom_site_fract_x
 _atom_site_fract_y
 _atom_site_fract_z
 _atom_site_occupancy
  S  S0  1  0.88074567  0.55388651  0.86103478  1
  S  S1  1  0.79566695  0.94611349  0.63896522  1
  S  S2  1  0.56536783  0.55388651  0.63896522  1
  S  S3  1  0.25821956  0.94611349  0.86103478  1
  S  S4  1  0.11925433  0.44611349  0.13896522  1
  S  S5  1  0.74178044  0.05388651  0.13896522  1
  S  S6  1  0.43463217  0.44611349  0.36103478  1
  S  S7  1  0.20433305  0.05388651  0.36103478  1
  Rb  Rb8  1  0.19582841  0.25000000  0.60834317  1
  Rb  Rb9  1  0.80417159  0.75000000  0.39165683  1
  Rb  Rb10  1  0.55417159  0.25000000  0.89165683  1
  Rb  Rb11  1  0.44582841  0.75000000  0.10834317  1
  Ag  Ag12  1  0.12500000  0.75000000  0.75000000  1
  Ag  Ag13  1  0.87500000  0.25000000  0.25000000  1
  Ta  Ta14  1  0.62500000  0.75000000  0.75000000  1
  Ta  Ta15  1  0.37500000  0.25000000  0.25000000  1
