# generated using pymatgen
data_Rb2NbCuS4
_symmetry_space_group_name_H-M   'P 1'
_cell_length_a   5.60702668
_cell_length_b   7.46683392
_cell_length_c   12.47726357
_cell_angle_alpha   85.16063314
_cell_angle_beta   77.01536440
_cell_angle_gamma   67.94712200
_symmetry_Int_Tables_number   1
_chemical_formula_structural   Rb2NbCuS4
_chemical_formula_sum   'Rb4 Nb2 Cu2 S8'
_cell_volume   471.78374684
_cell_formula_units_Z   2
loop_
 _symmetry_equiv_pos_site_id
 _symmetry_equiv_pos_as_xyz
  1  'x, y, z'
loop_
 _atom_site_type_symbol
 _atom_site_label
 _atom_site_symmetry_multiplicity
 _atom_site_fract_x
 _atom_site_fract_y
 _atom_site_fract_z
 _atom_site_occupancy
  S  S0  1  0.23174935  0.94133978  0.85699336  1
  S  S1  1  0.53008248  0.55866022  0.64300664  1
  S  S2  1  0.82691088  0.94133978  0.64300664  1
  S  S3  1  0.91125729  0.55866022  0.85699336  1
  S  S4  1  0.08874271  0.44133978  0.14300664  1
  S  S5  1  0.46991752  0.44133978  0.35699336  1
  S  S6  1  0.17308912  0.05866022  0.35699336  1
  S  S7  1  0.76825065  0.05866022  0.14300664  1
  Cu  Cu8  1  0.87500000  0.25000000  0.25000000  1
  Cu  Cu9  1  0.12500000  0.75000000  0.75000000  1
  Rb  Rb10  1  0.80248905  0.75000000  0.39502189  1
  Rb  Rb11  1  0.44751095  0.75000000  0.10497811  1
  Rb  Rb12  1  0.19751095  0.25000000  0.60497811  1
  Rb  Rb13  1  0.55248905  0.25000000  0.89502189  1
  Nb  Nb14  1  0.37500000  0.25000000  0.25000000  1
  Nb  Nb15  1  0.62500000  0.75000000  0.75000000  1
