# generated using pymatgen
data_Rb2VCuS4
_symmetry_space_group_name_H-M   'P 1'
_cell_length_a   5.45237101
_cell_length_b   7.33926782
_cell_length_c   12.26238731
_cell_angle_alpha   85.26303102
_cell_angle_beta   77.15461015
_cell_angle_gamma   68.19480796
_symmetry_Int_Tables_number   1
_chemical_formula_structural   Rb2VCuS4
_chemical_formula_sum   'Rb4 V2 Cu2 S8'
_cell_volume   444.18667862
_cell_formula_units_Z   2
loop_
 _symmetry_equiv_pos_site_id
 _symmetry_equiv_pos_as_xyz
  1  'x, y, z'
loop_
 _atom_site_type_symbol
 _atom_site_label
 _atom_site_symmetry_multiplicity
 _atom_site_fract_x
 _atom_site_fract_y
 _atom_site_fract_z
 _atom_site_occupancy
  S  S0  1  0.39660600  0.56417915  0.85473455  1
  S  S1  1  0.31551970  0.93582085  0.64526545  1
  S  S2  1  0.03921486  0.56417915  0.64526545  1
  S  S3  1  0.74865945  0.93582085  0.85473455  1
  S  S4  1  0.25134055  0.06417915  0.14526545  1
  S  S5  1  0.68448030  0.06417915  0.35473455  1
  S  S6  1  0.96078514  0.43582085  0.35473455  1
  S  S7  1  0.60339400  0.43582085  0.14526545  1
  V  V8  1  0.87500000  0.25000000  0.25000000  1
  V  V9  1  0.12500000  0.75000000  0.75000000  1
  Cu  Cu10  1  0.62500000  0.75000000  0.75000000  1
  Cu  Cu11  1  0.37500000  0.25000000  0.25000000  1
  Rb  Rb12  1  0.05258339  0.25000000  0.89483321  1
  Rb  Rb13  1  0.69741661  0.25000000  0.60516679  1
  Rb  Rb14  1  0.30258339  0.75000000  0.39483321  1
  Rb  Rb15  1  0.94741661  0.75000000  0.10516679  1
