# generated using pymatgen
data_Rb2NbCuSe4
_symmetry_space_group_name_H-M   'P 1'
_cell_length_a   5.80218441
_cell_length_b   7.70575895
_cell_length_c   12.91482524
_cell_angle_alpha   85.14867019
_cell_angle_beta   77.01871882
_cell_angle_gamma   67.88395924
_symmetry_Int_Tables_number   1
_chemical_formula_structural   Rb2NbCuSe4
_chemical_formula_sum   'Rb4 Nb2 Cu2 Se8'
_cell_volume   521.26864104
_cell_formula_units_Z   2
loop_
 _symmetry_equiv_pos_site_id
 _symmetry_equiv_pos_as_xyz
  1  'x, y, z'
loop_
 _atom_site_type_symbol
 _atom_site_label
 _atom_site_symmetry_multiplicity
 _atom_site_fract_x
 _atom_site_fract_y
 _atom_site_fract_z
 _atom_site_occupancy
  Cu  Cu0  1  0.87500000  0.25000000  0.25000000  1
  Cu  Cu1  1  0.12500000  0.75000000  0.75000000  1
  Se  Se2  1  0.91381651  0.55330016  0.86041170  1
  Se  Se3  1  0.82752837  0.94669984  0.63958830  1
  Se  Se4  1  0.53288333  0.55330016  0.63958830  1
  Se  Se5  1  0.22577180  0.94669984  0.86041170  1
  Se  Se6  1  0.46711667  0.44669984  0.36041170  1
  Se  Se7  1  0.77422820  0.05330016  0.13958830  1
  Se  Se8  1  0.17247163  0.05330016  0.36041170  1
  Se  Se9  1  0.08618349  0.44669984  0.13958830  1
  Rb  Rb10  1  0.80376950  0.75000000  0.39246099  1
  Rb  Rb11  1  0.44623050  0.75000000  0.10753901  1
  Rb  Rb12  1  0.55376950  0.25000000  0.89246099  1
  Rb  Rb13  1  0.19623050  0.25000000  0.60753901  1
  Nb  Nb14  1  0.37500000  0.25000000  0.25000000  1
  Nb  Nb15  1  0.62500000  0.75000000  0.75000000  1
