# generated using pymatgen
data_K2VCuSe4
_symmetry_space_group_name_H-M   'P 1'
_cell_length_a   5.64723816
_cell_length_b   7.34485203
_cell_length_c   12.26960009
_cell_angle_alpha   84.92437461
_cell_angle_beta   76.69519770
_cell_angle_gamma   67.39132364
_symmetry_Int_Tables_number   1
_chemical_formula_structural   K2VCuSe4
_chemical_formula_sum   'K4 V2 Cu2 Se8'
_cell_volume   457.20065950
_cell_formula_units_Z   2
loop_
 _symmetry_equiv_pos_site_id
 _symmetry_equiv_pos_as_xyz
  1  'x, y, z'
loop_
 _atom_site_type_symbol
 _atom_site_label
 _atom_site_symmetry_multiplicity
 _atom_site_fract_x
 _atom_site_fract_y
 _atom_site_fract_z
 _atom_site_occupancy
  K  K0  1  0.94496604  0.75000000  0.11006792  1
  K  K1  1  0.30503396  0.75000000  0.38993208  1
  K  K2  1  0.05503396  0.25000000  0.88993208  1
  K  K3  1  0.69496604  0.25000000  0.61006792  1
  V  V4  1  0.12500000  0.75000000  0.75000000  1
  V  V5  1  0.87500000  0.25000000  0.25000000  1
  Cu  Cu6  1  0.62500000  0.75000000  0.75000000  1
  Cu  Cu7  1  0.37500000  0.25000000  0.25000000  1
  Se  Se8  1  0.26423039  0.05061370  0.13749863  1
  Se  Se9  1  0.95234272  0.44938630  0.36250137  1
  Se  Se10  1  0.68515591  0.05061370  0.36250137  1
  Se  Se11  1  0.59827098  0.44938630  0.13749863  1
  Se  Se12  1  0.73576961  0.94938630  0.86250137  1
  Se  Se13  1  0.04765728  0.55061370  0.63749863  1
  Se  Se14  1  0.31484409  0.94938630  0.63749863  1
  Se  Se15  1  0.40172902  0.55061370  0.86250137  1
