# generated using pymatgen
data_K2TaAgS4
_symmetry_space_group_name_H-M   'P 1'
_cell_length_a   5.98885289
_cell_length_b   7.39871061
_cell_length_c   11.93301541
_cell_angle_alpha   84.17101274
_cell_angle_beta   75.46707686
_cell_angle_gamma   66.12624611
_symmetry_Int_Tables_number   1
_chemical_formula_structural   K2TaAgS4
_chemical_formula_sum   'K4 Ta2 Ag2 S8'
_cell_volume   468.03875580
_cell_formula_units_Z   2
loop_
 _symmetry_equiv_pos_site_id
 _symmetry_equiv_pos_as_xyz
  1  'x, y, z'
loop_
 _atom_site_type_symbol
 _atom_site_label
 _atom_site_symmetry_multiplicity
 _atom_site_fract_x
 _atom_site_fract_y
 _atom_site_fract_z
 _atom_site_occupancy
  S  S0  1  0.88150469  0.54655772  0.86554402  1
  S  S1  1  0.79360644  0.95344228  0.63445598  1
  S  S2  1  0.57193758  0.54655772  0.63445598  1
  S  S3  1  0.25295129  0.95344228  0.86554402  1
  S  S4  1  0.11849531  0.45344228  0.13445598  1
  S  S5  1  0.74704871  0.04655772  0.13445598  1
  S  S6  1  0.42806242  0.45344228  0.36554402  1
  S  S7  1  0.20639356  0.04655772  0.36554402  1
  K  K8  1  0.19471744  0.25000000  0.61056512  1
  K  K9  1  0.80528256  0.75000000  0.38943488  1
  K  K10  1  0.55528256  0.25000000  0.88943488  1
  K  K11  1  0.44471744  0.75000000  0.11056512  1
  Ag  Ag12  1  0.12500000  0.75000000  0.75000000  1
  Ag  Ag13  1  0.87500000  0.25000000  0.25000000  1
  Ta  Ta14  1  0.62500000  0.75000000  0.75000000  1
  Ta  Ta15  1  0.37500000  0.25000000  0.25000000  1
