# generated using pymatgen
data_Ba3La9Mg7Nb5O36
_symmetry_space_group_name_H-M   'P 1'
_cell_length_a   5.70096557
_cell_length_b   34.32392407
_cell_length_c   9.91406075
_cell_angle_alpha   29.94389158
_cell_angle_beta   54.89767621
_cell_angle_gamma   60.11378112
_symmetry_Int_Tables_number   1
_chemical_formula_structural   Ba3La9Mg7Nb5O36
_chemical_formula_sum   'Ba3 La9 Mg7 Nb5 O36'
_cell_volume   792.22742144
_cell_formula_units_Z   1
loop_
 _symmetry_equiv_pos_site_id
 _symmetry_equiv_pos_as_xyz
  1  'x, y, z'
loop_
 _atom_site_type_symbol
 _atom_site_label
 _atom_site_symmetry_multiplicity
 _atom_site_fract_x
 _atom_site_fract_y
 _atom_site_fract_z
 _atom_site_occupancy
  Ba  Ba0  1  0.75073025  0.16631471  0.75032661  1
  Ba  Ba1  1  0.74880986  0.33333300  0.75119014  1
  Ba  Ba2  1  0.75073025  0.50035229  0.74821289  1
  La  La3  1  0.27261161  0.97440839  0.30416323  1
  La  La4  1  0.25514221  0.16013693  0.26444801  1
  La  La5  1  0.23525357  0.33333300  0.26474643  1
  La  La6  1  0.25514221  0.50653007  0.22526757  1
  La  La7  1  0.27261161  0.69225861  0.15061356  1
  La  La8  1  0.21847760  0.83333300  0.28152240  1
  La  La9  1  0.74066232  0.67541472  0.73309452  1
  La  La10  1  0.78393921  0.83333300  0.71606079  1
  La  La11  1  0.74066232  0.99125228  0.78558085  1
  Mg  Mg12  1  0.99990261  0.99875330  0.00383750  1
  Mg  Mg13  1  0.99950341  0.16379673  0.00910740  1
  Mg  Mg14  1  0.00225845  0.33333300  0.99774155  1
  Mg  Mg15  1  0.99950341  0.50287027  0.99188577  1
  Mg  Mg16  1  0.99990261  0.66791370  0.99635729  1
  Mg  Mg17  1  0.99417649  0.83333300  0.00582351  1
  Mg  Mg18  1  0.50655359  0.83333300  0.49344641  1
  Nb  Nb19  1  0.49918962  0.99664221  0.51088374  1
  Nb  Nb20  1  0.50138221  0.16587940  0.50098061  1
  Nb  Nb21  1  0.49881973  0.33333300  0.50118027  1
  Nb  Nb22  1  0.50138221  0.50078760  0.49625498  1
  Nb  Nb23  1  0.49918962  0.67002479  0.49073702  1
  O  O24  1  0.23570495  0.08244735  0.27993975  1
  O  O25  1  0.74450045  0.99210308  0.27919032  1
  O  O26  1  0.25002149  0.98465557  0.79601180  1
  O  O27  1  0.27624618  0.07897688  0.74348568  1
  O  O28  1  0.25400991  0.24612141  0.25788950  1
  O  O29  1  0.70973345  0.08244735  0.27993975  1
  O  O30  1  0.74808882  0.16461363  0.25807130  1
  O  O31  1  0.25542143  0.16604118  0.74645603  1
  O  O32  1  0.25634219  0.25138495  0.73907704  1
  O  O33  1  0.25634219  0.41528205  0.24738472  1
  O  O34  1  0.76292119  0.07897688  0.74348568  1
  O  O35  1  0.75348060  0.24612141  0.25788950  1
  O  O36  1  0.74938033  0.33333300  0.25061967  1
  O  O37  1  0.25599544  0.33333300  0.74400456  1
  O  O38  1  0.25400991  0.42054459  0.73461999  1
  O  O39  1  0.27624618  0.58769012  0.21734695  1
  O  O40  1  0.75719605  0.25138495  0.73907704  1
  O  O41  1  0.75719605  0.41528205  0.24738472  1
  O  O42  1  0.74808882  0.50205337  0.24575105  1
  O  O43  1  0.25542143  0.50062582  0.74270112  1
  O  O44  1  0.23570495  0.58421965  0.77462185  1
  O  O45  1  0.24250796  0.74679085  0.25843060  1
  O  O46  1  0.75348060  0.42054459  0.73461999  1
  O  O47  1  0.76292119  0.58769012  0.21734695  1
  O  O48  1  0.74450045  0.67456392  0.23180878  1
  O  O49  1  0.25002149  0.68201143  0.70394521  1
  O  O50  1  0.23869977  0.75190332  0.75450293  1
  O  O51  1  0.23869977  0.91476368  0.26592082  1
  O  O52  1  0.70973345  0.58421965  0.77462185  1
  O  O53  1  0.75988371  0.74679085  0.25843060  1
  O  O54  1  0.74925353  0.83333300  0.25074647  1
  O  O55  1  0.24756450  0.83333300  0.75243550  1
  O  O56  1  0.24250796  0.91987515  0.73917773  1
  O  O57  1  0.74087648  0.91476368  0.26592082  1
  O  O58  1  0.74087648  0.75190332  0.75450293  1
  O  O59  1  0.75988371  0.91987515  0.73917773  1
