# generated using pymatgen
data_Sr3CdIrO6
_symmetry_space_group_name_H-M   'P 1'
_cell_length_a   6.86368448
_cell_length_b   6.86368448
_cell_length_c   6.86368448
_cell_angle_alpha   90.04731228
_cell_angle_beta   90.04731233
_cell_angle_gamma   90.04731228
_symmetry_Int_Tables_number   1
_chemical_formula_structural   Sr3CdIrO6
_chemical_formula_sum   'Sr6 Cd2 Ir2 O12'
_cell_volume   323.34897509
_cell_formula_units_Z   2
loop_
 _symmetry_equiv_pos_site_id
 _symmetry_equiv_pos_as_xyz
  1  'x, y, z'
loop_
 _atom_site_type_symbol
 _atom_site_label
 _atom_site_symmetry_multiplicity
 _atom_site_fract_x
 _atom_site_fract_y
 _atom_site_fract_z
 _atom_site_occupancy
  O  O0  1  0.78251683  0.58360811  0.44824236  1
  O  O1  1  0.58360811  0.44824236  0.78251683  1
  O  O2  1  0.44824236  0.78251683  0.58360811  1
  O  O3  1  0.05175764  0.91639189  0.71748317  1
  O  O4  1  0.91639189  0.71748317  0.05175764  1
  O  O5  1  0.71748317  0.05175764  0.91639189  1
  O  O6  1  0.21748317  0.41639189  0.55175764  1
  O  O7  1  0.41639189  0.55175764  0.21748317  1
  O  O8  1  0.55175764  0.21748317  0.41639189  1
  O  O9  1  0.94824236  0.08360811  0.28251683  1
  O  O10  1  0.28251683  0.94824236  0.08360811  1
  O  O11  1  0.08360811  0.28251683  0.94824236  1
  Sr  Sr12  1  0.88818881  0.25000000  0.61181119  1
  Sr  Sr13  1  0.25000000  0.61181119  0.88818881  1
  Sr  Sr14  1  0.11181119  0.75000000  0.38818881  1
  Sr  Sr15  1  0.61181119  0.88818881  0.25000000  1
  Sr  Sr16  1  0.38818881  0.11181119  0.75000000  1
  Sr  Sr17  1  0.75000000  0.38818881  0.11181119  1
  Cd  Cd18  1  0.75000000  0.75000000  0.75000000  1
  Cd  Cd19  1  0.25000000  0.25000000  0.25000000  1
  Ir  Ir20  1  0.00000000  0.00000000  0.00000000  1
  Ir  Ir21  1  0.50000000  0.50000000  0.50000000  1
