# generated using pymatgen
data_Tb4C5
_symmetry_space_group_name_H-M   'P 1'
_cell_length_a   3.69536168
_cell_length_b   6.62881512
_cell_length_c   12.05187977
_cell_angle_alpha   90.00000000
_cell_angle_beta   90.00000000
_cell_angle_gamma   90.00000000
_symmetry_Int_Tables_number   1
_chemical_formula_structural   Tb4C5
_chemical_formula_sum   'Tb8 C10'
_cell_volume   295.22127261
_cell_formula_units_Z   2
loop_
 _symmetry_equiv_pos_site_id
 _symmetry_equiv_pos_as_xyz
  1  'x, y, z'
loop_
 _atom_site_type_symbol
 _atom_site_label
 _atom_site_symmetry_multiplicity
 _atom_site_fract_x
 _atom_site_fract_y
 _atom_site_fract_z
 _atom_site_occupancy
  C  C0  1  0.50000000  0.50000000  0.50000000  1
  C  C1  1  0.50000000  0.00000000  0.00000000  1
  C  C2  1  0.00000000  0.35924766  0.73523015  1
  C  C3  1  0.00000000  0.64075234  0.26476985  1
  C  C4  1  0.00000000  0.85924766  0.76476985  1
  C  C5  1  0.00000000  0.14075234  0.23523015  1
  C  C6  1  0.00000000  0.40180318  0.84318448  1
  C  C7  1  0.00000000  0.59819682  0.15681552  1
  C  C8  1  0.00000000  0.09819682  0.34318448  1
  C  C9  1  0.00000000  0.90180318  0.65681552  1
  Tb  Tb10  1  0.00000000  0.25572769  0.54205170  1
  Tb  Tb11  1  0.00000000  0.74427231  0.45794830  1
  Tb  Tb12  1  0.00000000  0.75572769  0.95794830  1
  Tb  Tb13  1  0.00000000  0.24427231  0.04205170  1
  Tb  Tb14  1  0.50000000  0.10602579  0.80331659  1
  Tb  Tb15  1  0.50000000  0.89397421  0.19668341  1
  Tb  Tb16  1  0.50000000  0.60602579  0.69668341  1
  Tb  Tb17  1  0.50000000  0.39397421  0.30331659  1
