# generated using pymatgen
data_Ho4C5
_symmetry_space_group_name_H-M   'P 1'
_cell_length_a   3.64409689
_cell_length_b   6.54623749
_cell_length_c   11.91544767
_cell_angle_alpha   90.00000000
_cell_angle_beta   90.00000000
_cell_angle_gamma   90.00000000
_symmetry_Int_Tables_number   1
_chemical_formula_structural   Ho4C5
_chemical_formula_sum   'Ho8 C10'
_cell_volume   284.24447785
_cell_formula_units_Z   2
loop_
 _symmetry_equiv_pos_site_id
 _symmetry_equiv_pos_as_xyz
  1  'x, y, z'
loop_
 _atom_site_type_symbol
 _atom_site_label
 _atom_site_symmetry_multiplicity
 _atom_site_fract_x
 _atom_site_fract_y
 _atom_site_fract_z
 _atom_site_occupancy
  C  C0  1  0.50000000  0.50000000  0.50000000  1
  C  C1  1  0.50000000  0.00000000  0.00000000  1
  C  C2  1  0.00000000  0.35884046  0.73491208  1
  C  C3  1  0.00000000  0.64115954  0.26508792  1
  C  C4  1  0.00000000  0.85884046  0.76508792  1
  C  C5  1  0.00000000  0.14115954  0.23491208  1
  C  C6  1  0.00000000  0.40199112  0.84443372  1
  C  C7  1  0.00000000  0.59800888  0.15556628  1
  C  C8  1  0.00000000  0.09800888  0.34443372  1
  C  C9  1  0.00000000  0.90199112  0.65556628  1
  Ho  Ho10  1  0.00000000  0.25641170  0.54221386  1
  Ho  Ho11  1  0.00000000  0.74358830  0.45778614  1
  Ho  Ho12  1  0.00000000  0.75641170  0.95778614  1
  Ho  Ho13  1  0.00000000  0.24358830  0.04221386  1
  Ho  Ho14  1  0.50000000  0.10556715  0.80362301  1
  Ho  Ho15  1  0.50000000  0.89443285  0.19637699  1
  Ho  Ho16  1  0.50000000  0.60556715  0.69637699  1
  Ho  Ho17  1  0.50000000  0.39443285  0.30362301  1
