# generated using pymatgen
data_Tb2Se3
_symmetry_space_group_name_H-M   'P 1'
_cell_length_a   4.04996536
_cell_length_b   11.02419258
_cell_length_c   11.21161529
_cell_angle_alpha   90.00000000
_cell_angle_beta   90.00000000
_cell_angle_gamma   90.00000000
_symmetry_Int_Tables_number   1
_chemical_formula_structural   Tb2Se3
_chemical_formula_sum   'Tb8 Se12'
_cell_volume   500.57169319
_cell_formula_units_Z   4
loop_
 _symmetry_equiv_pos_site_id
 _symmetry_equiv_pos_as_xyz
  1  'x, y, z'
loop_
 _atom_site_type_symbol
 _atom_site_label
 _atom_site_symmetry_multiplicity
 _atom_site_fract_x
 _atom_site_fract_y
 _atom_site_fract_z
 _atom_site_occupancy
  Se  Se0  1  0.25000000  0.30414833  0.72681791  1
  Se  Se1  1  0.75000000  0.69585167  0.27318209  1
  Se  Se2  1  0.75000000  0.80414833  0.77318209  1
  Se  Se3  1  0.25000000  0.19585167  0.22681791  1
  Se  Se4  1  0.25000000  0.62538622  0.54446710  1
  Se  Se5  1  0.75000000  0.37461378  0.45553290  1
  Se  Se6  1  0.75000000  0.12538622  0.95553290  1
  Se  Se7  1  0.25000000  0.87461378  0.04446710  1
  Se  Se8  1  0.25000000  0.55601818  0.88095760  1
  Se  Se9  1  0.75000000  0.44398182  0.11904240  1
  Se  Se10  1  0.75000000  0.05601818  0.61904240  1
  Se  Se11  1  0.25000000  0.94398182  0.38095760  1
  Tb  Tb12  1  0.25000000  0.18737406  0.48738047  1
  Tb  Tb13  1  0.75000000  0.81262594  0.51261953  1
  Tb  Tb14  1  0.75000000  0.68737406  0.01261953  1
  Tb  Tb15  1  0.25000000  0.31262594  0.98738047  1
  Tb  Tb16  1  0.25000000  0.99863106  0.80620957  1
  Tb  Tb17  1  0.75000000  0.00136894  0.19379043  1
  Tb  Tb18  1  0.75000000  0.49863106  0.69379043  1
  Tb  Tb19  1  0.25000000  0.50136894  0.30620957  1
