# generated using pymatgen
data_Cu2GeS3
_symmetry_space_group_name_H-M   'P 1'
_cell_length_a   6.51528693
_cell_length_b   6.47661935
_cell_length_c   6.51108859
_cell_angle_alpha   60.17496780
_cell_angle_beta   80.60817109
_cell_angle_gamma   70.84605111
_symmetry_Int_Tables_number   1
_chemical_formula_structural   Cu2GeS3
_chemical_formula_sum   'Cu4 Ge2 S6'
_cell_volume   225.16229690
_cell_formula_units_Z   2
loop_
 _symmetry_equiv_pos_site_id
 _symmetry_equiv_pos_as_xyz
  1  'x, y, z'
loop_
 _atom_site_type_symbol
 _atom_site_label
 _atom_site_symmetry_multiplicity
 _atom_site_fract_x
 _atom_site_fract_y
 _atom_site_fract_z
 _atom_site_occupancy
  S  S0  1  0.51216093  0.24925779  0.49599715  1
  S  S1  1  0.01216093  0.74525494  0.50400285  1
  S  S2  1  0.51405459  0.91745059  0.16918954  1
  S  S3  1  0.01405459  0.08664013  0.83081046  1
  S  S4  1  0.00760183  0.41150385  0.16662640  1
  S  S5  1  0.50760183  0.57813025  0.83337360  1
  Cu  Cu6  1  0.14010564  0.03011843  0.16912196  1
  Cu  Cu7  1  0.14024849  0.37303185  0.49631881  1
  Cu  Cu8  1  0.64010564  0.19924038  0.83087804  1
  Cu  Cu9  1  0.64024849  0.86935066  0.50368119  1
  Ge  Ge10  1  0.12082852  0.72349832  0.82502450  1
  Ge  Ge11  1  0.62082852  0.54852281  0.17497550  1
