# generated using pymatgen
data_NaHNO2
_symmetry_space_group_name_H-M   'P 1'
_cell_length_a   6.35869050
_cell_length_b   9.88712438
_cell_length_c   6.80839344
_cell_angle_alpha   90.00012488
_cell_angle_beta   90.00040193
_cell_angle_gamma   89.99976002
_symmetry_Int_Tables_number   1
_chemical_formula_structural   NaHNO2
_chemical_formula_sum   'Na8 H8 N8 O16'
_cell_volume   428.03800285
_cell_formula_units_Z   8
loop_
 _symmetry_equiv_pos_site_id
 _symmetry_equiv_pos_as_xyz
  1  'x, y, z'
loop_
 _atom_site_type_symbol
 _atom_site_label
 _atom_site_symmetry_multiplicity
 _atom_site_fract_x
 _atom_site_fract_y
 _atom_site_fract_z
 _atom_site_occupancy
  Na  Na0  1  -0.00000700  0.49998659  0.50002111  1
  Na  Na1  1  0.00001394  0.49998644  0.00000939  1
  Na  Na2  1  -0.00001688  0.99998643  0.49999930  1
  Na  Na3  1  -0.00000613  0.99999909  -0.00001141  1
  Na  Na4  1  0.34116627  0.25000523  0.49999231  1
  Na  Na5  1  0.65883828  0.75000878  -0.00000998  1
  Na  Na6  1  0.65884661  0.75000233  0.49999430  1
  Na  Na7  1  0.34115183  0.25000229  -0.00000672  1
  H  H8  1  0.83844810  0.22411097  0.60649711  1
  H  H9  1  0.16155969  0.77589138  0.10650134  1
  H  H10  1  0.83844348  0.27589108  0.39349954  1
  H  H11  1  0.16155715  0.72411064  0.89350105  1
  H  H12  1  0.16155745  0.77589067  0.39349986  1
  H  H13  1  0.83844348  0.22411134  0.89350070  1
  H  H14  1  0.16155599  0.72411139  0.60649932  1
  H  H15  1  0.83844468  0.27589077  0.10650026  1
  N  N16  1  0.57930363  0.02491426  0.74999794  1
  N  N17  1  0.42069298  0.97508558  0.24999950  1
  N  N18  1  0.57930399  0.47508447  0.25000448  1
  N  N19  1  0.42069687  0.52491447  0.74999812  1
  N  N20  1  0.38983331  0.97547384  0.74999663  1
  N  N21  1  0.61016504  0.02453240  0.25000195  1
  N  N22  1  0.38983143  0.52453150  0.24999958  1
  N  N23  1  0.61016994  0.47547277  0.74999892  1
  O  O24  1  0.73927418  0.93986965  0.75000113  1
  O  O25  1  0.26072584  0.06012630  0.25000349  1
  O  O26  1  0.73927342  0.56012437  0.24999323  1
  O  O27  1  0.26072571  0.43987277  0.75000651  1
  O  O28  1  0.61820224  0.15696911  0.74999726  1
  O  O29  1  0.38180849  0.84302998  0.25000434  1
  O  O30  1  0.61819317  0.34302925  0.25000016  1
  O  O31  1  0.38180577  0.65697000  0.74999979  1
  O  O32  1  0.24077881  0.07154767  0.75000931  1
  O  O33  1  0.75921437  0.92845621  0.24999690  1
  O  O34  1  0.24078599  0.42845311  0.25000233  1
  O  O35  1  0.75921400  0.57155246  0.75000036  1
  O  O36  1  0.93711335  0.25000025  0.50000150  1
  O  O37  1  0.06288970  0.75000128  -0.00000012  1
  O  O38  1  0.06288865  0.75000178  0.49999989  1
  O  O39  1  0.93711217  0.25000113  0.99999934  1
