# generated using pymatgen
data_U(BRu)4
_symmetry_space_group_name_H-M   'P 1'
_cell_length_a   7.47623354
_cell_length_b   7.47623354
_cell_length_c   9.19614520
_cell_angle_alpha   113.98436632
_cell_angle_beta   113.98436632
_cell_angle_gamma   90.00000000
_symmetry_Int_Tables_number   1
_chemical_formula_structural   U(BRu)4
_chemical_formula_sum   'U4 B16 Ru16'
_cell_volume   420.58959315
_cell_formula_units_Z   4
loop_
 _symmetry_equiv_pos_site_id
 _symmetry_equiv_pos_as_xyz
  1  'x, y, z'
loop_
 _atom_site_type_symbol
 _atom_site_label
 _atom_site_symmetry_multiplicity
 _atom_site_fract_x
 _atom_site_fract_y
 _atom_site_fract_z
 _atom_site_occupancy
  U  U0  1  0.12500000  0.37500000  0.25000000  1
  U  U1  1  0.62500000  0.87500000  0.25000000  1
  U  U2  1  0.87500000  0.62500000  0.75000000  1
  U  U3  1  0.37500000  0.12500000  0.75000000  1
  B  B4  1  0.78811293  0.34838148  0.91529584  1
  B  B5  1  0.62718291  0.84838148  0.91529584  1
  B  B6  1  0.84838148  0.28811293  0.41529584  1
  B  B7  1  0.06691436  0.78811293  0.41529584  1
  B  B8  1  0.21188707  0.65161852  0.08470416  1
  B  B9  1  0.37281709  0.15161852  0.08470416  1
  B  B10  1  0.15161852  0.71188707  0.58470416  1
  B  B11  1  0.93308564  0.21188707  0.58470416  1
  B  B12  1  0.28811293  0.56691436  0.91529584  1
  B  B13  1  0.12718291  0.06691436  0.91529584  1
  B  B14  1  0.34838148  0.12718291  0.41529584  1
  B  B15  1  0.56691436  0.62718291  0.41529584  1
  B  B16  1  0.71188707  0.43308564  0.08470416  1
  B  B17  1  0.87281709  0.93308564  0.08470416  1
  B  B18  1  0.65161852  0.87281709  0.58470416  1
  B  B19  1  0.43308564  0.37281709  0.58470416  1
  Ru  Ru20  1  0.94916444  0.66001057  0.12583188  1
  Ru  Ru21  1  0.67666744  0.16001057  0.12583188  1
  Ru  Ru22  1  0.16001057  0.44916444  0.62583188  1
  Ru  Ru23  1  0.96582132  0.94916444  0.62583188  1
  Ru  Ru24  1  0.05083556  0.33998943  0.87416812  1
  Ru  Ru25  1  0.32333256  0.83998943  0.87416812  1
  Ru  Ru26  1  0.83998943  0.55083556  0.37416812  1
  Ru  Ru27  1  0.03417868  0.05083556  0.37416812  1
  Ru  Ru28  1  0.44916444  0.46582132  0.12583188  1
  Ru  Ru29  1  0.17666744  0.96582132  0.12583188  1
  Ru  Ru30  1  0.66001057  0.17666744  0.62583188  1
  Ru  Ru31  1  0.46582132  0.67666744  0.62583188  1
  Ru  Ru32  1  0.55083556  0.53417868  0.87416812  1
  Ru  Ru33  1  0.82333256  0.03417868  0.87416812  1
  Ru  Ru34  1  0.33998943  0.82333256  0.37416812  1
  Ru  Ru35  1  0.53417868  0.32333256  0.37416812  1
