# generated using pymatgen
data_Na4TeO5
_symmetry_space_group_name_H-M   'P 1'
_cell_length_a   5.77380966
_cell_length_b   5.81382561
_cell_length_c   8.65797815
_cell_angle_alpha   101.96088768
_cell_angle_beta   108.72850956
_cell_angle_gamma   102.56241886
_symmetry_Int_Tables_number   1
_chemical_formula_structural   Na4TeO5
_chemical_formula_sum   'Na8 Te2 O10'
_cell_volume   256.29917459
_cell_formula_units_Z   2
loop_
 _symmetry_equiv_pos_site_id
 _symmetry_equiv_pos_as_xyz
  1  'x, y, z'
loop_
 _atom_site_type_symbol
 _atom_site_label
 _atom_site_symmetry_multiplicity
 _atom_site_fract_x
 _atom_site_fract_y
 _atom_site_fract_z
 _atom_site_occupancy
  O  O0  1  0.24039303  0.21318935  0.84560592  1
  O  O1  1  0.75960697  0.78681065  0.15439408  1
  O  O2  1  0.91084869  0.77338111  0.59926588  1
  O  O3  1  0.08915131  0.22661889  0.40073412  1
  O  O4  1  0.43282564  0.22429204  0.23988727  1
  O  O5  1  0.56717436  0.77570796  0.76011273  1
  O  O6  1  0.07677326  0.80773285  0.96209680  1
  O  O7  1  0.92322674  0.19226715  0.03790320  1
  O  O8  1  0.25712584  0.79357413  0.31244277  1
  O  O9  1  0.74287416  0.20642587  0.68755723  1
  Na  Na10  1  0.69044114  0.48521807  0.90035014  1
  Na  Na11  1  0.88751567  0.50651227  0.30227549  1
  Na  Na12  1  0.69668246  0.00419462  0.40049066  1
  Na  Na13  1  0.30331754  0.99580538  0.59950934  1
  Na  Na14  1  0.30955886  0.51478193  0.09964986  1
  Na  Na15  1  0.50000000  0.50000000  0.50000000  1
  Na  Na16  1  0.50000000  0.00000000  0.00000000  1
  Na  Na17  1  0.11248433  0.49348773  0.69772451  1
  Te  Te18  1  0.90136617  0.99313744  0.79719217  1
  Te  Te19  1  0.09863383  0.00686256  0.20280783  1
