# generated using pymatgen
data_Na2UP2O9
_symmetry_space_group_name_H-M   'P 1'
_cell_length_a   7.04976619
_cell_length_b   8.28027128
_cell_length_c   13.42895391
_cell_angle_alpha   90.00000000
_cell_angle_beta   90.00000000
_cell_angle_gamma   90.00000000
_symmetry_Int_Tables_number   1
_chemical_formula_structural   Na2UP2O9
_chemical_formula_sum   'Na8 U4 P8 O36'
_cell_volume   783.90144015
_cell_formula_units_Z   4
loop_
 _symmetry_equiv_pos_site_id
 _symmetry_equiv_pos_as_xyz
  1  'x, y, z'
loop_
 _atom_site_type_symbol
 _atom_site_label
 _atom_site_symmetry_multiplicity
 _atom_site_fract_x
 _atom_site_fract_y
 _atom_site_fract_z
 _atom_site_occupancy
  O  O0  1  0.92386850  0.28138260  0.16244262  1
  O  O1  1  0.42386850  0.71861740  0.83755738  1
  O  O2  1  0.92386850  0.21861740  0.66244262  1
  O  O3  1  0.42386850  0.78138260  0.33755738  1
  O  O4  1  0.07012117  0.29939248  0.85740196  1
  O  O5  1  0.57012117  0.70060752  0.14259804  1
  O  O6  1  0.07012117  0.20060752  0.35740196  1
  O  O7  1  0.57012117  0.79939248  0.64259804  1
  O  O8  1  0.74499476  0.32874915  0.51162218  1
  O  O9  1  0.24499476  0.67125085  0.48837782  1
  O  O10  1  0.74499476  0.17125085  0.01162218  1
  O  O11  1  0.24499476  0.82874915  0.98837782  1
  O  O12  1  0.41449509  0.31577411  0.85358851  1
  O  O13  1  0.91449509  0.68422589  0.14641149  1
  O  O14  1  0.41449509  0.18422589  0.35358851  1
  O  O15  1  0.91449509  0.81577411  0.64641149  1
  O  O16  1  0.73402705  0.46651855  0.04591578  1
  O  O17  1  0.23402705  0.53348145  0.95408422  1
  O  O18  1  0.73402705  0.03348145  0.54591578  1
  O  O19  1  0.23402705  0.96651855  0.45408422  1
  O  O20  1  0.74859599  0.96275370  0.27538225  1
  O  O21  1  0.24859599  0.03724630  0.72461775  1
  O  O22  1  0.74859599  0.53724630  0.77538225  1
  O  O23  1  0.24859599  0.46275370  0.22461775  1
  O  O24  1  0.74500369  0.96865007  0.82874083  1
  O  O25  1  0.24500369  0.03134993  0.17125917  1
  O  O26  1  0.74500369  0.53134993  0.32874083  1
  O  O27  1  0.24500369  0.46865007  0.67125917  1
  O  O28  1  0.74820608  0.74596372  0.97984125  1
  O  O29  1  0.24820608  0.25403628  0.02015875  1
  O  O30  1  0.74820608  0.75403628  0.47984125  1
  O  O31  1  0.24820608  0.24596372  0.52015875  1
  O  O32  1  0.06674868  0.77056481  0.33574192  1
  O  O33  1  0.56674868  0.22943519  0.66425808  1
  O  O34  1  0.06674868  0.72943519  0.83574192  1
  O  O35  1  0.56674868  0.27056481  0.16425808  1
  Na  Na36  1  0.50769856  0.97877512  0.02765089  1
  Na  Na37  1  0.23712617  0.76779222  0.66370715  1
  Na  Na38  1  0.73712617  0.23220778  0.33629285  1
  Na  Na39  1  0.23712617  0.73220778  0.16370715  1
  Na  Na40  1  0.73712617  0.26779222  0.83629285  1
  Na  Na41  1  0.00769856  0.02122488  0.97234911  1
  Na  Na42  1  0.00769856  0.47877512  0.47234911  1
  Na  Na43  1  0.50769856  0.52122488  0.52765089  1
  P  P44  1  0.24317601  0.34631914  0.92129383  1
  P  P45  1  0.74383498  0.21175039  0.59842267  1
  P  P46  1  0.24317601  0.15368086  0.42129383  1
  P  P47  1  0.24383498  0.71175039  0.90157733  1
  P  P48  1  0.74383498  0.28824961  0.09842267  1
  P  P49  1  0.74317601  0.84631914  0.57870617  1
  P  P50  1  0.74317601  0.65368086  0.07870617  1
  P  P51  1  0.24383498  0.78824961  0.40157733  1
  U  U52  1  0.24410326  0.25188999  0.69848492  1
  U  U53  1  0.74410326  0.74811001  0.30151508  1
  U  U54  1  0.24410326  0.24811001  0.19848492  1
  U  U55  1  0.74410326  0.75188999  0.80151508  1
