# generated using pymatgen
data_BaAl3P2(HO7)2
_symmetry_space_group_name_H-M   'P 1'
_cell_length_a   7.20475950
_cell_length_b   7.20475950
_cell_length_c   7.52899819
_cell_angle_alpha   61.18874183
_cell_angle_beta   118.81125817
_cell_angle_gamma   126.19486976
_symmetry_Int_Tables_number   1
_chemical_formula_structural   BaAl3P2(HO7)2
_chemical_formula_sum   'Ba1 Al3 P2 H2 O14'
_cell_volume   265.37503754
_cell_formula_units_Z   1
loop_
 _symmetry_equiv_pos_site_id
 _symmetry_equiv_pos_as_xyz
  1  'x, y, z'
loop_
 _atom_site_type_symbol
 _atom_site_label
 _atom_site_symmetry_multiplicity
 _atom_site_fract_x
 _atom_site_fract_y
 _atom_site_fract_z
 _atom_site_occupancy
  Ba  Ba0  1  -0.00000955  0.00000955  0.00097615  1
  Al  Al1  1  0.00053417  0.99946583  0.50123270  1
  Al  Al2  1  0.50052882  0.99966649  0.50076329  1
  Al  Al3  1  0.00033351  0.49947118  0.50076329  1
  P  P4  1  0.28075091  0.71924909  0.87956455  1
  P  P5  1  0.72003682  0.27996318  0.12211185  1
  H  H6  1  0.32813697  0.67186303  0.35414806  1
  H  H7  1  0.67446045  0.32553955  0.65025051  1
  O  O8  1  0.35498551  0.64501449  0.12013283  1
  O  O9  1  0.64682991  0.35317009  0.88272236  1
  O  O10  1  0.13771953  0.86228047  0.78345041  1
  O  O11  1  0.86334582  0.13665418  0.21947995  1
  O  O12  1  0.12284090  0.49594666  0.79184266  1
  O  O13  1  0.50405334  0.87715910  0.79184266  1
  O  O14  1  0.49683179  0.12195089  0.21034726  1
  O  O15  1  0.87804911  0.50316821  0.21034726  1
  O  O16  1  0.31147310  0.68852690  0.46801408  1
  O  O17  1  0.68986963  0.31013037  0.53485129  1
  O  O18  1  0.78804602  0.97534413  0.59435956  1
  O  O19  1  0.02465587  0.21195398  0.59435956  1
  O  O20  1  0.97640216  0.78707180  0.40796888  1
  O  O21  1  0.21292820  0.02359784  0.40796888  1
