# generated using pymatgen
data_BaAs3
_symmetry_space_group_name_H-M   'P 1'
_cell_length_a   6.13350561
_cell_length_b   6.49654408
_cell_length_c   6.49654408
_cell_angle_alpha   74.82951774
_cell_angle_beta   71.59212718
_cell_angle_gamma   71.59212724
_symmetry_Int_Tables_number   1
_chemical_formula_structural   BaAs3
_chemical_formula_sum   'Ba2 As6'
_cell_volume   229.24901993
_cell_formula_units_Z   2
loop_
 _symmetry_equiv_pos_site_id
 _symmetry_equiv_pos_as_xyz
  1  'x, y, z'
loop_
 _atom_site_type_symbol
 _atom_site_label
 _atom_site_symmetry_multiplicity
 _atom_site_fract_x
 _atom_site_fract_y
 _atom_site_fract_z
 _atom_site_occupancy
  As  As0  1  0.18331000  0.90412586  0.37362312  1
  As  As1  1  0.81669000  0.62637688  0.09587414  1
  As  As2  1  0.20410898  0.50426802  0.50426802  1
  As  As3  1  0.79589102  0.49573198  0.49573198  1
  As  As4  1  0.18331000  0.37362312  0.90412586  1
  As  As5  1  0.81669000  0.09587414  0.62637688  1
  Ba  Ba6  1  0.33631741  0.83502321  0.83502321  1
  Ba  Ba7  1  0.66368259  0.16497679  0.16497679  1
