# generated using pymatgen
data_Li2Fe(WO4)2
_symmetry_space_group_name_H-M   'P 1'
_cell_length_a   5.58231764
_cell_length_b   7.19683649
_cell_length_c   5.60935577
_cell_angle_alpha   90.37289995
_cell_angle_beta   101.34301161
_cell_angle_gamma   90.08171414
_symmetry_Int_Tables_number   1
_chemical_formula_structural   Li2Fe(WO4)2
_chemical_formula_sum   'Li2 Fe1 W2 O8'
_cell_volume   220.94868507
_cell_formula_units_Z   1
loop_
 _symmetry_equiv_pos_site_id
 _symmetry_equiv_pos_as_xyz
  1  'x, y, z'
loop_
 _atom_site_type_symbol
 _atom_site_label
 _atom_site_symmetry_multiplicity
 _atom_site_fract_x
 _atom_site_fract_y
 _atom_site_fract_z
 _atom_site_occupancy
  Li  Li0  1  0.26548168  0.24504003  0.27216067  1
  Li  Li1  1  0.75831025  0.75519040  0.75364167  1
  Fe  Fe2  1  0.26866846  0.74677244  0.25095568  1
  W  W3  1  0.78237767  0.50168140  0.27259486  1
  W  W4  1  0.24744932  0.00071161  0.74930743  1
  O  O5  1  0.90831778  0.68890875  0.10479941  1
  O  O6  1  0.33176651  0.21449478  0.62874485  1
  O  O7  1  0.88902804  0.55035407  0.58626542  1
  O  O8  1  0.31359254  0.99448449  0.08871313  1
  O  O9  1  0.92862282  0.96517435  0.64631866  1
  O  O10  1  0.44103824  0.50112404  0.21191791  1
  O  O11  1  0.91206430  0.28737528  0.20315726  1
  O  O12  1  0.40338239  0.81098836  0.61352306  1
