# generated using pymatgen
data_SmSi3Pt5
_symmetry_space_group_name_H-M   'P 1'
_cell_length_a   16.05358575
_cell_length_b   16.05358575
_cell_length_c   4.00916739
_cell_angle_alpha   90.00000000
_cell_angle_beta   90.00000000
_cell_angle_gamma   120.00000001
_symmetry_Int_Tables_number   1
_chemical_formula_structural   SmSi3Pt5
_chemical_formula_sum   'Sm6 Si18 Pt30'
_cell_volume   894.80607758
_cell_formula_units_Z   6
loop_
 _symmetry_equiv_pos_site_id
 _symmetry_equiv_pos_as_xyz
  1  'x, y, z'
loop_
 _atom_site_type_symbol
 _atom_site_label
 _atom_site_symmetry_multiplicity
 _atom_site_fract_x
 _atom_site_fract_y
 _atom_site_fract_z
 _atom_site_occupancy
  Si  Si0  1  0.44899185  0.76718718  0.75000000  1
  Si  Si1  1  0.62677630  0.06090490  0.75000000  1
  Si  Si2  1  0.56587139  0.62677630  0.25000000  1
  Si  Si3  1  0.06090490  0.43412861  0.25000000  1
  Si  Si4  1  0.93909510  0.56587139  0.75000000  1
  Si  Si5  1  0.43412861  0.37322370  0.75000000  1
  Si  Si6  1  0.68180467  0.44899185  0.25000000  1
  Si  Si7  1  0.76718718  0.31819533  0.25000000  1
  Si  Si8  1  0.23281282  0.68180467  0.75000000  1
  Si  Si9  1  0.31819533  0.55100815  0.75000000  1
  Si  Si10  1  0.55100815  0.23281282  0.25000000  1
  Si  Si11  1  0.37322370  0.93909510  0.25000000  1
  Si  Si12  1  0.75090970  0.88302802  0.75000000  1
  Si  Si13  1  0.88302802  0.13211831  0.25000000  1
  Si  Si14  1  0.11697198  0.86788169  0.75000000  1
  Si  Si15  1  0.13211831  0.24909030  0.75000000  1
  Si  Si16  1  0.24909030  0.11697198  0.25000000  1
  Si  Si17  1  0.86788169  0.75090970  0.25000000  1
  Sm  Sm18  1  0.60939896  0.90324488  0.25000000  1
  Sm  Sm19  1  0.70615408  0.60939896  0.75000000  1
  Sm  Sm20  1  0.90324488  0.29384592  0.75000000  1
  Sm  Sm21  1  0.09675512  0.70615408  0.25000000  1
  Sm  Sm22  1  0.29384592  0.39060104  0.25000000  1
  Sm  Sm23  1  0.39060104  0.09675512  0.75000000  1
  Pt  Pt24  1  0.58847458  0.74461308  0.75000000  1
  Pt  Pt25  1  0.43540072  0.66511567  0.25000000  1
  Pt  Pt26  1  0.22971496  0.56459928  0.25000000  1
  Pt  Pt27  1  0.66511567  0.22971496  0.75000000  1
  Pt  Pt28  1  0.56459928  0.33488433  0.75000000  1
  Pt  Pt29  1  0.33488433  0.77028504  0.25000000  1
  Pt  Pt30  1  0.14967845  0.03156347  0.75000000  1
  Pt  Pt31  1  0.11811499  0.14967845  0.25000000  1
  Pt  Pt32  1  0.03156347  0.88188501  0.25000000  1
  Pt  Pt33  1  0.96843653  0.11811499  0.75000000  1
  Pt  Pt34  1  0.88188501  0.85032155  0.75000000  1
  Pt  Pt35  1  0.85032155  0.96843653  0.25000000  1
  Pt  Pt36  1  0.84386151  0.58847458  0.25000000  1
  Pt  Pt37  1  0.74461308  0.15613849  0.25000000  1
  Pt  Pt38  1  0.25538692  0.84386151  0.75000000  1
  Pt  Pt39  1  0.15613849  0.41152542  0.75000000  1
  Pt  Pt40  1  0.41152542  0.25538692  0.25000000  1
  Pt  Pt41  1  0.46580632  0.92352894  0.75000000  1
  Pt  Pt42  1  0.54227738  0.46580632  0.25000000  1
  Pt  Pt43  1  0.92352894  0.45772262  0.25000000  1
  Pt  Pt44  1  0.07647106  0.54227738  0.75000000  1
  Pt  Pt45  1  0.45772262  0.53419368  0.75000000  1
  Pt  Pt46  1  0.53419368  0.07647106  0.25000000  1
  Pt  Pt47  1  0.72414339  0.76462007  0.25000000  1
  Pt  Pt48  1  0.95952333  0.72414339  0.75000000  1
  Pt  Pt49  1  0.76462007  0.04047667  0.75000000  1
  Pt  Pt50  1  0.23537993  0.95952333  0.25000000  1
  Pt  Pt51  1  0.04047667  0.27585661  0.25000000  1
  Pt  Pt52  1  0.27585661  0.23537993  0.75000000  1
  Pt  Pt53  1  0.77028504  0.43540072  0.75000000  1
