# generated using pymatgen
data_CsBePO4
_symmetry_space_group_name_H-M   'P 1'
_cell_length_a   5.19321945
_cell_length_b   8.85049122
_cell_length_c   8.94763510
_cell_angle_alpha   90.00000000
_cell_angle_beta   90.00000000
_cell_angle_gamma   90.00000000
_symmetry_Int_Tables_number   1
_chemical_formula_structural   CsBePO4
_chemical_formula_sum   'Cs4 Be4 P4 O16'
_cell_volume   411.25606434
_cell_formula_units_Z   4
loop_
 _symmetry_equiv_pos_site_id
 _symmetry_equiv_pos_as_xyz
  1  'x, y, z'
loop_
 _atom_site_type_symbol
 _atom_site_label
 _atom_site_symmetry_multiplicity
 _atom_site_fract_x
 _atom_site_fract_y
 _atom_site_fract_z
 _atom_site_occupancy
  Be  Be0  1  0.75000000  0.17275241  0.40956039  1
  Be  Be1  1  0.25000000  0.82724759  0.59043961  1
  Be  Be2  1  0.75000000  0.67275241  0.09043961  1
  Be  Be3  1  0.25000000  0.32724759  0.90956039  1
  O  O4  1  0.75000000  0.49017984  0.10347464  1
  O  O5  1  0.25000000  0.50982016  0.89652536  1
  O  O6  1  0.75000000  0.99017984  0.39652536  1
  O  O7  1  0.25000000  0.00982016  0.60347464  1
  O  O8  1  0.99226509  0.76494291  0.50333914  1
  O  O9  1  0.49226509  0.23505709  0.49666086  1
  O  O10  1  0.50773491  0.26494291  0.99666086  1
  O  O11  1  0.00773491  0.73505709  0.00333914  1
  O  O12  1  0.00773491  0.23505709  0.49666086  1
  O  O13  1  0.50773491  0.76494291  0.50333914  1
  O  O14  1  0.49226509  0.73505709  0.00333914  1
  O  O15  1  0.99226509  0.26494291  0.99666086  1
  O  O16  1  0.25000000  0.25882284  0.73843856  1
  O  O17  1  0.75000000  0.74117716  0.26156144  1
  O  O18  1  0.25000000  0.75882284  0.76156144  1
  O  O19  1  0.75000000  0.24117716  0.23843856  1
  P  P20  1  0.75000000  0.31777948  0.08394961  1
  P  P21  1  0.25000000  0.68222052  0.91605039  1
  P  P22  1  0.75000000  0.81777948  0.41605039  1
  P  P23  1  0.25000000  0.18222052  0.58394961  1
  Cs  Cs24  1  0.25000000  0.50804591  0.30597553  1
  Cs  Cs25  1  0.75000000  0.49195409  0.69402447  1
  Cs  Cs26  1  0.25000000  0.00804591  0.19402447  1
  Cs  Cs27  1  0.75000000  0.99195409  0.80597553  1
