# generated using pymatgen
data_MgP4O11
_symmetry_space_group_name_H-M   'P 1'
_cell_length_a   5.47310669
_cell_length_b   7.57533926
_cell_length_c   22.56848552
_cell_angle_alpha   90.00000000
_cell_angle_beta   90.00000000
_cell_angle_gamma   111.25531222
_symmetry_Int_Tables_number   1
_chemical_formula_structural   MgP4O11
_chemical_formula_sum   'Mg4 P16 O44'
_cell_volume   872.05190707
_cell_formula_units_Z   4
loop_
 _symmetry_equiv_pos_site_id
 _symmetry_equiv_pos_as_xyz
  1  'x, y, z'
loop_
 _atom_site_type_symbol
 _atom_site_label
 _atom_site_symmetry_multiplicity
 _atom_site_fract_x
 _atom_site_fract_y
 _atom_site_fract_z
 _atom_site_occupancy
  O  O0  1  0.34080291  0.47640675  0.33541669  1
  O  O1  1  0.65919709  0.02359325  0.83541669  1
  O  O2  1  0.65919709  0.52359325  0.66458331  1
  O  O3  1  0.34080291  0.97640675  0.16458331  1
  O  O4  1  0.78362549  0.70291584  0.54904013  1
  O  O5  1  0.21637451  0.79708416  0.04904013  1
  O  O6  1  0.21637451  0.29708416  0.45095987  1
  O  O7  1  0.78362549  0.20291584  0.95095987  1
  O  O8  1  0.33773472  0.75164175  0.56550107  1
  O  O9  1  0.66226528  0.74835825  0.06550107  1
  O  O10  1  0.66226528  0.24835825  0.43449893  1
  O  O11  1  0.33773472  0.25164175  0.93449893  1
  O  O12  1  0.79997918  0.44935102  0.32037485  1
  O  O13  1  0.20002082  0.05064898  0.82037485  1
  O  O14  1  0.20002082  0.55064898  0.67962515  1
  O  O15  1  0.79997918  0.94935102  0.17962515  1
  O  O16  1  0.74099689  0.76082153  0.30519038  1
  O  O17  1  0.76484700  0.52853373  0.95342983  1
  O  O18  1  0.76484700  0.02853373  0.54657017  1
  O  O19  1  0.23515300  0.47146627  0.04657017  1
  O  O20  1  0.56189049  0.80112987  0.46443201  1
  O  O21  1  0.43810951  0.69887013  0.96443201  1
  O  O22  1  0.43810951  0.19887013  0.53556799  1
  O  O23  1  0.56189049  0.30112987  0.03556799  1
  O  O24  1  0.74099689  0.26082153  0.19480962  1
  O  O25  1  0.25900311  0.23917847  0.69480962  1
  O  O26  1  0.25900311  0.73917847  0.80519038  1
  O  O27  1  0.53135211  0.99045461  0.26593020  1
  O  O28  1  0.08702737  0.62838973  0.42578678  1
  O  O29  1  0.91297263  0.87161027  0.92578678  1
  O  O30  1  0.91297263  0.37161027  0.57421322  1
  O  O31  1  0.08702737  0.12838973  0.07421322  1
  O  O32  1  0.43114311  0.87502622  0.36451683  1
  O  O33  1  0.56885689  0.62497378  0.86451683  1
  O  O34  1  0.56885689  0.12497378  0.63548317  1
  O  O35  1  0.43114311  0.37502622  0.13548317  1
  O  O36  1  0.90749712  0.09625257  0.34290126  1
  O  O37  1  0.09250288  0.40374743  0.84290126  1
  O  O38  1  0.09250288  0.90374743  0.65709874  1
  O  O39  1  0.90749712  0.59625257  0.15709874  1
  O  O40  1  0.53135211  0.49045461  0.23406980  1
  O  O41  1  0.46864789  0.00954539  0.73406980  1
  O  O42  1  0.46864789  0.50954539  0.76593020  1
  O  O43  1  0.23515300  0.97146627  0.45342983  1
  Mg  Mg44  1  0.99845484  0.63509070  0.61466940  1
  Mg  Mg45  1  0.00154516  0.86490930  0.11466940  1
  Mg  Mg46  1  0.00154516  0.36490930  0.38533060  1
  Mg  Mg47  1  0.99845484  0.13509070  0.88533060  1
  P  P48  1  0.31497005  0.30591228  0.07133124  1
  P  P49  1  0.68502995  0.19408772  0.57133124  1
  P  P50  1  0.68502995  0.69408772  0.92866876  1
  P  P51  1  0.31497005  0.80591228  0.42866876  1
  P  P52  1  0.59631924  0.02761406  0.19504354  1
  P  P53  1  0.40368076  0.47238594  0.69504354  1
  P  P54  1  0.40368076  0.97238594  0.80495646  1
  P  P55  1  0.59631924  0.52761406  0.30495646  1
  P  P56  1  0.59846963  0.29992635  0.96285452  1
  P  P57  1  0.40153037  0.20007365  0.46285452  1
  P  P58  1  0.40153037  0.70007365  0.03714548  1
  P  P59  1  0.59846963  0.79992635  0.53714548  1
  P  P60  1  0.67476425  0.94104342  0.32069604  1
  P  P61  1  0.32523575  0.55895658  0.82069604  1
  P  P62  1  0.32523575  0.05895658  0.67930396  1
  P  P63  1  0.67476425  0.44104342  0.17930396  1
