# generated using pymatgen
data_KGaF4
_symmetry_space_group_name_H-M   'P 1'
_cell_length_a   7.62322282
_cell_length_b   7.80638716
_cell_length_c   12.40155988
_cell_angle_alpha   90.00000000
_cell_angle_beta   90.00000000
_cell_angle_gamma   90.00000000
_symmetry_Int_Tables_number   1
_chemical_formula_structural   KGaF4
_chemical_formula_sum   'K8 Ga8 F32'
_cell_volume   738.01470457
_cell_formula_units_Z   8
loop_
 _symmetry_equiv_pos_site_id
 _symmetry_equiv_pos_as_xyz
  1  'x, y, z'
loop_
 _atom_site_type_symbol
 _atom_site_label
 _atom_site_symmetry_multiplicity
 _atom_site_fract_x
 _atom_site_fract_y
 _atom_site_fract_z
 _atom_site_occupancy
  F  F0  1  0.54640194  0.61553955  0.10472439  1
  F  F1  1  0.04640194  0.38446045  0.89527561  1
  F  F2  1  0.45359806  0.11553955  0.39527561  1
  F  F3  1  0.95359806  0.88446045  0.60472439  1
  F  F4  1  0.45359806  0.38446045  0.89527561  1
  F  F5  1  0.95359806  0.61553955  0.10472439  1
  F  F6  1  0.54640194  0.88446045  0.60472439  1
  F  F7  1  0.04640194  0.11553955  0.39527561  1
  F  F8  1  0.45573923  0.63406185  0.39857967  1
  F  F9  1  0.95573923  0.36593815  0.60142033  1
  F  F10  1  0.54426077  0.13406185  0.10142033  1
  F  F11  1  0.04426077  0.86593815  0.89857967  1
  F  F12  1  0.54426077  0.36593815  0.60142033  1
  F  F13  1  0.04426077  0.63406185  0.39857967  1
  F  F14  1  0.45573923  0.86593815  0.89857967  1
  F  F15  1  0.95573923  0.13406185  0.10142033  1
  F  F16  1  0.03975827  0.12498784  0.75421643  1
  F  F17  1  0.53975827  0.87501216  0.24578357  1
  F  F18  1  0.96024173  0.62498784  0.74578357  1
  F  F19  1  0.46024173  0.37501216  0.25421643  1
  F  F20  1  0.96024173  0.87501216  0.24578357  1
  F  F21  1  0.46024173  0.12498784  0.75421643  1
  F  F22  1  0.03975827  0.37501216  0.25421643  1
  F  F23  1  0.53975827  0.62498784  0.74578357  1
  F  F24  1  0.75000000  0.16045732  0.28300250  1
  F  F25  1  0.25000000  0.83954268  0.71699750  1
  F  F26  1  0.25000000  0.66045732  0.21699750  1
  F  F27  1  0.75000000  0.33954268  0.78300250  1
  F  F28  1  0.25000000  0.08937965  0.21254036  1
  F  F29  1  0.75000000  0.91062035  0.78745964  1
  F  F30  1  0.75000000  0.58937965  0.28745964  1
  F  F31  1  0.25000000  0.41062035  0.71254036  1
  K  K32  1  0.25000000  0.37440253  0.47255761  1
  K  K33  1  0.75000000  0.62559747  0.52744239  1
  K  K34  1  0.75000000  0.87440253  0.02744239  1
  K  K35  1  0.25000000  0.12559747  0.97255761  1
  K  K36  1  0.75000000  0.37532745  0.01536423  1
  K  K37  1  0.25000000  0.62467255  0.98463577  1
  K  K38  1  0.25000000  0.87532745  0.48463577  1
  K  K39  1  0.75000000  0.12467255  0.51536423  1
  Ga  Ga40  1  0.50070113  0.62498944  0.25156431  1
  Ga  Ga41  1  0.00070113  0.37501056  0.74843569  1
  Ga  Ga42  1  0.49929887  0.12498944  0.24843569  1
  Ga  Ga43  1  0.99929887  0.87501056  0.75156431  1
  Ga  Ga44  1  0.49929887  0.37501056  0.74843569  1
  Ga  Ga45  1  0.99929887  0.62498944  0.25156431  1
  Ga  Ga46  1  0.50070113  0.87501056  0.75156431  1
  Ga  Ga47  1  0.00070113  0.12498944  0.24843569  1
