# generated using pymatgen
data_Na2Ga2As3
_symmetry_space_group_name_H-M   'P 1'
_cell_length_a   6.80340024
_cell_length_b   13.33305715
_cell_length_c   14.59039245
_cell_angle_alpha   89.69551497
_cell_angle_beta   90.00000000
_cell_angle_gamma   90.00000000
_symmetry_Int_Tables_number   1
_chemical_formula_structural   Na2Ga2As3
_chemical_formula_sum   'Na16 Ga16 As24'
_cell_volume   1323.47762280
_cell_formula_units_Z   8
loop_
 _symmetry_equiv_pos_site_id
 _symmetry_equiv_pos_as_xyz
  1  'x, y, z'
loop_
 _atom_site_type_symbol
 _atom_site_label
 _atom_site_symmetry_multiplicity
 _atom_site_fract_x
 _atom_site_fract_y
 _atom_site_fract_z
 _atom_site_occupancy
  Na  Na0  1  0.95251769  0.14055996  0.98906376  1
  Na  Na1  1  0.45251769  0.85944004  0.51093624  1
  Na  Na2  1  0.04748231  0.85944004  0.01093624  1
  Na  Na3  1  0.54748231  0.14055996  0.48906376  1
  Na  Na4  1  0.58064176  0.65289724  0.02193233  1
  Na  Na5  1  0.08064176  0.34710276  0.47806767  1
  Na  Na6  1  0.41935824  0.34710276  0.97806767  1
  Na  Na7  1  0.91935824  0.65289724  0.52193233  1
  Na  Na8  1  0.54452680  0.91494663  0.10987808  1
  Na  Na9  1  0.04452680  0.08505337  0.39012192  1
  Na  Na10  1  0.45547320  0.08505337  0.89012192  1
  Na  Na11  1  0.95547320  0.91494663  0.60987808  1
  Na  Na12  1  0.90882689  0.43421500  0.91131048  1
  Na  Na13  1  0.40882689  0.56578500  0.58868952  1
  Na  Na14  1  0.09117311  0.56578500  0.08868952  1
  Na  Na15  1  0.59117311  0.43421500  0.41131048  1
  Ga  Ga16  1  0.28224091  0.68228088  0.83979698  1
  Ga  Ga17  1  0.78224091  0.31771912  0.66020302  1
  Ga  Ga18  1  0.71775909  0.31771912  0.16020302  1
  Ga  Ga19  1  0.21775909  0.68228088  0.33979698  1
  Ga  Ga20  1  0.78834641  0.09044284  0.72840641  1
  Ga  Ga21  1  0.28834641  0.90955716  0.77159359  1
  Ga  Ga22  1  0.21165359  0.90955716  0.27159359  1
  Ga  Ga23  1  0.71165359  0.09044284  0.22840641  1
  Ga  Ga24  1  0.76048834  0.81322170  0.83080692  1
  Ga  Ga25  1  0.26048834  0.18677830  0.66919308  1
  Ga  Ga26  1  0.23951166  0.18677830  0.16919308  1
  Ga  Ga27  1  0.73951166  0.81322170  0.33080692  1
  Ga  Ga28  1  0.76177659  0.58663895  0.75909837  1
  Ga  Ga29  1  0.26177659  0.41336105  0.74090163  1
  Ga  Ga30  1  0.23822341  0.41336105  0.24090163  1
  Ga  Ga31  1  0.73822341  0.58663895  0.25909837  1
  As  As32  1  0.96485424  0.96951083  0.83146086  1
  As  As33  1  0.46485424  0.03048917  0.66853914  1
  As  As34  1  0.03514576  0.03048917  0.16853914  1
  As  As35  1  0.53514576  0.96951083  0.33146086  1
  As  As36  1  0.44862159  0.83991466  0.91531091  1
  As  As37  1  0.94862159  0.16008534  0.58468909  1
  As  As38  1  0.55137841  0.16008534  0.08468909  1
  As  As39  1  0.05137841  0.83991466  0.41531091  1
  As  As40  1  0.94339168  0.65971707  0.89763846  1
  As  As41  1  0.44339168  0.34028293  0.60236154  1
  As  As42  1  0.05660832  0.34028293  0.10236154  1
  As  As43  1  0.55660832  0.65971707  0.39763846  1
  As  As44  1  0.83665980  0.74786727  0.17330050  1
  As  As45  1  0.33665980  0.25213273  0.32669950  1
  As  As46  1  0.16334020  0.25213273  0.82669950  1
  As  As47  1  0.66334020  0.74786727  0.67330050  1
  As  As48  1  0.46973283  0.51977206  0.84504742  1
  As  As49  1  0.96973283  0.48022794  0.65495258  1
  As  As50  1  0.53026717  0.48022794  0.15495258  1
  As  As51  1  0.03026717  0.51977206  0.34504742  1
  As  As52  1  0.20562022  0.74967753  0.17916776  1
  As  As53  1  0.70562022  0.25032247  0.32083224  1
  As  As54  1  0.79437978  0.25032247  0.82083224  1
  As  As55  1  0.29437978  0.74967753  0.67916776  1
