# generated using pymatgen
data_ZnP4O11
_symmetry_space_group_name_H-M   'P 1'
_cell_length_a   5.44408048
_cell_length_b   7.55228134
_cell_length_c   22.63470598
_cell_angle_alpha   90.00000000
_cell_angle_beta   90.00000000
_cell_angle_gamma   110.53034297
_symmetry_Int_Tables_number   1
_chemical_formula_structural   ZnP4O11
_chemical_formula_sum   'Zn4 P16 O44'
_cell_volume   871.52353394
_cell_formula_units_Z   4
loop_
 _symmetry_equiv_pos_site_id
 _symmetry_equiv_pos_as_xyz
  1  'x, y, z'
loop_
 _atom_site_type_symbol
 _atom_site_label
 _atom_site_symmetry_multiplicity
 _atom_site_fract_x
 _atom_site_fract_y
 _atom_site_fract_z
 _atom_site_occupancy
  O  O0  1  0.35585246  0.47675495  0.33548829  1
  O  O1  1  0.64414754  0.02324505  0.83548829  1
  O  O2  1  0.64414754  0.52324505  0.66451171  1
  O  O3  1  0.35585246  0.97675495  0.16451171  1
  O  O4  1  0.77662463  0.69251538  0.54736882  1
  O  O5  1  0.22337537  0.80748462  0.04736882  1
  O  O6  1  0.22337537  0.30748462  0.45263118  1
  O  O7  1  0.77662463  0.19251538  0.95263118  1
  O  O8  1  0.33327371  0.75038282  0.56558326  1
  O  O9  1  0.66672629  0.74961718  0.06558326  1
  O  O10  1  0.66672629  0.24961718  0.43441674  1
  O  O11  1  0.33327371  0.25038282  0.93441674  1
  O  O12  1  0.81613225  0.44803921  0.31733366  1
  O  O13  1  0.18386775  0.05196079  0.81733366  1
  O  O14  1  0.18386775  0.55196079  0.68266634  1
  O  O15  1  0.81613225  0.94803921  0.18266634  1
  O  O16  1  0.75096344  0.76056135  0.30524531  1
  O  O17  1  0.76274499  0.52164488  0.95218157  1
  O  O18  1  0.76274499  0.02164488  0.54781843  1
  O  O19  1  0.23725501  0.47835512  0.04781843  1
  O  O20  1  0.55845850  0.80039395  0.46469714  1
  O  O21  1  0.44154150  0.69960605  0.96469714  1
  O  O22  1  0.44154150  0.19960605  0.53530286  1
  O  O23  1  0.55845850  0.30039395  0.03530286  1
  O  O24  1  0.75096344  0.26056135  0.19475469  1
  O  O25  1  0.24903656  0.23943865  0.69475469  1
  O  O26  1  0.24903656  0.73943865  0.80524531  1
  O  O27  1  0.54228272  0.99450237  0.26666023  1
  O  O28  1  0.08375748  0.63654206  0.42440694  1
  O  O29  1  0.91624252  0.86345794  0.92440694  1
  O  O30  1  0.91624252  0.36345794  0.57559306  1
  O  O31  1  0.08375748  0.13654206  0.07559306  1
  O  O32  1  0.43939394  0.87707929  0.36450576  1
  O  O33  1  0.56060606  0.62292071  0.86450576  1
  O  O34  1  0.56060606  0.12292071  0.63549424  1
  O  O35  1  0.43939394  0.37707929  0.13549424  1
  O  O36  1  0.91960428  0.09289284  0.34376026  1
  O  O37  1  0.08039572  0.40710716  0.84376026  1
  O  O38  1  0.08039572  0.90710716  0.65623974  1
  O  O39  1  0.91960428  0.59289284  0.15623974  1
  O  O40  1  0.54228272  0.49450237  0.23333977  1
  O  O41  1  0.45771728  0.00549763  0.73333977  1
  O  O42  1  0.45771728  0.50549763  0.76666023  1
  O  O43  1  0.23725501  0.97835512  0.45218157  1
  P  P44  1  0.68478814  0.44172162  0.17878767  1
  P  P45  1  0.31521186  0.05827838  0.67878767  1
  P  P46  1  0.31521186  0.55827838  0.82121233  1
  P  P47  1  0.68478814  0.94172162  0.32121233  1
  P  P48  1  0.31590401  0.31017372  0.07207947  1
  P  P49  1  0.68409599  0.18982628  0.57207947  1
  P  P50  1  0.68409599  0.68982628  0.92792053  1
  P  P51  1  0.31590401  0.81017372  0.42792053  1
  P  P52  1  0.60927069  0.02841936  0.19594422  1
  P  P53  1  0.39072931  0.47158064  0.69594422  1
  P  P54  1  0.39072931  0.97158064  0.80405578  1
  P  P55  1  0.60927069  0.52841936  0.30405578  1
  P  P56  1  0.59354105  0.29520607  0.96289039  1
  P  P57  1  0.40645895  0.20479393  0.46289039  1
  P  P58  1  0.40645895  0.70479393  0.03710961  1
  P  P59  1  0.59354105  0.79520607  0.53710961  1
  Zn  Zn60  1  0.99056716  0.13215606  0.88509493  1
  Zn  Zn61  1  0.00943284  0.36784394  0.38509493  1
  Zn  Zn62  1  0.00943284  0.86784394  0.11490507  1
  Zn  Zn63  1  0.99056716  0.63215606  0.61490507  1
