# generated using pymatgen
data_K2GaAs2
_symmetry_space_group_name_H-M   'P 1'
_cell_length_a   9.05262748
_cell_length_b   10.65292457
_cell_length_c   14.57339556
_cell_angle_alpha   90.00000000
_cell_angle_beta   90.00000000
_cell_angle_gamma   110.33419688
_symmetry_Int_Tables_number   1
_chemical_formula_structural   K2GaAs2
_chemical_formula_sum   'K16 Ga8 As16'
_cell_volume   1317.83092405
_cell_formula_units_Z   8
loop_
 _symmetry_equiv_pos_site_id
 _symmetry_equiv_pos_as_xyz
  1  'x, y, z'
loop_
 _atom_site_type_symbol
 _atom_site_label
 _atom_site_symmetry_multiplicity
 _atom_site_fract_x
 _atom_site_fract_y
 _atom_site_fract_z
 _atom_site_occupancy
  K  K0  1  0.53840256  0.53176522  0.37177105  1
  K  K1  1  0.96159744  0.96823478  0.87177105  1
  K  K2  1  0.46159744  0.46823478  0.62822895  1
  K  K3  1  0.03840256  0.03176522  0.12822895  1
  K  K4  1  0.32245805  0.91217708  0.37099682  1
  K  K5  1  0.17754195  0.58782292  0.87099682  1
  K  K6  1  0.67754195  0.08782292  0.62900318  1
  K  K7  1  0.82245805  0.41217708  0.12900318  1
  K  K8  1  0.32244639  0.52218950  0.11511939  1
  K  K9  1  0.17755361  0.97781050  0.61511939  1
  K  K10  1  0.67755361  0.47781050  0.88488061  1
  K  K11  1  0.82244639  0.02218950  0.38488061  1
  K  K12  1  0.46358397  0.94124730  0.12189201  1
  K  K13  1  0.03641603  0.55875270  0.62189201  1
  K  K14  1  0.53641603  0.05875270  0.87810799  1
  K  K15  1  0.96358397  0.44124730  0.37810799  1
  Ga  Ga16  1  0.89920939  0.74505677  0.28274110  1
  Ga  Ga17  1  0.60079061  0.75494323  0.78274110  1
  Ga  Ga18  1  0.10079061  0.25494323  0.71725890  1
  Ga  Ga19  1  0.39920939  0.24505677  0.21725890  1
  Ga  Ga20  1  0.73842733  0.74303393  0.05745321  1
  Ga  Ga21  1  0.76157267  0.75696607  0.55745321  1
  Ga  Ga22  1  0.26157267  0.25696607  0.94254679  1
  Ga  Ga23  1  0.23842733  0.24303393  0.44254679  1
  As  As24  1  0.66852148  0.77238633  0.21536122  1
  As  As25  1  0.83147852  0.72761367  0.71536122  1
  As  As26  1  0.33147852  0.22761367  0.78463878  1
  As  As27  1  0.16852148  0.27238633  0.28463878  1
  As  As28  1  0.09911114  0.71819858  0.18287739  1
  As  As29  1  0.40088886  0.78180142  0.68287739  1
  As  As30  1  0.90088886  0.28180142  0.81712261  1
  As  As31  1  0.59911114  0.21819858  0.31712261  1
  As  As32  1  0.95797294  0.74237366  0.44690540  1
  As  As33  1  0.54202706  0.75762634  0.94690540  1
  As  As34  1  0.04202706  0.25762634  0.55309460  1
  As  As35  1  0.45797294  0.24237366  0.05309460  1
  As  As36  1  0.99136992  0.72431100  0.02641335  1
  As  As37  1  0.50863008  0.77568900  0.52641335  1
  As  As38  1  0.00863008  0.27568900  0.97358665  1
  As  As39  1  0.49136992  0.22431100  0.47358665  1
