# generated using pymatgen
data_Rb2GaAs2
_symmetry_space_group_name_H-M   'P 1'
_cell_length_a   9.23597905
_cell_length_b   11.07962347
_cell_length_c   14.92385798
_cell_angle_alpha   90.00000000
_cell_angle_beta   90.00000000
_cell_angle_gamma   109.02674700
_symmetry_Int_Tables_number   1
_chemical_formula_structural   Rb2GaAs2
_chemical_formula_sum   'Rb16 Ga8 As16'
_cell_volume   1443.74087467
_cell_formula_units_Z   8
loop_
 _symmetry_equiv_pos_site_id
 _symmetry_equiv_pos_as_xyz
  1  'x, y, z'
loop_
 _atom_site_type_symbol
 _atom_site_label
 _atom_site_symmetry_multiplicity
 _atom_site_fract_x
 _atom_site_fract_y
 _atom_site_fract_z
 _atom_site_occupancy
  Ga  Ga0  1  0.74220456  0.74333309  0.05830043  1
  Ga  Ga1  1  0.75779544  0.75666691  0.55830043  1
  Ga  Ga2  1  0.24220456  0.24333309  0.44169957  1
  Ga  Ga3  1  0.38613786  0.24265376  0.21632318  1
  Ga  Ga4  1  0.11386214  0.25734624  0.71632318  1
  Ga  Ga5  1  0.61386214  0.75734624  0.78367682  1
  Ga  Ga6  1  0.88613786  0.74265376  0.28367682  1
  Ga  Ga7  1  0.25779544  0.25666691  0.94169957  1
  As  As8  1  0.94250152  0.73966411  0.44506580  1
  As  As9  1  0.91500729  0.28750943  0.80964792  1
  As  As10  1  0.41500729  0.78750943  0.69035208  1
  As  As11  1  0.58499271  0.21249057  0.30964792  1
  As  As12  1  0.16518925  0.27173378  0.28869574  1
  As  As13  1  0.33481075  0.22826622  0.78869574  1
  As  As14  1  0.83481075  0.72826622  0.71130426  1
  As  As15  1  0.66518925  0.77173378  0.21130426  1
  As  As16  1  0.55749848  0.76033589  0.94506580  1
  As  As17  1  0.05749848  0.26033589  0.55493420  1
  As  As18  1  0.44250152  0.23966411  0.05493420  1
  As  As19  1  0.99119777  0.72096327  0.03525163  1
  As  As20  1  0.49119777  0.22096327  0.46474837  1
  As  As21  1  0.00880223  0.27903673  0.96474837  1
  As  As22  1  0.08499271  0.71249057  0.19035208  1
  As  As23  1  0.50880223  0.77903673  0.53525163  1
  Rb  Rb24  1  0.93820394  0.43062087  0.38289053  1
  Rb  Rb25  1  0.56179606  0.06937913  0.88289053  1
  Rb  Rb26  1  0.06179606  0.56937913  0.61710947  1
  Rb  Rb27  1  0.43820394  0.93062087  0.11710947  1
  Rb  Rb28  1  0.81786938  0.02300982  0.38639551  1
  Rb  Rb29  1  0.68213062  0.47699018  0.88639551  1
  Rb  Rb30  1  0.18213062  0.97699018  0.61360449  1
  Rb  Rb31  1  0.31786938  0.52300982  0.11360449  1
  Rb  Rb32  1  0.81582985  0.40661911  0.13056016  1
  Rb  Rb33  1  0.68417015  0.09338089  0.63056016  1
  Rb  Rb34  1  0.18417015  0.59338089  0.86943984  1
  Rb  Rb35  1  0.31582985  0.90661911  0.36943984  1
  Rb  Rb36  1  0.02217450  0.03563097  0.12912130  1
  Rb  Rb37  1  0.47782550  0.46436903  0.62912130  1
  Rb  Rb38  1  0.97782550  0.96436903  0.87087870  1
  Rb  Rb39  1  0.52217450  0.53563097  0.37087870  1
