# generated using pymatgen
data_CsH(CO2)2
_symmetry_space_group_name_H-M   'P 1'
_cell_length_a   10.49723231
_cell_length_b   7.06778100
_cell_length_c   7.05843322
_cell_angle_alpha   90.00000000
_cell_angle_beta   97.91341410
_cell_angle_gamma   90.00000000
_symmetry_Int_Tables_number   1
_chemical_formula_structural   CsH(CO2)2
_chemical_formula_sum   'Cs4 H4 C8 O16'
_cell_volume   518.69338709
_cell_formula_units_Z   4
loop_
 _symmetry_equiv_pos_site_id
 _symmetry_equiv_pos_as_xyz
  1  'x, y, z'
loop_
 _atom_site_type_symbol
 _atom_site_label
 _atom_site_symmetry_multiplicity
 _atom_site_fract_x
 _atom_site_fract_y
 _atom_site_fract_z
 _atom_site_occupancy
  Cs  Cs0  1  0.77109169  0.01707489  0.00631765  1
  Cs  Cs1  1  0.22890831  0.51707489  0.49368235  1
  Cs  Cs2  1  0.22890831  0.98292511  0.99368235  1
  Cs  Cs3  1  0.77109169  0.48292511  0.50631765  1
  H  H4  1  0.28712374  0.42815015  0.05865432  1
  H  H5  1  0.71287626  0.92815015  0.44134568  1
  H  H6  1  0.71287626  0.57184985  0.94134568  1
  H  H7  1  0.28712374  0.07184985  0.55865432  1
  C  C8  1  0.06677606  0.98207313  0.46363499  1
  C  C9  1  0.93322394  0.48207313  0.03636501  1
  C  C10  1  0.93322394  0.01792687  0.53636501  1
  C  C11  1  0.06677606  0.51792687  0.96363499  1
  C  C12  1  0.49749802  0.08350005  0.57165892  1
  C  C13  1  0.50250198  0.58350005  0.92834108  1
  C  C14  1  0.50250198  0.91649995  0.42834108  1
  C  C15  1  0.49749802  0.41649995  0.07165892  1
  O  O16  1  0.16143811  0.06886258  0.56353393  1
  O  O17  1  0.83856189  0.56886258  0.93646607  1
  O  O18  1  0.83856189  0.93113742  0.43646607  1
  O  O19  1  0.16143811  0.43113742  0.06353393  1
  O  O20  1  0.92793719  0.37723929  0.17723816  1
  O  O21  1  0.07206281  0.87723929  0.32276184  1
  O  O22  1  0.07206281  0.62276071  0.82276184  1
  O  O23  1  0.92793719  0.12276071  0.67723816  1
  O  O24  1  0.38492109  0.36572810  0.11210063  1
  O  O25  1  0.61507891  0.86572810  0.38789937  1
  O  O26  1  0.61507891  0.63427190  0.88789937  1
  O  O27  1  0.38492109  0.13427190  0.61210063  1
  O  O28  1  0.40212363  0.66236671  0.85758933  1
  O  O29  1  0.59787637  0.16236671  0.64241067  1
  O  O30  1  0.59787637  0.33763329  0.14241067  1
  O  O31  1  0.40212363  0.83763329  0.35758933  1
