# generated using pymatgen
data_K2GaP2
_symmetry_space_group_name_H-M   'P 1'
_cell_length_a   8.75215641
_cell_length_b   10.32195088
_cell_length_c   14.10197575
_cell_angle_alpha   90.00000000
_cell_angle_beta   90.00000000
_cell_angle_gamma   109.51351128
_symmetry_Int_Tables_number   1
_chemical_formula_structural   K2GaP2
_chemical_formula_sum   'K16 Ga8 P16'
_cell_volume   1200.79008540
_cell_formula_units_Z   8
loop_
 _symmetry_equiv_pos_site_id
 _symmetry_equiv_pos_as_xyz
  1  'x, y, z'
loop_
 _atom_site_type_symbol
 _atom_site_label
 _atom_site_symmetry_multiplicity
 _atom_site_fract_x
 _atom_site_fract_y
 _atom_site_fract_z
 _atom_site_occupancy
  P  P0  1  0.48686877  0.22183087  0.46416566  1
  P  P1  1  0.41613976  0.78274841  0.68097991  1
  P  P2  1  0.08386024  0.71725159  0.18097991  1
  P  P3  1  0.16615389  0.27527848  0.28604139  1
  P  P4  1  0.33384611  0.22472152  0.78604139  1
  P  P5  1  0.83384611  0.72472152  0.71395861  1
  P  P6  1  0.66615389  0.77527848  0.21395861  1
  P  P7  1  0.95171583  0.74251469  0.44455595  1
  P  P8  1  0.54828417  0.75748531  0.94455595  1
  P  P9  1  0.04828417  0.25748531  0.55544405  1
  P  P10  1  0.58386024  0.21725159  0.31902009  1
  P  P11  1  0.45171583  0.24251469  0.05544405  1
  P  P12  1  0.98686877  0.72183087  0.03583434  1
  P  P13  1  0.51313123  0.77816913  0.53583434  1
  P  P14  1  0.01313123  0.27816913  0.96416566  1
  P  P15  1  0.91613976  0.28274841  0.81902009  1
  K  K16  1  0.55627446  0.06797786  0.88294718  1
  K  K17  1  0.05627446  0.56797786  0.61705282  1
  K  K18  1  0.44372554  0.93202214  0.11705282  1
  K  K19  1  0.81463376  0.02614410  0.38601237  1
  K  K20  1  0.52582298  0.53821950  0.37131566  1
  K  K21  1  0.18536624  0.97385590  0.61398763  1
  K  K22  1  0.31463376  0.52614410  0.11398763  1
  K  K23  1  0.82281981  0.40151725  0.13061451  1
  K  K24  1  0.67718019  0.09848275  0.63061451  1
  K  K25  1  0.17718019  0.59848275  0.86938549  1
  K  K26  1  0.32281981  0.90151725  0.36938549  1
  K  K27  1  0.02582298  0.03821950  0.12868434  1
  K  K28  1  0.47417702  0.46178050  0.62868434  1
  K  K29  1  0.97417702  0.96178050  0.87131566  1
  K  K30  1  0.94372554  0.43202214  0.38294718  1
  K  K31  1  0.68536624  0.47385590  0.88601237  1
  Ga  Ga32  1  0.23514328  0.24305522  0.44164260  1
  Ga  Ga33  1  0.26485672  0.25694478  0.94164260  1
  Ga  Ga34  1  0.76485672  0.75694478  0.55835740  1
  Ga  Ga35  1  0.39164739  0.24549925  0.21694946  1
  Ga  Ga36  1  0.10835261  0.25450075  0.71694946  1
  Ga  Ga37  1  0.60835261  0.75450075  0.78305054  1
  Ga  Ga38  1  0.89164739  0.74549925  0.28305054  1
  Ga  Ga39  1  0.73514328  0.74305522  0.05835740  1
