# generated using pymatgen
data_Cs2As3
_symmetry_space_group_name_H-M   'P 1'
_cell_length_a   7.26020350
_cell_length_b   7.26020350
_cell_length_c   9.42025739
_cell_angle_alpha   110.86110230
_cell_angle_beta   110.86110232
_cell_angle_gamma   94.35275518
_symmetry_Int_Tables_number   1
_chemical_formula_structural   Cs2As3
_chemical_formula_sum   'Cs4 As6'
_cell_volume   421.73506502
_cell_formula_units_Z   2
loop_
 _symmetry_equiv_pos_site_id
 _symmetry_equiv_pos_as_xyz
  1  'x, y, z'
loop_
 _atom_site_type_symbol
 _atom_site_label
 _atom_site_symmetry_multiplicity
 _atom_site_fract_x
 _atom_site_fract_y
 _atom_site_fract_z
 _atom_site_occupancy
  As  As0  1  0.71253155  0.71253155  0.84922453  1
  As  As1  1  0.86330702  0.86330702  0.15077547  1
  As  As2  1  0.28746845  0.28746845  0.15077547  1
  As  As3  1  0.13669298  0.13669298  0.84922453  1
  As  As4  1  0.84832460  0.84832460  0.69664920  1
  As  As5  1  0.15167540  0.15167540  0.30335080  1
  Cs  Cs6  1  0.75000000  0.25000000  0.50000000  1
  Cs  Cs7  1  0.25000000  0.75000000  0.50000000  1
  Cs  Cs8  1  0.26838121  0.73161879  0.00000000  1
  Cs  Cs9  1  0.73161879  0.26838121  0.00000000  1
