# generated using pymatgen
data_Li3GaF6
_symmetry_space_group_name_H-M   'P 1'
_cell_length_a   8.50689746
_cell_length_b   8.50689746
_cell_length_c   10.18591904
_cell_angle_alpha   85.79336949
_cell_angle_beta   85.79336952
_cell_angle_gamma   61.63861771
_symmetry_Int_Tables_number   1
_chemical_formula_structural   Li3GaF6
_chemical_formula_sum   'Li18 Ga6 F36'
_cell_volume   646.27878015
_cell_formula_units_Z   6
loop_
 _symmetry_equiv_pos_site_id
 _symmetry_equiv_pos_as_xyz
  1  'x, y, z'
loop_
 _atom_site_type_symbol
 _atom_site_label
 _atom_site_symmetry_multiplicity
 _atom_site_fract_x
 _atom_site_fract_y
 _atom_site_fract_z
 _atom_site_occupancy
  Li  Li0  1  0.12281214  0.54085761  0.55243996  1
  Li  Li1  1  0.45914239  0.87718786  0.94756004  1
  Li  Li2  1  0.87718786  0.45914239  0.44756004  1
  Li  Li3  1  0.54085761  0.12281214  0.05243996  1
  Li  Li4  1  0.28720767  0.99256947  0.22982750  1
  Li  Li5  1  0.00743053  0.71279233  0.27017250  1
  Li  Li6  1  0.81175757  0.18824243  0.25000000  1
  Li  Li7  1  0.18824243  0.81175757  0.75000000  1
  Li  Li8  1  0.34441726  0.06137673  0.56875958  1
  Li  Li9  1  0.93862327  0.65558274  0.93124042  1
  Li  Li10  1  0.65558274  0.93862327  0.43124042  1
  Li  Li11  1  0.06137673  0.34441726  0.06875958  1
  Li  Li12  1  0.67432769  0.37109320  0.96169426  1
  Li  Li13  1  0.62890680  0.32567231  0.53830574  1
  Li  Li14  1  0.32567231  0.62890680  0.03830574  1
  Li  Li15  1  0.37109320  0.67432769  0.46169426  1
  Li  Li16  1  0.71279233  0.00743053  0.77017250  1
  Li  Li17  1  0.99256947  0.28720767  0.72982750  1
  F  F18  1  0.75935119  0.44435454  0.80549202  1
  F  F19  1  0.77370975  0.73074012  0.33517925  1
  F  F20  1  0.73074012  0.77370975  0.83517925  1
  F  F21  1  0.22629025  0.26925988  0.66482075  1
  F  F22  1  0.23893991  0.91306000  0.06189047  1
  F  F23  1  0.08694000  0.76106009  0.43810953  1
  F  F24  1  0.76106009  0.08694000  0.93810953  1
  F  F25  1  0.91306000  0.23893991  0.56189047  1
  F  F26  1  0.26925988  0.22629025  0.16482075  1
  F  F27  1  0.23664133  0.90993041  0.56558819  1
  F  F28  1  0.90993041  0.23664133  0.06558819  1
  F  F29  1  0.76335867  0.09006959  0.43441181  1
  F  F30  1  0.55564546  0.24064881  0.69450798  1
  F  F31  1  0.57114540  0.58582252  0.06795137  1
  F  F32  1  0.58582252  0.57114540  0.56795137  1
  F  F33  1  0.42885460  0.41417748  0.93204863  1
  F  F34  1  0.41577288  0.10909982  0.39389910  1
  F  F35  1  0.89090018  0.58422712  0.10610090  1
  F  F36  1  0.58422712  0.89090018  0.60610090  1
  F  F37  1  0.10909982  0.41577288  0.89389910  1
  F  F38  1  0.07621108  0.06565965  0.83528860  1
  F  F39  1  0.93434035  0.92378892  0.66471140  1
  F  F40  1  0.92378892  0.93434035  0.16471140  1
  F  F41  1  0.06565965  0.07621108  0.33528860  1
  F  F42  1  0.24064881  0.55564546  0.19450798  1
  F  F43  1  0.44435454  0.75935119  0.30549202  1
  F  F44  1  0.88902766  0.57078459  0.61024791  1
  F  F45  1  0.41417748  0.42885460  0.43204863  1
  F  F46  1  0.11097234  0.42921541  0.38975209  1
  F  F47  1  0.57078459  0.88902766  0.11024791  1
  F  F48  1  0.75444866  0.43492371  0.30190809  1
  F  F49  1  0.56507629  0.24555134  0.19809191  1
  F  F50  1  0.24555134  0.56507629  0.69809191  1
  F  F51  1  0.43492371  0.75444866  0.80190809  1
  F  F52  1  0.09006959  0.76335867  0.93441181  1
  F  F53  1  0.42921541  0.11097234  0.88975209  1
  Ga  Ga54  1  0.33471425  0.34086899  0.79628557  1
  Ga  Ga55  1  0.65913101  0.66528575  0.70371443  1
  Ga  Ga56  1  0.66528575  0.65913101  0.20371443  1
  Ga  Ga57  1  0.34086899  0.33471425  0.29628557  1
  Ga  Ga58  1  0.00000000  0.00000000  0.50000000  1
  Ga  Ga59  1  0.00000000  0.00000000  0.00000000  1
