# generated using pymatgen
data_Sr2LiSi3
_symmetry_space_group_name_H-M   'P 1'
_cell_length_a   8.53427185
_cell_length_b   8.55673740
_cell_length_c   10.07597842
_cell_angle_alpha   77.80778272
_cell_angle_beta   64.94450181
_cell_angle_gamma   60.08681231
_symmetry_Int_Tables_number   1
_chemical_formula_structural   Sr2LiSi3
_chemical_formula_sum   'Sr8 Li4 Si12'
_cell_volume   577.76480975
_cell_formula_units_Z   4
loop_
 _symmetry_equiv_pos_site_id
 _symmetry_equiv_pos_as_xyz
  1  'x, y, z'
loop_
 _atom_site_type_symbol
 _atom_site_label
 _atom_site_symmetry_multiplicity
 _atom_site_fract_x
 _atom_site_fract_y
 _atom_site_fract_z
 _atom_site_occupancy
  Li  Li0  1  0.54222597  0.91554806  0.25000000  1
  Li  Li1  1  0.79222597  0.41554806  0.75000000  1
  Li  Li2  1  0.45777403  0.08445194  0.75000000  1
  Li  Li3  1  0.20777403  0.58445194  0.25000000  1
  Si  Si4  1  0.71141071  0.08920171  0.25566857  1
  Si  Si5  1  0.55628099  0.41079829  0.24433143  1
  Si  Si6  1  0.19938758  0.08920171  0.24433143  1
  Si  Si7  1  0.03292072  0.41079829  0.25566857  1
  Si  Si8  1  0.28858929  0.91079829  0.74433143  1
  Si  Si9  1  0.96707928  0.58920171  0.74433143  1
  Si  Si10  1  0.80061242  0.91079829  0.75566857  1
  Si  Si11  1  0.44371901  0.58920171  0.75566857  1
  Si  Si12  1  0.71373470  0.57253061  0.25000000  1
  Si  Si13  1  0.03626530  0.92746939  0.25000000  1
  Si  Si14  1  0.28626530  0.42746939  0.75000000  1
  Si  Si15  1  0.96373470  0.07253061  0.75000000  1
  Sr  Sr16  1  0.50091470  0.75000000  0.99817059  1
  Sr  Sr17  1  0.74908530  0.75000000  0.50182941  1
  Sr  Sr18  1  0.49908530  0.25000000  0.00182941  1
  Sr  Sr19  1  0.25091470  0.25000000  0.49817059  1
  Sr  Sr20  1  0.00067135  0.75000000  0.99865730  1
  Sr  Sr21  1  0.24932865  0.75000000  0.50134270  1
  Sr  Sr22  1  0.99932865  0.25000000  0.00134270  1
  Sr  Sr23  1  0.75067135  0.25000000  0.49865730  1
