# generated using pymatgen
data_KGd2CuS4
_symmetry_space_group_name_H-M   'P 1'
_cell_length_a   3.99918545
_cell_length_b   7.12085028
_cell_length_c   13.81212681
_cell_angle_alpha   90.00000000
_cell_angle_beta   90.00000000
_cell_angle_gamma   106.30844293
_symmetry_Int_Tables_number   1
_chemical_formula_structural   KGd2CuS4
_chemical_formula_sum   'K2 Gd4 Cu2 S8'
_cell_volume   377.50992694
_cell_formula_units_Z   2
loop_
 _symmetry_equiv_pos_site_id
 _symmetry_equiv_pos_as_xyz
  1  'x, y, z'
loop_
 _atom_site_type_symbol
 _atom_site_label
 _atom_site_symmetry_multiplicity
 _atom_site_fract_x
 _atom_site_fract_y
 _atom_site_fract_z
 _atom_site_occupancy
  S  S0  1  0.23787671  0.47575341  0.38798643  1
  S  S1  1  0.76212329  0.52424659  0.61201357  1
  S  S2  1  0.50000000  0.00000000  0.00000000  1
  S  S3  1  0.50000000  0.00000000  0.50000000  1
  S  S4  1  0.23787671  0.47575341  0.11201357  1
  S  S5  1  0.76212329  0.52424659  0.88798643  1
  S  S6  1  0.07055247  0.14110494  0.75000000  1
  S  S7  1  0.92944753  0.85889506  0.25000000  1
  K  K8  1  0.60843537  0.21687075  0.25000000  1
  K  K9  1  0.39156463  0.78312925  0.75000000  1
  Cu  Cu10  1  0.33705494  0.67410989  0.25000000  1
  Cu  Cu11  1  0.66294506  0.32589011  0.75000000  1
  Gd  Gd12  1  0.13413446  0.26826892  0.93780178  1
  Gd  Gd13  1  0.86586554  0.73173108  0.06219822  1
  Gd  Gd14  1  0.86586554  0.73173108  0.43780178  1
  Gd  Gd15  1  0.13413446  0.26826892  0.56219822  1
