# generated using pymatgen
data_Ba2LiSi3
_symmetry_space_group_name_H-M   'P 1'
_cell_length_a   8.75974835
_cell_length_b   8.78526311
_cell_length_c   10.71454500
_cell_angle_alpha   78.24099738
_cell_angle_beta   65.87188341
_cell_angle_gamma   60.09602600
_symmetry_Int_Tables_number   1
_chemical_formula_structural   Ba2LiSi3
_chemical_formula_sum   'Ba8 Li4 Si12'
_cell_volume   652.32899640
_cell_formula_units_Z   4
loop_
 _symmetry_equiv_pos_site_id
 _symmetry_equiv_pos_as_xyz
  1  'x, y, z'
loop_
 _atom_site_type_symbol
 _atom_site_label
 _atom_site_symmetry_multiplicity
 _atom_site_fract_x
 _atom_site_fract_y
 _atom_site_fract_z
 _atom_site_occupancy
  Li  Li0  1  0.45735712  0.08528576  0.75000000  1
  Li  Li1  1  0.79264288  0.41471424  0.75000000  1
  Li  Li2  1  0.54264288  0.91471424  0.25000000  1
  Li  Li3  1  0.20735712  0.58528576  0.25000000  1
  Si  Si4  1  0.97048373  0.59254230  0.74271958  1
  Si  Si5  1  0.80574561  0.90745770  0.75728042  1
  Si  Si6  1  0.43697397  0.59254230  0.75728042  1
  Si  Si7  1  0.28679670  0.90745770  0.74271958  1
  Si  Si8  1  0.03283807  0.93432387  0.25000000  1
  Si  Si9  1  0.71716193  0.56567613  0.25000000  1
  Si  Si10  1  0.96716193  0.06567613  0.75000000  1
  Si  Si11  1  0.28283807  0.43432387  0.75000000  1
  Si  Si12  1  0.71320330  0.09254230  0.25728042  1
  Si  Si13  1  0.56302603  0.40745770  0.24271958  1
  Si  Si14  1  0.19425439  0.09254230  0.24271958  1
  Si  Si15  1  0.02951627  0.40745770  0.25728042  1
  Ba  Ba16  1  0.74927202  0.75000000  0.50145595  1
  Ba  Ba17  1  0.50072798  0.75000000  0.99854405  1
  Ba  Ba18  1  0.25072798  0.25000000  0.49854405  1
  Ba  Ba19  1  0.49927202  0.25000000  0.00145595  1
  Ba  Ba20  1  0.99983004  0.75000000  0.00033991  1
  Ba  Ba21  1  0.25016996  0.75000000  0.49966009  1
  Ba  Ba22  1  0.00016996  0.25000000  0.99966009  1
  Ba  Ba23  1  0.74983004  0.25000000  0.50033991  1
