# generated using pymatgen
data_CaTe3O8
_symmetry_space_group_name_H-M   'P 1'
_cell_length_a   5.80405267
_cell_length_b   6.93082607
_cell_length_c   9.76994155
_cell_angle_alpha   73.41791992
_cell_angle_beta   72.72032282
_cell_angle_gamma   65.24664538
_symmetry_Int_Tables_number   1
_chemical_formula_structural   CaTe3O8
_chemical_formula_sum   'Ca2 Te6 O16'
_cell_volume   334.86834240
_cell_formula_units_Z   2
loop_
 _symmetry_equiv_pos_site_id
 _symmetry_equiv_pos_as_xyz
  1  'x, y, z'
loop_
 _atom_site_type_symbol
 _atom_site_label
 _atom_site_symmetry_multiplicity
 _atom_site_fract_x
 _atom_site_fract_y
 _atom_site_fract_z
 _atom_site_occupancy
  O  O0  1  0.42639762  0.45102854  0.91012116  1
  O  O1  1  0.78754732  0.04897146  0.58987884  1
  O  O2  1  0.57360238  0.54897146  0.08987884  1
  O  O3  1  0.21245268  0.95102854  0.41012116  1
  O  O4  1  0.98706048  0.30080002  0.90706378  1
  O  O5  1  0.19492428  0.19919998  0.59293622  1
  O  O6  1  0.01293952  0.69919998  0.09293622  1
  O  O7  1  0.80507572  0.80080002  0.40706378  1
  O  O8  1  0.69422970  0.50583452  0.65856996  1
  O  O9  1  0.85863418  0.99416548  0.84143004  1
  O  O10  1  0.30577030  0.49416548  0.34143004  1
  O  O11  1  0.14136582  0.00583452  0.15856996  1
  O  O12  1  0.65938559  0.08451607  0.12358677  1
  O  O13  1  0.86748844  0.41548393  0.37641323  1
  O  O14  1  0.34061441  0.91548393  0.87641323  1
  O  O15  1  0.13251156  0.58451607  0.62358677  1
  Ca  Ca16  1  0.43186635  0.25000000  0.75000000  1
  Ca  Ca17  1  0.56813365  0.75000000  0.25000000  1
  Te  Te18  1  0.00000000  0.50000000  0.50000000  1
  Te  Te19  1  0.00000000  0.00000000  0.00000000  1
  Te  Te20  1  0.87446349  0.07629304  0.35835555  1
  Te  Te21  1  0.30911208  0.42370696  0.14164445  1
  Te  Te22  1  0.12553651  0.92370696  0.64164445  1
  Te  Te23  1  0.69088792  0.57629304  0.85835555  1
