# generated using pymatgen
data_Mg3N2
_symmetry_space_group_name_H-M   'P 1'
_cell_length_a   8.68145850
_cell_length_b   8.68145851
_cell_length_c   8.68145850
_cell_angle_alpha   109.47122061
_cell_angle_beta   109.47122063
_cell_angle_gamma   109.47122066
_symmetry_Int_Tables_number   1
_chemical_formula_structural   Mg3N2
_chemical_formula_sum   'Mg24 N16'
_cell_volume   503.68172115
_cell_formula_units_Z   8
loop_
 _symmetry_equiv_pos_site_id
 _symmetry_equiv_pos_as_xyz
  1  'x, y, z'
loop_
 _atom_site_type_symbol
 _atom_site_label
 _atom_site_symmetry_multiplicity
 _atom_site_fract_x
 _atom_site_fract_y
 _atom_site_fract_z
 _atom_site_occupancy
  N  N0  1  0.00000000  0.50000000  0.00000000  1
  N  N1  1  0.50000000  0.00000000  0.00000000  1
  N  N2  1  0.00000000  0.00000000  0.50000000  1
  N  N3  1  0.50000000  0.50000000  0.50000000  1
  N  N4  1  0.25000000  0.71900391  0.46900391  1
  N  N5  1  0.03099609  0.75000000  0.78099609  1
  N  N6  1  0.78099609  0.03099609  0.75000000  1
  N  N7  1  0.46900391  0.25000000  0.71900391  1
  N  N8  1  0.71900391  0.46900391  0.25000000  1
  N  N9  1  0.75000000  0.78099609  0.03099609  1
  N  N10  1  0.75000000  0.28099609  0.53099609  1
  N  N11  1  0.96900391  0.25000000  0.21900391  1
  N  N12  1  0.21900391  0.96900391  0.25000000  1
  N  N13  1  0.53099609  0.75000000  0.28099609  1
  N  N14  1  0.28099609  0.53099609  0.75000000  1
  N  N15  1  0.25000000  0.21900391  0.96900391  1
  Mg  Mg16  1  0.04181871  0.27031657  0.00699548  1
  Mg  Mg17  1  0.27150214  0.73667891  0.22968343  1
  Mg  Mg18  1  0.76332109  0.03482323  0.49300452  1
  Mg  Mg19  1  0.45818129  0.46517677  0.22849786  1
  Mg  Mg20  1  0.22849786  0.45818129  0.46517677  1
  Mg  Mg21  1  0.27031657  0.00699548  0.04181871  1
  Mg  Mg22  1  0.22968343  0.27150214  0.73667891  1
  Mg  Mg23  1  0.03482323  0.49300452  0.76332109  1
  Mg  Mg24  1  0.49300452  0.76332109  0.03482323  1
  Mg  Mg25  1  0.73667891  0.22968343  0.27150214  1
  Mg  Mg26  1  0.00699548  0.04181871  0.27031657  1
  Mg  Mg27  1  0.46517677  0.22849786  0.45818129  1
  Mg  Mg28  1  0.96517677  0.50699548  0.23667891  1
  Mg  Mg29  1  0.77031657  0.72849786  0.26332109  1
  Mg  Mg30  1  0.72968343  0.99300452  0.95818129  1
  Mg  Mg31  1  0.77150214  0.54181871  0.53482323  1
  Mg  Mg32  1  0.54181871  0.53482323  0.77150214  1
  Mg  Mg33  1  0.23667891  0.96517677  0.50699548  1
  Mg  Mg34  1  0.72849786  0.26332109  0.77031657  1
  Mg  Mg35  1  0.95818129  0.72968343  0.99300452  1
  Mg  Mg36  1  0.50699548  0.23667891  0.96517677  1
  Mg  Mg37  1  0.26332109  0.77031657  0.72849786  1
  Mg  Mg38  1  0.99300452  0.95818129  0.72968343  1
  Mg  Mg39  1  0.53482323  0.77150214  0.54181871  1
