# generated using pymatgen
data_HoB2C
_symmetry_space_group_name_H-M   'P 1'
_cell_length_a   6.78262268
_cell_length_b   6.78262268
_cell_length_c   7.41606934
_cell_angle_alpha   90.00000000
_cell_angle_beta   90.00000000
_cell_angle_gamma   90.00000000
_symmetry_Int_Tables_number   1
_chemical_formula_structural   HoB2C
_chemical_formula_sum   'Ho8 B16 C8'
_cell_volume   341.16863454
_cell_formula_units_Z   8
loop_
 _symmetry_equiv_pos_site_id
 _symmetry_equiv_pos_as_xyz
  1  'x, y, z'
loop_
 _atom_site_type_symbol
 _atom_site_label
 _atom_site_symmetry_multiplicity
 _atom_site_fract_x
 _atom_site_fract_y
 _atom_site_fract_z
 _atom_site_occupancy
  B  B0  1  0.15198341  0.03460321  0.00000000  1
  B  B1  1  0.53460321  0.65198341  0.50000000  1
  B  B2  1  0.84801659  0.96539679  0.00000000  1
  B  B3  1  0.34801659  0.53460321  0.00000000  1
  B  B4  1  0.65198341  0.46539679  0.00000000  1
  B  B5  1  0.03460321  0.84801659  0.50000000  1
  B  B6  1  0.96539679  0.15198341  0.50000000  1
  B  B7  1  0.46539679  0.34801659  0.50000000  1
  B  B8  1  0.09700695  0.59461448  0.00000000  1
  B  B9  1  0.40538552  0.09700695  0.50000000  1
  B  B10  1  0.59461448  0.90299305  0.50000000  1
  B  B11  1  0.59700695  0.90538552  0.00000000  1
  B  B12  1  0.40299305  0.09461448  0.00000000  1
  B  B13  1  0.90299305  0.40538552  0.00000000  1
  B  B14  1  0.09461448  0.59700695  0.50000000  1
  B  B15  1  0.90538552  0.40299305  0.50000000  1
  C  C16  1  0.17739166  0.04045359  0.50000000  1
  C  C17  1  0.67739166  0.45954641  0.50000000  1
  C  C18  1  0.32260834  0.54045359  0.50000000  1
  C  C19  1  0.95954641  0.17739166  0.00000000  1
  C  C20  1  0.04045359  0.82260834  0.00000000  1
  C  C21  1  0.54045359  0.67739166  0.00000000  1
  C  C22  1  0.82260834  0.95954641  0.50000000  1
  C  C23  1  0.45954641  0.32260834  0.00000000  1
  Ho  Ho24  1  0.30953885  0.80953885  0.75000000  1
  Ho  Ho25  1  0.19046115  0.30953885  0.25000000  1
  Ho  Ho26  1  0.80953885  0.69046115  0.25000000  1
  Ho  Ho27  1  0.69046115  0.19046115  0.75000000  1
  Ho  Ho28  1  0.69046115  0.19046115  0.25000000  1
  Ho  Ho29  1  0.80953885  0.69046115  0.75000000  1
  Ho  Ho30  1  0.19046115  0.30953885  0.75000000  1
  Ho  Ho31  1  0.30953885  0.80953885  0.25000000  1
