# generated using pymatgen
data_TmB2C
_symmetry_space_group_name_H-M   'P 1'
_cell_length_a   6.75634833
_cell_length_b   6.75634833
_cell_length_c   7.29345743
_cell_angle_alpha   90.00000000
_cell_angle_beta   90.00000000
_cell_angle_gamma   90.00000000
_symmetry_Int_Tables_number   1
_chemical_formula_structural   TmB2C
_chemical_formula_sum   'Tm8 B16 C8'
_cell_volume   332.93351530
_cell_formula_units_Z   8
loop_
 _symmetry_equiv_pos_site_id
 _symmetry_equiv_pos_as_xyz
  1  'x, y, z'
loop_
 _atom_site_type_symbol
 _atom_site_label
 _atom_site_symmetry_multiplicity
 _atom_site_fract_x
 _atom_site_fract_y
 _atom_site_fract_z
 _atom_site_occupancy
  B  B0  1  0.15252608  0.03441890  0.00000000  1
  B  B1  1  0.53441890  0.65252608  0.50000000  1
  B  B2  1  0.84747392  0.96558110  0.00000000  1
  B  B3  1  0.34747392  0.53441890  0.00000000  1
  B  B4  1  0.65252608  0.46558110  0.00000000  1
  B  B5  1  0.03441890  0.84747392  0.50000000  1
  B  B6  1  0.96558110  0.15252608  0.50000000  1
  B  B7  1  0.46558110  0.34747392  0.50000000  1
  B  B8  1  0.09692610  0.59387690  0.00000000  1
  B  B9  1  0.40612310  0.09692610  0.50000000  1
  B  B10  1  0.59387690  0.90307390  0.50000000  1
  B  B11  1  0.59692610  0.90612310  0.00000000  1
  B  B12  1  0.40307390  0.09387690  0.00000000  1
  B  B13  1  0.90307390  0.40612310  0.00000000  1
  B  B14  1  0.09387690  0.59692610  0.50000000  1
  B  B15  1  0.90612310  0.40307390  0.50000000  1
  C  C16  1  0.17762604  0.04023411  0.50000000  1
  C  C17  1  0.67762604  0.45976589  0.50000000  1
  C  C18  1  0.32237396  0.54023411  0.50000000  1
  C  C19  1  0.95976589  0.17762604  0.00000000  1
  C  C20  1  0.04023411  0.82237396  0.00000000  1
  C  C21  1  0.54023411  0.67762604  0.00000000  1
  C  C22  1  0.82237396  0.95976589  0.50000000  1
  C  C23  1  0.45976589  0.32237396  0.00000000  1
  Tm  Tm24  1  0.30919958  0.80919958  0.75000000  1
  Tm  Tm25  1  0.19080042  0.30919958  0.25000000  1
  Tm  Tm26  1  0.80919958  0.69080042  0.25000000  1
  Tm  Tm27  1  0.69080042  0.19080042  0.75000000  1
  Tm  Tm28  1  0.69080042  0.19080042  0.25000000  1
  Tm  Tm29  1  0.80919958  0.69080042  0.75000000  1
  Tm  Tm30  1  0.19080042  0.30919958  0.75000000  1
  Tm  Tm31  1  0.30919958  0.80919958  0.25000000  1
