# generated using pymatgen
data_Na3AuS2
_symmetry_space_group_name_H-M   'P 1'
_cell_length_a   7.15171576
_cell_length_b   7.15171577
_cell_length_c   7.15171577
_cell_angle_alpha   65.32677230
_cell_angle_beta   65.32677232
_cell_angle_gamma   65.32677232
_symmetry_Int_Tables_number   1
_chemical_formula_structural   Na3AuS2
_chemical_formula_sum   'Na6 Au2 S4'
_cell_volume   288.65158929
_cell_formula_units_Z   2
loop_
 _symmetry_equiv_pos_site_id
 _symmetry_equiv_pos_as_xyz
  1  'x, y, z'
loop_
 _atom_site_type_symbol
 _atom_site_label
 _atom_site_symmetry_multiplicity
 _atom_site_fract_x
 _atom_site_fract_y
 _atom_site_fract_z
 _atom_site_occupancy
  Na  Na0  1  0.96588486  0.53411514  0.25000000  1
  Na  Na1  1  0.25000000  0.96588486  0.53411514  1
  Na  Na2  1  0.53411514  0.25000000  0.96588486  1
  Na  Na3  1  0.03411514  0.46588486  0.75000000  1
  Na  Na4  1  0.75000000  0.03411514  0.46588486  1
  Na  Na5  1  0.46588486  0.75000000  0.03411514  1
  S  S6  1  0.63874305  0.63874305  0.63874305  1
  S  S7  1  0.86125695  0.86125695  0.86125695  1
  S  S8  1  0.13874305  0.13874305  0.13874305  1
  S  S9  1  0.36125695  0.36125695  0.36125695  1
  Au  Au10  1  0.50000000  0.50000000  0.50000000  1
  Au  Au11  1  0.00000000  0.00000000  0.00000000  1
