# generated using pymatgen
data_Cu(RhS2)2
_symmetry_space_group_name_H-M   'P 1'
_cell_length_a   6.98743776
_cell_length_b   6.98743777
_cell_length_c   6.98743777
_cell_angle_alpha   60.00000004
_cell_angle_beta   60.00000001
_cell_angle_gamma   60.00000001
_symmetry_Int_Tables_number   1
_chemical_formula_structural   Cu(RhS2)2
_chemical_formula_sum   'Cu2 Rh4 S8'
_cell_volume   241.23419052
_cell_formula_units_Z   2
loop_
 _symmetry_equiv_pos_site_id
 _symmetry_equiv_pos_as_xyz
  1  'x, y, z'
loop_
 _atom_site_type_symbol
 _atom_site_label
 _atom_site_symmetry_multiplicity
 _atom_site_fract_x
 _atom_site_fract_y
 _atom_site_fract_z
 _atom_site_occupancy
  S  S0  1  0.74071152  0.74071152  0.74071152  1
  S  S1  1  0.25928848  0.25928848  0.72213456  1
  S  S2  1  0.25928848  0.72213456  0.25928848  1
  S  S3  1  0.72213456  0.25928848  0.25928848  1
  S  S4  1  0.74071152  0.27786544  0.74071152  1
  S  S5  1  0.27786544  0.74071152  0.74071152  1
  S  S6  1  0.25928848  0.25928848  0.25928848  1
  S  S7  1  0.74071152  0.74071152  0.27786544  1
  Cu  Cu8  1  0.87500000  0.87500000  0.87500000  1
  Cu  Cu9  1  0.12500000  0.12500000  0.12500000  1
  Rh  Rh10  1  0.50000000  0.50000000  0.00000000  1
  Rh  Rh11  1  0.50000000  0.50000000  0.50000000  1
  Rh  Rh12  1  0.00000000  0.50000000  0.50000000  1
  Rh  Rh13  1  0.50000000  0.00000000  0.50000000  1
