# generated using pymatgen
data_Ce(BRu)2
_symmetry_space_group_name_H-M   'P 1'
_cell_length_a   5.55951478
_cell_length_b   5.55951478
_cell_length_c   5.98982145
_cell_angle_alpha   108.97828269
_cell_angle_beta   108.97828273
_cell_angle_gamma   107.41184250
_symmetry_Int_Tables_number   1
_chemical_formula_structural   Ce(BRu)2
_chemical_formula_sum   'Ce2 B4 Ru4'
_cell_volume   147.60213900
_cell_formula_units_Z   2
loop_
 _symmetry_equiv_pos_site_id
 _symmetry_equiv_pos_as_xyz
  1  'x, y, z'
loop_
 _atom_site_type_symbol
 _atom_site_label
 _atom_site_symmetry_multiplicity
 _atom_site_fract_x
 _atom_site_fract_y
 _atom_site_fract_z
 _atom_site_occupancy
  B  B0  1  0.93365564  0.06634436  0.50000000  1
  B  B1  1  0.56634436  0.43365564  0.50000000  1
  B  B2  1  0.68363751  0.31636249  0.00000000  1
  B  B3  1  0.31636249  0.68363751  0.00000000  1
  Ru  Ru4  1  0.61193994  0.11193994  0.22387989  1
  Ru  Ru5  1  0.88806006  0.38806006  0.77612011  1
  Ru  Ru6  1  0.36196946  0.36196946  0.72393891  1
  Ru  Ru7  1  0.63803054  0.63803054  0.27606109  1
  Ce  Ce8  1  0.25000000  0.75000000  0.50000000  1
  Ce  Ce9  1  0.00000000  0.00000000  0.00000000  1
