# generated using pymatgen
data_Tl3AsO4
_symmetry_space_group_name_H-M   'P 1'
_cell_length_a   9.13193246
_cell_length_b   9.13193246
_cell_length_c   5.36966496
_cell_angle_alpha   90.00000000
_cell_angle_beta   90.00000000
_cell_angle_gamma   120.00000000
_symmetry_Int_Tables_number   1
_chemical_formula_structural   Tl3AsO4
_chemical_formula_sum   'Tl6 As2 O8'
_cell_volume   387.79589000
_cell_formula_units_Z   2
loop_
 _symmetry_equiv_pos_site_id
 _symmetry_equiv_pos_as_xyz
  1  'x, y, z'
loop_
 _atom_site_type_symbol
 _atom_site_label
 _atom_site_symmetry_multiplicity
 _atom_site_fract_x
 _atom_site_fract_y
 _atom_site_fract_z
 _atom_site_occupancy
  O  O0  1  0.60156036  0.12983260  0.58452284  1
  O  O1  1  0.47172777  0.60156036  0.08452284  1
  O  O2  1  0.12983260  0.52827223  0.08452284  1
  O  O3  1  0.87016740  0.47172777  0.58452284  1
  O  O4  1  0.33333333  0.66666667  0.65961139  1
  O  O5  1  0.39843964  0.87016740  0.08452284  1
  O  O6  1  0.66666667  0.33333333  0.15961139  1
  O  O7  1  0.52827223  0.39843964  0.58452284  1
  As  As8  1  0.33333333  0.66666667  0.98553192  1
  As  As9  1  0.66666667  0.33333333  0.48553192  1
  Tl  Tl10  1  0.71268694  0.08774608  -0.00020394  1
  Tl  Tl11  1  0.91225392  0.62494086  -0.00020394  1
  Tl  Tl12  1  0.62494086  0.71268694  0.49979606  1
  Tl  Tl13  1  0.28731306  0.91225392  0.49979606  1
  Tl  Tl14  1  0.08774608  0.37505914  0.49979606  1
  Tl  Tl15  1  0.37505914  0.28731306  -0.00020394  1
