# generated using pymatgen
data_Ba3WO6
_symmetry_space_group_name_H-M   'P 1'
_cell_length_a   6.61586985
_cell_length_b   6.91937585
_cell_length_c   8.06584704
_cell_angle_alpha   89.77717192
_cell_angle_beta   89.90928044
_cell_angle_gamma   95.68834728
_symmetry_Int_Tables_number   1
_chemical_formula_structural   Ba3WO6
_chemical_formula_sum   'Ba6 W2 O12'
_cell_volume   367.41413816
_cell_formula_units_Z   2
loop_
 _symmetry_equiv_pos_site_id
 _symmetry_equiv_pos_as_xyz
  1  'x, y, z'
loop_
 _atom_site_type_symbol
 _atom_site_label
 _atom_site_symmetry_multiplicity
 _atom_site_fract_x
 _atom_site_fract_y
 _atom_site_fract_z
 _atom_site_occupancy
  Ba  Ba0  1  0.96411570  0.97976247  0.02184410  1
  Ba  Ba1  1  0.97157386  0.97229968  0.54758396  1
  Ba  Ba2  1  0.07000648  0.46113748  0.28739839  1
  Ba  Ba3  1  0.55436941  0.58605248  0.01851270  1
  Ba  Ba4  1  0.55493328  0.58746552  0.56593425  1
  Ba  Ba5  1  0.44859716  0.08893369  0.79052928  1
  W  W6  1  0.05042309  0.48173929  0.79245021  1
  W  W7  1  0.52407565  0.04118473  0.29028429  1
  O  O8  1  0.95820946  0.59887589  0.57912568  1
  O  O9  1  0.18387935  0.32064093  0.95503319  1
  O  O10  1  0.26718656  0.69047829  0.78979076  1
  O  O11  1  0.17861032  0.31064657  0.63621530  1
  O  O12  1  0.38922845  0.94854893  0.10214472  1
  O  O13  1  0.42684829  0.29029325  0.29069514  1
  O  O14  1  0.38739256  0.94617778  0.47780859  1
  O  O15  1  0.72560858  0.86674670  0.78393011  1
  O  O16  1  0.68344521  0.80930356  0.29027906  1
  O  O17  1  0.79553352  0.17560694  0.29019383  1
  O  O18  1  0.77001524  0.34939949  0.79777491  1
  O  O19  1  0.95794783  0.60770632  0.00247153  1
