# generated using pymatgen
data_KSb5S8
_symmetry_space_group_name_H-M   'P 1'
_cell_length_a   8.64863383
_cell_length_b   9.15154866
_cell_length_c   19.71886472
_cell_angle_alpha   90.00000000
_cell_angle_beta   90.00000000
_cell_angle_gamma   90.17421747
_symmetry_Int_Tables_number   1
_chemical_formula_structural   KSb5S8
_chemical_formula_sum   'K4 Sb20 S32'
_cell_volume   1560.70924510
_cell_formula_units_Z   4
loop_
 _symmetry_equiv_pos_site_id
 _symmetry_equiv_pos_as_xyz
  1  'x, y, z'
loop_
 _atom_site_type_symbol
 _atom_site_label
 _atom_site_symmetry_multiplicity
 _atom_site_fract_x
 _atom_site_fract_y
 _atom_site_fract_z
 _atom_site_occupancy
  S  S0  1  0.93109735  0.48716589  0.03736147  1
  S  S1  1  0.43109735  0.98716589  0.96263853  1
  S  S2  1  0.16824226  0.80609627  0.08241912  1
  S  S3  1  0.66824226  0.30609627  0.91758088  1
  S  S4  1  0.88903936  0.07469761  0.01922390  1
  S  S5  1  0.38903936  0.57469761  0.98077610  1
  S  S6  1  0.16584704  0.71438868  0.49177515  1
  S  S7  1  0.66584704  0.21438868  0.50822485  1
  S  S8  1  0.89547775  0.50083022  0.40475184  1
  S  S9  1  0.39547775  0.00083022  0.59524816  1
  S  S10  1  0.86290143  0.29583299  0.19746177  1
  S  S11  1  0.36290143  0.79583299  0.80253823  1
  S  S12  1  0.90461551  0.68084352  0.22675780  1
  S  S13  1  0.40461551  0.18084352  0.77324220  1
  S  S14  1  0.52456489  0.54303076  0.16247682  1
  S  S15  1  0.02456489  0.04303076  0.83752318  1
  S  S16  1  0.88996793  0.91546470  0.39695389  1
  S  S17  1  0.38996793  0.41546470  0.60304611  1
  S  S18  1  0.54846496  0.75327623  0.32337159  1
  S  S19  1  0.04846496  0.25327623  0.67662841  1
  S  S20  1  0.23423705  0.21138159  0.46000178  1
  S  S21  1  0.73423705  0.71138159  0.53999822  1
  S  S22  1  0.59117853  0.15942830  0.34057302  1
  S  S23  1  0.09117853  0.65942830  0.65942698  1
  S  S24  1  0.71183086  0.52875531  0.72163927  1
  S  S25  1  0.21183086  0.02875531  0.27836073  1
  S  S26  1  0.74970021  0.91103046  0.70667263  1
  S  S27  1  0.24970021  0.41103046  0.29332737  1
  S  S28  1  0.72293503  0.72243955  0.88828511  1
  S  S29  1  0.22293503  0.22243955  0.11171489  1
  S  S30  1  0.03124135  0.45412999  0.83160496  1
  S  S31  1  0.53124135  0.95412999  0.16839504  1
  K  K32  1  0.68736164  0.76557059  0.05064506  1
  K  K33  1  0.18736164  0.26557059  0.94935494  1
  K  K34  1  0.48410909  0.50131942  0.44650531  1
  K  K35  1  0.98410909  0.00131942  0.55349469  1
  Sb  Sb36  1  0.06496768  0.46414635  0.15295463  1
  Sb  Sb37  1  0.56496768  0.96414635  0.84704537  1
  Sb  Sb38  1  0.73010699  0.29692457  0.04472810  1
  Sb  Sb39  1  0.23010699  0.79692457  0.95527190  1
  Sb  Sb40  1  0.02871924  0.02765959  0.12983517  1
  Sb  Sb41  1  0.52871924  0.52765959  0.87016483  1
  Sb  Sb42  1  0.06242321  0.70564924  0.36937031  1
  Sb  Sb43  1  0.56242321  0.20564924  0.63062969  1
  Sb  Sb44  1  0.70615399  0.50650397  0.26218012  1
  Sb  Sb45  1  0.20615399  0.00650397  0.73781988  1
  Sb  Sb46  1  0.37900665  0.75419797  0.21589797  1
  Sb  Sb47  1  0.87900665  0.25419797  0.78410203  1
  Sb  Sb48  1  0.73869360  0.94954980  0.28676830  1
  Sb  Sb49  1  0.23869360  0.44954980  0.71323170  1
  Sb  Sb50  1  0.46691426  0.04755365  0.46063620  1
  Sb  Sb51  1  0.96691426  0.54755365  0.53936380  1
  Sb  Sb52  1  0.08238695  0.22787218  0.35042671  1
  Sb  Sb53  1  0.58238695  0.72787218  0.64957329  1
  Sb  Sb54  1  0.40621520  0.20036062  0.23008113  1
  Sb  Sb55  1  0.90621520  0.70036062  0.76991887  1
