# generated using pymatgen
data_Si4Ir3
_symmetry_space_group_name_H-M   'P 1'
_cell_length_a   3.73721068
_cell_length_b   5.83717515
_cell_length_c   19.03078613
_cell_angle_alpha   90.00000000
_cell_angle_beta   90.00000000
_cell_angle_gamma   90.00000000
_symmetry_Int_Tables_number   1
_chemical_formula_structural   Si4Ir3
_chemical_formula_sum   'Si16 Ir12'
_cell_volume   415.15190475
_cell_formula_units_Z   4
loop_
 _symmetry_equiv_pos_site_id
 _symmetry_equiv_pos_as_xyz
  1  'x, y, z'
loop_
 _atom_site_type_symbol
 _atom_site_label
 _atom_site_symmetry_multiplicity
 _atom_site_fract_x
 _atom_site_fract_y
 _atom_site_fract_z
 _atom_site_occupancy
  Si  Si0  1  0.25000000  0.97263110  0.45032588  1
  Si  Si1  1  0.75000000  0.02736890  0.54967412  1
  Si  Si2  1  0.75000000  0.47263110  0.04967412  1
  Si  Si3  1  0.25000000  0.52736890  0.95032588  1
  Si  Si4  1  0.25000000  0.07473501  0.90918672  1
  Si  Si5  1  0.75000000  0.92526499  0.09081328  1
  Si  Si6  1  0.75000000  0.57473501  0.59081328  1
  Si  Si7  1  0.25000000  0.42526499  0.40918672  1
  Si  Si8  1  0.25000000  0.71544563  0.26977116  1
  Si  Si9  1  0.75000000  0.28455437  0.73022884  1
  Si  Si10  1  0.75000000  0.21544563  0.23022884  1
  Si  Si11  1  0.25000000  0.78455437  0.76977116  1
  Si  Si12  1  0.25000000  0.38895896  0.14387536  1
  Si  Si13  1  0.75000000  0.61104104  0.85612464  1
  Si  Si14  1  0.75000000  0.88895896  0.35612464  1
  Si  Si15  1  0.25000000  0.11104104  0.64387536  1
  Ir  Ir16  1  0.25000000  0.39233702  0.82618419  1
  Ir  Ir17  1  0.75000000  0.60766298  0.17381581  1
  Ir  Ir18  1  0.75000000  0.89233702  0.67381581  1
  Ir  Ir19  1  0.25000000  0.10766298  0.32618419  1
  Ir  Ir20  1  0.25000000  0.49987560  0.67617074  1
  Ir  Ir21  1  0.75000000  0.50012440  0.32382926  1
  Ir  Ir22  1  0.75000000  0.99987560  0.82382926  1
  Ir  Ir23  1  0.25000000  0.00012440  0.17617074  1
  Ir  Ir24  1  0.25000000  0.30416098  0.53130440  1
  Ir  Ir25  1  0.75000000  0.69583902  0.46869560  1
  Ir  Ir26  1  0.75000000  0.80416098  0.96869560  1
  Ir  Ir27  1  0.25000000  0.19583902  0.03130440  1
