# generated using pymatgen
data_CeSi2Ni
_symmetry_space_group_name_H-M   'P 1'
_cell_length_a   4.05536593
_cell_length_b   4.10339711
_cell_length_c   8.39465360
_cell_angle_alpha   104.14669666
_cell_angle_beta   90.00000000
_cell_angle_gamma   90.00000000
_symmetry_Int_Tables_number   1
_chemical_formula_structural   CeSi2Ni
_chemical_formula_sum   'Ce2 Si4 Ni2'
_cell_volume   135.45709104
_cell_formula_units_Z   2
loop_
 _symmetry_equiv_pos_site_id
 _symmetry_equiv_pos_as_xyz
  1  'x, y, z'
loop_
 _atom_site_type_symbol
 _atom_site_label
 _atom_site_symmetry_multiplicity
 _atom_site_fract_x
 _atom_site_fract_y
 _atom_site_fract_z
 _atom_site_occupancy
  Si  Si0  1  0.25000000  0.24929698  0.49859397  1
  Si  Si1  1  0.75000000  0.75070302  0.50140603  1
  Si  Si2  1  0.75000000  0.46033598  0.92067196  1
  Si  Si3  1  0.25000000  0.53966402  0.07932804  1
  Ni  Ni4  1  0.75000000  0.31940190  0.63880380  1
  Ni  Ni5  1  0.25000000  0.68059810  0.36119620  1
  Ce  Ce6  1  0.25000000  0.89396348  0.78792697  1
  Ce  Ce7  1  0.75000000  0.10603652  0.21207303  1
