# generated using pymatgen
data_DyB2C
_symmetry_space_group_name_H-M   'P 1'
_cell_length_a   6.79446804
_cell_length_b   6.79446804
_cell_length_c   7.47912006
_cell_angle_alpha   90.00000000
_cell_angle_beta   90.00000000
_cell_angle_gamma   90.00000000
_symmetry_Int_Tables_number   1
_chemical_formula_structural   DyB2C
_chemical_formula_sum   'Dy8 B16 C8'
_cell_volume   345.27205143
_cell_formula_units_Z   8
loop_
 _symmetry_equiv_pos_site_id
 _symmetry_equiv_pos_as_xyz
  1  'x, y, z'
loop_
 _atom_site_type_symbol
 _atom_site_label
 _atom_site_symmetry_multiplicity
 _atom_site_fract_x
 _atom_site_fract_y
 _atom_site_fract_z
 _atom_site_occupancy
  B  B0  1  0.15170347  0.03465954  0.00000000  1
  B  B1  1  0.53465954  0.65170347  0.50000000  1
  B  B2  1  0.84829653  0.96534046  0.00000000  1
  B  B3  1  0.34829653  0.53465954  0.00000000  1
  B  B4  1  0.65170347  0.46534046  0.00000000  1
  B  B5  1  0.03465954  0.84829653  0.50000000  1
  B  B6  1  0.96534046  0.15170347  0.50000000  1
  B  B7  1  0.46534046  0.34829653  0.50000000  1
  B  B8  1  0.09700853  0.59492480  0.00000000  1
  B  B9  1  0.40507520  0.09700853  0.50000000  1
  B  B10  1  0.59492480  0.90299147  0.50000000  1
  B  B11  1  0.59700853  0.90507520  0.00000000  1
  B  B12  1  0.40299147  0.09492480  0.00000000  1
  B  B13  1  0.90299147  0.40507520  0.00000000  1
  B  B14  1  0.09492480  0.59700853  0.50000000  1
  B  B15  1  0.90507520  0.40299147  0.50000000  1
  C  C16  1  0.17735819  0.04045153  0.50000000  1
  C  C17  1  0.67735819  0.45954847  0.50000000  1
  C  C18  1  0.32264181  0.54045153  0.50000000  1
  C  C19  1  0.95954847  0.17735819  0.00000000  1
  C  C20  1  0.04045153  0.82264181  0.00000000  1
  C  C21  1  0.54045153  0.67735819  0.00000000  1
  C  C22  1  0.82264181  0.95954847  0.50000000  1
  C  C23  1  0.45954847  0.32264181  0.00000000  1
  Dy  Dy24  1  0.30966615  0.80966615  0.75000000  1
  Dy  Dy25  1  0.19033385  0.30966615  0.25000000  1
  Dy  Dy26  1  0.80966615  0.69033385  0.25000000  1
  Dy  Dy27  1  0.69033385  0.19033385  0.75000000  1
  Dy  Dy28  1  0.69033385  0.19033385  0.25000000  1
  Dy  Dy29  1  0.80966615  0.69033385  0.75000000  1
  Dy  Dy30  1  0.19033385  0.30966615  0.75000000  1
  Dy  Dy31  1  0.30966615  0.80966615  0.25000000  1
