# generated using pymatgen
data_CdRhF6
_symmetry_space_group_name_H-M   'P 1'
_cell_length_a   5.75182023
_cell_length_b   5.75182024
_cell_length_c   5.75182024
_cell_angle_alpha   54.65502531
_cell_angle_beta   54.65502537
_cell_angle_gamma   54.65502527
_symmetry_Int_Tables_number   1
_chemical_formula_structural   CdRhF6
_chemical_formula_sum   'Cd1 Rh1 F6'
_cell_volume   117.79860773
_cell_formula_units_Z   1
loop_
 _symmetry_equiv_pos_site_id
 _symmetry_equiv_pos_as_xyz
  1  'x, y, z'
loop_
 _atom_site_type_symbol
 _atom_site_label
 _atom_site_symmetry_multiplicity
 _atom_site_fract_x
 _atom_site_fract_y
 _atom_site_fract_z
 _atom_site_occupancy
  F  F0  1  0.37867284  0.07635592  0.77816253  1
  F  F1  1  0.07635592  0.77816253  0.37867284  1
  F  F2  1  0.22183747  0.62132716  0.92364408  1
  F  F3  1  0.92364408  0.22183747  0.62132716  1
  F  F4  1  0.62132716  0.92364408  0.22183747  1
  F  F5  1  0.77816253  0.37867284  0.07635592  1
  Rh  Rh6  1  0.00000000  0.00000000  0.00000000  1
  Cd  Cd7  1  0.50000000  0.50000000  0.50000000  1
