# generated using pymatgen
data_Fe4(PO4)3
_symmetry_space_group_name_H-M   'P 1'
_cell_length_a   6.17848601
_cell_length_b   14.84340480
_cell_length_c   10.14546994
_cell_angle_alpha   90.00000000
_cell_angle_beta   90.00000000
_cell_angle_gamma   90.00000000
_symmetry_Int_Tables_number   1
_chemical_formula_structural   Fe4(PO4)3
_chemical_formula_sum   'Fe16 P12 O48'
_cell_volume   930.43870355
_cell_formula_units_Z   4
loop_
 _symmetry_equiv_pos_site_id
 _symmetry_equiv_pos_as_xyz
  1  'x, y, z'
loop_
 _atom_site_type_symbol
 _atom_site_label
 _atom_site_symmetry_multiplicity
 _atom_site_fract_x
 _atom_site_fract_y
 _atom_site_fract_z
 _atom_site_occupancy
  Fe  Fe0  1  0.36169683  0.11326228  0.92825298  1
  Fe  Fe1  1  0.63830317  0.88673772  0.07174802  1
  Fe  Fe2  1  0.64645117  0.61323059  0.65178394  1
  Fe  Fe3  1  0.36169683  0.38673772  0.92825298  1
  Fe  Fe4  1  0.85354883  0.38676941  0.15178394  1
  Fe  Fe5  1  0.35354883  0.11323059  0.34821606  1
  Fe  Fe6  1  0.86169683  0.38673772  0.57174702  1
  Fe  Fe7  1  0.85354883  0.11323059  0.15178394  1
  Fe  Fe8  1  0.86169683  0.11326228  0.57174702  1
  Fe  Fe9  1  0.14645017  0.61323059  0.84821606  1
  Fe  Fe10  1  0.63830317  0.61326228  0.07174802  1
  Fe  Fe11  1  0.14645017  0.88676941  0.84821606  1
  Fe  Fe12  1  0.64645117  0.88676941  0.65178394  1
  Fe  Fe13  1  0.13830317  0.61326228  0.42825198  1
  Fe  Fe14  1  0.35354883  0.38676941  0.34821606  1
  Fe  Fe15  1  0.13830317  0.88673772  0.42825198  1
  P  P16  1  0.64139909  0.57031319  0.36741517  1
  P  P17  1  0.99584116  0.25000000  0.39860157  1
  P  P18  1  0.85860091  0.07031319  0.86741517  1
  P  P19  1  0.64139909  0.92968681  0.36741517  1
  P  P20  1  0.14139909  0.57031319  0.13258483  1
  P  P21  1  0.49584116  0.25000000  0.10139843  1
  P  P22  1  0.00415884  0.75000000  0.60139843  1
  P  P23  1  0.85860091  0.42968681  0.86741517  1
  P  P24  1  0.35860091  0.07031319  0.63258483  1
  P  P25  1  0.14139909  0.92968681  0.13258483  1
  P  P26  1  0.50415884  0.75000000  0.89860157  1
  P  P27  1  0.35860091  0.42968681  0.63258483  1
  O  O28  1  0.24607295  0.25000000  0.38075666  1
  O  O29  1  0.07674490  0.01890357  0.20134140  1
  O  O30  1  0.20510868  0.86279684  0.24031166  1
  O  O31  1  0.75392705  0.75000000  0.61924334  1
  O  O32  1  0.90227999  0.16036927  0.34615105  1
  O  O33  1  0.42325510  0.98109643  0.70134140  1
  O  O34  1  0.96026406  0.89464479  0.03695512  1
  O  O35  1  0.25392705  0.75000000  0.88075666  1
  O  O36  1  0.29489132  0.13720316  0.74031166  1
  O  O37  1  0.42325510  0.51890357  0.70134140  1
  O  O38  1  0.09772001  0.66036927  0.65384895  1
  O  O39  1  0.33685803  0.94196764  0.03239215  1
  O  O40  1  0.03973594  0.39464479  0.96304488  1
  O  O41  1  0.74607295  0.25000000  0.11924334  1
  O  O42  1  0.06504355  0.75000000  0.45150967  1
  O  O43  1  0.79489132  0.13720316  0.75968834  1
  O  O44  1  0.66314197  0.05803236  0.96760785  1
  O  O45  1  0.93495645  0.25000000  0.54849033  1
  O  O46  1  0.66314197  0.44196764  0.96760785  1
  O  O47  1  0.46026406  0.60535521  0.46304488  1
  O  O48  1  0.07674490  0.48109643  0.20134140  1
  O  O49  1  0.57674490  0.01890357  0.29865860  1
  O  O50  1  0.40227999  0.33963073  0.15384895  1
  O  O51  1  0.43495645  0.25000000  0.95150967  1
  O  O52  1  0.59772001  0.66036927  0.84615105  1
  O  O53  1  0.92325510  0.98109643  0.79865860  1
  O  O54  1  0.09772001  0.83963073  0.65384895  1
  O  O55  1  0.40227999  0.16036927  0.15384895  1
  O  O56  1  0.79489132  0.36279684  0.75968834  1
  O  O57  1  0.29489132  0.36279684  0.74031166  1
  O  O58  1  0.53973594  0.10535521  0.53695512  1
  O  O59  1  0.59772001  0.83963073  0.84615105  1
  O  O60  1  0.70510868  0.63720316  0.25968834  1
  O  O61  1  0.46026406  0.89464479  0.46304488  1
  O  O62  1  0.03973594  0.10535521  0.96304488  1
  O  O63  1  0.20510868  0.63720316  0.24031166  1
  O  O64  1  0.57674490  0.48109643  0.29865860  1
  O  O65  1  0.70510868  0.86279684  0.25968834  1
  O  O66  1  0.90227999  0.33963073  0.34615105  1
  O  O67  1  0.92325510  0.51890357  0.79865860  1
  O  O68  1  0.16314197  0.05803236  0.53239215  1
  O  O69  1  0.53973594  0.39464479  0.53695512  1
  O  O70  1  0.56504355  0.75000000  0.04849033  1
  O  O71  1  0.16314197  0.44196764  0.53239215  1
  O  O72  1  0.83685803  0.55803236  0.46760785  1
  O  O73  1  0.33685803  0.55803236  0.03239215  1
  O  O74  1  0.83685803  0.94196764  0.46760785  1
  O  O75  1  0.96026406  0.60535521  0.03695512  1
