# generated using pymatgen
data_K3P11
_symmetry_space_group_name_H-M   'P 1'
_cell_length_a   10.86901964
_cell_length_b   10.73836155
_cell_length_c   13.91983455
_cell_angle_alpha   90.00000000
_cell_angle_beta   90.00000000
_cell_angle_gamma   90.00000000
_symmetry_Int_Tables_number   1
_chemical_formula_structural   K3P11
_chemical_formula_sum   'K12 P44'
_cell_volume   1624.65992866
_cell_formula_units_Z   4
loop_
 _symmetry_equiv_pos_site_id
 _symmetry_equiv_pos_as_xyz
  1  'x, y, z'
loop_
 _atom_site_type_symbol
 _atom_site_label
 _atom_site_symmetry_multiplicity
 _atom_site_fract_x
 _atom_site_fract_y
 _atom_site_fract_z
 _atom_site_occupancy
  P  P0  1  0.01363424  0.51098823  0.65395924  1
  P  P1  1  0.51363424  0.98901177  0.84604076  1
  P  P2  1  0.98636576  0.01098823  0.84604076  1
  P  P3  1  0.48636576  0.48901177  0.65395924  1
  P  P4  1  0.98636576  0.48901177  0.34604076  1
  P  P5  1  0.48636576  0.01098823  0.15395924  1
  P  P6  1  0.01363424  0.98901177  0.15395924  1
  P  P7  1  0.51363424  0.51098823  0.34604076  1
  P  P8  1  0.18734122  0.41801812  0.62415858  1
  P  P9  1  0.68734122  0.08198188  0.87584142  1
  P  P10  1  0.81265878  0.91801812  0.87584142  1
  P  P11  1  0.31265878  0.58198188  0.62415858  1
  P  P12  1  0.25000000  0.00000000  0.47587221  1
  P  P13  1  0.75000000  0.50000000  0.02412779  1
  P  P14  1  0.75000000  0.00000000  0.52412779  1
  P  P15  1  0.25000000  0.50000000  0.97587221  1
  P  P16  1  0.74419600  0.32279917  0.23741393  1
  P  P17  1  0.24419600  0.17720083  0.26258607  1
  P  P18  1  0.25580400  0.82279917  0.26258607  1
  P  P19  1  0.75580400  0.67720083  0.23741393  1
  P  P20  1  0.25580400  0.67720083  0.76258607  1
  P  P21  1  0.75580400  0.82279917  0.73741393  1
  P  P22  1  0.74419600  0.17720083  0.73741393  1
  P  P23  1  0.24419600  0.32279917  0.76258607  1
  P  P24  1  0.93022551  0.41094380  0.20917911  1
  P  P25  1  0.43022551  0.08905620  0.29082089  1
  P  P26  1  0.06977449  0.91094380  0.29082089  1
  P  P27  1  0.56977449  0.58905620  0.20917911  1
  P  P28  1  0.06977449  0.58905620  0.79082089  1
  P  P29  1  0.56977449  0.91094380  0.70917911  1
  P  P30  1  0.93022551  0.08905620  0.70917911  1
  P  P31  1  0.43022551  0.41094380  0.79082089  1
  P  P32  1  0.62335373  0.41903786  0.12818289  1
  P  P33  1  0.12335373  0.08096214  0.37181711  1
  P  P34  1  0.37664627  0.91903786  0.37181711  1
  P  P35  1  0.87664627  0.58096214  0.12818289  1
  P  P36  1  0.37664627  0.58096214  0.87181711  1
  P  P37  1  0.87664627  0.91903786  0.62818289  1
  P  P38  1  0.62335373  0.08096214  0.62818289  1
  P  P39  1  0.12335373  0.41903786  0.87181711  1
  P  P40  1  0.68734122  0.41801812  0.37584142  1
  P  P41  1  0.18734122  0.08198188  0.12415858  1
  P  P42  1  0.31265878  0.91801812  0.12415858  1
  P  P43  1  0.81265878  0.58198188  0.37584142  1
  K  K44  1  0.43009660  0.23410592  0.99308752  1
  K  K45  1  0.93009660  0.26589408  0.50691248  1
  K  K46  1  0.56990340  0.73410592  0.50691248  1
  K  K47  1  0.06990340  0.76589408  0.99308752  1
  K  K48  1  0.56990340  0.76589408  0.00691248  1
  K  K49  1  0.06990340  0.73410592  0.49308752  1
  K  K50  1  0.43009660  0.26589408  0.49308752  1
  K  K51  1  0.93009660  0.23410592  0.00691248  1
  K  K52  1  0.25000000  0.50000000  0.21985802  1
  K  K53  1  0.75000000  0.00000000  0.28014198  1
  K  K54  1  0.75000000  0.50000000  0.78014198  1
  K  K55  1  0.25000000  0.00000000  0.71985802  1
