# generated using pymatgen
data_MnPO4
_symmetry_space_group_name_H-M   'P 1'
_cell_length_a   10.39232829
_cell_length_b   10.20695256
_cell_length_c   17.15289034
_cell_angle_alpha   80.44064710
_cell_angle_beta   89.99999997
_cell_angle_gamma   59.39737137
_symmetry_Int_Tables_number   1
_chemical_formula_structural   MnPO4
_chemical_formula_sum   'Mn16 P16 O64'
_cell_volume   1536.63062230
_cell_formula_units_Z   16
loop_
 _symmetry_equiv_pos_site_id
 _symmetry_equiv_pos_as_xyz
  1  'x, y, z'
loop_
 _atom_site_type_symbol
 _atom_site_label
 _atom_site_symmetry_multiplicity
 _atom_site_fract_x
 _atom_site_fract_y
 _atom_site_fract_z
 _atom_site_occupancy
  Mn  Mn0  1  0.37513586  0.35978830  0.37170726  1
  Mn  Mn1  1  0.50616851  0.60759592  0.12197987  1
  Mn  Mn2  1  0.50372673  0.11059763  0.12100265  1
  Mn  Mn3  1  0.94650313  0.28173818  0.37282322  1
  Mn  Mn4  1  0.00913047  0.17022303  0.12201764  1
  Mn  Mn5  1  0.44947288  0.78385219  0.37208279  1
  Mn  Mn6  1  0.76667493  0.78385219  0.87208279  1
  Mn  Mn7  1  0.88623557  0.60759592  0.62197987  1
  Mn  Mn8  1  0.87633908  0.85686907  0.37257871  1
  Mn  Mn9  1  0.26507584  0.35978830  0.87170726  1
  Mn  Mn10  1  0.82064650  0.17022303  0.62201764  1
  Mn  Mn11  1  0.77175869  0.28173818  0.87282322  1
  Mn  Mn12  1  0.38567565  0.11059763  0.62100265  1
  Mn  Mn13  1  0.00317066  0.67351497  0.12122948  1
  Mn  Mn14  1  0.32331436  0.67351497  0.62122948  1
  Mn  Mn15  1  0.26679185  0.85686907  0.87257871  1
  P  P16  1  0.16761237  0.85149718  0.06111780  1
  P  P17  1  0.03010896  0.54334817  0.31012447  1
  P  P18  1  0.03764742  0.29319472  0.55986650  1
  P  P19  1  0.92249598  0.47490298  0.80843597  1
  P  P20  1  0.10237805  0.97064801  0.31057838  1
  P  P21  1  0.42654287  0.54334817  0.81012447  1
  P  P22  1  0.48075567  0.35112885  0.56059236  1
  P  P23  1  0.92697394  0.97064801  0.81057838  1
  P  P24  1  0.66915886  0.29319472  0.05986650  1
  P  P25  1  0.98089045  0.85149718  0.56111780  1
  P  P26  1  0.52969675  0.04987463  0.30863420  1
  P  P27  1  0.16811548  0.35112885  0.06059236  1
  P  P28  1  0.60260103  0.47490298  0.30843597  1
  P  P29  1  0.53641459  0.79612193  0.56050726  1
  P  P30  1  0.66746348  0.79612193  0.06050726  1
  P  P31  1  0.42042863  0.04987463  0.80863420  1
  O  O32  1  0.34980219  0.98976443  0.87398993  1
  O  O33  1  0.45641811  0.81739179  0.47965274  1
  O  O34  1  0.96203522  0.24330835  0.62606795  1
  O  O35  1  0.95843059  0.31926041  0.47749124  1
  O  O36  1  0.86056309  0.56154708  0.87870501  1
  O  O37  1  0.22811237  0.31180246  0.98041613  1
  O  O38  1  0.13095015  0.84750255  0.57295810  1
  O  O39  1  0.48557558  0.92772569  0.30372866  1
  O  O40  1  0.12812192  0.51966774  0.06095725  1
  O  O41  1  0.45938881  0.75073356  0.62861692  1
  O  O42  1  0.07365451  0.05929029  0.38054205  1
  O  O43  1  0.35221034  0.51966774  0.56095725  1
  O  O44  1  0.02154730  0.84750255  0.07295810  1
  O  O45  1  0.59411534  0.42434694  0.80536022  1
  O  O46  1  0.46008517  0.31180246  0.48041613  1
  O  O47  1  0.86705520  0.05929029  0.88054205  1
  O  O48  1  0.76103586  0.32495702  0.32336588  1
  O  O49  1  0.15943120  0.48428079  0.37604989  1
  O  O50  1  0.09047818  0.42212794  0.80302428  1
  O  O51  1  0.78987863  0.75073356  0.12861692  1
  O  O52  1  0.41839159  0.19396897  0.82805443  1
  O  O53  1  0.83102722  0.58188384  0.72954071  1
  O  O54  1  0.79465642  0.24330835  0.12606795  1
  O  O55  1  0.57788983  0.56154708  0.37870501  1
  O  O56  1  0.52090893  0.94648008  0.07152817  1
  O  O57  1  0.66043338  0.98976443  0.37398993  1
  O  O58  1  0.91445381  0.82396425  0.82600627  1
  O  O59  1  0.97253606  0.73588398  0.62910330  1
  O  O60  1  0.22508006  0.81250265  0.98013821  1
  O  O61  1  0.70344323  0.66710071  0.56120094  1
  O  O62  1  0.91400713  0.32495702  0.82336588  1
  O  O63  1  0.34319852  0.57123434  0.72879339  1
  O  O64  1  0.88990166  0.69132939  0.32777326  1
  O  O65  1  0.62945605  0.66710071  0.06120094  1
  O  O66  1  0.33002277  0.08921796  0.72734183  1
  O  O67  1  0.35628801  0.48428079  0.87604989  1
  O  O68  1  0.38763944  0.19396897  0.32805443  1
  O  O69  1  0.98856402  0.91671849  0.30372719  1
  O  O70  1  0.83768707  0.07864590  0.73199377  1
  O  O71  1  0.20493377  0.16541566  0.56001537  1
  O  O72  1  0.03274346  0.44308274  0.57284412  1
  O  O73  1  0.02276325  0.34434071  0.07161161  1
  O  O74  1  0.96241829  0.81250265  0.48013821  1
  O  O75  1  0.58669872  0.92772569  0.80372866  1
  O  O76  1  0.41876895  0.69132939  0.82777326  1
  O  O77  1  0.29002815  0.23482829  0.12963934  1
  O  O78  1  0.09471750  0.91671849  0.80372719  1
  O  O79  1  0.26158294  0.82396425  0.32600627  1
  O  O80  1  0.29157896  0.73588398  0.12910330  1
  O  O81  1  0.98153772  0.42434694  0.30536022  1
  O  O82  1  0.84886245  0.01952924  0.56084628  1
  O  O83  1  0.72231000  0.31926041  0.97749124  1
  O  O84  1  0.47514355  0.23482829  0.62963934  1
  O  O85  1  0.08556814  0.57123434  0.22879339  1
  O  O86  1  0.52417380  0.44308274  0.07284412  1
  O  O87  1  0.58708893  0.58188384  0.22954071  1
  O  O88  1  0.72619010  0.81739179  0.97965274  1
  O  O89  1  0.08366703  0.07864590  0.23199377  1
  O  O90  1  0.48739388  0.42212794  0.30302428  1
  O  O91  1  0.63289604  0.34434071  0.57161161  1
  O  O92  1  0.53261199  0.94648008  0.57152817  1
  O  O93  1  0.58075927  0.08921796  0.22734183  1
  O  O94  1  0.62965057  0.16541566  0.06001537  1
  O  O95  1  0.13160831  0.01952924  0.06084628  1
