# generated using pymatgen
data_TbB2C
_symmetry_space_group_name_H-M   'P 1'
_cell_length_a   6.80701298
_cell_length_b   6.80701298
_cell_length_c   7.54674232
_cell_angle_alpha   90.00000000
_cell_angle_beta   90.00000000
_cell_angle_gamma   90.00000000
_symmetry_Int_Tables_number   1
_chemical_formula_structural   TbB2C
_chemical_formula_sum   'Tb8 B16 C8'
_cell_volume   349.68151812
_cell_formula_units_Z   8
loop_
 _symmetry_equiv_pos_site_id
 _symmetry_equiv_pos_as_xyz
  1  'x, y, z'
loop_
 _atom_site_type_symbol
 _atom_site_label
 _atom_site_symmetry_multiplicity
 _atom_site_fract_x
 _atom_site_fract_y
 _atom_site_fract_z
 _atom_site_occupancy
  B  B0  1  0.15138718  0.03475338  0.00000000  1
  B  B1  1  0.53475338  0.65138718  0.50000000  1
  B  B2  1  0.84861282  0.96524662  0.00000000  1
  B  B3  1  0.34861282  0.53475338  0.00000000  1
  B  B4  1  0.65138718  0.46524662  0.00000000  1
  B  B5  1  0.03475338  0.84861282  0.50000000  1
  B  B6  1  0.96524662  0.15138718  0.50000000  1
  B  B7  1  0.46524662  0.34861282  0.50000000  1
  B  B8  1  0.09706569  0.59534345  0.00000000  1
  B  B9  1  0.40465655  0.09706569  0.50000000  1
  B  B10  1  0.59534345  0.90293431  0.50000000  1
  B  B11  1  0.59706569  0.90465655  0.00000000  1
  B  B12  1  0.40293431  0.09534345  0.00000000  1
  B  B13  1  0.90293431  0.40465655  0.00000000  1
  B  B14  1  0.09534345  0.59706569  0.50000000  1
  B  B15  1  0.90465655  0.40293431  0.50000000  1
  C  C16  1  0.17729176  0.04057390  0.50000000  1
  C  C17  1  0.67729176  0.45942610  0.50000000  1
  C  C18  1  0.32270824  0.54057390  0.50000000  1
  C  C19  1  0.95942610  0.17729176  0.00000000  1
  C  C20  1  0.04057390  0.82270824  0.00000000  1
  C  C21  1  0.54057390  0.67729176  0.00000000  1
  C  C22  1  0.82270824  0.95942610  0.50000000  1
  C  C23  1  0.45942610  0.32270824  0.00000000  1
  Tb  Tb24  1  0.30986043  0.80986043  0.75000000  1
  Tb  Tb25  1  0.19013957  0.30986043  0.25000000  1
  Tb  Tb26  1  0.80986043  0.69013957  0.25000000  1
  Tb  Tb27  1  0.69013957  0.19013957  0.75000000  1
  Tb  Tb28  1  0.69013957  0.19013957  0.25000000  1
  Tb  Tb29  1  0.80986043  0.69013957  0.75000000  1
  Tb  Tb30  1  0.19013957  0.30986043  0.75000000  1
  Tb  Tb31  1  0.30986043  0.80986043  0.25000000  1
