# generated using pymatgen
data_BaZn2(AsO4)2
_symmetry_space_group_name_H-M   'P 1'
_cell_length_a   8.96502983
_cell_length_b   9.58739280
_cell_length_c   10.19962395
_cell_angle_alpha   90.00000000
_cell_angle_beta   90.00000000
_cell_angle_gamma   91.41853363
_symmetry_Int_Tables_number   1
_chemical_formula_structural   BaZn2(AsO4)2
_chemical_formula_sum   'Ba4 Zn8 As8 O32'
_cell_volume   876.40188586
_cell_formula_units_Z   4
loop_
 _symmetry_equiv_pos_site_id
 _symmetry_equiv_pos_as_xyz
  1  'x, y, z'
loop_
 _atom_site_type_symbol
 _atom_site_label
 _atom_site_symmetry_multiplicity
 _atom_site_fract_x
 _atom_site_fract_y
 _atom_site_fract_z
 _atom_site_occupancy
  O  O0  1  0.26360262  0.18271858  0.41988483  1
  O  O1  1  0.73639738  0.31728142  0.91988483  1
  O  O2  1  0.73639738  0.81728142  0.58011517  1
  O  O3  1  0.26360262  0.68271858  0.08011517  1
  O  O4  1  0.21892006  0.49679748  0.64291536  1
  O  O5  1  0.78107994  0.00320252  0.14291536  1
  O  O6  1  0.78107994  0.50320252  0.35708464  1
  O  O7  1  0.21892006  0.99679748  0.85708464  1
  O  O8  1  0.56087401  0.60680301  0.69684292  1
  O  O9  1  0.43912599  0.89319699  0.19684292  1
  O  O10  1  0.43912599  0.39319699  0.30315708  1
  O  O11  1  0.56087401  0.10680301  0.80315708  1
  O  O12  1  0.92031638  0.55970384  0.69763046  1
  O  O13  1  0.07968362  0.94029616  0.19763046  1
  O  O14  1  0.07968362  0.44029616  0.30236954  1
  O  O15  1  0.92031638  0.05970384  0.80236954  1
  O  O16  1  0.44418534  0.37616847  0.86914909  1
  O  O17  1  0.55581466  0.12383153  0.36914909  1
  O  O18  1  0.55581466  0.62383153  0.13085091  1
  O  O19  1  0.44418534  0.87616847  0.63085091  1
  O  O20  1  0.98792564  0.79731200  0.89890401  1
  O  O21  1  0.01207436  0.70268800  0.39890401  1
  O  O22  1  0.01207436  0.20268800  0.10109599  1
  O  O23  1  0.98792564  0.29731200  0.60109599  1
  O  O24  1  0.51172666  0.80782070  0.93661785  1
  O  O25  1  0.48827334  0.69217930  0.43661785  1
  O  O26  1  0.48827334  0.19217930  0.06338215  1
  O  O27  1  0.51172666  0.30782070  0.56338215  1
  O  O28  1  0.06153006  0.87641324  0.63776979  1
  O  O29  1  0.93846994  0.62358676  0.13776979  1
  O  O30  1  0.93846994  0.12358676  0.36223021  1
  O  O31  1  0.06153006  0.37641324  0.86223021  1
  Zn  Zn32  1  0.42045784  0.44172572  0.68565479  1
  Zn  Zn33  1  0.57954216  0.05827428  0.18565479  1
  Zn  Zn34  1  0.57954216  0.55827428  0.31434521  1
  Zn  Zn35  1  0.42045784  0.94172572  0.81434521  1
  Zn  Zn36  1  0.92801408  0.21683634  0.92340080  1
  Zn  Zn37  1  0.07198592  0.28316366  0.42340080  1
  Zn  Zn38  1  0.07198592  0.78316366  0.07659920  1
  Zn  Zn39  1  0.92801408  0.71683634  0.57659920  1
  As  As40  1  0.44049696  0.25816098  0.41338842  1
  As  As41  1  0.55950304  0.24183902  0.91338842  1
  As  As42  1  0.55950304  0.74183902  0.58661158  1
  As  As43  1  0.44049696  0.75816098  0.08661158  1
  As  As44  1  0.94743678  0.06820806  0.20119644  1
  As  As45  1  0.05256322  0.43179194  0.70119644  1
  As  As46  1  0.05256322  0.93179194  0.79880356  1
  As  As47  1  0.94743678  0.56820806  0.29880356  1
  Ba  Ba48  1  0.74932364  0.60899713  0.91593355  1
  Ba  Ba49  1  0.25067636  0.89100287  0.41593355  1
  Ba  Ba50  1  0.25067636  0.39100287  0.08406645  1
  Ba  Ba51  1  0.74932364  0.10899713  0.58406645  1
