# generated using pymatgen
data_LiNiP2O7
_symmetry_space_group_name_H-M   'P 1'
_cell_length_a   8.30251117
_cell_length_b   13.32881744
_cell_length_c   5.07854945
_cell_angle_alpha   90.00000000
_cell_angle_beta   91.31615299
_cell_angle_gamma   90.00000000
_symmetry_Int_Tables_number   1
_chemical_formula_structural   LiNiP2O7
_chemical_formula_sum   'Li4 Ni4 P8 O28'
_cell_volume   561.85749710
_cell_formula_units_Z   4
loop_
 _symmetry_equiv_pos_site_id
 _symmetry_equiv_pos_as_xyz
  1  'x, y, z'
loop_
 _atom_site_type_symbol
 _atom_site_label
 _atom_site_symmetry_multiplicity
 _atom_site_fract_x
 _atom_site_fract_y
 _atom_site_fract_z
 _atom_site_occupancy
  Li  Li0  1  0.36018960  0.37140210  0.34626873  1
  Li  Li1  1  0.63981040  0.62859790  0.65373127  1
  Li  Li2  1  0.86018960  0.12859790  0.84626873  1
  Li  Li3  1  0.13981040  0.87140210  0.15373127  1
  Ni  Ni4  1  0.26350624  0.66910147  0.30121597  1
  Ni  Ni5  1  0.76350624  0.83089853  0.80121597  1
  Ni  Ni6  1  0.23649376  0.16910147  0.19878403  1
  Ni  Ni7  1  0.73649376  0.33089853  0.69878403  1
  P  P8  1  0.22468555  0.03227276  0.69715479  1
  P  P9  1  0.72468555  0.46772724  0.19715479  1
  P  P10  1  0.53639681  0.81951244  0.26885129  1
  P  P11  1  0.46360319  0.18048756  0.73114871  1
  P  P12  1  0.96360319  0.31951244  0.23114871  1
  P  P13  1  0.27531445  0.53227276  0.80284521  1
  P  P14  1  0.03639681  0.68048756  0.76885129  1
  P  P15  1  0.77531445  0.96772724  0.30284521  1
  O  O16  1  0.64298740  0.18897550  0.67683334  1
  O  O17  1  0.41658396  0.06263728  0.73425224  1
  O  O18  1  0.42288151  0.22354593  0.00052587  1
  O  O19  1  0.14298740  0.31102450  0.17683334  1
  O  O20  1  0.13930945  0.72930607  0.98759307  1
  O  O21  1  0.63930945  0.77069393  0.48759307  1
  O  O22  1  0.92288151  0.27645407  0.50052587  1
  O  O23  1  0.68499296  0.45772015  0.90192393  1
  O  O24  1  0.57711849  0.77645407  -0.00052587  1
  O  O25  1  0.37042110  0.60870973  0.63364755  1
  O  O26  1  0.07711849  0.72354593  0.49947413  1
  O  O27  1  0.86069055  0.27069393  0.01240693  1
  O  O28  1  0.87042110  0.89129027  0.13364755  1
  O  O29  1  0.79493417  0.07125353  0.18964161  1
  O  O30  1  0.20506583  0.92874647  0.81035839  1
  O  O31  1  0.31500704  0.54227985  0.09807607  1
  O  O32  1  0.18499296  0.04227985  0.40192393  1
  O  O33  1  0.29493417  0.42874647  0.68964161  1
  O  O34  1  0.08341604  0.56263728  0.76574776  1
  O  O35  1  0.12957890  0.10870973  0.86635245  1
  O  O36  1  0.85701260  0.68897550  0.82316666  1
  O  O37  1  0.91658396  0.43736272  0.23425224  1
  O  O38  1  0.70506583  0.57125353  0.31035839  1
  O  O39  1  0.58341604  0.93736272  0.26574776  1
  O  O40  1  0.36069055  0.22930607  0.51240693  1
  O  O41  1  0.81500704  0.95772015  0.59807607  1
  O  O42  1  0.35701260  0.81102450  0.32316666  1
  O  O43  1  0.62957890  0.39129027  0.36635245  1
