# generated using pymatgen
data_Sr2CeO4
_symmetry_space_group_name_H-M   'P 1'
_cell_length_a   3.63487774
_cell_length_b   6.15604039
_cell_length_c   10.46395421
_cell_angle_alpha   90.00000000
_cell_angle_beta   90.00000000
_cell_angle_gamma   90.00000000
_symmetry_Int_Tables_number   1
_chemical_formula_structural   Sr2CeO4
_chemical_formula_sum   'Sr4 Ce2 O8'
_cell_volume   234.14619192
_cell_formula_units_Z   2
loop_
 _symmetry_equiv_pos_site_id
 _symmetry_equiv_pos_as_xyz
  1  'x, y, z'
loop_
 _atom_site_type_symbol
 _atom_site_label
 _atom_site_symmetry_multiplicity
 _atom_site_fract_x
 _atom_site_fract_y
 _atom_site_fract_z
 _atom_site_occupancy
  O  O0  1  0.50000000  0.27340583  0.45776285  1
  O  O1  1  0.50000000  0.72659417  0.54223715  1
  O  O2  1  0.50000000  0.77340583  0.04223715  1
  O  O3  1  0.50000000  0.22659417  0.95776285  1
  O  O4  1  0.00000000  0.64269798  0.30660253  1
  O  O5  1  0.00000000  0.35730202  0.69339747  1
  O  O6  1  0.00000000  0.85730202  0.80660253  1
  O  O7  1  0.00000000  0.14269798  0.19339747  1
  Sr  Sr8  1  0.50000000  0.43689541  0.17881112  1
  Sr  Sr9  1  0.50000000  0.56310459  0.82118888  1
  Sr  Sr10  1  0.50000000  0.93689541  0.32118888  1
  Sr  Sr11  1  0.50000000  0.06310459  0.67881112  1
  Ce  Ce12  1  0.00000000  0.50000000  0.50000000  1
  Ce  Ce13  1  0.00000000  0.00000000  0.00000000  1
