# generated using pymatgen
data_CaTaAlO5
_symmetry_space_group_name_H-M   'P 1'
_cell_length_a   5.65022426
_cell_length_b   5.65022425
_cell_length_c   7.46427506
_cell_angle_alpha   104.64444145
_cell_angle_beta   104.64444145
_cell_angle_gamma   105.74745853
_symmetry_Int_Tables_number   1
_chemical_formula_structural   CaTaAlO5
_chemical_formula_sum   'Ca2 Ta2 Al2 O10'
_cell_volume   208.26321210
_cell_formula_units_Z   2
loop_
 _symmetry_equiv_pos_site_id
 _symmetry_equiv_pos_as_xyz
  1  'x, y, z'
loop_
 _atom_site_type_symbol
 _atom_site_label
 _atom_site_symmetry_multiplicity
 _atom_site_fract_x
 _atom_site_fract_y
 _atom_site_fract_z
 _atom_site_occupancy
  O  O0  1  0.07302847  0.92697153  0.75000000  1
  O  O1  1  0.92697153  0.07302847  0.25000000  1
  O  O2  1  0.10352259  0.69406720  0.38853191  1
  O  O3  1  0.30593280  0.89647741  0.11146809  1
  O  O4  1  0.89647741  0.30593280  0.61146809  1
  O  O5  1  0.69406720  0.10352259  0.88853191  1
  O  O6  1  0.36471184  0.25105311  0.59029058  1
  O  O7  1  0.74894689  0.63528816  0.90970942  1
  O  O8  1  0.63528816  0.74894689  0.40970942  1
  O  O9  1  0.25105311  0.36471184  0.09029058  1
  Al  Al10  1  0.68306437  0.31693563  0.75000000  1
  Al  Al11  1  0.31693563  0.68306437  0.25000000  1
  Ca  Ca12  1  0.33122526  0.66877474  0.75000000  1
  Ca  Ca13  1  0.66877474  0.33122526  0.25000000  1
  Ta  Ta14  1  0.00000000  0.00000000  0.00000000  1
  Ta  Ta15  1  0.00000000  0.00000000  0.50000000  1
