# generated using pymatgen
data_Ba3(LiAs)4
_symmetry_space_group_name_H-M   'P 1'
_cell_length_a   4.74676864
_cell_length_b   7.25704812
_cell_length_c   9.02214940
_cell_angle_alpha   113.74129054
_cell_angle_beta   105.25182591
_cell_angle_gamma   89.99999999
_symmetry_Int_Tables_number   1
_chemical_formula_structural   Ba3(LiAs)4
_chemical_formula_sum   'Ba3 Li4 As4'
_cell_volume   272.48844702
_cell_formula_units_Z   1
loop_
 _symmetry_equiv_pos_site_id
 _symmetry_equiv_pos_as_xyz
  1  'x, y, z'
loop_
 _atom_site_type_symbol
 _atom_site_label
 _atom_site_symmetry_multiplicity
 _atom_site_fract_x
 _atom_site_fract_y
 _atom_site_fract_z
 _atom_site_occupancy
  Li  Li0  1  0.67751547  0.98319695  0.35503094  1
  Li  Li1  1  0.32248453  0.01680305  0.64496906  1
  Li  Li2  1  0.32239331  0.62801556  0.64478662  1
  Li  Li3  1  0.67760669  0.37198444  0.35521338  1
  As  As4  1  0.50000216  0.32648393  0.00000433  1
  As  As5  1  0.78716013  0.78737612  0.57432026  1
  As  As6  1  0.21283987  0.21262388  0.42567974  1
  As  As7  1  0.49999784  0.67351607  0.99999567  1
  Ba  Ba8  1  0.13132567  0.63142799  0.26265133  1
  Ba  Ba9  1  0.86867433  0.36857201  0.73734867  1
  Ba  Ba10  1  0.00000000  0.00000000  0.00000000  1
