# generated using pymatgen
data_KDyS2
_symmetry_space_group_name_H-M   'P 1'
_cell_length_a   7.72913344
_cell_length_b   7.72913344
_cell_length_c   7.72913343
_cell_angle_alpha   30.40757639
_cell_angle_beta   30.40757639
_cell_angle_gamma   30.40757638
_symmetry_Int_Tables_number   1
_chemical_formula_structural   KDyS2
_chemical_formula_sum   'K1 Dy1 S2'
_cell_volume   104.84266350
_cell_formula_units_Z   1
loop_
 _symmetry_equiv_pos_site_id
 _symmetry_equiv_pos_as_xyz
  1  'x, y, z'
loop_
 _atom_site_type_symbol
 _atom_site_label
 _atom_site_symmetry_multiplicity
 _atom_site_fract_x
 _atom_site_fract_y
 _atom_site_fract_z
 _atom_site_occupancy
  S  S0  1  0.73384566  0.73384566  0.73384566  1
  S  S1  1  0.26615434  0.26615434  0.26615434  1
  K  K2  1  0.50000000  0.50000000  0.50000000  1
  Dy  Dy3  1  0.00000000  0.00000000  0.00000000  1
