# generated using pymatgen
data_MnPO4
_symmetry_space_group_name_H-M   'P 1'
_cell_length_a   10.39031229
_cell_length_b   10.23125398
_cell_length_c   17.90819075
_cell_angle_alpha   107.71033537
_cell_angle_beta   106.86390755
_cell_angle_gamma   59.48438450
_symmetry_Int_Tables_number   1
_chemical_formula_structural   MnPO4
_chemical_formula_sum   'Mn16 P16 O64'
_cell_volume   1540.84720804
_cell_formula_units_Z   16
loop_
 _symmetry_equiv_pos_site_id
 _symmetry_equiv_pos_as_xyz
  1  'x, y, z'
loop_
 _atom_site_type_symbol
 _atom_site_label
 _atom_site_symmetry_multiplicity
 _atom_site_fract_x
 _atom_site_fract_y
 _atom_site_fract_z
 _atom_site_occupancy
  Mn  Mn0  1  0.37310013  0.00148289  0.81203815  1
  Mn  Mn1  1  0.25601621  0.11633351  0.06268088  1
  Mn  Mn2  1  0.43745513  0.50148289  0.31203815  1
  Mn  Mn3  1  0.18591803  0.11403191  0.56034410  1
  Mn  Mn4  1  0.75486343  0.69098363  0.06218620  1
  Mn  Mn5  1  0.69033116  0.61633351  0.56268088  1
  Mn  Mn6  1  0.86987056  0.44004516  0.81160140  1
  Mn  Mn7  1  0.50168568  0.94004516  0.31160140  1
  Mn  Mn8  1  0.93746693  0.00646835  0.31243823  1
  Mn  Mn9  1  0.11609804  0.68866162  0.56084097  1
  Mn  Mn10  1  0.86848187  0.94331098  0.81299162  1
  Mn  Mn11  1  0.00119877  0.44331098  0.31299162  1
  Mn  Mn12  1  0.75608130  0.18866162  0.06084097  1
  Mn  Mn13  1  0.61633914  0.19098363  0.56218620  1
  Mn  Mn14  1  0.36850395  0.50646835  0.81243823  1
  Mn  Mn15  1  0.26039516  0.61403191  0.06034410  1
  P  P16  1  0.62583731  0.18397554  0.37319082  1
  P  P17  1  0.06547298  0.12535919  0.87377625  1
  P  P18  1  0.87399012  0.30685501  0.62498074  1
  P  P19  1  0.37298578  0.80359224  0.62347118  1
  P  P20  1  0.56319384  0.18311565  0.87223757  1
  P  P21  1  0.94241902  0.38156211  0.12555597  1
  P  P22  1  0.80157484  0.88156211  0.62555597  1
  P  P23  1  0.44689216  0.30359224  0.12347118  1
  P  P24  1  0.06268510  0.62749195  0.87303578  1
  P  P25  1  0.12592708  0.68311565  0.37223757  1
  P  P26  1  0.30035906  0.37571324  0.62362702  1
  P  P27  1  0.44413461  0.80685501  0.12498074  1
  P  P28  1  0.18285873  0.12749195  0.37303578  1
  P  P29  1  0.68294408  0.62535919  0.37377625  1
  P  P30  1  0.56337797  0.68397554  0.87319082  1
  P  P31  1  0.94755371  0.87571324  0.12362702  1
  O  O32  1  0.11094890  0.26048194  0.13049853  1
  O  O33  1  0.41213500  0.67881703  0.86131101  1
  O  O34  1  0.67099542  0.77452337  0.36030185  1
  O  O35  1  0.08365678  0.56883725  0.30375324  1
  O  O36  1  0.66376421  0.14358236  0.95212280  1
  O  O37  1  0.61478856  0.75381518  0.13078160  1
  O  O38  1  0.89831883  0.41200426  0.70404326  1
  O  O39  1  0.65125920  0.06883725  0.80375324  1
  O  O40  1  0.41362387  0.17438321  0.86073134  1
  O  O41  1  0.49540309  0.35124329  0.37292942  1
  O  O42  1  0.75906669  0.76048194  0.63049853  1
  O  O43  1  0.15675590  0.07551051  0.80718912  1
  O  O44  1  0.26256294  0.74913124  0.62927970  1
  O  O45  1  0.16111068  0.64754254  0.95408500  1
  O  O46  1  0.64625357  0.14589801  0.45370632  1
  O  O47  1  0.14543178  0.14754254  0.45408500  1
  O  O48  1  0.31012190  0.89340363  0.55455737  1
  O  O49  1  0.14477724  0.64358236  0.45212280  1
  O  O50  1  0.84981646  0.49909167  0.37315477  1
  O  O51  1  0.02424663  0.99909167  0.87315477  1
  O  O52  1  0.92965238  0.52491430  0.10546047  1
  O  O53  1  0.25369353  0.25740309  0.62727299  1
  O  O54  1  0.91478306  0.27452337  0.86030185  1
  O  O55  1  0.90655364  0.90434906  0.20527120  1
  O  O56  1  0.35103184  0.39340363  0.05455737  1
  O  O57  1  0.58357976  0.06941098  0.30510151  1
  O  O58  1  0.65211076  0.56941098  0.80510151  1
  O  O59  1  0.42680109  0.65859362  0.10912814  1
  O  O60  1  0.90016580  0.82153167  0.56088169  1
  O  O61  1  0.39372017  0.91200426  0.20404326  1
  O  O62  1  0.52628305  0.85124329  0.87292942  1
  O  O63  1  0.83918421  0.32153167  0.06088169  1
  O  O64  1  0.76217687  0.25381518  0.63078160  1
  O  O65  1  0.57492371  0.57551051  0.30718912  1
  O  O66  1  0.34919821  0.00012644  0.37193002  1
  O  O67  1  0.39436849  0.40434906  0.70527120  1
  O  O68  1  0.81314308  0.39495108  0.55558101  1
  O  O69  1  0.89244558  0.92008078  0.70675393  1
  O  O70  1  0.93008261  0.02259812  0.10505293  1
  O  O71  1  0.11617637  0.75740309  0.12727299  1
  O  O72  1  0.99927371  0.85124298  0.37222547  1
  O  O73  1  0.27272526  0.67438321  0.36073134  1
  O  O74  1  0.16024136  0.14951571  0.95545256  1
  O  O75  1  0.65089379  0.02491430  0.60546047  1
  O  O76  1  0.07198393  0.08153686  0.30600329  1
  O  O77  1  0.17169616  0.27732622  0.36169512  1
  O  O78  1  0.64569548  0.64951571  0.45545256  1
  O  O79  1  0.42575379  0.15798234  0.10767317  1
  O  O80  1  0.61758552  0.24913124  0.12927970  1
  O  O81  1  0.91267274  0.77732622  0.86169512  1
  O  O82  1  0.66155474  0.64589801  0.95370632  1
  O  O83  1  0.39905764  0.31697855  0.55903787  1
  O  O84  1  0.39940807  0.40908670  0.20255841  1
  O  O85  1  0.52170878  0.35124298  0.87222547  1
  O  O86  1  0.15237220  0.52259812  0.60505293  1
  O  O87  1  0.77035998  0.17881703  0.36131101  1
  O  O88  1  0.02373443  0.15859362  0.60912814  1
  O  O89  1  0.39406264  0.90908670  0.70255841  1
  O  O90  1  0.89422857  0.42008078  0.20675393  1
  O  O91  1  0.84300168  0.81697855  0.05903787  1
  O  O92  1  0.52393703  0.65798234  0.60767317  1
  O  O93  1  0.02260537  0.50012644  0.87193002  1
  O  O94  1  0.15248251  0.58153686  0.80600329  1
  O  O95  1  0.34748585  0.89495108  0.05558101  1
