# generated using pymatgen
data_Lu2Co3Si5
_symmetry_space_group_name_H-M   'P 1'
_cell_length_a   5.43011823
_cell_length_b   7.77345048
_cell_length_c   7.77345048
_cell_angle_alpha   93.73691046
_cell_angle_beta   108.91656927
_cell_angle_gamma   108.91656925
_symmetry_Int_Tables_number   1
_chemical_formula_structural   Lu2Co3Si5
_chemical_formula_sum   'Lu4 Co6 Si10'
_cell_volume   288.27315328
_cell_formula_units_Z   2
loop_
 _symmetry_equiv_pos_site_id
 _symmetry_equiv_pos_as_xyz
  1  'x, y, z'
loop_
 _atom_site_type_symbol
 _atom_site_label
 _atom_site_symmetry_multiplicity
 _atom_site_fract_x
 _atom_site_fract_y
 _atom_site_fract_z
 _atom_site_occupancy
  Si  Si0  1  0.25000000  0.77295767  0.22704233  1
  Si  Si1  1  0.75000000  0.22704233  0.77295767  1
  Si  Si2  1  0.25000000  0.51177168  0.48822832  1
  Si  Si3  1  0.75000000  0.48822832  0.51177168  1
  Si  Si4  1  0.25000000  0.21198602  0.78801398  1
  Si  Si5  1  0.75000000  0.78801398  0.21198602  1
  Si  Si6  1  0.16682802  0.06807383  0.26366671  1
  Si  Si7  1  0.66682802  0.26366671  0.06807383  1
  Si  Si8  1  0.83317198  0.93192617  0.73633329  1
  Si  Si9  1  0.33317198  0.73633329  0.93192617  1
  Co  Co10  1  0.75000000  0.99691569  0.00308431  1
  Co  Co11  1  0.62596250  0.73771598  0.45880012  1
  Co  Co12  1  0.12596250  0.45880012  0.73771598  1
  Co  Co13  1  0.37403750  0.26228402  0.54119988  1
  Co  Co14  1  0.25000000  0.00308431  0.99691569  1
  Co  Co15  1  0.87403750  0.54119988  0.26228402  1
  Lu  Lu16  1  0.73552891  0.59440087  0.87017633  1
  Lu  Lu17  1  0.76447109  0.12982367  0.40559913  1
  Lu  Lu18  1  0.26447109  0.40559913  0.12982367  1
  Lu  Lu19  1  0.23552891  0.87017633  0.59440087  1
