# generated using pymatgen
data_Lu5SbPd2
_symmetry_space_group_name_H-M   'P 1'
_cell_length_a   7.56343513
_cell_length_b   7.56343513
_cell_length_c   8.62471818
_cell_angle_alpha   116.00657810
_cell_angle_beta   116.00657809
_cell_angle_gamma   90.00000000
_symmetry_Int_Tables_number   1
_chemical_formula_structural   Lu5SbPd2
_chemical_formula_sum   'Lu10 Sb2 Pd4'
_cell_volume   387.07064908
_cell_formula_units_Z   2
loop_
 _symmetry_equiv_pos_site_id
 _symmetry_equiv_pos_as_xyz
  1  'x, y, z'
loop_
 _atom_site_type_symbol
 _atom_site_label
 _atom_site_symmetry_multiplicity
 _atom_site_fract_x
 _atom_site_fract_y
 _atom_site_fract_z
 _atom_site_occupancy
  Pd  Pd0  1  0.36176297  0.86176297  0.00000000  1
  Pd  Pd1  1  0.13823703  0.36176297  0.00000000  1
  Pd  Pd2  1  0.63823703  0.13823703  0.00000000  1
  Pd  Pd3  1  0.86176297  0.63823703  0.00000000  1
  Sb  Sb4  1  0.25000000  0.25000000  0.50000000  1
  Sb  Sb5  1  0.75000000  0.75000000  0.50000000  1
  Lu  Lu6  1  0.20096674  0.01247086  0.71343760  1
  Lu  Lu7  1  0.01247086  0.51247086  0.71343760  1
  Lu  Lu8  1  0.70096674  0.20096674  0.71343760  1
  Lu  Lu9  1  0.98752914  0.48752914  0.28656240  1
  Lu  Lu10  1  0.51247086  0.70096674  0.71343760  1
  Lu  Lu11  1  0.79903326  0.98752914  0.28656240  1
  Lu  Lu12  1  0.48752914  0.29903326  0.28656240  1
  Lu  Lu13  1  0.29903326  0.79903326  0.28656240  1
  Lu  Lu14  1  0.50000000  0.50000000  0.00000000  1
  Lu  Lu15  1  0.00000000  0.00000000  0.00000000  1
