# generated using pymatgen
data_Ho2Ge2Os
_symmetry_space_group_name_H-M   'P 1'
_cell_length_a   4.29798719
_cell_length_b   5.79712419
_cell_length_c   9.19088716
_cell_angle_alpha   81.39831594
_cell_angle_beta   76.47804994
_cell_angle_gamma   68.24120908
_symmetry_Int_Tables_number   1
_chemical_formula_structural   Ho2Ge2Os
_chemical_formula_sum   'Ho4 Ge4 Os2'
_cell_volume   206.28660071
_cell_formula_units_Z   2
loop_
 _symmetry_equiv_pos_site_id
 _symmetry_equiv_pos_as_xyz
  1  'x, y, z'
loop_
 _atom_site_type_symbol
 _atom_site_label
 _atom_site_symmetry_multiplicity
 _atom_site_fract_x
 _atom_site_fract_y
 _atom_site_fract_z
 _atom_site_occupancy
  Ge  Ge0  1  0.48722735  0.15022989  0.87531541  1
  Ge  Ge1  1  0.35755913  0.72317605  0.56170568  1
  Ge  Ge2  1  0.51277265  0.84977011  0.12468459  1
  Ge  Ge3  1  0.64244087  0.27682395  0.43829432  1
  Ho  Ho4  1  0.81635053  0.25224276  0.11505619  1
  Ho  Ho5  1  0.00409673  0.66659022  0.32521633  1
  Ho  Ho6  1  0.18364947  0.74775724  0.88494381  1
  Ho  Ho7  1  0.99590327  0.33340978  0.67478367  1
  Os  Os8  1  0.72994743  0.90807790  0.63202724  1
  Os  Os9  1  0.27005257  0.09192210  0.36797276  1
