# generated using pymatgen
data_Ti3Fe5O12
_symmetry_space_group_name_H-M   'P 1'
_cell_length_a   5.53278837
_cell_length_b   22.23519308
_cell_length_c   9.87404352
_cell_angle_alpha   27.53992391
_cell_angle_beta   49.69124963
_cell_angle_gamma   55.07428085
_symmetry_Int_Tables_number   1
_chemical_formula_structural   Ti3Fe5O12
_chemical_formula_sum   'Ti6 Fe10 O24'
_cell_volume   428.29579218
_cell_formula_units_Z   2
loop_
 _symmetry_equiv_pos_site_id
 _symmetry_equiv_pos_as_xyz
  1  'x, y, z'
loop_
 _atom_site_type_symbol
 _atom_site_label
 _atom_site_symmetry_multiplicity
 _atom_site_fract_x
 _atom_site_fract_y
 _atom_site_fract_z
 _atom_site_occupancy
  Ti  Ti0  1  0.14712153  0.50483875  0.13317171  1
  Ti  Ti1  1  0.15278835  0.74474353  0.15547364  1
  Ti  Ti2  1  0.84721165  0.25525647  0.84452636  1
  Ti  Ti3  1  0.14344604  0.00039038  0.14202782  1
  Ti  Ti4  1  0.85287847  0.49516125  0.86682829  1
  Ti  Ti5  1  0.85655396  -0.00039038  0.85797218  1
  Fe  Fe6  1  0.34668314  -0.00276637  0.36221294  1
  Fe  Fe7  1  0.14099424  0.24932842  0.15103587  1
  Fe  Fe8  1  0.35535411  0.25248688  0.34494196  1
  Fe  Fe9  1  0.65331686  0.00276637  0.63778706  1
  Fe  Fe10  1  0.35657420  0.49941730  0.35532997  1
  Fe  Fe11  1  0.64003984  0.25064484  0.64736203  1
  Fe  Fe12  1  0.35996016  0.74935516  0.35263797  1
  Fe  Fe13  1  0.64342580  0.50058270  0.64467003  1
  Fe  Fe14  1  0.64464589  0.74751312  0.65505804  1
  Fe  Fe15  1  0.85900576  0.75067158  0.84896413  1
  O  O16  1  0.04840309  0.07594266  0.44707186  1
  O  O17  1  0.75816729  0.08798023  0.07403665  1
  O  O18  1  0.57409482  0.17361577  0.24151041  1
  O  O19  1  0.05277548  0.32971091  0.44857122  1
  O  O20  1  0.44202611  0.06914658  0.77123346  1
  O  O21  1  0.76265175  0.35098560  0.05088911  1
  O  O22  1  0.22557253  0.14938815  0.95839916  1
  O  O23  1  0.56414013  0.43277166  0.22160366  1
  O  O24  1  0.04867266  0.58710831  0.43203411  1
  O  O25  1  0.95213488  0.16115285  0.57208807  1
  O  O26  1  0.45220138  0.31723568  0.77590655  1
  O  O27  1  0.77633359  0.59812610  0.04327997  1
  O  O28  1  0.22366641  0.40187390  0.95672003  1
  O  O29  1  0.54779862  0.68276432  0.22409345  1
  O  O30  1  0.04786512  0.83884715  0.42791193  1
  O  O31  1  0.95132734  0.41289169  0.56796589  1
  O  O32  1  0.43585987  0.56722834  0.77839634  1
  O  O33  1  0.77442747  0.85061185  0.04160084  1
  O  O34  1  0.23734825  0.64901440  0.94911089  1
  O  O35  1  0.55797389  0.93085342  0.22876654  1
  O  O36  1  0.94722452  0.67028909  0.55142878  1
  O  O37  1  0.42590518  0.82638423  0.75848959  1
  O  O38  1  0.24183271  0.91201977  0.92596335  1
  O  O39  1  0.95159691  0.92405734  0.55292814  1
