# generated using pymatgen
data_LiNdGe
_symmetry_space_group_name_H-M   'P 1'
_cell_length_a   7.31383149
_cell_length_b   7.31383149
_cell_length_c   4.37710336
_cell_angle_alpha   90.00000000
_cell_angle_beta   90.00000000
_cell_angle_gamma   119.99999996
_symmetry_Int_Tables_number   1
_chemical_formula_structural   LiNdGe
_chemical_formula_sum   'Li3 Nd3 Ge3'
_cell_volume   202.77169609
_cell_formula_units_Z   3
loop_
 _symmetry_equiv_pos_site_id
 _symmetry_equiv_pos_as_xyz
  1  'x, y, z'
loop_
 _atom_site_type_symbol
 _atom_site_label
 _atom_site_symmetry_multiplicity
 _atom_site_fract_x
 _atom_site_fract_y
 _atom_site_fract_z
 _atom_site_occupancy
  Li  Li0  1  0.23304456  0.00000000  0.50000000  1
  Li  Li1  1  0.76695544  0.76695544  0.50000000  1
  Li  Li2  1  0.00000000  0.23304456  0.50000000  1
  Ge  Ge3  1  0.33333333  0.66666667  0.50000000  1
  Ge  Ge4  1  0.66666667  0.33333333  0.50000000  1
  Ge  Ge5  1  0.00000000  0.00000000  0.00000000  1
  Nd  Nd6  1  0.00000000  0.58127386  0.00000000  1
  Nd  Nd7  1  0.58127386  0.00000000  0.00000000  1
  Nd  Nd8  1  0.41872614  0.41872614  0.00000000  1
