# generated using pymatgen
data_Dy2Co3Si5
_symmetry_space_group_name_H-M   'P 1'
_cell_length_a   5.49005789
_cell_length_b   7.84835931
_cell_length_c   7.84835931
_cell_angle_alpha   93.38533333
_cell_angle_beta   109.15919350
_cell_angle_gamma   109.15919350
_symmetry_Int_Tables_number   1
_chemical_formula_structural   Dy2Co3Si5
_chemical_formula_sum   'Dy4 Co6 Si10'
_cell_volume   296.42835997
_cell_formula_units_Z   2
loop_
 _symmetry_equiv_pos_site_id
 _symmetry_equiv_pos_as_xyz
  1  'x, y, z'
loop_
 _atom_site_type_symbol
 _atom_site_label
 _atom_site_symmetry_multiplicity
 _atom_site_fract_x
 _atom_site_fract_y
 _atom_site_fract_z
 _atom_site_occupancy
  Si  Si0  1  0.25000000  0.77033031  0.22966969  1
  Si  Si1  1  0.75000000  0.22966969  0.77033031  1
  Si  Si2  1  0.25000000  0.51109426  0.48890574  1
  Si  Si3  1  0.75000000  0.48890574  0.51109426  1
  Si  Si4  1  0.25000000  0.21475898  0.78524102  1
  Si  Si5  1  0.75000000  0.78524102  0.21475898  1
  Si  Si6  1  0.16462736  0.06300719  0.26223824  1
  Si  Si7  1  0.66462736  0.26223824  0.06300719  1
  Si  Si8  1  0.83537264  0.93699281  0.73776176  1
  Si  Si9  1  0.33537264  0.73776176  0.93699281  1
  Co  Co10  1  0.87397207  0.53850270  0.26219242  1
  Co  Co11  1  0.75000000  0.99649274  0.00350726  1
  Co  Co12  1  0.37397207  0.26219242  0.53850270  1
  Co  Co13  1  0.12602793  0.46149730  0.73780758  1
  Co  Co14  1  0.62602793  0.73780758  0.46149730  1
  Co  Co15  1  0.25000000  0.00350726  0.99649274  1
  Dy  Dy16  1  0.23628448  0.86924443  0.59785830  1
  Dy  Dy17  1  0.26371552  0.40214170  0.13075557  1
  Dy  Dy18  1  0.76371552  0.13075557  0.40214170  1
  Dy  Dy19  1  0.73628448  0.59785830  0.86924443  1
