# generated using pymatgen
data_Sr2YIrO6
_symmetry_space_group_name_H-M   'P 1'
_cell_length_a   5.82488568
_cell_length_b   5.87991000
_cell_length_c   8.27062644
_cell_angle_alpha   90.00000000
_cell_angle_beta   90.38549777
_cell_angle_gamma   90.00000000
_symmetry_Int_Tables_number   1
_chemical_formula_structural   Sr2YIrO6
_chemical_formula_sum   'Sr4 Y2 Ir2 O12'
_cell_volume   283.26091942
_cell_formula_units_Z   2
loop_
 _symmetry_equiv_pos_site_id
 _symmetry_equiv_pos_as_xyz
  1  'x, y, z'
loop_
 _atom_site_type_symbol
 _atom_site_label
 _atom_site_symmetry_multiplicity
 _atom_site_fract_x
 _atom_site_fract_y
 _atom_site_fract_z
 _atom_site_occupancy
  O  O0  1  0.92756999  0.51814925  0.73475300  1
  O  O1  1  0.57243001  0.01814925  0.76524700  1
  O  O2  1  0.07243001  0.48185075  0.26524700  1
  O  O3  1  0.42756999  0.98185075  0.23475300  1
  O  O4  1  0.80353862  0.77221854  0.46058619  1
  O  O5  1  0.69646138  0.27221854  0.03941381  1
  O  O6  1  0.19646138  0.22778146  0.53941381  1
  O  O7  1  0.30353862  0.72778146  0.96058619  1
  O  O8  1  0.22865098  0.19958539  0.96254177  1
  O  O9  1  0.27134902  0.69958539  0.53745823  1
  O  O10  1  0.77134902  0.80041461  0.03745823  1
  O  O11  1  0.72865098  0.30041461  0.46254177  1
  Sr  Sr12  1  0.00790957  0.96410004  0.74920908  1
  Sr  Sr13  1  0.49209043  0.46410004  0.75079092  1
  Sr  Sr14  1  0.99209043  0.03589996  0.25079092  1
  Sr  Sr15  1  0.50790957  0.53589996  0.24920908  1
  Y  Y16  1  0.00000000  0.50000000  0.00000000  1
  Y  Y17  1  0.50000000  0.00000000  0.50000000  1
  Ir  Ir18  1  0.50000000  0.00000000  0.00000000  1
  Ir  Ir19  1  0.00000000  0.50000000  0.50000000  1
