# generated using pymatgen
data_La4Si2S3O7
_symmetry_space_group_name_H-M   'P 1'
_cell_length_a   11.26289337
_cell_length_b   11.26289336
_cell_length_c   11.26289336
_cell_angle_alpha   100.06196138
_cell_angle_beta   114.37100149
_cell_angle_gamma   114.37100144
_symmetry_Int_Tables_number   1
_chemical_formula_structural   La4Si2S3O7
_chemical_formula_sum   'La16 Si8 S12 O28'
_cell_volume   1078.12521632
_cell_formula_units_Z   4
loop_
 _symmetry_equiv_pos_site_id
 _symmetry_equiv_pos_as_xyz
  1  'x, y, z'
loop_
 _atom_site_type_symbol
 _atom_site_label
 _atom_site_symmetry_multiplicity
 _atom_site_fract_x
 _atom_site_fract_y
 _atom_site_fract_z
 _atom_site_occupancy
  O  O0  1  0.52558047  0.17477051  0.20035098  1
  O  O1  1  0.97441953  0.17477051  0.64919004  1
  O  O2  1  0.97441953  0.79964902  0.82522949  1
  O  O3  1  0.47441953  0.64919004  0.17477051  1
  O  O4  1  0.02558047  0.20035098  0.17477051  1
  O  O5  1  0.02558047  0.82522949  0.35080996  1
  O  O6  1  0.47441953  0.82522949  0.79964902  1
  O  O7  1  0.52558047  0.35080996  0.82522949  1
  O  O8  1  0.75000000  0.14487580  0.39487580  1
  O  O9  1  0.25000000  0.39487580  0.14487580  1
  O  O10  1  0.25000000  0.85512420  0.60512420  1
  O  O11  1  0.75000000  0.60512420  0.85512420  1
  O  O12  1  0.27267860  0.83864787  0.84601304  1
  O  O13  1  0.22732140  0.07333444  0.56596927  1
  O  O14  1  0.22732140  0.15398696  0.16135213  1
  O  O15  1  0.49263483  0.56596927  0.83864787  1
  O  O16  1  0.00736517  0.84601304  0.07333444  1
  O  O17  1  0.00736517  0.16135213  0.43403073  1
  O  O18  1  0.49263483  0.92666556  0.15398696  1
  O  O19  1  0.27267860  0.43403073  0.92666556  1
  O  O20  1  0.72732140  0.16135213  0.15398696  1
  O  O21  1  0.77267860  0.92666556  0.43403073  1
  O  O22  1  0.77267860  0.84601304  0.83864787  1
  O  O23  1  0.50736517  0.43403073  0.16135213  1
  O  O24  1  0.99263483  0.15398696  0.92666556  1
  O  O25  1  0.99263483  0.83864787  0.56596927  1
  O  O26  1  0.50736517  0.07333444  0.84601304  1
  O  O27  1  0.72732140  0.56596927  0.07333444  1
  Si  Si28  1  0.62654432  0.09780874  0.22435306  1
  Si  Si29  1  0.87345568  0.09780874  0.47126442  1
  Si  Si30  1  0.87345568  0.77564694  0.90219126  1
  Si  Si31  1  0.37345568  0.47126442  0.09780874  1
  Si  Si32  1  0.12654432  0.22435306  0.09780874  1
  Si  Si33  1  0.12654432  0.90219126  0.52873558  1
  Si  Si34  1  0.37345568  0.90219126  0.77564694  1
  Si  Si35  1  0.62654432  0.52873558  0.90219126  1
  S  S36  1  0.35091646  0.00000000  0.35091646  1
  S  S37  1  0.35091646  0.35091646  0.50000000  1
  S  S38  1  0.14908354  0.64908354  0.00000000  1
  S  S39  1  0.14908354  0.50000000  0.64908354  1
  S  S40  1  0.64908354  0.00000000  0.64908354  1
  S  S41  1  0.64908354  0.64908354  0.50000000  1
  S  S42  1  0.85091646  0.35091646  0.00000000  1
  S  S43  1  0.85091646  0.50000000  0.35091646  1
  S  S44  1  0.25000000  0.62500000  0.37500000  1
  S  S45  1  0.75000000  0.37500000  0.62500000  1
  S  S46  1  0.75000000  0.87500000  0.12500000  1
  S  S47  1  0.25000000  0.12500000  0.87500000  1
  La  La48  1  0.09202106  0.04601053  0.29601053  1
  La  La49  1  0.25000000  0.29601053  0.70398947  1
  La  La50  1  0.25000000  0.95398947  0.04601053  1
  La  La51  1  0.40797894  0.70398947  0.95398947  1
  La  La52  1  0.90797894  0.95398947  0.70398947  1
  La  La53  1  0.75000000  0.70398947  0.29601053  1
  La  La54  1  0.75000000  0.04601053  0.95398947  1
  La  La55  1  0.59202106  0.29601053  0.04601053  1
  La  La56  1  0.51304291  0.34310474  0.35614765  1
  La  La57  1  0.98695709  0.34310474  0.83006183  1
  La  La58  1  0.98695709  0.64385235  0.65689526  1
  La  La59  1  0.48695709  0.83006183  0.34310474  1
  La  La60  1  0.01304291  0.35614765  0.34310474  1
  La  La61  1  0.01304291  0.65689526  0.16993817  1
  La  La62  1  0.48695709  0.65689526  0.64385235  1
  La  La63  1  0.51304291  0.16993817  0.65689526  1
