# generated using pymatgen
data_Re2SbO6
_symmetry_space_group_name_H-M   'P 1'
_cell_length_a   4.98489396
_cell_length_b   5.56559823
_cell_length_c   8.50350187
_cell_angle_alpha   91.22712420
_cell_angle_beta   107.04413738
_cell_angle_gamma   90.00000002
_symmetry_Int_Tables_number   1
_chemical_formula_structural   Re2SbO6
_chemical_formula_sum   'Re4 Sb2 O12'
_cell_volume   225.50205349
_cell_formula_units_Z   2
loop_
 _symmetry_equiv_pos_site_id
 _symmetry_equiv_pos_as_xyz
  1  'x, y, z'
loop_
 _atom_site_type_symbol
 _atom_site_label
 _atom_site_symmetry_multiplicity
 _atom_site_fract_x
 _atom_site_fract_y
 _atom_site_fract_z
 _atom_site_occupancy
  O  O0  1  0.51961770  0.57400016  0.86144342  1
  O  O1  1  0.65817428  0.92599984  0.13855658  1
  O  O2  1  0.48038230  0.42599984  0.13855658  1
  O  O3  1  0.34182572  0.07400016  0.86144342  1
  O  O4  1  0.88442716  0.38099444  0.72028413  1
  O  O5  1  0.16414304  0.11900556  0.27971587  1
  O  O6  1  0.26471559  0.83120460  0.56802843  1
  O  O7  1  0.69668716  0.66879540  0.43197157  1
  O  O8  1  0.73528441  0.16879540  0.43197157  1
  O  O9  1  0.30331284  0.33120460  0.56802843  1
  O  O10  1  0.83585696  0.88099444  0.72028413  1
  O  O11  1  0.11557284  0.61900556  0.27971587  1
  Sb  Sb12  1  0.69551209  0.25000000  0.00000000  1
  Sb  Sb13  1  0.30448791  0.75000000  0.00000000  1
  Re  Re14  1  0.58606616  0.60926545  0.63736456  1
  Re  Re15  1  0.94870160  0.89073455  0.36263544  1
  Re  Re16  1  0.41393384  0.39073455  0.36263544  1
  Re  Re17  1  0.05129840  0.10926545  0.63736456  1
