# generated using pymatgen
data_Li2(NiO2)21
_symmetry_space_group_name_H-M   'P 1'
_cell_length_a   15.26885048
_cell_length_b   40.02816850
_cell_length_c   19.37071020
_cell_angle_alpha   10.65908755
_cell_angle_beta   21.33797460
_cell_angle_gamma   28.10845098
_symmetry_Int_Tables_number   1
_chemical_formula_structural   Li2(NiO2)21
_chemical_formula_sum   'Li2 Ni21 O42'
_cell_volume   692.29802893
_cell_formula_units_Z   1
loop_
 _symmetry_equiv_pos_site_id
 _symmetry_equiv_pos_as_xyz
  1  'x, y, z'
loop_
 _atom_site_type_symbol
 _atom_site_label
 _atom_site_symmetry_multiplicity
 _atom_site_fract_x
 _atom_site_fract_y
 _atom_site_fract_z
 _atom_site_occupancy
  Li  Li0  1  0.47641254  0.57128833  0.00010025  1
  Li  Li1  1  0.38072946  0.85728367  0.99989975  1
  Ni  Ni2  1  0.30724561  0.07022694  0.50300570  1
  Ni  Ni3  1  0.26343189  0.21360560  0.49995216  1
  Ni  Ni4  1  0.64363553  0.07179690  0.50020525  1
  Ni  Ni5  1  0.21350747  0.35677510  0.49979475  1
  Ni  Ni6  1  0.59371111  0.21496640  0.50004784  1
  Ni  Ni7  1  0.97642295  0.07146580  0.49983933  1
  Ni  Ni8  1  0.16831671  0.50146112  0.49697490  1
  Ni  Ni9  1  0.54989739  0.35834506  0.49699430  1
  Ni  Ni10  1  0.92857100  0.21428600  0.50000000  1
  Ni  Ni11  1  0.11838986  0.64261228  0.49906596  1
  Ni  Ni12  1  0.49776574  0.49988597  0.50212132  1
  Ni  Ni13  1  0.88071905  0.35710620  0.50016067  1
  Ni  Ni14  1  0.07268663  0.78710033  0.49737044  1
  Ni  Ni15  1  0.45504445  0.64449852  0.49586858  1
  Ni  Ni16  1  0.83307111  0.49957384  0.50157341  1
  Ni  Ni17  1  0.02407189  0.92899716  0.49842659  1
  Ni  Ni18  1  0.40209855  0.78407248  0.50413142  1
  Ni  Ni19  1  0.78445637  0.64147067  0.50262956  1
  Ni  Ni20  1  0.35937726  0.92868503  0.49787868  1
  Ni  Ni21  1  0.73875314  0.78595872  0.50093404  1
  Ni  Ni22  1  0.68882629  0.92710988  0.50302510  1
  O  O23  1  0.31135755  0.11120602  0.21909152  1
  O  O24  1  0.24825706  0.25087630  0.23599581  1
  O  O25  1  0.60877564  0.08977008  0.28948904  1
  O  O26  1  0.32693212  0.03203393  0.76665540  1
  O  O27  1  0.21629892  0.39710394  0.21859528  1
  O  O28  1  0.58394187  0.25333050  0.23027746  1
  O  O29  1  0.96675055  0.11104427  0.22701529  1
  O  O30  1  0.27320113  0.17524150  0.76972254  1
  O  O31  1  0.64084408  0.03146706  0.78140472  1
  O  O32  1  0.15622677  0.53652090  0.23382573  1
  O  O33  1  0.53021088  0.39653707  0.23334460  1
  O  O34  1  0.91329601  0.26083332  0.21858799  1
  O  O35  1  0.24836736  0.33880192  0.71051096  1
  O  O36  1  0.60888594  0.17769570  0.76400419  1
  O  O37  1  0.10334217  0.68261465  0.23179197  1
  O  O38  1  0.98331711  0.03160006  0.77498252  1
  O  O39  1  0.48846404  0.53875042  0.23226086  1
  O  O40  1  0.87382589  0.39697094  0.22501748  1
  O  O41  1  0.17787635  0.46057450  0.77063564  1
  O  O42  1  0.54578545  0.31736598  0.78090848  1
  O  O43  1  0.06278933  0.82267062  0.23204053  1
  O  O44  1  0.94384599  0.16773868  0.78141201  1
  O  O45  1  0.43358623  0.68211593  0.23447725  1
  O  O46  1  0.81856797  0.54671122  0.21786545  1
  O  O47  1  0.15390776  0.62477321  0.70932575  1
  O  O48  1  0.51590272  0.46355755  0.76226929  1
  O  O49  1  0.00808857  0.96834768  0.23167982  1
  O  O50  1  0.89039145  0.31752773  0.77298471  1
  O  O51  1  0.39374950  0.82461043  0.23138221  1
  O  O52  1  0.77763924  0.68176695  0.22807966  1
  O  O53  1  0.07950376  0.74680405  0.77192034  1
  O  O54  1  0.46339350  0.60396057  0.76861779  1
  O  O55  1  0.84905343  0.46022432  0.76832018  1
  O  O56  1  0.34124028  0.96501445  0.23773071  1
  O  O57  1  0.70323524  0.80379779  0.29067425  1
  O  O58  1  0.03857503  0.88185978  0.78213455  1
  O  O59  1  0.42355677  0.74645507  0.76552275  1
  O  O60  1  0.79435367  0.60590038  0.76795947  1
  O  O61  1  0.67926665  0.96799750  0.22936436  1
  O  O62  1  0.36867896  0.88982058  0.76773914  1
  O  O63  1  0.75380083  0.74595635  0.76820803  1
  O  O64  1  0.70091623  0.89205010  0.76617427  1
