# generated using pymatgen
data_Na2US3
_symmetry_space_group_name_H-M   'P 1'
_cell_length_a   6.99484501
_cell_length_b   6.99484501
_cell_length_c   7.02904469
_cell_angle_alpha   99.65056394
_cell_angle_beta   99.65056391
_cell_angle_gamma   119.95610965
_symmetry_Int_Tables_number   1
_chemical_formula_structural   Na2US3
_chemical_formula_sum   'Na4 U2 S6'
_cell_volume   280.74847596
_cell_formula_units_Z   2
loop_
 _symmetry_equiv_pos_site_id
 _symmetry_equiv_pos_as_xyz
  1  'x, y, z'
loop_
 _atom_site_type_symbol
 _atom_site_label
 _atom_site_symmetry_multiplicity
 _atom_site_fract_x
 _atom_site_fract_y
 _atom_site_fract_z
 _atom_site_occupancy
  Na  Na0  1  0.00000000  0.00000000  0.00000000  1
  Na  Na1  1  0.50000000  0.50000000  0.50000000  1
  Na  Na2  1  0.83959853  0.16040147  0.50000000  1
  Na  Na3  1  0.16040147  0.83959853  0.50000000  1
  S  S4  1  0.72036950  0.72036950  0.22877896  1
  S  S5  1  0.92375184  0.56709870  0.77380983  1
  S  S6  1  0.56709870  0.92375184  0.77380983  1
  S  S7  1  0.27963050  0.27963050  0.77122104  1
  S  S8  1  0.07624816  0.43290130  0.22619017  1
  S  S9  1  0.43290130  0.07624816  0.22619017  1
  U  U10  1  0.66711431  0.33288569  0.00000000  1
  U  U11  1  0.33288569  0.66711431  0.00000000  1
