# generated using pymatgen
data_ZnP2H15C5NO9
_symmetry_space_group_name_H-M   'P 1'
_cell_length_a   10.46189432
_cell_length_b   10.65912949
_cell_length_c   11.90991641
_cell_angle_alpha   90.00000000
_cell_angle_beta   90.00000000
_cell_angle_gamma   90.00000000
_symmetry_Int_Tables_number   1
_chemical_formula_structural   ZnP2H15C5NO9
_chemical_formula_sum   'Zn4 P8 H60 C20 N4 O36'
_cell_volume   1328.13059193
_cell_formula_units_Z   4
loop_
 _symmetry_equiv_pos_site_id
 _symmetry_equiv_pos_as_xyz
  1  'x, y, z'
loop_
 _atom_site_type_symbol
 _atom_site_label
 _atom_site_symmetry_multiplicity
 _atom_site_fract_x
 _atom_site_fract_y
 _atom_site_fract_z
 _atom_site_occupancy
  Zn  Zn0  1  0.44719918  0.70562726  0.37765574  1
  Zn  Zn1  1  0.05280082  0.29437274  0.87765574  1
  Zn  Zn2  1  0.94719918  0.79437274  0.62234426  1
  Zn  Zn3  1  0.55280082  0.20562726  0.12234426  1
  P  P4  1  0.69014207  0.65583686  0.54258086  1
  P  P5  1  0.80985793  0.34416314  0.04258086  1
  P  P6  1  0.19014207  0.84416314  0.45741914  1
  P  P7  1  0.30985793  0.15583686  0.95741914  1
  P  P8  1  0.48659402  0.93358032  0.20162845  1
  P  P9  1  0.01340598  0.06641968  0.70162845  1
  P  P10  1  0.98659402  0.56641968  0.79837155  1
  P  P11  1  0.51340598  0.43358032  0.29837155  1
  H  H12  1  0.71745906  0.54779207  0.38265482  1
  H  H13  1  0.78254094  0.45220793  0.88265482  1
  H  H14  1  0.21745906  0.95220793  0.61734518  1
  H  H15  1  0.28254094  0.04779207  0.11734518  1
  H  H16  1  0.46465541  0.81392768  0.04549081  1
  H  H17  1  0.03534459  0.18607232  0.54549081  1
  H  H18  1  0.96465541  0.68607232  0.95450919  1
  H  H19  1  0.53534459  0.31392768  0.45450919  1
  H  H20  1  0.75322275  0.54566091  0.69347968  1
  H  H21  1  0.74677725  0.45433909  0.19347968  1
  H  H22  1  0.25322275  0.95433909  0.30652032  1
  H  H23  1  0.24677725  0.04566091  0.80652032  1
  H  H24  1  0.73167081  0.97143850  0.68897300  1
  H  H25  1  0.76832919  0.02856150  0.18897300  1
  H  H26  1  0.23167081  0.52856150  0.31102700  1
  H  H27  1  0.26832919  0.47143850  0.81102700  1
  H  H28  1  0.46974678  0.04376339  0.48565930  1
  H  H29  1  0.03025322  0.95623661  0.98565930  1
  H  H30  1  0.96974678  0.45623661  0.51434070  1
  H  H31  1  0.53025322  0.54376339  0.01434070  1
  H  H32  1  0.63855368  0.02107143  0.49316387  1
  H  H33  1  0.86144632  0.97892857  0.99316387  1
  H  H34  1  0.13855368  0.47892857  0.50683613  1
  H  H35  1  0.36144632  0.52107143  0.00683613  1
  H  H36  1  0.53075599  0.88044381  0.62697195  1
  H  H37  1  0.96924401  0.11955619  0.12697195  1
  H  H38  1  0.03075599  0.61955619  0.37302805  1
  H  H39  1  0.46924401  0.38044381  0.87302805  1
  H  H40  1  0.44952617  0.01065647  0.69107870  1
  H  H41  1  0.05047383  0.98934353  0.19107870  1
  H  H42  1  0.94952617  0.48934353  0.30892130  1
  H  H43  1  0.55047383  0.51065647  0.80892130  1
  H  H44  1  0.57459125  0.17213971  0.79078043  1
  H  H45  1  0.92540875  0.82786029  0.29078043  1
  H  H46  1  0.07459125  0.32786029  0.20921957  1
  H  H47  1  0.42540875  0.67213971  0.70921957  1
  H  H48  1  0.74586949  0.15691959  0.79676163  1
  H  H49  1  0.75413051  0.84308041  0.29676163  1
  H  H50  1  0.24586949  0.34308041  0.20323837  1
  H  H51  1  0.25413051  0.65691959  0.70323837  1
  H  H52  1  0.76418994  0.17892091  0.59140267  1
  H  H53  1  0.73581006  0.82107909  0.09140267  1
  H  H54  1  0.26418994  0.32107909  0.40859733  1
  H  H55  1  0.23581006  0.67892091  0.90859733  1
  H  H56  1  0.68132113  0.31115310  0.64704592  1
  H  H57  1  0.81867887  0.68884690  0.14704592  1
  H  H58  1  0.18132113  0.18884690  0.35295408  1
  H  H59  1  0.31867887  0.81115310  0.85295408  1
  H  H60  1  0.62552921  0.83247555  0.81265731  1
  H  H61  1  0.87447079  0.16752445  0.31265731  1
  H  H62  1  0.12552921  0.66752445  0.18734269  1
  H  H63  1  0.37447079  0.33247555  0.68734269  1
  H  H64  1  0.71336070  0.95241690  0.88392122  1
  H  H65  1  0.78663930  0.04758310  0.38392122  1
  H  H66  1  0.21336070  0.54758310  0.11607878  1
  H  H67  1  0.28663930  0.45241690  0.61607878  1
  H  H68  1  0.54266631  0.96487311  0.87258380  1
  H  H69  1  0.95733369  0.03512689  0.37258380  1
  H  H70  1  0.04266631  0.53512689  0.12741620  1
  H  H71  1  0.45733369  0.46487311  0.62741620  1
  C  C72  1  0.55390495  0.05607567  0.53887608  1
  C  C73  1  0.94609505  0.94392433  0.03887608  1
  C  C74  1  0.05390495  0.44392433  0.46112392  1
  C  C75  1  0.44609505  0.55607567  0.96112392  1
  C  C76  1  0.53584346  0.98100400  0.64598491  1
  C  C77  1  0.96415654  0.01899600  0.14598491  1
  C  C78  1  0.03584346  0.51899600  0.35401509  1
  C  C79  1  0.46415654  0.48100400  0.85401509  1
  C  C80  1  0.66051501  0.14244163  0.74486467  1
  C  C81  1  0.83948499  0.85755837  0.24486467  1
  C  C82  1  0.16051501  0.35755837  0.25513533  1
  C  C83  1  0.33948499  0.64244163  0.75513533  1
  C  C84  1  0.67540447  0.20970218  0.63329626  1
  C  C85  1  0.82459553  0.79029782  0.13329626  1
  C  C86  1  0.17540447  0.29029782  0.36670374  1
  C  C87  1  0.32459553  0.70970218  0.86670374  1
  C  C88  1  0.63026836  0.93280567  0.83140398  1
  C  C89  1  0.86973164  0.06719433  0.33140398  1
  C  C90  1  0.13026836  0.56719433  0.16859602  1
  C  C91  1  0.36973164  0.43280567  0.66859602  1
  N  N92  1  0.64635143  0.00339938  0.72433985  1
  N  N93  1  0.85364857  0.99660062  0.22433985  1
  N  N94  1  0.14635143  0.49660062  0.27566015  1
  N  N95  1  0.35364857  0.50339938  0.77566015  1
  O  O96  1  0.57503820  0.04905993  0.20850102  1
  O  O97  1  0.92496180  0.95094007  0.70850102  1
  O  O98  1  0.07503820  0.45094007  0.79149898  1
  O  O99  1  0.42496180  0.54905993  0.29149898  1
  O  O100  1  0.52553016  0.84157859  0.29395234  1
  O  O101  1  0.97446984  0.15842141  0.79395234  1
  O  O102  1  0.02553016  0.65842141  0.70604766  1
  O  O103  1  0.47446984  0.34157859  0.20604766  1
  O  O104  1  0.76570899  0.60892774  0.43562645  1
  O  O105  1  0.73429101  0.39107226  0.93562645  1
  O  O106  1  0.26570899  0.89107226  0.56437355  1
  O  O107  1  0.23429101  0.10892774  0.06437355  1
  O  O108  1  0.55084992  0.68617246  0.51439621  1
  O  O109  1  0.94915008  0.31382754  0.01439621  1
  O  O110  1  0.05084992  0.81382754  0.48560379  1
  O  O111  1  0.44915008  0.18617246  0.98560379  1
  O  O112  1  0.76341504  0.76626084  0.59214070  1
  O  O113  1  0.73658496  0.23373916  0.09214070  1
  O  O114  1  0.26341504  0.73373916  0.40785930  1
  O  O115  1  0.23658496  0.26626084  0.90785930  1
  O  O116  1  0.34246133  0.96357469  0.20321385  1
  O  O117  1  0.15753867  0.03642531  0.70321385  1
  O  O118  1  0.84246133  0.53642531  0.79678615  1
  O  O119  1  0.65753867  0.46357469  0.29678615  1
  O  O120  1  0.52150447  0.87689880  0.07987161  1
  O  O121  1  0.97849553  0.12310120  0.57987161  1
  O  O122  1  0.02150447  0.62310120  0.92012839  1
  O  O123  1  0.47849553  0.37689880  0.42012839  1
  O  O124  1  0.68499873  0.54412533  0.63095205  1
  O  O125  1  0.81500127  0.45587467  0.13095205  1
  O  O126  1  0.18499873  0.95587467  0.36904795  1
  O  O127  1  0.31500127  0.04412533  0.86904795  1
  O  O128  1  0.56699134  0.18819570  0.56097295  1
  O  O129  1  0.93300866  0.81180430  0.06097295  1
  O  O130  1  0.06699134  0.31180430  0.43902705  1
  O  O131  1  0.43300866  0.68819570  0.93902705  1
