# generated using pymatgen
data_Li5AlO4
_symmetry_space_group_name_H-M   'P 1'
_cell_length_a   9.04436855
_cell_length_b   9.17548741
_cell_length_c   9.21314036
_cell_angle_alpha   90.00000000
_cell_angle_beta   90.00000000
_cell_angle_gamma   90.00000000
_symmetry_Int_Tables_number   1
_chemical_formula_structural   Li5AlO4
_chemical_formula_sum   'Li40 Al8 O32'
_cell_volume   764.56617816
_cell_formula_units_Z   8
loop_
 _symmetry_equiv_pos_site_id
 _symmetry_equiv_pos_as_xyz
  1  'x, y, z'
loop_
 _atom_site_type_symbol
 _atom_site_label
 _atom_site_symmetry_multiplicity
 _atom_site_fract_x
 _atom_site_fract_y
 _atom_site_fract_z
 _atom_site_occupancy
  Li  Li0  1  0.86796842  0.14711037  0.37905851  1
  Li  Li1  1  0.36796842  0.85288963  0.12094149  1
  Li  Li2  1  0.63203158  0.64711037  0.62094149  1
  Li  Li3  1  0.13203158  0.35288963  0.87905851  1
  Li  Li4  1  0.13203158  0.85288963  0.62094149  1
  Li  Li5  1  0.63203158  0.14711037  0.87905851  1
  Li  Li6  1  0.36796842  0.35288963  0.37905851  1
  Li  Li7  1  0.86796842  0.64711037  0.12094149  1
  Li  Li8  1  0.83327667  0.10605046  0.11896181  1
  Li  Li9  1  0.33327667  0.89394954  0.38103819  1
  Li  Li10  1  0.66672333  0.60605046  0.88103819  1
  Li  Li11  1  0.16672333  0.39394954  0.61896181  1
  Li  Li12  1  0.16672333  0.89394954  0.88103819  1
  Li  Li13  1  0.66672333  0.10605046  0.61896181  1
  Li  Li14  1  0.33327667  0.39394954  0.11896181  1
  Li  Li15  1  0.83327667  0.60605046  0.38103819  1
  Li  Li16  1  0.90168782  0.12645019  0.85550973  1
  Li  Li17  1  0.40168782  0.87354981  0.64449027  1
  Li  Li18  1  0.59831218  0.62645019  0.14449027  1
  Li  Li19  1  0.86106703  0.88504689  0.60178791  1
  Li  Li20  1  0.09831218  0.87354981  0.14449027  1
  Li  Li21  1  0.59831218  0.12645019  0.35550973  1
  Li  Li22  1  0.40168782  0.37354981  0.85550973  1
  Li  Li23  1  0.90168782  0.62645019  0.64449027  1
  Li  Li24  1  0.89746546  0.38149195  0.15917800  1
  Li  Li25  1  0.39746546  0.61850805  0.34082200  1
  Li  Li26  1  0.60253454  0.88149195  0.84082200  1
  Li  Li27  1  0.10253454  0.11850805  0.65917800  1
  Li  Li28  1  0.10253454  0.61850805  0.84082200  1
  Li  Li29  1  0.60253454  0.38149195  0.65917800  1
  Li  Li30  1  0.39746546  0.11850805  0.15917800  1
  Li  Li31  1  0.89746546  0.88149195  0.34082200  1
  Li  Li32  1  0.86106703  0.38504689  0.89821209  1
  Li  Li33  1  0.36106703  0.61495311  0.60178791  1
  Li  Li34  1  0.63893297  0.88504689  0.10178791  1
  Li  Li35  1  0.13893297  0.11495311  0.39821209  1
  Li  Li36  1  0.13893297  0.61495311  0.10178791  1
  Li  Li37  1  0.63893297  0.38504689  0.39821209  1
  Li  Li38  1  0.36106703  0.11495311  0.89821209  1
  Li  Li39  1  0.09831218  0.37354981  0.35550973  1
  O  O40  1  0.76866661  0.25192191  0.74251640  1
  O  O41  1  0.26866661  0.74807809  0.75748360  1
  O  O42  1  0.73133339  0.75192191  0.25748360  1
  O  O43  1  0.23133339  0.24807809  0.24251640  1
  O  O44  1  0.23133339  0.74807809  0.25748360  1
  O  O45  1  0.73133339  0.25192191  0.24251640  1
  O  O46  1  0.26866661  0.24807809  0.74251640  1
  O  O47  1  0.76866661  0.75192191  0.75748360  1
  O  O48  1  0.76198548  0.48462539  0.53864577  1
  O  O49  1  0.26198548  0.51537461  0.96135423  1
  O  O50  1  0.73801452  0.98462539  0.46135423  1
  O  O51  1  0.23801452  0.01537461  0.03864577  1
  O  O52  1  0.23801452  0.51537461  0.46135423  1
  O  O53  1  0.73801452  0.48462539  0.03864577  1
  O  O54  1  0.26198548  0.01537461  0.53864577  1
  O  O55  1  0.76198548  0.98462539  0.96135423  1
  O  O56  1  0.99918622  0.46225786  0.74258014  1
  O  O57  1  0.49918622  0.53774214  0.75741986  1
  O  O58  1  0.50081378  0.96225786  0.25741986  1
  O  O59  1  0.00081378  0.03774214  0.24258014  1
  O  O60  1  0.00529082  0.75316378  0.98898110  1
  O  O61  1  0.50081378  0.46225786  0.24258014  1
  O  O62  1  0.49918622  0.03774214  0.74258014  1
  O  O63  1  0.99918622  0.96225786  0.75741986  1
  O  O64  1  0.00529082  0.25316378  0.51101890  1
  O  O65  1  0.50529082  0.74683622  0.98898110  1
  O  O66  1  0.49470918  0.75316378  0.48898110  1
  O  O67  1  0.99470918  0.24683622  0.01101890  1
  O  O68  1  0.99470918  0.74683622  0.48898110  1
  O  O69  1  0.49470918  0.25316378  0.01101890  1
  O  O70  1  0.50529082  0.24683622  0.51101890  1
  O  O71  1  0.00081378  0.53774214  0.25741986  1
  Al  Al72  1  0.88397492  0.35579211  0.62349625  1
  Al  Al73  1  0.38397492  0.64420789  0.87650375  1
  Al  Al74  1  0.61602508  0.85579211  0.37650375  1
  Al  Al75  1  0.11602508  0.14420789  0.12349625  1
  Al  Al76  1  0.11602508  0.64420789  0.37650375  1
  Al  Al77  1  0.61602508  0.35579211  0.12349625  1
  Al  Al78  1  0.38397492  0.14420789  0.62349625  1
  Al  Al79  1  0.88397492  0.85579211  0.87650375  1
