# generated using pymatgen
data_Cr2HgS4
_symmetry_space_group_name_H-M   'P 1'
_cell_length_a   7.31576118
_cell_length_b   7.31576118
_cell_length_c   7.31576118
_cell_angle_alpha   59.99999999
_cell_angle_beta   60.00000000
_cell_angle_gamma   60.00000002
_symmetry_Int_Tables_number   1
_chemical_formula_structural   Cr2HgS4
_chemical_formula_sum   'Cr4 Hg2 S8'
_cell_volume   276.86213345
_cell_formula_units_Z   2
loop_
 _symmetry_equiv_pos_site_id
 _symmetry_equiv_pos_as_xyz
  1  'x, y, z'
loop_
 _atom_site_type_symbol
 _atom_site_label
 _atom_site_symmetry_multiplicity
 _atom_site_fract_x
 _atom_site_fract_y
 _atom_site_fract_z
 _atom_site_occupancy
  S  S0  1  0.73293696  0.73293696  0.73293696  1
  S  S1  1  0.26706304  0.26706304  0.69881088  1
  S  S2  1  0.26706304  0.69881088  0.26706304  1
  S  S3  1  0.69881088  0.26706304  0.26706304  1
  S  S4  1  0.73293696  0.30118912  0.73293696  1
  S  S5  1  0.30118912  0.73293696  0.73293696  1
  S  S6  1  0.26706304  0.26706304  0.26706304  1
  S  S7  1  0.73293696  0.73293696  0.30118912  1
  Cr  Cr8  1  0.50000000  0.00000000  0.50000000  1
  Cr  Cr9  1  0.00000000  0.50000000  0.50000000  1
  Cr  Cr10  1  0.50000000  0.50000000  0.00000000  1
  Cr  Cr11  1  0.50000000  0.50000000  0.50000000  1
  Hg  Hg12  1  0.12500000  0.12500000  0.12500000  1
  Hg  Hg13  1  0.87500000  0.87500000  0.87500000  1
