# generated using pymatgen
data_Nb3VS6
_symmetry_space_group_name_H-M   'P 1'
_cell_length_a   5.81327248
_cell_length_b   5.81327248
_cell_length_c   12.23019504
_cell_angle_alpha   90.00000000
_cell_angle_beta   90.00000000
_cell_angle_gamma   119.99999998
_symmetry_Int_Tables_number   1
_chemical_formula_structural   Nb3VS6
_chemical_formula_sum   'Nb6 V2 S12'
_cell_volume   357.93599496
_cell_formula_units_Z   2
loop_
 _symmetry_equiv_pos_site_id
 _symmetry_equiv_pos_as_xyz
  1  'x, y, z'
loop_
 _atom_site_type_symbol
 _atom_site_label
 _atom_site_symmetry_multiplicity
 _atom_site_fract_x
 _atom_site_fract_y
 _atom_site_fract_z
 _atom_site_occupancy
  S  S0  1  0.66518227  0.66861356  0.37103314  1
  S  S1  1  0.33138644  0.99656871  0.37103314  1
  S  S2  1  0.00343129  0.33481773  0.37103314  1
  S  S3  1  0.99656871  0.66518227  0.87103314  1
  S  S4  1  0.33481773  0.00343129  0.62896686  1
  S  S5  1  0.33481773  0.33138644  0.87103314  1
  S  S6  1  0.66861356  0.00343129  0.87103314  1
  S  S7  1  0.33138644  0.33481773  0.12896686  1
  S  S8  1  0.66518227  0.99656871  0.12896686  1
  S  S9  1  0.66861356  0.66518227  0.62896686  1
  S  S10  1  0.99656871  0.33138644  0.62896686  1
  S  S11  1  0.00343129  0.66861356  0.12896686  1
  V  V12  1  0.66666667  0.33333333  0.75000000  1
  V  V13  1  0.33333333  0.66666667  0.25000000  1
  Nb  Nb14  1  0.33333333  0.66666667  0.50235757  1
  Nb  Nb15  1  0.66666667  0.33333333  0.00235757  1
  Nb  Nb16  1  0.66666667  0.33333333  0.49764243  1
  Nb  Nb17  1  0.33333333  0.66666667  0.99764243  1
  Nb  Nb18  1  0.00000000  0.00000000  0.50000000  1
  Nb  Nb19  1  0.00000000  0.00000000  0.00000000  1
