# generated using pymatgen
data_Mn(CrS2)2
_symmetry_space_group_name_H-M   'P 1'
_cell_length_a   7.16281402
_cell_length_b   7.16281401
_cell_length_c   7.16281401
_cell_angle_alpha   59.99999997
_cell_angle_beta   59.99999998
_cell_angle_gamma   59.99999998
_symmetry_Int_Tables_number   1
_chemical_formula_structural   Mn(CrS2)2
_chemical_formula_sum   'Mn2 Cr4 S8'
_cell_volume   259.85796062
_cell_formula_units_Z   2
loop_
 _symmetry_equiv_pos_site_id
 _symmetry_equiv_pos_as_xyz
  1  'x, y, z'
loop_
 _atom_site_type_symbol
 _atom_site_label
 _atom_site_symmetry_multiplicity
 _atom_site_fract_x
 _atom_site_fract_y
 _atom_site_fract_z
 _atom_site_occupancy
  S  S0  1  0.73912685  0.73912685  0.73912685  1
  S  S1  1  0.26087315  0.26087315  0.71738055  1
  S  S2  1  0.26087315  0.71738055  0.26087315  1
  S  S3  1  0.71738055  0.26087315  0.26087315  1
  S  S4  1  0.73912685  0.28261945  0.73912685  1
  S  S5  1  0.28261945  0.73912685  0.73912685  1
  S  S6  1  0.26087315  0.26087315  0.26087315  1
  S  S7  1  0.73912685  0.73912685  0.28261945  1
  Cr  Cr8  1  0.50000000  0.50000000  0.50000000  1
  Cr  Cr9  1  0.50000000  0.50000000  0.00000000  1
  Cr  Cr10  1  0.50000000  0.00000000  0.50000000  1
  Cr  Cr11  1  0.00000000  0.50000000  0.50000000  1
  Mn  Mn12  1  0.87500000  0.87500000  0.87500000  1
  Mn  Mn13  1  0.12500000  0.12500000  0.12500000  1
