# generated using pymatgen
data_KBa3Y2(Co3O8)2
_symmetry_space_group_name_H-M   'P 1'
_cell_length_a   5.57464268
_cell_length_b   5.57464268
_cell_length_c   12.17363791
_cell_angle_alpha   76.76393111
_cell_angle_beta   76.76393111
_cell_angle_gamma   90.00000000
_symmetry_Int_Tables_number   1
_chemical_formula_structural   KBa3Y2(Co3O8)2
_chemical_formula_sum   'K1 Ba3 Y2 Co6 O16'
_cell_volume   357.93375673
_cell_formula_units_Z   1
loop_
 _symmetry_equiv_pos_site_id
 _symmetry_equiv_pos_as_xyz
  1  'x, y, z'
loop_
 _atom_site_type_symbol
 _atom_site_label
 _atom_site_symmetry_multiplicity
 _atom_site_fract_x
 _atom_site_fract_y
 _atom_site_fract_z
 _atom_site_occupancy
  K  K0  1  0.58434251  0.08434251  0.83131498  1
  Ba  Ba1  1  0.08439161  0.58439161  0.83121678  1
  Ba  Ba2  1  0.91525833  0.41525833  0.16948333  1
  Ba  Ba3  1  0.41756733  0.91756733  0.16486533  1
  Y  Y4  1  0.24945357  0.74945357  0.50109286  1
  Y  Y5  1  0.74744931  0.24744931  0.50510138  1
  Co  Co6  1  0.16815953  0.16815953  0.66368093  1
  Co  Co7  1  0.66815953  0.66815953  0.66368093  1
  Co  Co8  1  0.32849889  0.32849889  0.34300221  1
  Co  Co9  1  0.82849889  0.82849889  0.34300221  1
  Co  Co10  1  0.50185181  0.50185181  0.99629637  1
  Co  Co11  1  0.00185181  0.00185181  0.99629637  1
  O  O12  1  0.08213245  0.08213245  0.83573510  1
  O  O13  1  0.58213245  0.58213245  0.83573510  1
  O  O14  1  0.41876174  0.41876174  0.16247652  1
  O  O15  1  0.91876174  0.91876174  0.16247652  1
  O  O16  1  0.43717935  0.93717935  0.62229121  1
  O  O17  1  0.94052944  0.44052944  0.62229121  1
  O  O18  1  0.94052944  0.93717935  0.62229121  1
  O  O19  1  0.43717935  0.44052944  0.62229121  1
  O  O20  1  0.56265706  0.06265706  0.37546559  1
  O  O21  1  0.06187735  0.56187735  0.37546559  1
  O  O22  1  0.06187735  0.06265706  0.37546559  1
  O  O23  1  0.56265706  0.56187735  0.37546559  1
  O  O24  1  0.75313348  0.25313348  0.00087897  1
  O  O25  1  0.24598755  0.74598755  0.00087897  1
  O  O26  1  0.24598755  0.25313348  0.00087897  1
  O  O27  1  0.75313348  0.74598755  0.00087897  1
