# generated using pymatgen
data_Y2(SO4)3
_symmetry_space_group_name_H-M   'P 1'
_cell_length_a   9.31809510
_cell_length_b   9.40740203
_cell_length_c   13.00896694
_cell_angle_alpha   90.00000000
_cell_angle_beta   90.00000000
_cell_angle_gamma   90.00000000
_symmetry_Int_Tables_number   1
_chemical_formula_structural   Y2(SO4)3
_chemical_formula_sum   'Y8 S12 O48'
_cell_volume   1140.35390147
_cell_formula_units_Z   4
loop_
 _symmetry_equiv_pos_site_id
 _symmetry_equiv_pos_as_xyz
  1  'x, y, z'
loop_
 _atom_site_type_symbol
 _atom_site_label
 _atom_site_symmetry_multiplicity
 _atom_site_fract_x
 _atom_site_fract_y
 _atom_site_fract_z
 _atom_site_occupancy
  O  O0  1  0.83499357  0.57214589  0.45695141  1
  O  O1  1  0.83499357  0.92785411  0.54304859  1
  O  O2  1  0.66500643  0.07214589  0.04304859  1
  O  O3  1  0.66500643  0.42785411  0.95695141  1
  O  O4  1  0.16500643  0.42785411  0.54304859  1
  O  O5  1  0.16500643  0.07214589  0.45695141  1
  O  O6  1  0.33499357  0.92785411  0.95695141  1
  O  O7  1  0.33499357  0.57214589  0.04304859  1
  O  O8  1  0.64216148  0.26070620  0.16918104  1
  O  O9  1  0.64216148  0.23929380  0.83081896  1
  O  O10  1  0.85783852  0.76070620  0.33081896  1
  O  O11  1  0.85783852  0.73929380  0.66918104  1
  O  O12  1  0.35783852  0.73929380  0.83081896  1
  O  O13  1  0.35783852  0.76070620  0.16918104  1
  O  O14  1  0.14216148  0.23929380  0.66918104  1
  O  O15  1  0.14216148  0.26070620  0.33081896  1
  O  O16  1  0.05709798  0.66938691  0.92700447  1
  O  O17  1  0.94290202  0.33061309  0.07299553  1
  O  O18  1  0.55709798  0.83061309  0.42700447  1
  O  O19  1  0.55709798  0.66938691  0.57299553  1
  O  O20  1  0.04995555  0.59165426  0.35296150  1
  O  O21  1  0.04995555  0.90834574  0.64703850  1
  O  O22  1  0.45004445  0.09165426  0.14703850  1
  O  O23  1  0.45004445  0.40834574  0.85296150  1
  O  O24  1  0.95004445  0.40834574  0.64703850  1
  O  O25  1  0.95004445  0.09165426  0.35296150  1
  O  O26  1  0.54995555  0.90834574  0.85296150  1
  O  O27  1  0.54995555  0.59165426  0.14703850  1
  O  O28  1  0.37385896  0.65153988  0.44093293  1
  O  O29  1  0.37385896  0.84846012  0.55906707  1
  O  O30  1  0.12614104  0.15153988  0.05906707  1
  O  O31  1  0.12614104  0.34846012  0.94093293  1
  O  O32  1  0.62614104  0.34846012  0.55906707  1
  O  O33  1  0.62614104  0.15153988  0.44093293  1
  O  O34  1  0.87385896  0.84846012  0.94093293  1
  O  O35  1  0.87385896  0.65153988  0.05906707  1
  O  O36  1  0.32615863  0.51598674  0.22375010  1
  O  O37  1  0.32615863  0.98401326  0.77624990  1
  O  O38  1  0.17384137  0.01598674  0.27624990  1
  O  O39  1  0.17384137  0.48401326  0.72375010  1
  O  O40  1  0.67384137  0.48401326  0.77624990  1
  O  O41  1  0.67384137  0.01598674  0.22375010  1
  O  O42  1  0.82615863  0.98401326  0.72375010  1
  O  O43  1  0.82615863  0.51598674  0.27624990  1
  O  O44  1  0.44290202  0.33061309  0.42700447  1
  O  O45  1  0.44290202  0.16938691  0.57299553  1
  O  O46  1  0.05709798  0.83061309  0.07299553  1
  O  O47  1  0.94290202  0.16938691  0.92700447  1
  S  S48  1  0.96602964  0.75000000  0.00000000  1
  S  S49  1  0.53397036  0.25000000  0.50000000  1
  S  S50  1  0.03397036  0.25000000  0.00000000  1
  S  S51  1  0.46602964  0.75000000  0.50000000  1
  S  S52  1  0.89212332  0.61025092  0.35442386  1
  S  S53  1  0.89212332  0.88974908  0.64557614  1
  S  S54  1  0.60787668  0.11025092  0.14557614  1
  S  S55  1  0.60787668  0.38974908  0.85442386  1
  S  S56  1  0.10787668  0.38974908  0.64557614  1
  S  S57  1  0.10787668  0.11025092  0.35442386  1
  S  S58  1  0.39212332  0.88974908  0.85442386  1
  S  S59  1  0.39212332  0.61025092  0.14557614  1
  Y  Y60  1  0.75052056  0.46394401  0.11670103  1
  Y  Y61  1  0.75052056  0.03605599  0.88329897  1
  Y  Y62  1  0.74947944  0.96394401  0.38329897  1
  Y  Y63  1  0.74947944  0.53605599  0.61670103  1
  Y  Y64  1  0.24947944  0.53605599  0.88329897  1
  Y  Y65  1  0.24947944  0.96394401  0.11670103  1
  Y  Y66  1  0.25052056  0.03605599  0.61670103  1
  Y  Y67  1  0.25052056  0.46394401  0.38329897  1
