# generated using pymatgen
data_Hg(PO3)2
_symmetry_space_group_name_H-M   'P 1'
_cell_length_a   7.31152922
_cell_length_b   9.98983467
_cell_length_c   14.00287419
_cell_angle_alpha   90.00000000
_cell_angle_beta   90.00000000
_cell_angle_gamma   90.00000000
_symmetry_Int_Tables_number   1
_chemical_formula_structural   Hg(PO3)2
_chemical_formula_sum   'Hg8 P16 O48'
_cell_volume   1022.78348692
_cell_formula_units_Z   8
loop_
 _symmetry_equiv_pos_site_id
 _symmetry_equiv_pos_as_xyz
  1  'x, y, z'
loop_
 _atom_site_type_symbol
 _atom_site_label
 _atom_site_symmetry_multiplicity
 _atom_site_fract_x
 _atom_site_fract_y
 _atom_site_fract_z
 _atom_site_occupancy
  O  O0  1  0.65138553  0.14158157  0.00090830  1
  O  O1  1  0.15138553  0.35841843  0.99909170  1
  O  O2  1  0.34861447  0.64158157  0.49909170  1
  O  O3  1  0.84861447  0.85841843  0.50090830  1
  O  O4  1  0.34861447  0.85841843  0.99909170  1
  O  O5  1  0.84861447  0.64158157  0.00090830  1
  O  O6  1  0.65138553  0.35841843  0.50090830  1
  O  O7  1  0.15138553  0.14158157  0.49909170  1
  O  O8  1  0.85603820  0.31040578  0.08594618  1
  O  O9  1  0.35603820  0.18959422  0.91405382  1
  O  O10  1  0.14396180  0.81040578  0.41405382  1
  O  O11  1  0.64396180  0.68959422  0.58594618  1
  O  O12  1  0.14396180  0.68959422  0.91405382  1
  O  O13  1  0.64396180  0.81040578  0.08594618  1
  O  O14  1  0.85603820  0.18959422  0.58594618  1
  O  O15  1  0.35603820  0.31040578  0.41405382  1
  O  O16  1  0.13380811  0.15394698  0.10502534  1
  O  O17  1  0.13060494  0.39738643  0.17427325  1
  O  O18  1  0.63380811  0.34605302  0.89497466  1
  O  O19  1  0.36619189  0.84605302  0.60502534  1
  O  O20  1  0.86619189  0.84605302  0.89497466  1
  O  O21  1  0.36619189  0.65394698  0.10502534  1
  O  O22  1  0.13380811  0.34605302  0.60502534  1
  O  O23  1  0.63380811  0.15394698  0.39497466  1
  O  O24  1  0.01901534  0.30213173  0.37751552  1
  O  O25  1  0.51901534  0.19786827  0.62248448  1
  O  O26  1  0.98098466  0.80213173  0.12248448  1
  O  O27  1  0.48098466  0.69786827  0.87751552  1
  O  O28  1  0.98098466  0.69786827  0.62248448  1
  O  O29  1  0.48098466  0.80213173  0.37751552  1
  O  O30  1  0.01901534  0.19786827  0.87751552  1
  O  O31  1  0.51901534  0.30213173  0.12248448  1
  O  O32  1  0.23086750  0.10524080  0.32680365  1
  O  O33  1  0.73086750  0.39475920  0.67319635  1
  O  O34  1  0.76913250  0.60524080  0.17319635  1
  O  O35  1  0.26913250  0.89475920  0.82680365  1
  O  O36  1  0.76913250  0.89475920  0.67319635  1
  O  O37  1  0.26913250  0.60524080  0.32680365  1
  O  O38  1  0.23086750  0.39475920  0.82680365  1
  O  O39  1  0.73086750  0.10524080  0.17319635  1
  O  O40  1  0.63060494  0.39738643  0.32572675  1
  O  O41  1  0.13060494  0.10261357  0.67427325  1
  O  O42  1  0.36939506  0.89738643  0.17427325  1
  O  O43  1  0.86939506  0.60261357  0.82572675  1
  O  O44  1  0.36939506  0.60261357  0.67427325  1
  O  O45  1  0.86939506  0.89738643  0.32572675  1
  O  O46  1  0.63060494  0.10261357  0.82572675  1
  O  O47  1  0.86619189  0.65394698  0.39497466  1
  P  P48  1  0.07494145  0.29787901  0.09777973  1
  P  P49  1  0.57494145  0.20212099  0.90222027  1
  P  P50  1  0.92505855  0.79787901  0.40222027  1
  P  P51  1  0.42505855  0.70212099  0.59777973  1
  P  P52  1  0.92505855  0.70212099  0.90222027  1
  P  P53  1  0.42505855  0.79787901  0.09777973  1
  P  P54  1  0.07494145  0.20212099  0.59777973  1
  P  P55  1  0.57494145  0.29787901  0.40222027  1
  P  P56  1  0.68098907  0.21463562  0.10326257  1
  P  P57  1  0.18098907  0.28536438  0.89673743  1
  P  P58  1  0.31901093  0.71463562  0.39673743  1
  P  P59  1  0.81901093  0.78536438  0.60326257  1
  P  P60  1  0.31901093  0.78536438  0.89673743  1
  P  P61  1  0.81901093  0.71463562  0.10326257  1
  P  P62  1  0.68098907  0.28536438  0.60326257  1
  P  P63  1  0.18098907  0.21463562  0.39673743  1
  Hg  Hg64  1  0.54108222  0.99592608  0.29388215  1
  Hg  Hg65  1  0.04108222  0.50407392  0.70611785  1
  Hg  Hg66  1  0.45891778  0.49592608  0.20611785  1
  Hg  Hg67  1  0.95891778  0.00407392  0.79388215  1
  Hg  Hg68  1  0.45891778  0.00407392  0.70611785  1
  Hg  Hg69  1  0.95891778  0.49592608  0.29388215  1
  Hg  Hg70  1  0.54108222  0.50407392  0.79388215  1
  Hg  Hg71  1  0.04108222  0.99592608  0.20611785  1
