# generated using pymatgen
data_Li3AuS2
_symmetry_space_group_name_H-M   'P 1'
_cell_length_a   5.80823350
_cell_length_b   6.35996424
_cell_length_c   7.11514368
_cell_angle_alpha   116.54698451
_cell_angle_beta   114.08929854
_cell_angle_gamma   90.00000001
_symmetry_Int_Tables_number   1
_chemical_formula_structural   Li3AuS2
_chemical_formula_sum   'Li6 Au2 S4'
_cell_volume   209.22315914
_cell_formula_units_Z   2
loop_
 _symmetry_equiv_pos_site_id
 _symmetry_equiv_pos_as_xyz
  1  'x, y, z'
loop_
 _atom_site_type_symbol
 _atom_site_label
 _atom_site_symmetry_multiplicity
 _atom_site_fract_x
 _atom_site_fract_y
 _atom_site_fract_z
 _atom_site_occupancy
  Li  Li0  1  0.77363093  0.52363093  0.54726185  1
  Li  Li1  1  0.22636907  0.97636907  0.45273815  1
  Li  Li2  1  0.22636907  0.47636907  0.45273815  1
  Li  Li3  1  0.77363093  0.02363093  0.54726185  1
  Li  Li4  1  0.50000000  0.75000000  0.00000000  1
  Li  Li5  1  0.50000000  0.25000000  0.00000000  1
  S  S6  1  0.15323826  0.35847141  0.71694282  1
  S  S7  1  0.43629544  0.14152859  0.28305718  1
  S  S8  1  0.56370456  0.85847141  0.71694282  1
  S  S9  1  0.84676174  0.64152859  0.28305718  1
  Au  Au10  1  0.00000000  0.50000000  0.00000000  1
  Au  Au11  1  0.00000000  0.00000000  0.00000000  1
