# generated using pymatgen
data_GeH12(NF2)4
_symmetry_space_group_name_H-M   'P 1'
_cell_length_a   6.29426018
_cell_length_b   13.66785467
_cell_length_c   11.94228219
_cell_angle_alpha   90.00000000
_cell_angle_beta   90.00000000
_cell_angle_gamma   90.00000000
_symmetry_Int_Tables_number   1
_chemical_formula_structural   GeH12(NF2)4
_chemical_formula_sum   'Ge4 H48 N16 F32'
_cell_volume   1027.38299334
_cell_formula_units_Z   4
loop_
 _symmetry_equiv_pos_site_id
 _symmetry_equiv_pos_as_xyz
  1  'x, y, z'
loop_
 _atom_site_type_symbol
 _atom_site_label
 _atom_site_symmetry_multiplicity
 _atom_site_fract_x
 _atom_site_fract_y
 _atom_site_fract_z
 _atom_site_occupancy
  Ge  Ge0  1  0.25000000  0.25000000  0.65312919  1
  Ge  Ge1  1  0.75000000  0.75000000  0.84687081  1
  Ge  Ge2  1  0.75000000  0.75000000  0.34687081  1
  Ge  Ge3  1  0.25000000  0.25000000  0.15312919  1
  H  H4  1  0.92215483  0.14539015  0.75837755  1
  H  H5  1  0.57784517  0.35460985  0.75837755  1
  H  H6  1  0.42215483  0.85460985  0.74162245  1
  H  H7  1  0.07784517  0.64539015  0.74162245  1
  H  H8  1  0.07784517  0.85460985  0.24162245  1
  H  H9  1  0.42215483  0.64539015  0.24162245  1
  H  H10  1  0.57784517  0.14539015  0.25837755  1
  H  H11  1  0.92215483  0.35460985  0.25837755  1
  H  H12  1  0.47078603  0.57042823  0.92034208  1
  H  H13  1  0.02921397  0.92957177  0.92034208  1
  H  H14  1  0.97078603  0.42957177  0.57965792  1
  H  H15  1  0.52921397  0.07042823  0.57965792  1
  H  H16  1  0.52921397  0.42957177  0.07965792  1
  H  H17  1  0.97078603  0.07042823  0.07965792  1
  H  H18  1  0.02921397  0.57042823  0.42034208  1
  H  H19  1  0.47078603  0.92957177  0.42034208  1
  H  H20  1  0.61927403  0.42148484  0.41013076  1
  H  H21  1  0.88072597  0.07851516  0.41013076  1
  H  H22  1  0.11927403  0.57851516  0.08986924  1
  H  H23  1  0.38072597  0.92148484  0.08986924  1
  H  H24  1  0.38072597  0.57851516  0.58986924  1
  H  H25  1  0.11927403  0.92148484  0.58986924  1
  H  H26  1  0.88072597  0.42148484  0.91013076  1
  H  H27  1  0.61927403  0.07851516  0.91013076  1
  H  H28  1  0.41934211  0.14924890  0.86488153  1
  H  H29  1  0.08065789  0.35075110  0.86488153  1
  H  H30  1  0.91934211  0.85075110  0.63511847  1
  H  H31  1  0.58065789  0.64924890  0.63511847  1
  H  H32  1  0.58065789  0.85075110  0.13511847  1
  H  H33  1  0.91934211  0.64924890  0.13511847  1
  H  H34  1  0.08065789  0.14924890  0.36488153  1
  H  H35  1  0.41934211  0.35075110  0.36488153  1
  H  H36  1  0.87153070  0.56647604  0.03392331  1
  H  H37  1  0.62846930  0.93352396  0.03392331  1
  H  H38  1  0.37153070  0.43352396  0.46607669  1
  H  H39  1  0.12846930  0.06647604  0.46607669  1
  H  H40  1  0.12846930  0.43352396  0.96607669  1
  H  H41  1  0.37153070  0.06647604  0.96607669  1
  H  H42  1  0.62846930  0.56647604  0.53392331  1
  H  H43  1  0.87153070  0.93352396  0.53392331  1
  H  H44  1  0.07864210  0.47197826  0.83484401  1
  H  H45  1  0.42135790  0.02802174  0.83484401  1
  H  H46  1  0.57864210  0.52802174  0.66515599  1
  H  H47  1  0.92135790  0.97197826  0.66515599  1
  H  H48  1  0.92135790  0.52802174  0.16515599  1
  H  H49  1  0.57864210  0.97197826  0.16515599  1
  H  H50  1  0.42135790  0.47197826  0.33484401  1
  H  H51  1  0.07864210  0.02802174  0.33484401  1
  N  N52  1  0.57964841  0.47748655  0.01701458  1
  N  N53  1  0.92035159  0.02251345  0.01701458  1
  N  N54  1  0.07964841  0.52251345  0.48298542  1
  N  N55  1  0.42035159  0.97748655  0.48298542  1
  N  N56  1  0.42035159  0.52251345  0.98298542  1
  N  N57  1  0.07964841  0.97748655  0.98298542  1
  N  N58  1  0.92035159  0.47748655  0.51701458  1
  N  N59  1  0.57964841  0.02251345  0.51701458  1
  N  N60  1  0.04193916  0.41954547  0.89445241  1
  N  N61  1  0.45806084  0.08045453  0.89445241  1
  N  N62  1  0.54193916  0.58045453  0.60554759  1
  N  N63  1  0.95806084  0.91954547  0.60554759  1
  N  N64  1  0.95806084  0.58045453  0.10554759  1
  N  N65  1  0.54193916  0.91954547  0.10554759  1
  N  N66  1  0.45806084  0.41954547  0.39445241  1
  N  N67  1  0.04193916  0.08045453  0.39445241  1
  F  F68  1  0.21105675  0.38160367  0.66274661  1
  F  F69  1  0.28894325  0.11839633  0.66274661  1
  F  F70  1  0.71105675  0.61839633  0.83725339  1
  F  F71  1  0.78894325  0.88160367  0.83725339  1
  F  F72  1  0.78894325  0.61839633  0.33725339  1
  F  F73  1  0.71105675  0.88160367  0.33725339  1
  F  F74  1  0.28894325  0.38160367  0.16274661  1
  F  F75  1  0.21105675  0.11839633  0.16274661  1
  F  F76  1  0.45762428  0.26307193  0.55094596  1
  F  F77  1  0.04237572  0.23692807  0.55094596  1
  F  F78  1  0.95762428  0.73692807  0.94905404  1
  F  F79  1  0.54237572  0.76307193  0.94905404  1
  F  F80  1  0.54237572  0.73692807  0.44905404  1
  F  F81  1  0.95762428  0.76307193  0.44905404  1
  F  F82  1  0.04237572  0.26307193  0.05094596  1
  F  F83  1  0.45762428  0.23692807  0.05094596  1
  F  F84  1  0.45121828  0.26555125  0.77120937  1
  F  F85  1  0.04878172  0.23444875  0.77120937  1
  F  F86  1  0.95121828  0.73444875  0.72879063  1
  F  F87  1  0.54878172  0.76555125  0.72879063  1
  F  F88  1  0.54878172  0.73444875  0.22879063  1
  F  F89  1  0.95121828  0.76555125  0.22879063  1
  F  F90  1  0.04878172  0.26555125  0.27120937  1
  F  F91  1  0.45121828  0.23444875  0.27120937  1
  F  F92  1  0.16169923  0.58409189  0.74560390  1
  F  F93  1  0.33830077  0.91590811  0.74560390  1
  F  F94  1  0.66169923  0.41590811  0.75439610  1
  F  F95  1  0.83830077  0.08409189  0.75439610  1
  F  F96  1  0.83830077  0.41590811  0.25439610  1
  F  F97  1  0.66169923  0.08409189  0.25439610  1
  F  F98  1  0.33830077  0.58409189  0.24560390  1
  F  F99  1  0.16169923  0.91590811  0.24560390  1
