# generated using pymatgen
data_Tb2TeO2
_symmetry_space_group_name_H-M   'P 1'
_cell_length_a   3.95267309
_cell_length_b   3.95267309
_cell_length_c   6.88680664
_cell_angle_alpha   106.67689844
_cell_angle_beta   106.67689845
_cell_angle_gamma   89.99999997
_symmetry_Int_Tables_number   1
_chemical_formula_structural   Tb2TeO2
_chemical_formula_sum   'Tb2 Te1 O2'
_cell_volume   98.33739827
_cell_formula_units_Z   1
loop_
 _symmetry_equiv_pos_site_id
 _symmetry_equiv_pos_as_xyz
  1  'x, y, z'
loop_
 _atom_site_type_symbol
 _atom_site_label
 _atom_site_symmetry_multiplicity
 _atom_site_fract_x
 _atom_site_fract_y
 _atom_site_fract_z
 _atom_site_occupancy
  O  O0  1  0.25000000  0.75000000  0.50000000  1
  O  O1  1  0.75000000  0.25000000  0.50000000  1
  Te  Te2  1  0.00000000  0.00000000  0.00000000  1
  Tb  Tb3  1  0.66227582  0.66227582  0.32455165  1
  Tb  Tb4  1  0.33772418  0.33772418  0.67544835  1
