# generated using pymatgen
data_Yb2Ge
_symmetry_space_group_name_H-M   'P 1'
_cell_length_a   4.81772991
_cell_length_b   7.46135020
_cell_length_c   8.95410824
_cell_angle_alpha   90.00000000
_cell_angle_beta   90.00000000
_cell_angle_gamma   90.00000000
_symmetry_Int_Tables_number   1
_chemical_formula_structural   Yb2Ge
_chemical_formula_sum   'Yb8 Ge4'
_cell_volume   321.87126970
_cell_formula_units_Z   4
loop_
 _symmetry_equiv_pos_site_id
 _symmetry_equiv_pos_as_xyz
  1  'x, y, z'
loop_
 _atom_site_type_symbol
 _atom_site_label
 _atom_site_symmetry_multiplicity
 _atom_site_fract_x
 _atom_site_fract_y
 _atom_site_fract_z
 _atom_site_occupancy
  Ge  Ge0  1  0.25000000  0.75138808  0.10330345  1
  Ge  Ge1  1  0.75000000  0.24861192  0.89669655  1
  Ge  Ge2  1  0.25000000  0.25138808  0.39669655  1
  Ge  Ge3  1  0.75000000  0.74861192  0.60330345  1
  Yb  Yb4  1  0.75000000  0.84351591  0.92399708  1
  Yb  Yb5  1  0.25000000  0.15648409  0.07600292  1
  Yb  Yb6  1  0.75000000  0.34351591  0.57600292  1
  Yb  Yb7  1  0.25000000  0.65648409  0.42399708  1
  Yb  Yb8  1  0.25000000  0.51937278  0.81906313  1
  Yb  Yb9  1  0.75000000  0.48062722  0.18093687  1
  Yb  Yb10  1  0.25000000  0.01937278  0.68093687  1
  Yb  Yb11  1  0.75000000  0.98062722  0.31906313  1
