# generated using pymatgen
data_Zn13Fe
_symmetry_space_group_name_H-M   'P 1'
_cell_length_a   5.06607638
_cell_length_b   6.61718799
_cell_length_c   6.61718798
_cell_angle_alpha   70.62850425
_cell_angle_beta   81.22330761
_cell_angle_gamma   81.22330760
_symmetry_Int_Tables_number   1
_chemical_formula_structural   Zn13Fe
_chemical_formula_sum   'Zn13 Fe1'
_cell_volume   205.57972755
_cell_formula_units_Z   1
loop_
 _symmetry_equiv_pos_site_id
 _symmetry_equiv_pos_as_xyz
  1  'x, y, z'
loop_
 _atom_site_type_symbol
 _atom_site_label
 _atom_site_symmetry_multiplicity
 _atom_site_fract_x
 _atom_site_fract_y
 _atom_site_fract_z
 _atom_site_occupancy
  Fe  Fe0  1  0.50000000  0.00000000  0.00000000  1
  Zn  Zn1  1  0.00000000  0.00000000  0.00000000  1
  Zn  Zn2  1  0.93786487  0.38542495  0.38542495  1
  Zn  Zn3  1  0.06213513  0.61457505  0.61457505  1
  Zn  Zn4  1  0.37554587  0.77725251  0.77725251  1
  Zn  Zn5  1  0.62445413  0.22274749  0.22274749  1
  Zn  Zn6  1  0.31399763  0.63493312  0.21351497  1
  Zn  Zn7  1  0.68600237  0.78648503  0.36506688  1
  Zn  Zn8  1  0.68600237  0.36506688  0.78648503  1
  Zn  Zn9  1  0.31399763  0.21351497  0.63493312  1
  Zn  Zn10  1  0.79963027  0.64399682  0.00476069  1
  Zn  Zn11  1  0.20036973  0.99523931  0.35600318  1
  Zn  Zn12  1  0.20036973  0.35600318  0.99523931  1
  Zn  Zn13  1  0.79963027  0.00476069  0.64399682  1
