# generated using pymatgen
data_Li10Sn(PO6)2
_symmetry_space_group_name_H-M   'P 1'
_cell_length_a   7.51185995
_cell_length_b   6.83684735
_cell_length_c   10.99537758
_cell_angle_alpha   89.72348409
_cell_angle_beta   90.08733562
_cell_angle_gamma   89.35088054
_symmetry_Int_Tables_number   1
_chemical_formula_structural   Li10Sn(PO6)2
_chemical_formula_sum   'Li20 Sn2 P4 O24'
_cell_volume   564.65092263
_cell_formula_units_Z   2
loop_
 _symmetry_equiv_pos_site_id
 _symmetry_equiv_pos_as_xyz
  1  'x, y, z'
loop_
 _atom_site_type_symbol
 _atom_site_label
 _atom_site_symmetry_multiplicity
 _atom_site_fract_x
 _atom_site_fract_y
 _atom_site_fract_z
 _atom_site_occupancy
  Li  Li0  1  0.93729981  0.54013755  0.90426565  1
  Li  Li1  1  0.92224403  0.55597722  0.43018256  1
  Li  Li2  1  0.57234210  0.95120184  0.54227593  1
  Li  Li3  1  0.45294038  0.98128846  0.06351410  1
  Li  Li4  1  0.35470123  0.30059723  0.19570520  1
  Li  Li5  1  0.60902408  0.65863949  0.25424887  1
  Li  Li6  1  0.08244235  0.95484140  0.76857511  1
  Li  Li7  1  0.21889613  0.76272182  0.30435604  1
  Li  Li8  1  0.76897361  0.22196688  0.34848149  1
  Li  Li9  1  0.48372065  0.49265753  0.75884230  1
  Li  Li10  1  0.21888657  0.30887720  0.39070852  1
  Li  Li11  1  0.80770348  0.23749576  0.89671679  1
  Li  Li12  1  0.21002319  0.73847326  0.97933215  1
  Li  Li13  1  0.75644820  0.12214938  0.09777473  1
  Li  Li14  1  0.77144652  0.73268776  0.65660812  1
  Li  Li15  1  0.17080687  0.24447471  0.93231594  1
  Li  Li16  1  0.74701100  0.76505068  0.99668857  1
  Li  Li17  1  0.29797173  0.74066946  0.56551850  1
  Li  Li18  1  0.75002265  0.24299841  0.63122317  1
  Li  Li19  1  0.31786026  0.23125357  0.60452694  1
  Sn  Sn20  1  0.98081987  0.48058414  0.16158630  1
  Sn  Sn21  1  0.49441248  0.98416182  0.80299552  1
  P  P22  1  0.01187097  0.98983444  0.50348089  1
  P  P23  1  0.51416112  0.48829286  0.99950732  1
  P  P24  1  0.02392960  0.48717055  0.68529447  1
  P  P25  1  0.48186253  0.00168322  0.32076610  1
  O  O26  1  0.00762529  0.17152132  0.41881458  1
  O  O27  1  0.04735488  0.79825613  0.43366254  1
  O  O28  1  0.33506911  0.48525484  0.92798871  1
  O  O29  1  0.66987076  0.49847087  0.90462292  1
  O  O30  1  0.52233668  0.67844785  0.07838811  1
  O  O31  1  0.53344421  0.30320474  0.08054496  1
  O  O32  1  0.16467903  0.00783227  0.60025364  1
  O  O33  1  0.82715541  0.98245806  0.57112108  1
  O  O34  1  0.96285950  0.26474215  0.04220011  1
  O  O35  1  0.98002683  0.70068087  0.04424685  1
  O  O36  1  0.20251432  0.47757151  0.61488965  1
  O  O37  1  0.86227351  0.48232131  0.59493791  1
  O  O38  1  0.45966910  0.80866191  0.39634764  1
  O  O39  1  0.47455537  0.17992000  0.40986276  1
  O  O40  1  0.27186632  0.98258094  0.90027814  1
  O  O41  1  0.68355628  0.00101132  0.92783332  1
  O  O42  1  0.00282096  0.68239250  0.75685254  1
  O  O43  1  0.00227904  0.31508395  0.77901197  1
  O  O44  1  0.79348532  0.48106533  0.28789659  1
  O  O45  1  0.20361144  0.48882456  0.26013233  1
  O  O46  1  0.52344278  0.21883971  0.69790213  1
  O  O47  1  0.51581198  0.76979499  0.68032296  1
  O  O48  1  0.66462699  0.99533627  0.25398124  1
  O  O49  1  0.32864245  0.01694197  0.22561405  1
