# generated using pymatgen
data_K2Hg3(GeSe4)2
_symmetry_space_group_name_H-M   'P 1'
_cell_length_a   6.84304910
_cell_length_b   6.84304910
_cell_length_c   20.46749228
_cell_angle_alpha   90.00000000
_cell_angle_beta   90.00000000
_cell_angle_gamma   97.00362349
_symmetry_Int_Tables_number   1
_chemical_formula_structural   K2Hg3(GeSe4)2
_chemical_formula_sum   'K4 Hg6 Ge4 Se16'
_cell_volume   951.28639159
_cell_formula_units_Z   2
loop_
 _symmetry_equiv_pos_site_id
 _symmetry_equiv_pos_as_xyz
  1  'x, y, z'
loop_
 _atom_site_type_symbol
 _atom_site_label
 _atom_site_symmetry_multiplicity
 _atom_site_fract_x
 _atom_site_fract_y
 _atom_site_fract_z
 _atom_site_occupancy
  K  K0  1  0.11761348  0.52755677  0.61788115  1
  K  K1  1  0.52755677  0.11761348  0.38211885  1
  K  K2  1  0.61761348  0.02755677  0.88211885  1
  K  K3  1  0.02755677  0.61761348  0.11788115  1
  Ge  Ge4  1  0.10385221  0.52588422  0.86443438  1
  Ge  Ge5  1  0.52588422  0.10385221  0.13556562  1
  Ge  Ge6  1  0.02588422  0.60385221  0.36443438  1
  Ge  Ge7  1  0.60385221  0.02588422  0.63556562  1
  Se  Se8  1  0.69584852  0.22835803  0.03689830  1
  Se  Se9  1  0.22835803  0.69584852  0.96310170  1
  Se  Se10  1  0.17019850  0.75592401  0.27034105  1
  Se  Se11  1  0.75592401  0.17019850  0.72965895  1
  Se  Se12  1  0.67019850  0.25592401  0.22965895  1
  Se  Se13  1  0.25592401  0.67019850  0.77034105  1
  Se  Se14  1  0.57169479  0.76108247  0.13174955  1
  Se  Se15  1  0.76108247  0.57169479  0.86825045  1
  Se  Se16  1  0.07169479  0.26108247  0.36825045  1
  Se  Se17  1  0.26108247  0.07169479  0.63174955  1
  Se  Se18  1  0.68527578  0.64966672  0.37658830  1
  Se  Se19  1  0.64966672  0.68527578  0.62341170  1
  Se  Se20  1  0.18527578  0.14966672  0.12341170  1
  Se  Se21  1  0.14966672  0.18527578  0.87658830  1
  Se  Se22  1  0.19584852  0.72835803  0.46310170  1
  Se  Se23  1  0.72835803  0.19584852  0.53689830  1
  Hg  Hg24  1  0.16748017  0.07506001  0.75532354  1
  Hg  Hg25  1  0.07506001  0.16748017  0.24467646  1
  Hg  Hg26  1  0.66748017  0.57506001  0.74467646  1
  Hg  Hg27  1  0.57506001  0.66748017  0.25532354  1
  Hg  Hg28  1  0.45997432  0.45997432  0.00000000  1
  Hg  Hg29  1  0.95997432  0.95997432  0.50000000  1
