# generated using pymatgen
data_SrSi2
_symmetry_space_group_name_H-M   'P 1'
_cell_length_a   4.45776150
_cell_length_b   4.45776150
_cell_length_c   7.61851954
_cell_angle_alpha   107.01133427
_cell_angle_beta   107.01133426
_cell_angle_gamma   90.00000005
_symmetry_Int_Tables_number   1
_chemical_formula_structural   SrSi2
_chemical_formula_sum   'Sr2 Si4'
_cell_volume   137.82670591
_cell_formula_units_Z   2
loop_
 _symmetry_equiv_pos_site_id
 _symmetry_equiv_pos_as_xyz
  1  'x, y, z'
loop_
 _atom_site_type_symbol
 _atom_site_label
 _atom_site_symmetry_multiplicity
 _atom_site_fract_x
 _atom_site_fract_y
 _atom_site_fract_z
 _atom_site_occupancy
  Si  Si0  1  0.20904667  0.45904667  0.91809335  1
  Si  Si1  1  0.95904667  0.70904667  0.41809335  1
  Si  Si2  1  0.04095333  0.29095333  0.58190665  1
  Si  Si3  1  0.79095333  0.54095333  0.08190665  1
  Sr  Sr4  1  0.62500000  0.87500000  0.75000000  1
  Sr  Sr5  1  0.37500000  0.12500000  0.25000000  1
