# generated using pymatgen
data_BaN6
_symmetry_space_group_name_H-M   'P 1'
_cell_length_a   4.44218281
_cell_length_b   5.52777312
_cell_length_c   9.80652461
_cell_angle_alpha   99.06300503
_cell_angle_beta   90.00000000
_cell_angle_gamma   90.00000000
_symmetry_Int_Tables_number   1
_chemical_formula_structural   BaN6
_chemical_formula_sum   'Ba2 N12'
_cell_volume   237.79667502
_cell_formula_units_Z   2
loop_
 _symmetry_equiv_pos_site_id
 _symmetry_equiv_pos_as_xyz
  1  'x, y, z'
loop_
 _atom_site_type_symbol
 _atom_site_label
 _atom_site_symmetry_multiplicity
 _atom_site_fract_x
 _atom_site_fract_y
 _atom_site_fract_z
 _atom_site_occupancy
  N  N0  1  0.75000000  0.29190976  0.66189280  1
  N  N1  1  0.25000000  0.70809024  0.33810720  1
  N  N2  1  0.25000000  0.14086242  0.90374700  1
  N  N3  1  0.75000000  0.85913758  0.09625300  1
  N  N4  1  0.25000000  0.35104807  0.88999668  1
  N  N5  1  0.75000000  0.64895193  0.11000332  1
  N  N6  1  0.25000000  0.55984361  0.87845760  1
  N  N7  1  0.75000000  0.44015639  0.12154240  1
  N  N8  1  0.25000000  0.77884727  0.58314920  1
  N  N9  1  0.75000000  0.22115273  0.41685080  1
  N  N10  1  0.25000000  0.74354886  0.46054392  1
  N  N11  1  0.75000000  0.25645114  0.53945608  1
  Ba  Ba12  1  0.75000000  0.82935531  0.78122810  1
  Ba  Ba13  1  0.25000000  0.17064469  0.21877190  1
