# generated using pymatgen
data_Nd5Ge4
_symmetry_space_group_name_H-M   'P 1'
_cell_length_a   7.95292715
_cell_length_b   8.04296994
_cell_length_c   15.23772484
_cell_angle_alpha   90.00000000
_cell_angle_beta   90.00000000
_cell_angle_gamma   90.00000000
_symmetry_Int_Tables_number   1
_chemical_formula_structural   Nd5Ge4
_chemical_formula_sum   'Nd20 Ge16'
_cell_volume   974.68341604
_cell_formula_units_Z   4
loop_
 _symmetry_equiv_pos_site_id
 _symmetry_equiv_pos_as_xyz
  1  'x, y, z'
loop_
 _atom_site_type_symbol
 _atom_site_label
 _atom_site_symmetry_multiplicity
 _atom_site_fract_x
 _atom_site_fract_y
 _atom_site_fract_z
 _atom_site_occupancy
  Ge  Ge0  1  0.77808375  0.53220436  0.45509828  1
  Ge  Ge1  1  0.27808375  0.96779564  0.04490172  1
  Ge  Ge2  1  0.72191625  0.03220436  0.54490172  1
  Ge  Ge3  1  0.22191625  0.46779564  0.95509828  1
  Ge  Ge4  1  0.22191625  0.46779564  0.54490172  1
  Ge  Ge5  1  0.72191625  0.03220436  0.95509828  1
  Ge  Ge6  1  0.27808375  0.96779564  0.45509828  1
  Ge  Ge7  1  0.77808375  0.53220436  0.04490172  1
  Ge  Ge8  1  0.91169408  0.88993487  0.25000000  1
  Ge  Ge9  1  0.41169408  0.61006513  0.25000000  1
  Ge  Ge10  1  0.58830592  0.38993487  0.75000000  1
  Ge  Ge11  1  0.08830592  0.11006513  0.75000000  1
  Ge  Ge12  1  0.17438102  0.36684692  0.25000000  1
  Ge  Ge13  1  0.67438102  0.13315308  0.25000000  1
  Ge  Ge14  1  0.32561898  0.86684692  0.75000000  1
  Ge  Ge15  1  0.82561898  0.63315308  0.75000000  1
  Nd  Nd16  1  0.37968812  0.16006286  0.88532290  1
  Nd  Nd17  1  0.87968812  0.33993714  0.61467710  1
  Nd  Nd18  1  0.12031188  0.66006286  0.11467710  1
  Nd  Nd19  1  0.62031188  0.83993714  0.38532290  1
  Nd  Nd20  1  0.37968812  0.16006286  0.61467710  1
  Nd  Nd21  1  0.87968812  0.33993714  0.88532290  1
  Nd  Nd22  1  0.12031188  0.66006286  0.38532290  1
  Nd  Nd23  1  0.62031188  0.83993714  0.11467710  1
  Nd  Nd24  1  0.02462223  0.82135373  0.60262872  1
  Nd  Nd25  1  0.52462223  0.67864627  0.89737128  1
  Nd  Nd26  1  0.47537777  0.32135373  0.39737128  1
  Nd  Nd27  1  0.97537777  0.17864627  0.10262872  1
  Nd  Nd28  1  0.97537777  0.17864627  0.39737128  1
  Nd  Nd29  1  0.47537777  0.32135373  0.10262872  1
  Nd  Nd30  1  0.52462223  0.67864627  0.60262872  1
  Nd  Nd31  1  0.02462223  0.82135373  0.89737128  1
  Nd  Nd32  1  0.28551977  0.99708597  0.25000000  1
  Nd  Nd33  1  0.78551977  0.50291403  0.25000000  1
  Nd  Nd34  1  0.21448023  0.49708597  0.75000000  1
  Nd  Nd35  1  0.71448023  0.00291403  0.75000000  1
