# generated using pymatgen
data_Ca5Ge3
_symmetry_space_group_name_H-M   'P 1'
_cell_length_a   7.73186722
_cell_length_b   7.73179814
_cell_length_c   9.23212812
_cell_angle_alpha   114.75701134
_cell_angle_beta   114.75627819
_cell_angle_gamma   90.00006824
_symmetry_Int_Tables_number   1
_chemical_formula_structural   Ca5Ge3
_chemical_formula_sum   'Ca10 Ge6'
_cell_volume   444.71297406
_cell_formula_units_Z   2
loop_
 _symmetry_equiv_pos_site_id
 _symmetry_equiv_pos_as_xyz
  1  'x, y, z'
loop_
 _atom_site_type_symbol
 _atom_site_label
 _atom_site_symmetry_multiplicity
 _atom_site_fract_x
 _atom_site_fract_y
 _atom_site_fract_z
 _atom_site_occupancy
  Ca  Ca0  1  0.00000000  0.00000000  0.00000000  1
  Ca  Ca1  1  0.50000000  0.50000000  0.00000000  1
  Ca  Ca2  1  0.31815508  0.81815994  0.27994752  1
  Ca  Ca3  1  0.46178831  0.31816420  0.27994597  1
  Ca  Ca4  1  0.81816213  0.96178840  0.27994661  1
  Ca  Ca5  1  0.53821169  0.68183580  0.72005403  1
  Ca  Ca6  1  0.18183787  0.03821160  0.72005339  1
  Ca  Ca7  1  0.03820712  0.53820563  0.72004755  1
  Ca  Ca8  1  0.68184492  0.18184006  0.72005248  1
  Ca  Ca9  1  0.96179288  0.46179437  0.27995245  1
  Ge  Ge10  1  0.24999869  0.24999990  0.49999989  1
  Ge  Ge11  1  0.75000131  0.75000010  0.50000011  1
  Ge  Ge12  1  0.38156642  0.88157215  0.00002835  1
  Ge  Ge13  1  0.11846189  0.38155001  0.00000587  1
  Ge  Ge14  1  0.88153811  0.61844999  0.99999413  1
  Ge  Ge15  1  0.61843358  0.11842785  0.99997165  1
