# generated using pymatgen
data_Mo5As4
_symmetry_space_group_name_H-M   'P 1'
_cell_length_a   3.30017196
_cell_length_b   7.04780573
_cell_length_c   7.04780573
_cell_angle_alpha   86.85771431
_cell_angle_beta   76.45979551
_cell_angle_gamma   76.45979545
_symmetry_Int_Tables_number   1
_chemical_formula_structural   Mo5As4
_chemical_formula_sum   'Mo5 As4'
_cell_volume   154.93905376
_cell_formula_units_Z   1
loop_
 _symmetry_equiv_pos_site_id
 _symmetry_equiv_pos_as_xyz
  1  'x, y, z'
loop_
 _atom_site_type_symbol
 _atom_site_label
 _atom_site_symmetry_multiplicity
 _atom_site_fract_x
 _atom_site_fract_y
 _atom_site_fract_z
 _atom_site_occupancy
  As  As0  1  0.94274567  0.77150101  0.34300765  1
  As  As1  1  0.28575332  0.65699235  0.77150101  1
  As  As2  1  0.71424668  0.34300765  0.22849899  1
  As  As3  1  0.05725433  0.22849899  0.65699235  1
  Mo  Mo4  1  0.70113463  0.91970396  0.67802677  1
  Mo  Mo5  1  0.37916141  0.32197323  0.91970396  1
  Mo  Mo6  1  0.62083859  0.67802677  0.08029604  1
  Mo  Mo7  1  0.29886537  0.08029604  0.32197323  1
  Mo  Mo8  1  0.00000000  0.00000000  0.00000000  1
