# generated using pymatgen
data_Mg5Ga2
_symmetry_space_group_name_H-M   'P 1'
_cell_length_a   6.02488204
_cell_length_b   7.02909623
_cell_length_c   8.27820712
_cell_angle_alpha   115.12143467
_cell_angle_beta   111.33991327
_cell_angle_gamma   89.99999996
_symmetry_Int_Tables_number   1
_chemical_formula_structural   Mg5Ga2
_chemical_formula_sum   'Mg10 Ga4'
_cell_volume   290.65071786
_cell_formula_units_Z   2
loop_
 _symmetry_equiv_pos_site_id
 _symmetry_equiv_pos_as_xyz
  1  'x, y, z'
loop_
 _atom_site_type_symbol
 _atom_site_label
 _atom_site_symmetry_multiplicity
 _atom_site_fract_x
 _atom_site_fract_y
 _atom_site_fract_z
 _atom_site_occupancy
  Mg  Mg0  1  0.41641621  0.57067256  0.83283242  1
  Mg  Mg1  1  0.58358379  0.42932744  0.16716758  1
  Mg  Mg2  1  0.08359710  0.73783239  0.16719420  1
  Mg  Mg3  1  0.91640290  0.26216761  0.83280580  1
  Mg  Mg4  1  0.75000079  0.00000000  0.00000000  1
  Mg  Mg5  1  0.24999921  0.00000000  0.00000000  1
  Mg  Mg6  1  0.51750385  0.76757266  0.53501259  1
  Mg  Mg7  1  0.98249126  0.23242734  0.46498741  1
  Mg  Mg8  1  0.48249615  0.23242734  0.46498741  1
  Mg  Mg9  1  0.01750874  0.76757266  0.53501259  1
  Ga  Ga10  1  0.37746556  0.14148630  0.75493112  1
  Ga  Ga11  1  0.62253444  0.85851370  0.24506888  1
  Ga  Ga12  1  0.12256156  0.38647633  0.24512311  1
  Ga  Ga13  1  0.87743844  0.61352367  0.75487689  1
