# generated using pymatgen
data_NaFe2H3(SO4)2
_symmetry_space_group_name_H-M   'P 1'
_cell_length_a   9.02765792
_cell_length_b   7.98847693
_cell_length_c   6.46511240
_cell_angle_alpha   112.31312148
_cell_angle_beta   110.28396559
_cell_angle_gamma   99.00922676
_symmetry_Int_Tables_number   1
_chemical_formula_structural   NaFe2H3(SO4)2
_chemical_formula_sum   'Na2 Fe4 H6 S4 O16'
_cell_volume   381.61789104
_cell_formula_units_Z   2
loop_
 _symmetry_equiv_pos_site_id
 _symmetry_equiv_pos_as_xyz
  1  'x, y, z'
loop_
 _atom_site_type_symbol
 _atom_site_label
 _atom_site_symmetry_multiplicity
 _atom_site_fract_x
 _atom_site_fract_y
 _atom_site_fract_z
 _atom_site_occupancy
  Na  Na0  1  0.09201360  0.82686410  0.43843289  1
  Na  Na1  1  0.90798640  0.17313590  0.56156711  1
  Fe  Fe2  1  0.50000000  0.00000000  0.00000000  1
  Fe  Fe3  1  0.50000000  0.00000000  0.50000000  1
  Fe  Fe4  1  0.80978127  0.82802253  0.81302679  1
  Fe  Fe5  1  0.19021873  0.17197747  0.18697321  1
  H  H6  1  0.49662586  0.71798489  0.60579301  1
  H  H7  1  0.50337414  0.28201511  0.39420699  1
  H  H8  1  0.72989159  0.44653300  0.70011397  1
  H  H9  1  0.27010841  0.55346700  0.29988603  1
  H  H10  1  0.72824765  0.44040620  0.44786325  1
  H  H11  1  0.27175235  0.55959380  0.55213675  1
  S  S12  1  0.15737361  0.69879433  0.93801952  1
  S  S13  1  0.84262639  0.30120567  0.06198048  1
  S  S14  1  0.29553983  0.24900439  0.75157581  1
  S  S15  1  0.70446017  0.75099561  0.24842419  1
  O  O16  1  0.27228847  0.74101570  0.82055948  1
  O  O17  1  0.72771153  0.25898430  0.17944052  1
  O  O18  1  0.72810759  0.24767327  0.78701218  1
  O  O19  1  0.27189241  0.75232673  0.21298782  1
  O  O20  1  0.07186219  0.85563766  0.96376178  1
  O  O21  1  0.92813781  0.14436234  0.03623822  1
  O  O22  1  0.37036177  0.07799283  0.72725713  1
  O  O23  1  0.62963823  0.92200717  0.27274287  1
  O  O24  1  0.85090661  0.83847595  0.51342871  1
  O  O25  1  0.14909339  0.16152405  0.48657129  1
  O  O26  1  0.79744645  0.75524109  0.09364642  1
  O  O27  1  0.20255355  0.24475891  0.90635358  1
  O  O28  1  0.57088438  0.85193221  0.70484658  1
  O  O29  1  0.42911562  0.14806779  0.29515342  1
  O  O30  1  0.70749139  0.51048036  0.59318351  1
  O  O31  1  0.29250861  0.48951964  0.40681649  1
