# generated using pymatgen
data_MoP2
_symmetry_space_group_name_H-M   'P 1'
_cell_length_a   3.15860516
_cell_length_b   5.01065940
_cell_length_c   5.84205078
_cell_angle_alpha   90.00000000
_cell_angle_beta   105.68411857
_cell_angle_gamma   90.00000000
_symmetry_Int_Tables_number   1
_chemical_formula_structural   MoP2
_chemical_formula_sum   'Mo2 P4'
_cell_volume   89.01775089
_cell_formula_units_Z   2
loop_
 _symmetry_equiv_pos_site_id
 _symmetry_equiv_pos_as_xyz
  1  'x, y, z'
loop_
 _atom_site_type_symbol
 _atom_site_label
 _atom_site_symmetry_multiplicity
 _atom_site_fract_x
 _atom_site_fract_y
 _atom_site_fract_z
 _atom_site_occupancy
  P  P0  1  0.43045722  0.61950615  0.86091443  1
  P  P1  1  0.56954278  0.11950615  0.13908557  1
  P  P2  1  0.70185086  0.80388478  0.40370173  1
  P  P3  1  0.29814914  0.30388478  0.59629827  1
  Mo  Mo4  1  0.09373544  0.50160906  0.18747089  1
  Mo  Mo5  1  0.90626456  0.00160906  0.81252911  1
