# generated using pymatgen
data_CaAs3
_symmetry_space_group_name_H-M   'P 1'
_cell_length_a   5.88128499
_cell_length_b   5.92679054
_cell_length_c   5.99021591
_cell_angle_alpha   80.09653321
_cell_angle_beta   70.65490115
_cell_angle_gamma   75.48362192
_symmetry_Int_Tables_number   1
_chemical_formula_structural   CaAs3
_chemical_formula_sum   'Ca2 As6'
_cell_volume   189.81691507
_cell_formula_units_Z   2
loop_
 _symmetry_equiv_pos_site_id
 _symmetry_equiv_pos_as_xyz
  1  'x, y, z'
loop_
 _atom_site_type_symbol
 _atom_site_label
 _atom_site_symmetry_multiplicity
 _atom_site_fract_x
 _atom_site_fract_y
 _atom_site_fract_z
 _atom_site_occupancy
  Ca  Ca0  1  0.66064540  0.68387801  0.63213426  1
  Ca  Ca1  1  0.33935460  0.31612199  0.36786574  1
  As  As2  1  0.77911678  0.01194331  0.01584533  1
  As  As3  1  0.22088322  0.98805669  0.98415467  1
  As  As4  1  0.18967079  0.85507342  0.40825552  1
  As  As5  1  0.81032921  0.14492658  0.59174448  1
  As  As6  1  0.77909850  0.58915743  0.09940997  1
  As  As7  1  0.22090150  0.41084257  0.90059003  1
