# generated using pymatgen
data_Dy4Sb3
_symmetry_space_group_name_H-M   'P 1'
_cell_length_a   7.96572510
_cell_length_b   7.96572510
_cell_length_c   7.96572510
_cell_angle_alpha   109.47122062
_cell_angle_beta   109.47122063
_cell_angle_gamma   109.47122067
_symmetry_Int_Tables_number   1
_chemical_formula_structural   Dy4Sb3
_chemical_formula_sum   'Dy8 Sb6'
_cell_volume   389.09356967
_cell_formula_units_Z   2
loop_
 _symmetry_equiv_pos_site_id
 _symmetry_equiv_pos_as_xyz
  1  'x, y, z'
loop_
 _atom_site_type_symbol
 _atom_site_label
 _atom_site_symmetry_multiplicity
 _atom_site_fract_x
 _atom_site_fract_y
 _atom_site_fract_z
 _atom_site_occupancy
  Sb  Sb0  1  0.25000000  0.62500000  0.37500000  1
  Sb  Sb1  1  0.37500000  0.25000000  0.62500000  1
  Sb  Sb2  1  0.12500000  0.75000000  0.87500000  1
  Sb  Sb3  1  0.87500000  0.12500000  0.75000000  1
  Sb  Sb4  1  0.62500000  0.37500000  0.25000000  1
  Sb  Sb5  1  0.75000000  0.87500000  0.12500000  1
  Dy  Dy6  1  0.14448385  0.14448385  0.14448385  1
  Dy  Dy7  1  0.85551615  0.50000000  0.00000000  1
  Dy  Dy8  1  0.00000000  0.85551615  0.50000000  1
  Dy  Dy9  1  0.50000000  0.00000000  0.85551615  1
  Dy  Dy10  1  0.00000000  0.35551615  0.50000000  1
  Dy  Dy11  1  0.50000000  0.00000000  0.35551615  1
  Dy  Dy12  1  0.35551615  0.50000000  0.00000000  1
  Dy  Dy13  1  0.64448385  0.64448385  0.64448385  1
