# generated using pymatgen
data_Na3CrH14(C3O8)2
_symmetry_space_group_name_H-M   'P 1'
_cell_length_a   6.50876026
_cell_length_b   7.75789062
_cell_length_c   8.83398415
_cell_angle_alpha   101.36096191
_cell_angle_beta   97.57226576
_cell_angle_gamma   79.28539021
_symmetry_Int_Tables_number   1
_chemical_formula_structural   Na3CrH14(C3O8)2
_chemical_formula_sum   'Na3 Cr1 H14 C6 O16'
_cell_volume   427.59905523
_cell_formula_units_Z   1
loop_
 _symmetry_equiv_pos_site_id
 _symmetry_equiv_pos_as_xyz
  1  'x, y, z'
loop_
 _atom_site_type_symbol
 _atom_site_label
 _atom_site_symmetry_multiplicity
 _atom_site_fract_x
 _atom_site_fract_y
 _atom_site_fract_z
 _atom_site_occupancy
  Na  Na0  1  0.00000000  0.50000000  0.50000000  1
  Na  Na1  1  0.70933715  0.44660247  0.12572603  1
  Na  Na2  1  0.29066285  0.55339753  0.87427397  1
  Cr  Cr3  1  0.00000000  0.00000000  0.00000000  1
  H  H4  1  0.94955664  0.74210743  0.25765068  1
  H  H5  1  0.05044336  0.25789257  0.74234932  1
  H  H6  1  0.10763126  0.56180655  0.21930439  1
  H  H7  1  0.89236874  0.43819345  0.78069561  1
  H  H8  1  0.56868725  0.65256746  0.57658494  1
  H  H9  1  0.43131275  0.34743254  0.42341506  1
  H  H10  1  0.62088354  0.72541989  0.43558534  1
  H  H11  1  0.37911646  0.27458011  0.56441466  1
  H  H12  1  0.59835852  0.84615141  0.95003640  1
  H  H13  1  0.40164148  0.15384859  0.04996360  1
  H  H14  1  0.69405157  0.03028341  0.70817261  1
  H  H15  1  0.30594843  0.96971659  0.29182739  1
  H  H16  1  0.79699846  0.04816110  0.41572643  1
  H  H17  1  0.20300154  0.95183890  0.58427357  1
  C  C18  1  0.72339288  0.73182924  0.91882114  1
  C  C19  1  0.27660712  0.26817076  0.08117886  1
  C  C20  1  0.63265121  0.14362003  0.79670687  1
  C  C21  1  0.36734879  0.85637997  0.20329313  1
  C  C22  1  0.81963121  0.10742976  0.31574933  1
  C  C23  1  0.18036879  0.89257024  0.68425067  1
  O  O24  1  0.90825874  0.76470131  0.91487569  1
  O  O25  1  0.09174126  0.23529869  0.08512431  1
  O  O26  1  0.67792881  0.57680549  0.88851302  1
  O  O27  1  0.32207119  0.42319451  0.11148698  1
  O  O28  1  0.72703081  0.15167798  0.93585995  1
  O  O29  1  0.27296919  0.84832202  0.06414005  1
  O  O30  1  0.47714870  0.25418714  0.76047506  1
  O  O31  1  0.52285130  0.74581286  0.23952494  1
  O  O32  1  0.89815014  0.98934894  0.20452783  1
  O  O33  1  0.10184986  0.01065106  0.79547217  1
  O  O34  1  0.76825209  0.27174928  0.32140185  1
  O  O35  1  0.23174791  0.72825072  0.67859815  1
  O  O36  1  0.98005630  0.61692991  0.27192128  1
  O  O37  1  0.01994370  0.38307009  0.72807872  1
  O  O38  1  0.68011266  0.69625780  0.53877206  1
  O  O39  1  0.31988734  0.30374220  0.46122794  1
