# generated using pymatgen
data_Ni5P4
_symmetry_space_group_name_H-M   'P 1'
_cell_length_a   6.77860358
_cell_length_b   6.77860358
_cell_length_c   10.97781270
_cell_angle_alpha   90.00000000
_cell_angle_beta   90.00000000
_cell_angle_gamma   120.00000001
_symmetry_Int_Tables_number   1
_chemical_formula_structural   Ni5P4
_chemical_formula_sum   'Ni20 P16'
_cell_volume   436.84454962
_cell_formula_units_Z   4
loop_
 _symmetry_equiv_pos_site_id
 _symmetry_equiv_pos_as_xyz
  1  'x, y, z'
loop_
 _atom_site_type_symbol
 _atom_site_label
 _atom_site_symmetry_multiplicity
 _atom_site_fract_x
 _atom_site_fract_y
 _atom_site_fract_z
 _atom_site_occupancy
  P  P0  1  0.66666667  0.33333333  0.55894024  1
  P  P1  1  0.33333333  0.66666667  0.05894024  1
  P  P2  1  0.00000000  0.00000000  0.50019105  1
  P  P3  1  0.00000000  0.00000000  0.00019105  1
  P  P4  1  0.82100758  0.17899242  0.94227137  1
  P  P5  1  0.64201516  0.82100758  0.44227137  1
  P  P6  1  0.17899242  0.35798484  0.44227137  1
  P  P7  1  0.82100758  0.64201516  0.94227137  1
  P  P8  1  0.35798484  0.17899242  0.94227137  1
  P  P9  1  0.17899242  0.82100758  0.44227137  1
  P  P10  1  0.18191229  0.81808771  0.73155588  1
  P  P11  1  0.36382459  0.18191229  0.23155588  1
  P  P12  1  0.81808771  0.63617541  0.23155588  1
  P  P13  1  0.18191229  0.36382459  0.73155588  1
  P  P14  1  0.63617541  0.81808771  0.73155588  1
  P  P15  1  0.81808771  0.18191229  0.23155588  1
  Ni  Ni16  1  0.91903050  0.45951525  0.37982984  1
  Ni  Ni17  1  0.45951525  0.54048475  0.87982984  1
  Ni  Ni18  1  0.00000000  0.00000000  0.19946407  1
  Ni  Ni19  1  0.00000000  0.00000000  0.69946407  1
  Ni  Ni20  1  0.54048475  0.08096950  0.37982984  1
  Ni  Ni21  1  0.45951525  0.91903050  0.87982984  1
  Ni  Ni22  1  0.08096950  0.54048475  0.87982984  1
  Ni  Ni23  1  0.54048475  0.45951525  0.37982984  1
  Ni  Ni24  1  0.79296718  0.20703282  0.73765370  1
  Ni  Ni25  1  0.58593435  0.79296718  0.23765370  1
  Ni  Ni26  1  0.20703282  0.41406565  0.23765370  1
  Ni  Ni27  1  0.79296718  0.58593435  0.73765370  1
  Ni  Ni28  1  0.41406565  0.20703282  0.73765370  1
  Ni  Ni29  1  0.20703282  0.79296718  0.23765370  1
  Ni  Ni30  1  0.46293437  0.53706563  0.58904742  1
  Ni  Ni31  1  0.92586875  0.46293437  0.08904742  1
  Ni  Ni32  1  0.53706563  0.07413125  0.08904742  1
  Ni  Ni33  1  0.46293437  0.92586875  0.58904742  1
  Ni  Ni34  1  0.07413125  0.53706563  0.58904742  1
  Ni  Ni35  1  0.53706563  0.46293437  0.08904742  1
