# generated using pymatgen
data_NiH10C2(N2O3)2
_symmetry_space_group_name_H-M   'P 1'
_cell_length_a   6.79805342
_cell_length_b   6.79805342
_cell_length_c   10.46150179
_cell_angle_alpha   73.04685244
_cell_angle_beta   106.95314756
_cell_angle_gamma   118.07019359
_symmetry_Int_Tables_number   1
_chemical_formula_structural   NiH10C2(N2O3)2
_chemical_formula_sum   'Ni2 H20 C4 N8 O12'
_cell_volume   401.17170223
_cell_formula_units_Z   2
loop_
 _symmetry_equiv_pos_site_id
 _symmetry_equiv_pos_as_xyz
  1  'x, y, z'
loop_
 _atom_site_type_symbol
 _atom_site_label
 _atom_site_symmetry_multiplicity
 _atom_site_fract_x
 _atom_site_fract_y
 _atom_site_fract_z
 _atom_site_occupancy
  Ni  Ni0  1  0.00000000  0.00000000  0.00000000  1
  Ni  Ni1  1  0.00000000  0.00000000  0.50000000  1
  H  H2  1  0.51519327  0.14996746  0.78463617  1
  H  H3  1  0.14996746  0.51519327  0.71536383  1
  H  H4  1  0.48480673  0.85003254  0.21536383  1
  H  H5  1  0.85003254  0.48480673  0.28463617  1
  H  H6  1  0.59942802  0.82794064  0.84596611  1
  H  H7  1  0.82794064  0.59942802  0.65403389  1
  H  H8  1  0.40057198  0.17205936  0.15403389  1
  H  H9  1  0.17205936  0.40057198  0.34596611  1
  H  H10  1  0.77212629  0.03205139  0.74245697  1
  H  H11  1  0.03205139  0.77212629  0.75754303  1
  H  H12  1  0.22787371  0.96794861  0.25754303  1
  H  H13  1  0.96794861  0.22787371  0.24245697  1
  H  H14  1  0.75154629  0.55664113  0.06271046  1
  H  H15  1  0.55664113  0.75154629  0.43728954  1
  H  H16  1  0.24845371  0.44335887  0.93728954  1
  H  H17  1  0.44335887  0.24845371  0.56271046  1
  H  H18  1  0.63694664  0.68618433  0.09500642  1
  H  H19  1  0.68618433  0.63694664  0.40499358  1
  H  H20  1  0.36305336  0.31381567  0.90499358  1
  H  H21  1  0.31381567  0.36305336  0.59500642  1
  C  C22  1  0.72678673  0.22205677  0.96832395  1
  C  C23  1  0.22205677  0.72678673  0.53167605  1
  C  C24  1  0.27321327  0.77794323  0.03167605  1
  C  C25  1  0.77794323  0.27321327  0.46832395  1
  N  N26  1  0.65865616  0.14288371  0.84916805  1
  N  N27  1  0.14288371  0.65865616  0.65083195  1
  N  N28  1  0.34134384  0.85711629  0.15083195  1
  N  N29  1  0.85711629  0.34134384  0.34916805  1
  N  N30  1  0.73132692  0.98612931  0.83785030  1
  N  N31  1  0.98612931  0.73132692  0.66214970  1
  N  N32  1  0.26867308  0.01387069  0.16214970  1
  N  N33  1  0.01387069  0.26867308  0.33785030  1
  O  O34  1  0.88161599  0.17920158  0.05924445  1
  O  O35  1  0.17920158  0.88161599  0.44075555  1
  O  O36  1  0.11838401  0.82079842  0.94075555  1
  O  O37  1  0.82079842  0.11838401  0.55924445  1
  O  O38  1  0.63082444  0.33770104  0.97933617  1
  O  O39  1  0.33770104  0.63082444  0.52066383  1
  O  O40  1  0.36917556  0.66229896  0.02066383  1
  O  O41  1  0.66229896  0.36917556  0.47933617  1
  O  O42  1  0.78711520  0.68121444  0.11056267  1
  O  O43  1  0.68121444  0.78711520  0.38943733  1
  O  O44  1  0.21288480  0.31878556  0.88943733  1
  O  O45  1  0.31878556  0.21288480  0.61056267  1
