# generated using pymatgen
data_TaTe2
_symmetry_space_group_name_H-M   'P 1'
_cell_length_a   9.49552355
_cell_length_b   9.49552355
_cell_length_c   9.66882398
_cell_angle_alpha   71.47478312
_cell_angle_beta   71.47478309
_cell_angle_gamma   70.45364499
_symmetry_Int_Tables_number   1
_chemical_formula_structural   TaTe2
_chemical_formula_sum   'Ta9 Te18'
_cell_volume   756.85990834
_cell_formula_units_Z   9
loop_
 _symmetry_equiv_pos_site_id
 _symmetry_equiv_pos_as_xyz
  1  'x, y, z'
loop_
 _atom_site_type_symbol
 _atom_site_label
 _atom_site_symmetry_multiplicity
 _atom_site_fract_x
 _atom_site_fract_y
 _atom_site_fract_z
 _atom_site_occupancy
  Te  Te0  1  0.95650831  0.62436603  0.61709481  1
  Te  Te1  1  0.37563397  0.04349169  0.38290519  1
  Te  Te2  1  0.04349169  0.37563397  0.38290519  1
  Te  Te3  1  0.62436603  0.95650831  0.61709481  1
  Te  Te4  1  0.70545316  0.70545316  0.38276155  1
  Te  Te5  1  0.29454684  0.29454684  0.61723845  1
  Te  Te6  1  0.01059654  0.68806124  0.01480123  1
  Te  Te7  1  0.31193876  0.98940346  0.98519877  1
  Te  Te8  1  0.98940346  0.31193876  0.98519877  1
  Te  Te9  1  0.00860498  0.00860498  0.69419806  1
  Te  Te10  1  0.99139502  0.99139502  0.30580194  1
  Te  Te11  1  0.33838830  0.68105915  0.69602008  1
  Te  Te12  1  0.31894085  0.66161170  0.30397992  1
  Te  Te13  1  0.66161170  0.31894085  0.30397992  1
  Te  Te14  1  0.68105915  0.33838830  0.69602008  1
  Te  Te15  1  0.36780985  0.36780985  0.01213362  1
  Te  Te16  1  0.63219015  0.63219015  0.98786638  1
  Te  Te17  1  0.68806124  0.01059654  0.01480123  1
  Ta  Ta18  1  0.02154373  0.69844200  0.28721954  1
  Ta  Ta19  1  0.30155800  0.97845627  0.71278046  1
  Ta  Ta20  1  0.97845627  0.30155800  0.71278046  1
  Ta  Ta21  1  0.69844200  0.02154373  0.28721954  1
  Ta  Ta22  1  0.63660641  0.63660641  0.71155274  1
  Ta  Ta23  1  0.36339359  0.36339359  0.28844726  1
  Ta  Ta24  1  0.69596654  0.30403346  0.00000000  1
  Ta  Ta25  1  0.30403346  0.69596654  0.00000000  1
  Ta  Ta26  1  0.00000000  0.00000000  0.00000000  1
