# generated using pymatgen
data_Ba2Sn
_symmetry_space_group_name_H-M   'P 1'
_cell_length_a   5.68653543
_cell_length_b   8.84096328
_cell_length_c   10.75002608
_cell_angle_alpha   90.00000000
_cell_angle_beta   90.00000000
_cell_angle_gamma   90.00000000
_symmetry_Int_Tables_number   1
_chemical_formula_structural   Ba2Sn
_chemical_formula_sum   'Ba8 Sn4'
_cell_volume   540.45165862
_cell_formula_units_Z   4
loop_
 _symmetry_equiv_pos_site_id
 _symmetry_equiv_pos_as_xyz
  1  'x, y, z'
loop_
 _atom_site_type_symbol
 _atom_site_label
 _atom_site_symmetry_multiplicity
 _atom_site_fract_x
 _atom_site_fract_y
 _atom_site_fract_z
 _atom_site_occupancy
  Sn  Sn0  1  0.75000000  0.75242459  0.60445886  1
  Sn  Sn1  1  0.25000000  0.24757541  0.39554114  1
  Sn  Sn2  1  0.75000000  0.25242459  0.89554114  1
  Sn  Sn3  1  0.25000000  0.74757541  0.10445886  1
  Ba  Ba4  1  0.75000000  0.84720696  0.92142502  1
  Ba  Ba5  1  0.25000000  0.15279304  0.07857498  1
  Ba  Ba6  1  0.75000000  0.34720696  0.57857498  1
  Ba  Ba7  1  0.25000000  0.65279304  0.42142502  1
  Ba  Ba8  1  0.75000000  0.97817120  0.32214170  1
  Ba  Ba9  1  0.25000000  0.02182880  0.67785830  1
  Ba  Ba10  1  0.75000000  0.47817120  0.17785830  1
  Ba  Ba11  1  0.25000000  0.52182880  0.82214170  1
