# generated using pymatgen
data_V3B2
_symmetry_space_group_name_H-M   'P 1'
_cell_length_a   3.01784298
_cell_length_b   5.73047418
_cell_length_c   5.73047418
_cell_angle_alpha   90.00000000
_cell_angle_beta   90.00000000
_cell_angle_gamma   90.00000000
_symmetry_Int_Tables_number   1
_chemical_formula_structural   V3B2
_chemical_formula_sum   'V6 B4'
_cell_volume   99.10093673
_cell_formula_units_Z   2
loop_
 _symmetry_equiv_pos_site_id
 _symmetry_equiv_pos_as_xyz
  1  'x, y, z'
loop_
 _atom_site_type_symbol
 _atom_site_label
 _atom_site_symmetry_multiplicity
 _atom_site_fract_x
 _atom_site_fract_y
 _atom_site_fract_z
 _atom_site_occupancy
  B  B0  1  0.00000000  0.61057856  0.11057856  1
  B  B1  1  0.00000000  0.88942144  0.61057856  1
  B  B2  1  0.00000000  0.11057856  0.38942144  1
  B  B3  1  0.00000000  0.38942144  0.88942144  1
  V  V4  1  0.00000000  0.00000000  0.00000000  1
  V  V5  1  0.00000000  0.50000000  0.50000000  1
  V  V6  1  0.50000000  0.82167826  0.32167826  1
  V  V7  1  0.50000000  0.67832174  0.82167826  1
  V  V8  1  0.50000000  0.32167826  0.17832174  1
  V  V9  1  0.50000000  0.17832174  0.67832174  1
