# generated using pymatgen
data_GeIr
_symmetry_space_group_name_H-M   'P 1'
_cell_length_a   3.57863745
_cell_length_b   5.62825475
_cell_length_c   6.37845379
_cell_angle_alpha   90.00000000
_cell_angle_beta   90.00000000
_cell_angle_gamma   90.00000000
_symmetry_Int_Tables_number   1
_chemical_formula_structural   GeIr
_chemical_formula_sum   'Ge4 Ir4'
_cell_volume   128.47152002
_cell_formula_units_Z   4
loop_
 _symmetry_equiv_pos_site_id
 _symmetry_equiv_pos_as_xyz
  1  'x, y, z'
loop_
 _atom_site_type_symbol
 _atom_site_label
 _atom_site_symmetry_multiplicity
 _atom_site_fract_x
 _atom_site_fract_y
 _atom_site_fract_z
 _atom_site_occupancy
  Ge  Ge0  1  0.75000000  0.80669618  0.42384248  1
  Ge  Ge1  1  0.25000000  0.19330382  0.57615752  1
  Ge  Ge2  1  0.75000000  0.30669618  0.07615752  1
  Ge  Ge3  1  0.25000000  0.69330382  0.92384248  1
  Ir  Ir4  1  0.75000000  0.99706617  0.79125809  1
  Ir  Ir5  1  0.25000000  0.00293383  0.20874191  1
  Ir  Ir6  1  0.75000000  0.49706617  0.70874191  1
  Ir  Ir7  1  0.25000000  0.50293383  0.29125809  1
