# generated using pymatgen
data_Si5Ir3
_symmetry_space_group_name_H-M   'P 1'
_cell_length_a   6.46965142
_cell_length_b   10.50465706
_cell_length_c   14.30463606
_cell_angle_alpha   90.00000000
_cell_angle_beta   90.00000000
_cell_angle_gamma   96.85281895
_symmetry_Int_Tables_number   1
_chemical_formula_structural   Si5Ir3
_chemical_formula_sum   'Si40 Ir24'
_cell_volume   965.21888311
_cell_formula_units_Z   8
loop_
 _symmetry_equiv_pos_site_id
 _symmetry_equiv_pos_as_xyz
  1  'x, y, z'
loop_
 _atom_site_type_symbol
 _atom_site_label
 _atom_site_symmetry_multiplicity
 _atom_site_fract_x
 _atom_site_fract_y
 _atom_site_fract_z
 _atom_site_occupancy
  Si  Si0  1  0.13906225  0.69236817  0.71990263  1
  Si  Si1  1  0.36093775  0.80763183  0.21990263  1
  Si  Si2  1  0.86093775  0.30763183  0.28009737  1
  Si  Si3  1  0.63906225  0.19236817  0.78009737  1
  Si  Si4  1  0.97309209  0.35612126  0.74888873  1
  Si  Si5  1  0.52690791  0.14387874  0.24888873  1
  Si  Si6  1  0.02690791  0.64387874  0.25111127  1
  Si  Si7  1  0.47309209  0.85612126  0.75111127  1
  Si  Si8  1  0.94776567  0.20505418  0.51199762  1
  Si  Si9  1  0.55223433  0.29494582  0.01199762  1
  Si  Si10  1  0.05223433  0.79494582  0.48800238  1
  Si  Si11  1  0.44776567  0.70505418  0.98800238  1
  Si  Si12  1  0.45647788  0.40911351  0.84991556  1
  Si  Si13  1  0.04352212  0.09088649  0.34991556  1
  Si  Si14  1  0.54352212  0.59088649  0.15008444  1
  Si  Si15  1  0.33658618  0.66462668  0.55692374  1
  Si  Si16  1  0.95647788  0.90911351  0.65008444  1
  Si  Si17  1  0.84312753  0.49059834  0.06333649  1
  Si  Si18  1  0.34312753  0.99059834  0.43666351  1
  Si  Si19  1  0.15687247  0.50940166  0.93666351  1
  Si  Si20  1  0.74849191  0.60876930  0.88715756  1
  Si  Si21  1  0.75150809  0.89123070  0.38715756  1
  Si  Si22  1  0.25150809  0.39123070  0.11284244  1
  Si  Si23  1  0.24849191  0.10876930  0.61284244  1
  Si  Si24  1  0.14063937  0.06736998  0.84159009  1
  Si  Si25  1  0.35936063  0.43263002  0.34159009  1
  Si  Si26  1  0.85936063  0.93263002  0.15840991  1
  Si  Si27  1  0.64063937  0.56736998  0.65840991  1
  Si  Si28  1  0.83258163  0.57651545  0.49005438  1
  Si  Si29  1  0.66741837  0.92348455  0.99005438  1
  Si  Si30  1  0.16741837  0.42348455  0.50994562  1
  Si  Si31  1  0.33258163  0.07651545  0.00994562  1
  Si  Si32  1  0.46335191  0.32765104  0.60945193  1
  Si  Si33  1  0.03664809  0.17234896  0.10945193  1
  Si  Si34  1  0.53664809  0.67234896  0.39054807  1
  Si  Si35  1  0.96335191  0.82765104  0.89054807  1
  Si  Si36  1  0.83658618  0.16462668  0.94307626  1
  Si  Si37  1  0.66341382  0.33537332  0.44307626  1
  Si  Si38  1  0.16341382  0.83537332  0.05692374  1
  Si  Si39  1  0.65687247  0.00940166  0.56333649  1
  Ir  Ir40  1  0.26016511  0.49339890  0.66451716  1
  Ir  Ir41  1  0.23983489  0.00660110  0.16451716  1
  Ir  Ir42  1  0.73983489  0.50660110  0.33548284  1
  Ir  Ir43  1  0.76016511  0.99339890  0.83548284  1
  Ir  Ir44  1  0.39688178  0.63328447  0.83343493  1
  Ir  Ir45  1  0.10311822  0.86671553  0.33343493  1
  Ir  Ir46  1  0.60311822  0.36671553  0.16656507  1
  Ir  Ir47  1  0.89688178  0.13328447  0.66656507  1
  Ir  Ir48  1  0.69109156  0.77279129  0.54342403  1
  Ir  Ir49  1  0.80890844  0.72720871  0.04342403  1
  Ir  Ir50  1  0.30890844  0.22720871  0.45657597  1
  Ir  Ir51  1  0.19109156  0.27279129  0.95657597  1
  Ir  Ir52  1  0.79259269  0.74399759  0.74763587  1
  Ir  Ir53  1  0.70740731  0.75600241  0.24763587  1
  Ir  Ir54  1  0.20740731  0.25600241  0.25236413  1
  Ir  Ir55  1  0.29259269  0.24399759  0.75236413  1
  Ir  Ir56  1  0.32961426  0.89661694  0.90639422  1
  Ir  Ir57  1  0.17038574  0.60338306  0.40639422  1
  Ir  Ir58  1  0.67038574  0.10338306  0.09360578  1
  Ir  Ir59  1  0.82961426  0.39661694  0.59360578  1
  Ir  Ir60  1  0.18366960  0.61118877  0.09820639  1
  Ir  Ir61  1  0.31633040  0.88881123  0.59820639  1
  Ir  Ir62  1  0.81633040  0.38881123  0.90179361  1
  Ir  Ir63  1  0.68366960  0.11118877  0.40179361  1
