# generated using pymatgen
data_Rb2Te3
_symmetry_space_group_name_H-M   'P 1'
_cell_length_a   4.72986590
_cell_length_b   10.92892745
_cell_length_c   16.27565713
_cell_angle_alpha   90.00000000
_cell_angle_beta   90.00000000
_cell_angle_gamma   90.00000000
_symmetry_Int_Tables_number   1
_chemical_formula_structural   Rb2Te3
_chemical_formula_sum   'Rb8 Te12'
_cell_volume   841.32714826
_cell_formula_units_Z   4
loop_
 _symmetry_equiv_pos_site_id
 _symmetry_equiv_pos_as_xyz
  1  'x, y, z'
loop_
 _atom_site_type_symbol
 _atom_site_label
 _atom_site_symmetry_multiplicity
 _atom_site_fract_x
 _atom_site_fract_y
 _atom_site_fract_z
 _atom_site_occupancy
  Rb  Rb0  1  0.72171966  0.96983099  0.62351863  1
  Rb  Rb1  1  0.22171966  0.03016901  0.87648137  1
  Rb  Rb2  1  0.27828034  0.46983099  0.37648137  1
  Rb  Rb3  1  0.77828034  0.53016901  0.12351863  1
  Rb  Rb4  1  0.27828034  0.03016901  0.37648137  1
  Rb  Rb5  1  0.77828034  0.96983099  0.12351863  1
  Rb  Rb6  1  0.72171966  0.53016901  0.62351863  1
  Rb  Rb7  1  0.22171966  0.46983099  0.87648137  1
  Te  Te8  1  0.20048061  0.75000000  0.51468226  1
  Te  Te9  1  0.70048061  0.25000000  0.98531774  1
  Te  Te10  1  0.79951939  0.25000000  0.48531774  1
  Te  Te11  1  0.29951939  0.75000000  0.01468226  1
  Te  Te12  1  0.28756647  0.75000000  0.74087044  1
  Te  Te13  1  0.78756647  0.25000000  0.75912956  1
  Te  Te14  1  0.71243353  0.25000000  0.25912956  1
  Te  Te15  1  0.21243353  0.75000000  0.24087044  1
  Te  Te16  1  0.67846753  0.75000000  0.87640651  1
  Te  Te17  1  0.17846753  0.25000000  0.62359349  1
  Te  Te18  1  0.32153247  0.25000000  0.12359349  1
  Te  Te19  1  0.82153247  0.75000000  0.37640651  1
