# generated using pymatgen
data_Er2Se3
_symmetry_space_group_name_H-M   'P 1'
_cell_length_a   7.04120363
_cell_length_b   7.04120362
_cell_length_c   12.84126136
_cell_angle_alpha   100.66993288
_cell_angle_beta   100.66993291
_cell_angle_gamma   108.94552056
_symmetry_Int_Tables_number   1
_chemical_formula_structural   Er2Se3
_chemical_formula_sum   'Er8 Se12'
_cell_volume   570.77766466
_cell_formula_units_Z   4
loop_
 _symmetry_equiv_pos_site_id
 _symmetry_equiv_pos_as_xyz
  1  'x, y, z'
loop_
 _atom_site_type_symbol
 _atom_site_label
 _atom_site_symmetry_multiplicity
 _atom_site_fract_x
 _atom_site_fract_y
 _atom_site_fract_z
 _atom_site_occupancy
  Se  Se0  1  0.53923849  0.28296283  0.08799916  1
  Se  Se1  1  0.19496367  0.95123933  0.41200084  1
  Se  Se2  1  0.71703717  0.46076151  0.41200084  1
  Se  Se3  1  0.04876067  0.80503633  0.08799916  1
  Se  Se4  1  0.46076151  0.71703717  0.91200084  1
  Se  Se5  1  0.80503633  0.04876067  0.58799916  1
  Se  Se6  1  0.28296283  0.53923849  0.58799916  1
  Se  Se7  1  0.95123933  0.19496367  0.91200084  1
  Se  Se8  1  0.88276773  0.63276773  0.75000000  1
  Se  Se9  1  0.36723227  0.11723227  0.75000000  1
  Se  Se10  1  0.11723227  0.36723227  0.25000000  1
  Se  Se11  1  0.63276773  0.88276773  0.25000000  1
  Er  Er12  1  0.12767169  0.37767169  0.75534338  1
  Er  Er13  1  0.62232831  0.87232831  0.74465662  1
  Er  Er14  1  0.87232831  0.62232831  0.24465662  1
  Er  Er15  1  0.37767169  0.12767169  0.25534338  1
  Er  Er16  1  0.79116485  0.04116485  0.08232970  1
  Er  Er17  1  0.95883515  0.20883515  0.41767030  1
  Er  Er18  1  0.20883515  0.95883515  0.91767030  1
  Er  Er19  1  0.04116485  0.79116485  0.58232970  1
