# generated using pymatgen
data_Li5CrS4
_symmetry_space_group_name_H-M   'P 1'
_cell_length_a   3.73584783
_cell_length_b   7.61171646
_cell_length_c   6.77141389
_cell_angle_alpha   63.40820670
_cell_angle_beta   90.00000000
_cell_angle_gamma   75.79445881
_symmetry_Int_Tables_number   1
_chemical_formula_structural   Li5CrS4
_chemical_formula_sum   'Li5 Cr1 S4'
_cell_volume   165.57404582
_cell_formula_units_Z   1
loop_
 _symmetry_equiv_pos_site_id
 _symmetry_equiv_pos_as_xyz
  1  'x, y, z'
loop_
 _atom_site_type_symbol
 _atom_site_label
 _atom_site_symmetry_multiplicity
 _atom_site_fract_x
 _atom_site_fract_y
 _atom_site_fract_z
 _atom_site_occupancy
  Li  Li0  1  0.17750421  0.64499157  0.96250347  1
  Li  Li1  1  0.17805707  0.64388687  0.39262432  1
  Li  Li2  1  0.82194293  0.35611313  0.60737568  1
  Li  Li3  1  0.82249579  0.35500843  0.03749653  1
  Li  Li4  1  0.50000000  0.00000000  0.50000000  1
  Cr  Cr5  1  0.50000000  0.00000000  0.00000000  1
  S  S6  1  0.00040901  0.99918198  0.24321660  1
  S  S7  1  0.69799614  0.60400672  0.19762604  1
  S  S8  1  0.30200386  0.39599328  0.80237396  1
  S  S9  1  0.99959099  0.00081802  0.75678340  1
