# generated using pymatgen
data_SrN6
_symmetry_space_group_name_H-M   'P 1'
_cell_length_a   6.18429495
_cell_length_b   6.59359021
_cell_length_c   6.79606141
_cell_angle_alpha   77.67985905
_cell_angle_beta   62.93563821
_cell_angle_gamma   62.03301960
_symmetry_Int_Tables_number   1
_chemical_formula_structural   SrN6
_chemical_formula_sum   'Sr2 N12'
_cell_volume   217.95624619
_cell_formula_units_Z   2
loop_
 _symmetry_equiv_pos_site_id
 _symmetry_equiv_pos_as_xyz
  1  'x, y, z'
loop_
 _atom_site_type_symbol
 _atom_site_label
 _atom_site_symmetry_multiplicity
 _atom_site_fract_x
 _atom_site_fract_y
 _atom_site_fract_z
 _atom_site_occupancy
  N  N0  1  0.83544458  0.37736967  0.50002849  1
  N  N1  1  0.21284273  0.12263033  -0.00002849  1
  N  N2  1  0.00100325  0.25000000  0.99799351  1
  N  N3  1  0.74899675  0.25000000  0.50200649  1
  N  N4  1  0.99899675  0.75000000  0.00200649  1
  N  N5  1  0.25100325  0.75000000  0.49799351  1
  N  N6  1  0.33547307  0.87736967  0.49997151  1
  N  N7  1  0.21281424  0.62263033  1.00002849  1
  N  N8  1  0.78715727  0.87736967  1.00002849  1
  N  N9  1  0.16455542  0.62263033  0.49997151  1
  N  N10  1  0.66452693  0.12263033  0.50002849  1
  N  N11  1  0.78718576  0.37736967  -0.00002849  1
  Sr  Sr12  1  0.62500000  0.75000000  0.75000000  1
  Sr  Sr13  1  0.37500000  0.25000000  0.25000000  1
