# generated using pymatgen
data_BaSb2
_symmetry_space_group_name_H-M   'P 1'
_cell_length_a   4.46957081
_cell_length_b   11.75878758
_cell_length_c   12.66201371
_cell_angle_alpha   100.06333133
_cell_angle_beta   90.00000000
_cell_angle_gamma   90.00000000
_symmetry_Int_Tables_number   1
_chemical_formula_structural   BaSb2
_chemical_formula_sum   'Ba6 Sb12'
_cell_volume   655.23590469
_cell_formula_units_Z   6
loop_
 _symmetry_equiv_pos_site_id
 _symmetry_equiv_pos_as_xyz
  1  'x, y, z'
loop_
 _atom_site_type_symbol
 _atom_site_label
 _atom_site_symmetry_multiplicity
 _atom_site_fract_x
 _atom_site_fract_y
 _atom_site_fract_z
 _atom_site_occupancy
  Sb  Sb0  1  0.25000000  0.05466236  0.45004376  1
  Sb  Sb1  1  0.75000000  0.94533764  0.54995624  1
  Sb  Sb2  1  0.25000000  0.07027816  0.05088354  1
  Sb  Sb3  1  0.75000000  0.92972184  0.94911646  1
  Sb  Sb4  1  0.25000000  0.40662480  0.77187929  1
  Sb  Sb5  1  0.75000000  0.59337520  0.22812071  1
  Sb  Sb6  1  0.75000000  0.25459784  0.27413314  1
  Sb  Sb7  1  0.25000000  0.74540216  0.72586686  1
  Sb  Sb8  1  0.75000000  0.60067971  0.63027325  1
  Sb  Sb9  1  0.25000000  0.39932029  0.36972675  1
  Sb  Sb10  1  0.75000000  0.29180651  0.86690776  1
  Sb  Sb11  1  0.25000000  0.70819349  0.13309224  1
  Ba  Ba12  1  0.25000000  0.05894559  0.76687020  1
  Ba  Ba13  1  0.75000000  0.94105441  0.23312980  1
  Ba  Ba14  1  0.25000000  0.71476512  0.43958113  1
  Ba  Ba15  1  0.75000000  0.28523488  0.56041887  1
  Ba  Ba16  1  0.25000000  0.37961680  0.08846621  1
  Ba  Ba17  1  0.75000000  0.62038320  0.91153379  1
