# generated using pymatgen
data_YNiSn2
_symmetry_space_group_name_H-M   'P 1'
_cell_length_a   4.44692436
_cell_length_b   14.72319913
_cell_length_c   16.11723415
_cell_angle_alpha   90.00000000
_cell_angle_beta   90.00000000
_cell_angle_gamma   90.00000000
_symmetry_Int_Tables_number   1
_chemical_formula_structural   YNiSn2
_chemical_formula_sum   'Y12 Ni12 Sn24'
_cell_volume   1055.24291187
_cell_formula_units_Z   12
loop_
 _symmetry_equiv_pos_site_id
 _symmetry_equiv_pos_as_xyz
  1  'x, y, z'
loop_
 _atom_site_type_symbol
 _atom_site_label
 _atom_site_symmetry_multiplicity
 _atom_site_fract_x
 _atom_site_fract_y
 _atom_site_fract_z
 _atom_site_occupancy
  Y  Y0  1  0.25000000  0.97412796  0.34918896  1
  Y  Y1  1  0.25000000  0.52587204  0.84918896  1
  Y  Y2  1  0.75000000  0.02587204  0.65081104  1
  Y  Y3  1  0.75000000  0.47412796  0.15081104  1
  Y  Y4  1  0.25000000  0.27140548  0.87395568  1
  Y  Y5  1  0.25000000  0.22859452  0.37395568  1
  Y  Y6  1  0.75000000  0.72859452  0.12604432  1
  Y  Y7  1  0.75000000  0.77140548  0.62604432  1
  Y  Y8  1  0.25000000  0.39362749  0.64496546  1
  Y  Y9  1  0.25000000  0.10637251  0.14496546  1
  Y  Y10  1  0.75000000  0.60637251  0.35503454  1
  Y  Y11  1  0.75000000  0.89362749  0.85503454  1
  Ni  Ni12  1  0.25000000  0.60506494  0.05141104  1
  Ni  Ni13  1  0.25000000  0.89493506  0.55141104  1
  Ni  Ni14  1  0.75000000  0.39493506  0.94858896  1
  Ni  Ni15  1  0.75000000  0.10506494  0.44858896  1
  Ni  Ni16  1  0.25000000  0.74876819  0.30357813  1
  Ni  Ni17  1  0.25000000  0.75123181  0.80357813  1
  Ni  Ni18  1  0.75000000  0.25123181  0.69642187  1
  Ni  Ni19  1  0.75000000  0.24876819  0.19642187  1
  Ni  Ni20  1  0.25000000  0.04511868  0.79871528  1
  Ni  Ni21  1  0.25000000  0.45488132  0.29871528  1
  Ni  Ni22  1  0.75000000  0.95488132  0.20128472  1
  Ni  Ni23  1  0.75000000  0.54511868  0.70128472  1
  Sn  Sn24  1  0.25000000  0.17512311  0.68411368  1
  Sn  Sn25  1  0.25000000  0.32487689  0.18411368  1
  Sn  Sn26  1  0.75000000  0.82487689  0.31588632  1
  Sn  Sn27  1  0.75000000  0.67512311  0.81588632  1
  Sn  Sn28  1  0.25000000  0.04969348  0.95538636  1
  Sn  Sn29  1  0.25000000  0.45030652  0.45538636  1
  Sn  Sn30  1  0.75000000  0.95030652  0.04461364  1
  Sn  Sn31  1  0.75000000  0.54969348  0.54461364  1
  Sn  Sn32  1  0.25000000  0.07811611  0.51968170  1
  Sn  Sn33  1  0.25000000  0.42188389  0.01968170  1
  Sn  Sn34  1  0.75000000  0.92188389  0.48031830  1
  Sn  Sn35  1  0.75000000  0.57811611  0.98031830  1
  Sn  Sn36  1  0.25000000  0.60593196  0.21389386  1
  Sn  Sn37  1  0.25000000  0.89406804  0.71389386  1
  Sn  Sn38  1  0.75000000  0.39406804  0.78610614  1
  Sn  Sn39  1  0.75000000  0.10593196  0.28610614  1
  Sn  Sn40  1  0.25000000  0.73922861  0.46642858  1
  Sn  Sn41  1  0.25000000  0.76077139  0.96642858  1
  Sn  Sn42  1  0.75000000  0.26077139  0.53357142  1
  Sn  Sn43  1  0.75000000  0.23922861  0.03357142  1
  Sn  Sn44  1  0.25000000  0.87202952  0.17380545  1
  Sn  Sn45  1  0.25000000  0.62797048  0.67380545  1
  Sn  Sn46  1  0.75000000  0.12797048  0.82619455  1
  Sn  Sn47  1  0.75000000  0.37202952  0.32619455  1
