# generated using pymatgen
data_Rh17S15
_symmetry_space_group_name_H-M   'P 1'
_cell_length_a   10.01920496
_cell_length_b   10.01920496
_cell_length_c   10.01920496
_cell_angle_alpha   90.00000000
_cell_angle_beta   90.00000000
_cell_angle_gamma   90.00000000
_symmetry_Int_Tables_number   1
_chemical_formula_structural   Rh17S15
_chemical_formula_sum   'Rh34 S30'
_cell_volume   1005.77256000
_cell_formula_units_Z   2
loop_
 _symmetry_equiv_pos_site_id
 _symmetry_equiv_pos_as_xyz
  1  'x, y, z'
loop_
 _atom_site_type_symbol
 _atom_site_label
 _atom_site_symmetry_multiplicity
 _atom_site_fract_x
 _atom_site_fract_y
 _atom_site_fract_z
 _atom_site_occupancy
  S  S0  1  0.16960777  0.50000000  0.16960777  1
  S  S1  1  0.16960777  0.83039223  0.50000000  1
  S  S2  1  0.16960777  0.16960777  0.50000000  1
  S  S3  1  0.16960777  0.50000000  0.83039223  1
  S  S4  1  0.83039223  0.50000000  0.16960777  1
  S  S5  1  0.50000000  0.16960777  0.16960777  1
  S  S6  1  0.50000000  0.83039223  0.16960777  1
  S  S7  1  0.50000000  0.16960777  0.83039223  1
  S  S8  1  0.83039223  0.83039223  0.50000000  1
  S  S9  1  0.83039223  0.16960777  0.50000000  1
  S  S10  1  0.50000000  0.83039223  0.83039223  1
  S  S11  1  0.83039223  0.50000000  0.83039223  1
  S  S12  1  0.22933696  0.22933696  0.00000000  1
  S  S13  1  0.22933696  0.00000000  0.22933696  1
  S  S14  1  0.22933696  0.00000000  0.77066304  1
  S  S15  1  0.00000000  0.22933696  0.77066304  1
  S  S16  1  0.00000000  0.22933696  0.22933696  1
  S  S17  1  0.77066304  0.22933696  0.00000000  1
  S  S18  1  0.22933696  0.77066304  0.00000000  1
  S  S19  1  0.77066304  0.00000000  0.22933696  1
  S  S20  1  0.00000000  0.77066304  0.77066304  1
  S  S21  1  0.77066304  0.00000000  0.77066304  1
  S  S22  1  0.00000000  0.77066304  0.22933696  1
  S  S23  1  0.77066304  0.77066304  0.00000000  1
  S  S24  1  0.50000000  0.50000000  0.26279658  1
  S  S25  1  0.50000000  0.73720342  0.50000000  1
  S  S26  1  0.50000000  0.26279658  0.50000000  1
  S  S27  1  0.26279658  0.50000000  0.50000000  1
  S  S28  1  0.73720342  0.50000000  0.50000000  1
  S  S29  1  0.50000000  0.50000000  0.73720342  1
  Rh  Rh30  1  0.35729857  0.35729857  0.14236892  1
  Rh  Rh31  1  0.35729857  0.85763108  0.35729857  1
  Rh  Rh32  1  0.35729857  0.14236892  0.64270143  1
  Rh  Rh33  1  0.14236892  0.35729857  0.64270143  1
  Rh  Rh34  1  0.85763108  0.35729857  0.35729857  1
  Rh  Rh35  1  0.64270143  0.35729857  0.14236892  1
  Rh  Rh36  1  0.35729857  0.64270143  0.14236892  1
  Rh  Rh37  1  0.14236892  0.35729857  0.35729857  1
  Rh  Rh38  1  0.35729857  0.14236892  0.35729857  1
  Rh  Rh39  1  0.64270143  0.85763108  0.35729857  1
  Rh  Rh40  1  0.14236892  0.64270143  0.64270143  1
  Rh  Rh41  1  0.64270143  0.14236892  0.64270143  1
  Rh  Rh42  1  0.85763108  0.64270143  0.35729857  1
  Rh  Rh43  1  0.85763108  0.35729857  0.64270143  1
  Rh  Rh44  1  0.35729857  0.85763108  0.64270143  1
  Rh  Rh45  1  0.35729857  0.64270143  0.85763108  1
  Rh  Rh46  1  0.64270143  0.35729857  0.85763108  1
  Rh  Rh47  1  0.64270143  0.64270143  0.14236892  1
  Rh  Rh48  1  0.35729857  0.35729857  0.85763108  1
  Rh  Rh49  1  0.64270143  0.64270143  0.85763108  1
  Rh  Rh50  1  0.14236892  0.64270143  0.35729857  1
  Rh  Rh51  1  0.85763108  0.64270143  0.64270143  1
  Rh  Rh52  1  0.64270143  0.14236892  0.35729857  1
  Rh  Rh53  1  0.64270143  0.85763108  0.64270143  1
  Rh  Rh54  1  0.00000000  0.23857810  0.00000000  1
  Rh  Rh55  1  0.00000000  0.00000000  0.23857810  1
  Rh  Rh56  1  0.00000000  0.00000000  0.76142190  1
  Rh  Rh57  1  0.76142190  0.00000000  0.00000000  1
  Rh  Rh58  1  0.23857810  0.00000000  0.00000000  1
  Rh  Rh59  1  0.00000000  0.76142190  0.00000000  1
  Rh  Rh60  1  0.00000000  0.50000000  0.00000000  1
  Rh  Rh61  1  0.00000000  0.00000000  0.50000000  1
  Rh  Rh62  1  0.50000000  0.00000000  0.00000000  1
  Rh  Rh63  1  0.50000000  0.50000000  0.50000000  1
