# generated using pymatgen
data_LiTi4O8
_symmetry_space_group_name_H-M   'P 1'
_cell_length_a   5.93639644
_cell_length_b   5.92131786
_cell_length_c   5.98217821
_cell_angle_alpha   90.26775473
_cell_angle_beta   59.90659986
_cell_angle_gamma   60.86615590
_symmetry_Int_Tables_number   1
_chemical_formula_structural   LiTi4O8
_chemical_formula_sum   'Li1 Ti4 O8'
_cell_volume   150.06177047
_cell_formula_units_Z   1
loop_
 _symmetry_equiv_pos_site_id
 _symmetry_equiv_pos_as_xyz
  1  'x, y, z'
loop_
 _atom_site_type_symbol
 _atom_site_label
 _atom_site_symmetry_multiplicity
 _atom_site_fract_x
 _atom_site_fract_y
 _atom_site_fract_z
 _atom_site_occupancy
  Li  Li0  1  0.00000000  0.50000000  0.50000000  1
  Ti  Ti1  1  0.50000000  0.00000000  0.50000000  1
  Ti  Ti2  1  0.50000000  0.00000000  0.00000000  1
  Ti  Ti3  1  0.00000000  0.50000000  0.00000000  1
  Ti  Ti4  1  0.00000000  0.00000000  0.00000000  1
  O  O5  1  0.96953238  0.76094286  0.78948323  1
  O  O6  1  0.96929746  0.76344957  0.24081123  1
  O  O7  1  0.47546209  0.78985048  0.76119387  1
  O  O8  1  0.53213700  0.76306216  0.23286117  1
  O  O9  1  0.46786300  0.23693784  0.76713883  1
  O  O10  1  0.52453791  0.21014952  0.23880613  1
  O  O11  1  0.03070254  0.23655043  0.75918877  1
  O  O12  1  0.03046762  0.23905714  0.21051677  1
