# generated using pymatgen
data_In3Cu7
_symmetry_space_group_name_H-M   'P 1'
_cell_length_a   6.74398228
_cell_length_b   9.17268557
_cell_length_c   10.09147531
_cell_angle_alpha   73.65503206
_cell_angle_beta   83.18549913
_cell_angle_gamma   89.96577709
_symmetry_Int_Tables_number   1
_chemical_formula_structural   In3Cu7
_chemical_formula_sum   'In12 Cu28'
_cell_volume   594.44893678
_cell_formula_units_Z   4
loop_
 _symmetry_equiv_pos_site_id
 _symmetry_equiv_pos_as_xyz
  1  'x, y, z'
loop_
 _atom_site_type_symbol
 _atom_site_label
 _atom_site_symmetry_multiplicity
 _atom_site_fract_x
 _atom_site_fract_y
 _atom_site_fract_z
 _atom_site_occupancy
  Cu  Cu0  1  0.00000000  0.00000000  0.00000000  1
  Cu  Cu1  1  0.00000000  0.00000000  0.50000000  1
  Cu  Cu2  1  0.30250045  0.14400212  0.06319618  1
  Cu  Cu3  1  0.69749955  0.85599788  0.93680382  1
  Cu  Cu4  1  0.84349972  0.45872652  0.69664571  1
  Cu  Cu5  1  0.15650028  0.54127348  0.30335429  1
  Cu  Cu6  1  0.15291148  0.57344423  0.77197206  1
  Cu  Cu7  1  0.84708852  0.42655577  0.22802794  1
  Cu  Cu8  1  0.44060442  0.70670299  0.86644638  1
  Cu  Cu9  1  0.55939558  0.29329701  0.13355362  1
  Cu  Cu10  1  0.27216035  0.14984613  0.58389441  1
  Cu  Cu11  1  0.72783965  0.85015387  0.41610559  1
  Cu  Cu12  1  0.33732995  -0.00014428  0.83930751  1
  Cu  Cu13  1  0.66267005  1.00014428  0.16069249  1
  Cu  Cu14  1  0.24238550  0.85766096  0.66471529  1
  Cu  Cu15  1  0.75761450  0.14233904  0.33528471  1
  Cu  Cu16  1  0.53959426  0.30710304  0.65302557  1
  Cu  Cu17  1  0.46040574  0.69289696  0.34697443  1
  Cu  Cu18  1  0.85638817  0.75985036  0.71327553  1
  Cu  Cu19  1  0.14361183  0.24014964  0.28672447  1
  Cu  Cu20  1  0.03111593  0.98250196  0.24980815  1
  Cu  Cu21  1  0.96888407  0.01749804  0.75019185  1
  Cu  Cu22  1  0.77366691  0.55058398  0.43551915  1
  Cu  Cu23  1  0.22633309  0.44941602  0.56448085  1
  Cu  Cu24  1  0.47148088  0.41327022  0.86496973  1
  Cu  Cu25  1  0.52851912  0.58672978  0.13503027  1
  Cu  Cu26  1  0.06920086  0.76623580  0.91382091  1
  Cu  Cu27  1  0.93079914  0.23376420  0.08617909  1
  In  In28  1  0.79278620  0.52842398  0.94353012  1
  In  In29  1  0.20721380  0.47157602  0.05646988  1
  In  In30  1  0.61836712  0.99426165  0.63393897  1
  In  In31  1  0.38163288  0.00573835  0.36606103  1
  In  In32  1  0.92091986  0.28097282  0.51771318  1
  In  In33  1  0.07908014  0.71902718  0.48228682  1
  In  In34  1  0.14191039  0.26512861  0.81810930  1
  In  In35  1  0.85808961  0.73487139  0.18189070  1
  In  In36  1  0.32481939  0.83651909  0.10429896  1
  In  In37  1  0.67518061  0.16348091  0.89570104  1
  In  In38  1  0.51947064  0.63710654  0.62122345  1
  In  In39  1  0.48052936  0.36289346  0.37877655  1
