# generated using pymatgen
data_KNaSrMg5(SiO3)8
_symmetry_space_group_name_H-M   'P 1'
_cell_length_a   5.28297493
_cell_length_b   10.25497330
_cell_length_c   10.62560397
_cell_angle_alpha   65.10281738
_cell_angle_beta   82.54755298
_cell_angle_gamma   104.27013872
_symmetry_Int_Tables_number   1
_chemical_formula_structural   KNaSrMg5(SiO3)8
_chemical_formula_sum   'K1 Na1 Sr1 Mg5 Si8 O24'
_cell_volume   487.87559370
_cell_formula_units_Z   1
loop_
 _symmetry_equiv_pos_site_id
 _symmetry_equiv_pos_as_xyz
  1  'x, y, z'
loop_
 _atom_site_type_symbol
 _atom_site_label
 _atom_site_symmetry_multiplicity
 _atom_site_fract_x
 _atom_site_fract_y
 _atom_site_fract_z
 _atom_site_occupancy
  K  K0  1  0.50784120  0.48885323  0.00605252  1
  Na  Na1  1  0.77897352  0.27870759  0.44280270  1
  Sr  Sr2  1  0.21538341  0.71530406  0.56956710  1
  Mg  Mg3  1  0.60015192  0.10030952  0.79887186  1
  Mg  Mg4  1  0.40163002  0.90167100  0.19628505  1
  Mg  Mg5  1  0.18450244  0.18450537  0.63065568  1
  Mg  Mg6  1  0.82123751  0.82105435  0.35739211  1
  Mg  Mg7  1  -0.00000899  0.00021392  0.99898967  1
  Si  Si8  1  0.11997396  0.81475503  0.83323416  1
  Si  Si9  1  0.94866524  0.64384305  0.16947558  1
  Si  Si10  1  0.88206144  0.18638111  0.16942846  1
  Si  Si11  1  0.04680750  0.35180695  0.83303235  1
  Si  Si12  1  0.70529006  0.88884912  0.65839147  1
  Si  Si13  1  0.35573677  0.54402548  0.34095593  1
  Si  Si14  1  0.30312463  0.11446440  0.34122637  1
  Si  Si15  1  0.63628446  0.45246438  0.65807247  1
  O  O16  1  0.69333790  0.87839957  0.51263244  1
  O  O17  1  0.19747542  0.39557016  0.49090448  1
  O  O18  1  0.31223947  0.11350903  0.49080445  1
  O  O19  1  0.79458814  0.60866754  0.51266482  1
  O  O20  1  0.78542135  0.05184903  0.65691683  1
  O  O21  1  0.43723206  0.70864259  0.34297331  1
  O  O22  1  0.22006111  0.94804736  0.34302626  1
  O  O23  1  0.55768715  0.29086846  0.65688780  1
  O  O24  1  0.18721814  0.98073875  0.82286784  1
  O  O25  1  0.00934441  0.80242933  0.17740668  1
  O  O26  1  0.81326874  0.01991389  0.17753086  1
  O  O27  1  0.98973668  0.19621847  0.82274159  1
  O  O28  1  0.89715190  0.78660853  0.74201253  1
  O  O29  1  0.63389879  0.53028373  0.25678218  1
  O  O30  1  0.10969446  0.21261650  0.25664526  1
  O  O31  1  0.36086898  0.47093430  0.74207092  1
  O  O32  1  0.38511074  0.78114759  0.76922773  1
  O  O33  1  0.15606457  0.55151450  0.22764531  1
  O  O34  1  0.61618679  0.22072855  0.22733182  1
  O  O35  1  0.84493153  0.44917823  0.76958401  1
  O  O36  1  0.55850278  0.93711005  0.99834957  1
  O  O37  1  0.44312252  0.06520239  0.99847064  1
  O  O38  1  0.97849618  0.67646872  0.00007632  1
  O  O39  1  0.02080509  0.32344418  0.00001290  1
