# generated using pymatgen
data_UIr
_symmetry_space_group_name_H-M   'P 1'
_cell_length_a   5.59436607
_cell_length_b   5.64073478
_cell_length_c   10.56015388
_cell_angle_alpha   90.00000000
_cell_angle_beta   90.00000000
_cell_angle_gamma   99.38057298
_symmetry_Int_Tables_number   1
_chemical_formula_structural   UIr
_chemical_formula_sum   'U8 Ir8'
_cell_volume   328.78350183
_cell_formula_units_Z   8
loop_
 _symmetry_equiv_pos_site_id
 _symmetry_equiv_pos_as_xyz
  1  'x, y, z'
loop_
 _atom_site_type_symbol
 _atom_site_label
 _atom_site_symmetry_multiplicity
 _atom_site_fract_x
 _atom_site_fract_y
 _atom_site_fract_z
 _atom_site_occupancy
  U  U0  1  0.90175077  0.86262608  0.49472933  1
  U  U1  1  0.09824923  0.13737392  0.99472933  1
  U  U2  1  0.33753036  0.39421067  0.48897998  1
  U  U3  1  0.66246964  0.60578933  0.98897998  1
  U  U4  1  0.59466117  0.13346776  0.21722673  1
  U  U5  1  0.40533883  0.86653224  0.71722673  1
  U  U6  1  0.15978680  0.59906715  0.22221858  1
  U  U7  1  0.84021320  0.40093285  0.72221858  1
  Ir  Ir8  1  0.91122432  0.90885819  0.75579586  1
  Ir  Ir9  1  0.08877568  0.09114181  0.25579586  1
  Ir  Ir10  1  0.33785781  0.35675079  0.75233899  1
  Ir  Ir11  1  0.66214219  0.64324921  0.25233899  1
  Ir  Ir12  1  0.59330882  0.09965521  0.95593444  1
  Ir  Ir13  1  0.40669118  0.90034479  0.45593444  1
  Ir  Ir14  1  0.16464957  0.64737714  0.95877610  1
  Ir  Ir15  1  0.83535043  0.35262286  0.45877610  1
