# generated using pymatgen
data_Er2S3
_symmetry_space_group_name_H-M   'P 1'
_cell_length_a   3.99357656
_cell_length_b   10.11643051
_cell_length_c   17.54691330
_cell_angle_alpha   98.62247304
_cell_angle_beta   90.00000000
_cell_angle_gamma   90.00000000
_symmetry_Int_Tables_number   1
_chemical_formula_structural   Er2S3
_chemical_formula_sum   'Er12 S18'
_cell_volume   700.89595048
_cell_formula_units_Z   6
loop_
 _symmetry_equiv_pos_site_id
 _symmetry_equiv_pos_as_xyz
  1  'x, y, z'
loop_
 _atom_site_type_symbol
 _atom_site_label
 _atom_site_symmetry_multiplicity
 _atom_site_fract_x
 _atom_site_fract_y
 _atom_site_fract_z
 _atom_site_occupancy
  S  S0  1  0.75000000  0.61520753  0.96743896  1
  S  S1  1  0.25000000  0.38479247  0.03256104  1
  S  S2  1  0.25000000  0.28976443  0.36860878  1
  S  S3  1  0.75000000  0.71023557  0.63139122  1
  S  S4  1  0.25000000  0.99239255  0.73181388  1
  S  S5  1  0.75000000  0.00760745  0.26818612  1
  S  S6  1  0.25000000  0.63278477  0.46872974  1
  S  S7  1  0.75000000  0.36721523  0.53127026  1
  S  S8  1  0.75000000  0.63769967  0.28220497  1
  S  S9  1  0.25000000  0.36230033  0.71779503  1
  S  S10  1  0.25000000  0.73129620  0.12697110  1
  S  S11  1  0.75000000  0.26870380  0.87302890  1
  S  S12  1  0.75000000  0.95143051  0.92421468  1
  S  S13  1  0.25000000  0.04856949  0.07578532  1
  S  S14  1  0.75000000  0.05237244  0.57529976  1
  S  S15  1  0.25000000  0.94762756  0.42470024  1
  S  S16  1  0.25000000  0.68114225  0.81867877  1
  S  S17  1  0.75000000  0.31885775  0.18132123  1
  Er  Er18  1  0.75000000  0.12391242  0.42982232  1
  Er  Er19  1  0.25000000  0.87608758  0.57017768  1
  Er  Er20  1  0.75000000  0.54902484  0.11468253  1
  Er  Er21  1  0.25000000  0.45097516  0.88531747  1
  Er  Er22  1  0.75000000  0.18901748  0.02066674  1
  Er  Er23  1  0.25000000  0.81098252  0.97933326  1
  Er  Er24  1  0.75000000  0.48674739  0.39958454  1
  Er  Er25  1  0.25000000  0.51325261  0.60041546  1
  Er  Er26  1  0.25000000  0.17032555  0.21827767  1
  Er  Er27  1  0.75000000  0.82967445  0.78172233  1
  Er  Er28  1  0.25000000  0.81231414  0.27914593  1
  Er  Er29  1  0.75000000  0.18768586  0.72085407  1
