# generated using pymatgen
data_GaPt2
_symmetry_space_group_name_H-M   'P 1'
_cell_length_a   3.96705997
_cell_length_b   5.57587950
_cell_length_c   16.68876824
_cell_angle_alpha   90.00000000
_cell_angle_beta   90.00000000
_cell_angle_gamma   90.00000000
_symmetry_Int_Tables_number   1
_chemical_formula_structural   GaPt2
_chemical_formula_sum   'Ga8 Pt16'
_cell_volume   369.15302282
_cell_formula_units_Z   8
loop_
 _symmetry_equiv_pos_site_id
 _symmetry_equiv_pos_as_xyz
  1  'x, y, z'
loop_
 _atom_site_type_symbol
 _atom_site_label
 _atom_site_symmetry_multiplicity
 _atom_site_fract_x
 _atom_site_fract_y
 _atom_site_fract_z
 _atom_site_occupancy
  Ga  Ga0  1  0.50000000  0.00000000  0.00000000  1
  Ga  Ga1  1  0.50000000  0.00000000  0.50000000  1
  Ga  Ga2  1  0.00000000  0.79428802  0.25000000  1
  Ga  Ga3  1  0.00000000  0.20571198  0.75000000  1
  Ga  Ga4  1  0.00000000  0.31656824  0.09314583  1
  Ga  Ga5  1  0.00000000  0.68343176  0.90685417  1
  Ga  Ga6  1  0.00000000  0.31656824  0.40685417  1
  Ga  Ga7  1  0.00000000  0.68343176  0.59314583  1
  Pt  Pt8  1  0.50000000  0.50000000  0.00000000  1
  Pt  Pt9  1  0.50000000  0.50000000  0.50000000  1
  Pt  Pt10  1  0.00000000  0.26821700  0.25000000  1
  Pt  Pt11  1  0.00000000  0.73178300  0.75000000  1
  Pt  Pt12  1  0.00000000  0.79577114  0.06914506  1
  Pt  Pt13  1  0.00000000  0.20422886  0.93085494  1
  Pt  Pt14  1  0.00000000  0.79577114  0.43085494  1
  Pt  Pt15  1  0.00000000  0.20422886  0.56914506  1
  Pt  Pt16  1  0.50000000  0.05136243  0.15595251  1
  Pt  Pt17  1  0.50000000  0.94863757  0.84404749  1
  Pt  Pt18  1  0.50000000  0.05136243  0.34404749  1
  Pt  Pt19  1  0.50000000  0.94863757  0.65595251  1
  Pt  Pt20  1  0.50000000  0.55787063  0.16799660  1
  Pt  Pt21  1  0.50000000  0.44212937  0.83200340  1
  Pt  Pt22  1  0.50000000  0.55787063  0.33200340  1
  Pt  Pt23  1  0.50000000  0.44212937  0.66799660  1
