# generated using pymatgen
data_K2CoCl4
_symmetry_space_group_name_H-M   'P 1'
_cell_length_a   7.36319909
_cell_length_b   12.54030221
_cell_length_c   27.23224247
_cell_angle_alpha   90.00000000
_cell_angle_beta   90.00000000
_cell_angle_gamma   90.00000000
_symmetry_Int_Tables_number   1
_chemical_formula_structural   K2CoCl4
_chemical_formula_sum   'K24 Co12 Cl48'
_cell_volume   2514.53654216
_cell_formula_units_Z   12
loop_
 _symmetry_equiv_pos_site_id
 _symmetry_equiv_pos_as_xyz
  1  'x, y, z'
loop_
 _atom_site_type_symbol
 _atom_site_label
 _atom_site_symmetry_multiplicity
 _atom_site_fract_x
 _atom_site_fract_y
 _atom_site_fract_z
 _atom_site_occupancy
  Cl  Cl0  1  0.32445344  0.55666584  0.00602474  1
  Cl  Cl1  1  0.82445344  0.44333416  0.99397526  1
  Cl  Cl2  1  0.32445344  0.94333416  0.50602474  1
  Cl  Cl3  1  0.82445344  0.05666584  0.49397526  1
  Cl  Cl4  1  0.18305750  0.56115285  0.67539856  1
  Cl  Cl5  1  0.68305750  0.43884715  0.32460144  1
  Cl  Cl6  1  0.18305750  0.93884715  0.17539856  1
  Cl  Cl7  1  0.68305750  0.06115285  0.82460144  1
  Cl  Cl8  1  0.18930785  0.56605142  0.33788371  1
  Cl  Cl9  1  0.68930785  0.43394858  0.66211629  1
  Cl  Cl10  1  0.18930785  0.93394858  0.83788371  1
  Cl  Cl11  1  0.68930785  0.06605142  0.16211629  1
  Cl  Cl12  1  0.17118291  0.42957128  0.88750584  1
  Cl  Cl13  1  0.67118291  0.57042872  0.11249416  1
  Cl  Cl14  1  0.17118291  0.07042872  0.38750584  1
  Cl  Cl15  1  0.67118291  0.92957128  0.61249416  1
  Cl  Cl16  1  0.17010409  0.42705485  0.55439800  1
  Cl  Cl17  1  0.67010409  0.57294515  0.44560200  1
  Cl  Cl18  1  0.17010409  0.07294515  0.05439800  1
  Cl  Cl19  1  0.67010409  0.92705485  0.94560200  1
  Cl  Cl20  1  0.33989232  0.43024241  0.21997676  1
  Cl  Cl21  1  0.83989232  0.56975759  0.78002324  1
  Cl  Cl22  1  0.33989232  0.06975759  0.71997676  1
  Cl  Cl23  1  0.83989232  0.93024241  0.28002324  1
  Cl  Cl24  1  0.02578442  0.70388148  0.91891249  1
  Cl  Cl25  1  0.52578442  0.29611852  0.08108751  1
  Cl  Cl26  1  0.02578442  0.79611852  0.41891249  1
  Cl  Cl27  1  0.52578442  0.20388148  0.58108751  1
  Cl  Cl28  1  0.01248612  0.70331419  0.56790551  1
  Cl  Cl29  1  0.51248612  0.29668581  0.43209449  1
  Cl  Cl30  1  0.01248612  0.79668581  0.06790551  1
  Cl  Cl31  1  0.51248612  0.20331419  0.93209449  1
  Cl  Cl32  1  0.00196734  0.63691873  0.22049168  1
  Cl  Cl33  1  0.50196734  0.36308127  0.77950832  1
  Cl  Cl34  1  0.00196734  0.86308127  0.72049168  1
  Cl  Cl35  1  0.50196734  0.13691873  0.27950832  1
  Cl  Cl36  1  0.50650685  0.63934257  0.88894670  1
  Cl  Cl37  1  0.00650685  0.36065743  0.11105330  1
  Cl  Cl38  1  0.50650685  0.86065743  0.38894670  1
  Cl  Cl39  1  0.00650685  0.13934257  0.61105330  1
  Cl  Cl40  1  0.49568611  0.64357233  0.57231518  1
  Cl  Cl41  1  0.99568611  0.35642767  0.42768482  1
  Cl  Cl42  1  0.49568611  0.85642767  0.07231518  1
  Cl  Cl43  1  0.99568611  0.14357233  0.92768482  1
  Cl  Cl44  1  0.47980566  0.70924003  0.24694140  1
  Cl  Cl45  1  0.97980566  0.29075997  0.75305860  1
  Cl  Cl46  1  0.47980566  0.79075997  0.74694140  1
  Cl  Cl47  1  0.97980566  0.20924003  0.25305860  1
  K  K48  1  0.21296236  0.92138439  0.95536661  1
  K  K49  1  0.71296236  0.07861561  0.04463339  1
  K  K50  1  0.21296236  0.57861561  0.45536661  1
  K  K51  1  0.71296236  0.42138439  0.54463339  1
  K  K52  1  0.23079986  0.91576682  0.61837548  1
  K  K53  1  0.73079986  0.08423318  0.38162452  1
  K  K54  1  0.23079986  0.58423318  0.11837548  1
  K  K55  1  0.73079986  0.41576682  0.88162452  1
  K  K56  1  0.27759672  0.92012503  0.28871460  1
  K  K57  1  0.77759672  0.07987497  0.71128540  1
  K  K58  1  0.27759672  0.57987497  0.78871460  1
  K  K59  1  0.77759672  0.42012503  0.21128540  1
  K  K60  1  0.20261880  0.31425142  0.00030508  1
  K  K61  1  0.70261880  0.68574858  0.99969492  1
  K  K62  1  0.20261880  0.18574858  0.50030508  1
  K  K63  1  0.70261880  0.81425142  0.49969492  1
  K  K64  1  0.27972793  0.31365460  0.66723201  1
  K  K65  1  0.77972793  0.68634540  0.33276799  1
  K  K66  1  0.27972793  0.18634540  0.16723201  1
  K  K67  1  0.77972793  0.81365460  0.83276799  1
  K  K68  1  0.26746145  0.31702605  0.33248480  1
  K  K69  1  0.76746145  0.68297395  0.66751520  1
  K  K70  1  0.26746145  0.18297395  0.83248480  1
  K  K71  1  0.76746145  0.81702605  0.16751520  1
  Co  Co72  1  0.24862624  0.58221054  0.92701350  1
  Co  Co73  1  0.74862624  0.41778946  0.07298650  1
  Co  Co74  1  0.24862624  0.91778946  0.42701350  1
  Co  Co75  1  0.74862624  0.08221054  0.57298650  1
  Co  Co76  1  0.21947734  0.58337899  0.59454848  1
  Co  Co77  1  0.71947734  0.41662101  0.40545152  1
  Co  Co78  1  0.21947734  0.91662101  0.09454848  1
  Co  Co79  1  0.71947734  0.08337899  0.90545152  1
  Co  Co80  1  0.26299471  0.58473921  0.25832181  1
  Co  Co81  1  0.76299471  0.41526079  0.74167819  1
  Co  Co82  1  0.26299471  0.91526079  0.75832181  1
  Co  Co83  1  0.76299471  0.08473921  0.24167819  1
