# generated using pymatgen
data_LiCuBO3
_symmetry_space_group_name_H-M   'P 1'
_cell_length_a   5.56080954
_cell_length_b   5.20814965
_cell_length_c   5.19075418
_cell_angle_alpha   60.71338081
_cell_angle_beta   114.55989281
_cell_angle_gamma   88.95435008
_symmetry_Int_Tables_number   1
_chemical_formula_structural   LiCuBO3
_chemical_formula_sum   'Li2 Cu2 B2 O6'
_cell_volume   114.50832754
_cell_formula_units_Z   2
loop_
 _symmetry_equiv_pos_site_id
 _symmetry_equiv_pos_as_xyz
  1  'x, y, z'
loop_
 _atom_site_type_symbol
 _atom_site_label
 _atom_site_symmetry_multiplicity
 _atom_site_fract_x
 _atom_site_fract_y
 _atom_site_fract_z
 _atom_site_occupancy
  Li  Li0  1  0.69231882  0.61516244  0.44973845  1
  Li  Li1  1  0.30768118  0.38483756  0.55026155  1
  Cu  Cu2  1  0.74821806  0.22648346  0.16361821  1
  Cu  Cu3  1  0.25178194  0.77351654  0.83638179  1
  B  B4  1  0.74704597  0.92020774  0.81738464  1
  B  B5  1  0.25295403  0.07979226  0.18261536  1
  O  O6  1  0.66366642  0.69426659  0.02348078  1
  O  O7  1  0.84515111  0.85632365  0.63916146  1
  O  O8  1  0.71553091  0.20521249  0.76534244  1
  O  O9  1  0.28446909  0.79478751  0.23465756  1
  O  O10  1  0.15484889  0.14367635  0.36083854  1
  O  O11  1  0.33633358  0.30573341  0.97651922  1
