# generated using pymatgen
data_Ag2Hg7(As2I3)2
_symmetry_space_group_name_H-M   'P 1'
_cell_length_a   13.58181603
_cell_length_b   13.58181603
_cell_length_c   13.58181603
_cell_angle_alpha   90.00000000
_cell_angle_beta   90.00000000
_cell_angle_gamma   90.00000000
_symmetry_Int_Tables_number   1
_chemical_formula_structural   Ag2Hg7(As2I3)2
_chemical_formula_sum   'Ag8 Hg28 As16 I24'
_cell_volume   2505.37956351
_cell_formula_units_Z   4
loop_
 _symmetry_equiv_pos_site_id
 _symmetry_equiv_pos_as_xyz
  1  'x, y, z'
loop_
 _atom_site_type_symbol
 _atom_site_label
 _atom_site_symmetry_multiplicity
 _atom_site_fract_x
 _atom_site_fract_y
 _atom_site_fract_z
 _atom_site_occupancy
  As  As0  1  0.05234998  0.05234998  0.05234998  1
  As  As1  1  0.44765002  0.94765002  0.55234998  1
  As  As2  1  0.55234998  0.44765002  0.94765002  1
  As  As3  1  0.94765002  0.55234998  0.44765002  1
  As  As4  1  0.94765002  0.94765002  0.94765002  1
  As  As5  1  0.55234998  0.05234998  0.44765002  1
  As  As6  1  0.44765002  0.55234998  0.05234998  1
  As  As7  1  0.05234998  0.44765002  0.55234998  1
  As  As8  1  0.39037239  0.39037239  0.39037239  1
  As  As9  1  0.10962761  0.60962761  0.89037239  1
  As  As10  1  0.89037239  0.10962761  0.60962761  1
  As  As11  1  0.60962761  0.89037239  0.10962761  1
  As  As12  1  0.60962761  0.60962761  0.60962761  1
  As  As13  1  0.89037239  0.39037239  0.10962761  1
  As  As14  1  0.10962761  0.89037239  0.39037239  1
  As  As15  1  0.39037239  0.10962761  0.89037239  1
  Ag  Ag16  1  0.22063011  0.22063011  0.22063011  1
  Ag  Ag17  1  0.27936989  0.77936989  0.72063011  1
  Ag  Ag18  1  0.72063011  0.27936989  0.77936989  1
  Ag  Ag19  1  0.77936989  0.72063011  0.27936989  1
  Ag  Ag20  1  0.77936989  0.77936989  0.77936989  1
  Ag  Ag21  1  0.72063011  0.22063011  0.27936989  1
  Ag  Ag22  1  0.27936989  0.72063011  0.22063011  1
  Ag  Ag23  1  0.22063011  0.27936989  0.72063011  1
  I  I24  1  0.16400909  0.55742490  0.25382717  1
  I  I25  1  0.25382717  0.16400909  0.55742490  1
  I  I26  1  0.55742490  0.25382717  0.16400909  1
  I  I27  1  0.94257510  0.74617283  0.66400909  1
  I  I28  1  0.75382717  0.33599091  0.44257510  1
  I  I29  1  0.44257510  0.75382717  0.33599091  1
  I  I30  1  0.24617283  0.83599091  0.05742490  1
  I  I31  1  0.74617283  0.66400909  0.94257510  1
  I  I32  1  0.05742490  0.24617283  0.83599091  1
  I  I33  1  0.66400909  0.94257510  0.74617283  1
  I  I34  1  0.83599091  0.05742490  0.24617283  1
  I  I35  1  0.33599091  0.44257510  0.75382717  1
  I  I36  1  0.83599091  0.44257510  0.74617283  1
  I  I37  1  0.74617283  0.83599091  0.44257510  1
  I  I38  1  0.44257510  0.74617283  0.83599091  1
  I  I39  1  0.05742490  0.25382717  0.33599091  1
  I  I40  1  0.24617283  0.66400909  0.55742490  1
  I  I41  1  0.55742490  0.24617283  0.66400909  1
  I  I42  1  0.75382717  0.16400909  0.94257510  1
  I  I43  1  0.25382717  0.33599091  0.05742490  1
  I  I44  1  0.94257510  0.75382717  0.16400909  1
  I  I45  1  0.33599091  0.05742490  0.25382717  1
  I  I46  1  0.16400909  0.94257510  0.75382717  1
  I  I47  1  0.66400909  0.55742490  0.24617283  1
  Hg  Hg48  1  0.21054169  0.41901569  0.44739207  1
  Hg  Hg49  1  0.44739207  0.21054169  0.41901569  1
  Hg  Hg50  1  0.41901569  0.44739207  0.21054169  1
  Hg  Hg51  1  0.08098431  0.55260793  0.71054169  1
  Hg  Hg52  1  0.94739207  0.28945831  0.58098431  1
  Hg  Hg53  1  0.58098431  0.94739207  0.28945831  1
  Hg  Hg54  1  0.05260793  0.78945831  0.91901569  1
  Hg  Hg55  1  0.55260793  0.71054169  0.08098431  1
  Hg  Hg56  1  0.91901569  0.05260793  0.78945831  1
  Hg  Hg57  1  0.71054169  0.08098431  0.55260793  1
  Hg  Hg58  1  0.78945831  0.91901569  0.05260793  1
  Hg  Hg59  1  0.28945831  0.58098431  0.94739207  1
  Hg  Hg60  1  0.78945831  0.58098431  0.55260793  1
  Hg  Hg61  1  0.55260793  0.78945831  0.58098431  1
  Hg  Hg62  1  0.58098431  0.55260793  0.78945831  1
  Hg  Hg63  1  0.91901569  0.44739207  0.28945831  1
  Hg  Hg64  1  0.05260793  0.71054169  0.41901569  1
  Hg  Hg65  1  0.41901569  0.05260793  0.71054169  1
  Hg  Hg66  1  0.94739207  0.21054169  0.08098431  1
  Hg  Hg67  1  0.44739207  0.28945831  0.91901569  1
  Hg  Hg68  1  0.08098431  0.94739207  0.21054169  1
  Hg  Hg69  1  0.28945831  0.91901569  0.44739207  1
  Hg  Hg70  1  0.21054169  0.08098431  0.94739207  1
  Hg  Hg71  1  0.71054169  0.41901569  0.05260793  1
  Hg  Hg72  1  0.50000000  0.50000000  0.50000000  1
  Hg  Hg73  1  0.00000000  0.50000000  0.00000000  1
  Hg  Hg74  1  0.00000000  0.00000000  0.50000000  1
  Hg  Hg75  1  0.50000000  0.00000000  0.00000000  1
