# generated using pymatgen
data_KNa22C2S9ClO42
_symmetry_space_group_name_H-M   'P 1'
_cell_length_a   10.61324065
_cell_length_b   10.61324079
_cell_length_c   21.49502242
_cell_angle_alpha   90.00000000
_cell_angle_beta   90.00000000
_cell_angle_gamma   119.99999959
_symmetry_Int_Tables_number   1
_chemical_formula_structural   KNa22C2S9ClO42
_chemical_formula_sum   'K2 Na44 C4 S18 Cl2 O84'
_cell_volume   2096.83648624
_cell_formula_units_Z   2
loop_
 _symmetry_equiv_pos_site_id
 _symmetry_equiv_pos_as_xyz
  1  'x, y, z'
loop_
 _atom_site_type_symbol
 _atom_site_label
 _atom_site_symmetry_multiplicity
 _atom_site_fract_x
 _atom_site_fract_y
 _atom_site_fract_z
 _atom_site_occupancy
  C  C0  1  0.66666667  0.33333333  0.56975408  1
  C  C1  1  0.33333333  0.66666667  0.06975408  1
  C  C2  1  0.33333333  0.66666667  0.43024592  1
  C  C3  1  0.66666667  0.33333333  0.93024592  1
  O  O4  1  0.59565109  0.40387566  0.56995284  1
  O  O5  1  0.19177542  0.59565109  0.06995284  1
  O  O6  1  0.40387566  0.80822458  0.06995284  1
  O  O7  1  0.59612434  0.19177542  0.56995284  1
  O  O8  1  0.80822458  0.40434891  0.56995284  1
  O  O9  1  0.40434891  0.59612434  0.06995284  1
  O  O10  1  0.40434891  0.59612434  0.43004716  1
  O  O11  1  0.80822458  0.40434891  0.93004716  1
  O  O12  1  0.59612434  0.19177542  0.93004716  1
  O  O13  1  0.40387566  0.80822458  0.43004716  1
  O  O14  1  0.19177542  0.59565109  0.43004716  1
  O  O15  1  0.59565109  0.40387566  0.93004716  1
  O  O16  1  0.35574831  0.36722613  0.25000000  1
  O  O17  1  0.98852218  0.35574831  0.75000000  1
  O  O18  1  0.36722613  0.01147782  0.75000000  1
  O  O19  1  0.63277387  0.98852218  0.25000000  1
  O  O20  1  0.01147782  0.64425169  0.25000000  1
  O  O21  1  0.64425169  0.63277387  0.75000000  1
  O  O22  1  0.09073377  0.20104986  0.25000000  1
  O  O23  1  0.88968391  0.09073377  0.75000000  1
  O  O24  1  0.20104986  0.11031609  0.75000000  1
  O  O25  1  0.79895014  0.88968391  0.25000000  1
  O  O26  1  0.11031609  0.90926623  0.25000000  1
  O  O27  1  0.90926623  0.79895014  0.75000000  1
  O  O28  1  0.19889604  0.43124776  0.30712870  1
  O  O29  1  0.76764829  0.19889604  0.80712870  1
  O  O30  1  0.43124776  0.23235171  0.80712870  1
  O  O31  1  0.56875224  0.76764829  0.30712870  1
  O  O32  1  0.23235171  0.80110396  0.30712870  1
  O  O33  1  0.80110396  0.56875224  0.80712870  1
  O  O34  1  0.80110396  0.56875224  0.69287130  1
  O  O35  1  0.23235171  0.80110396  0.19287130  1
  O  O36  1  0.56875224  0.76764829  0.19287130  1
  O  O37  1  0.43124776  0.23235171  0.69287130  1
  O  O38  1  0.76764829  0.19889604  0.69287130  1
  O  O39  1  0.19889604  0.43124776  0.19287130  1
  O  O40  1  0.38987335  0.11362156  0.35594976  1
  O  O41  1  0.27625179  0.38987335  0.85594976  1
  O  O42  1  0.11362156  0.72374821  0.85594976  1
  O  O43  1  0.88637844  0.27625179  0.35594976  1
  O  O44  1  0.72374821  0.61012665  0.35594976  1
  O  O45  1  0.61012665  0.88637844  0.85594976  1
  O  O46  1  0.61012665  0.88637844  0.64405024  1
  O  O47  1  0.72374821  0.61012665  0.14405024  1
  O  O48  1  0.88637844  0.27625179  0.14405024  1
  O  O49  1  0.11362156  0.72374821  0.64405024  1
  O  O50  1  0.27625179  0.38987335  0.64405024  1
  O  O51  1  0.38987335  0.11362156  0.14405024  1
  O  O52  1  0.19609969  0.15557435  0.39431536  1
  O  O53  1  0.04052533  0.19609969  0.89431536  1
  O  O54  1  0.15557435  0.95947467  0.89431536  1
  O  O55  1  0.84442565  0.04052533  0.39431536  1
  O  O56  1  0.95947467  0.80390031  0.39431536  1
  O  O57  1  0.80390031  0.84442565  0.89431536  1
  O  O58  1  0.80390031  0.84442565  0.60568464  1
  O  O59  1  0.95947467  0.80390031  0.10568464  1
  O  O60  1  0.84442565  0.04052533  0.10568464  1
  O  O61  1  0.15557435  0.95947467  0.60568464  1
  O  O62  1  0.04052533  0.19609969  0.60568464  1
  O  O63  1  0.19609969  0.15557435  0.10568464  1
  O  O64  1  0.45027528  0.32524169  0.41940863  1
  O  O65  1  0.12503359  0.45027528  0.91940863  1
  O  O66  1  0.32524169  0.87496641  0.91940863  1
  O  O67  1  0.67475831  0.12503359  0.41940863  1
  O  O68  1  0.87496641  0.54972472  0.41940863  1
  O  O69  1  0.54972472  0.67475831  0.91940863  1
  O  O70  1  0.54972472  0.67475831  0.58059137  1
  O  O71  1  0.87496641  0.54972472  0.08059137  1
  O  O72  1  0.67475831  0.12503359  0.08059137  1
  O  O73  1  0.32524169  0.87496641  0.58059137  1
  O  O74  1  0.12503359  0.45027528  0.58059137  1
  O  O75  1  0.45027528  0.32524169  0.08059137  1
  O  O76  1  0.32359705  0.07973412  0.46566328  1
  O  O77  1  0.24386294  0.32359705  0.96566328  1
  O  O78  1  0.07973412  0.75613706  0.96566328  1
  O  O79  1  0.92026588  0.24386294  0.46566328  1
  O  O80  1  0.75613706  0.67640295  0.46566328  1
  O  O81  1  0.67640295  0.92026588  0.96566328  1
  O  O82  1  0.67640295  0.92026588  0.53433672  1
  O  O83  1  0.75613706  0.67640295  0.03433672  1
  O  O84  1  0.92026588  0.24386294  0.03433672  1
  O  O85  1  0.07973412  0.75613706  0.53433672  1
  O  O86  1  0.24386294  0.32359705  0.53433672  1
  O  O87  1  0.32359705  0.07973412  0.03433672  1
  Na  Na88  1  0.50000000  0.00000000  0.00000000  1
  Na  Na89  1  0.50000000  0.50000000  0.50000000  1
  Na  Na90  1  0.00000000  0.50000000  0.50000000  1
  Na  Na91  1  0.00000000  0.50000000  0.00000000  1
  Na  Na92  1  0.50000000  0.50000000  0.00000000  1
  Na  Na93  1  0.50000000  0.00000000  0.50000000  1
  Na  Na94  1  0.66666667  0.33333333  0.37518684  1
  Na  Na95  1  0.33333333  0.66666667  0.87518684  1
  Na  Na96  1  0.33333333  0.66666667  0.62481316  1
  Na  Na97  1  0.66666667  0.33333333  0.12481316  1
  Na  Na98  1  0.00000000  0.00000000  0.32637528  1
  Na  Na99  1  0.00000000  0.00000000  0.82637528  1
  Na  Na100  1  0.00000000  0.00000000  0.67362472  1
  Na  Na101  1  0.00000000  0.00000000  0.17362472  1
  Na  Na102  1  0.34916427  0.14792357  0.25000000  1
  Na  Na103  1  0.20124070  0.34916427  0.75000000  1
  Na  Na104  1  0.14792357  0.79875930  0.75000000  1
  Na  Na105  1  0.85207643  0.20124070  0.25000000  1
  Na  Na106  1  0.79875930  0.65083573  0.25000000  1
  Na  Na107  1  0.65083573  0.85207643  0.75000000  1
  Na  Na108  1  0.17849108  0.36112294  0.42586454  1
  Na  Na109  1  0.81736814  0.17849108  0.92586454  1
  Na  Na110  1  0.36112294  0.18263186  0.92586454  1
  Na  Na111  1  0.63887706  0.81736814  0.42586454  1
  Na  Na112  1  0.18263186  0.82150892  0.42586454  1
  Na  Na113  1  0.82150892  0.63887706  0.92586454  1
  Na  Na114  1  0.82150892  0.63887706  0.57413546  1
  Na  Na115  1  0.18263186  0.82150892  0.07413546  1
  Na  Na116  1  0.63887706  0.81736814  0.07413546  1
  Na  Na117  1  0.36112294  0.18263186  0.57413546  1
  Na  Na118  1  0.81736814  0.17849108  0.57413546  1
  Na  Na119  1  0.17849108  0.36112294  0.07413546  1
  Na  Na120  1  0.52208892  0.05411451  0.66092454  1
  Na  Na121  1  0.46797441  0.52208892  0.16092454  1
  Na  Na122  1  0.05411451  0.53202559  0.16092454  1
  Na  Na123  1  0.94588549  0.46797441  0.66092454  1
  Na  Na124  1  0.53202559  0.47791108  0.66092454  1
  Na  Na125  1  0.47791108  0.94588549  0.16092454  1
  Na  Na126  1  0.47791108  0.94588549  0.33907546  1
  Na  Na127  1  0.53202559  0.47791108  0.83907546  1
  Na  Na128  1  0.94588549  0.46797441  0.83907546  1
  Na  Na129  1  0.05411451  0.53202559  0.33907546  1
  Na  Na130  1  0.46797441  0.52208892  0.33907546  1
  Na  Na131  1  0.52208892  0.05411451  0.83907546  1
  S  S132  1  0.20897113  0.35757703  0.25000000  1
  S  S133  1  0.85139410  0.20897113  0.75000000  1
  S  S134  1  0.35757703  0.14860590  0.75000000  1
  S  S135  1  0.64242297  0.85139410  0.25000000  1
  S  S136  1  0.14860590  0.79102887  0.25000000  1
  S  S137  1  0.79102887  0.64242297  0.75000000  1
  S  S138  1  0.33965079  0.16859490  0.40887152  1
  S  S139  1  0.17105589  0.33965079  0.90887152  1
  S  S140  1  0.16859490  0.82894411  0.90887152  1
  S  S141  1  0.83140510  0.17105589  0.40887152  1
  S  S142  1  0.82894411  0.66034921  0.40887152  1
  S  S143  1  0.66034921  0.83140510  0.90887152  1
  S  S144  1  0.66034921  0.83140510  0.59112848  1
  S  S145  1  0.82894411  0.66034921  0.09112848  1
  S  S146  1  0.83140510  0.17105589  0.09112848  1
  S  S147  1  0.16859490  0.82894411  0.59112848  1
  S  S148  1  0.17105589  0.33965079  0.59112848  1
  S  S149  1  0.33965079  0.16859490  0.09112848  1
  Cl  Cl150  1  0.66666667  0.33333333  0.25000000  1
  Cl  Cl151  1  0.33333333  0.66666667  0.75000000  1
  K  K152  1  0.00000000  0.00000000  0.00000000  1
  K  K153  1  0.00000000  0.00000000  0.50000000  1
