# generated using pymatgen
data_Th2Zn
_symmetry_space_group_name_H-M   'P 1'
_cell_length_a   5.57268196
_cell_length_b   6.07519224
_cell_length_c   6.07519224
_cell_angle_alpha   77.85696690
_cell_angle_beta   62.70045887
_cell_angle_gamma   62.70045879
_symmetry_Int_Tables_number   1
_chemical_formula_structural   Th2Zn
_chemical_formula_sum   'Th4 Zn2'
_cell_volume   162.41171807
_cell_formula_units_Z   2
loop_
 _symmetry_equiv_pos_site_id
 _symmetry_equiv_pos_as_xyz
  1  'x, y, z'
loop_
 _atom_site_type_symbol
 _atom_site_label
 _atom_site_symmetry_multiplicity
 _atom_site_fract_x
 _atom_site_fract_y
 _atom_site_fract_z
 _atom_site_occupancy
  Zn  Zn0  1  0.75000000  0.00000000  0.00000000  1
  Zn  Zn1  1  0.25000000  0.00000000  0.00000000  1
  Th  Th2  1  0.65814866  0.18370269  0.50000000  1
  Th  Th3  1  0.84185134  0.50000000  0.81629731  1
  Th  Th4  1  0.34185134  0.81629731  0.50000000  1
  Th  Th5  1  0.15814866  0.50000000  0.18370269  1
