# generated using pymatgen
data_BaY3Br11
_symmetry_space_group_name_H-M   'P 1'
_cell_length_a   20.44134019
_cell_length_b   10.88951725
_cell_length_c   5.66029191
_cell_angle_alpha   90.00000000
_cell_angle_beta   90.00000000
_cell_angle_gamma   90.00000000
_symmetry_Int_Tables_number   1
_chemical_formula_structural   BaY3Br11
_chemical_formula_sum   'Ba2 Y6 Br22'
_cell_volume   1259.96018672
_cell_formula_units_Z   2
loop_
 _symmetry_equiv_pos_site_id
 _symmetry_equiv_pos_as_xyz
  1  'x, y, z'
loop_
 _atom_site_type_symbol
 _atom_site_label
 _atom_site_symmetry_multiplicity
 _atom_site_fract_x
 _atom_site_fract_y
 _atom_site_fract_z
 _atom_site_occupancy
  Ba  Ba0  1  0.01000757  0.50000000  0.00000000  1
  Ba  Ba1  1  0.98999243  0.00000000  0.00000000  1
  Y  Y2  1  0.23665187  0.24872056  0.00000000  1
  Y  Y3  1  0.23665187  0.75127944  0.00000000  1
  Y  Y4  1  0.50000000  0.25000000  0.00000000  1
  Y  Y5  1  0.50000000  0.75000000  0.00000000  1
  Y  Y6  1  0.76334813  0.25127944  0.00000000  1
  Y  Y7  1  0.76334813  0.74872056  0.00000000  1
  Br  Br8  1  0.06261346  0.50000000  0.50000000  1
  Br  Br9  1  0.10088666  0.21483445  0.00000000  1
  Br  Br10  1  0.10088666  0.78516555  0.00000000  1
  Br  Br11  1  0.20270161  0.50000000  0.00000000  1
  Br  Br12  1  0.23874168  0.24795173  0.50000000  1
  Br  Br13  1  0.23874168  0.75204827  0.50000000  1
  Br  Br14  1  0.27307948  0.00000000  0.00000000  1
  Br  Br15  1  0.36849729  0.32265754  0.00000000  1
  Br  Br16  1  0.36849729  0.67734246  0.00000000  1
  Br  Br17  1  0.46325696  0.00000000  0.00000000  1
  Br  Br18  1  0.50000000  0.25000000  0.50000000  1
  Br  Br19  1  0.50000000  0.75000000  0.50000000  1
  Br  Br20  1  0.53674304  0.50000000  0.00000000  1
  Br  Br21  1  0.63150271  0.17734246  0.00000000  1
  Br  Br22  1  0.63150271  0.82265754  0.00000000  1
  Br  Br23  1  0.72692052  0.50000000  0.00000000  1
  Br  Br24  1  0.76125832  0.25204827  0.50000000  1
  Br  Br25  1  0.76125832  0.74795173  0.50000000  1
  Br  Br26  1  0.79729839  0.00000000  0.00000000  1
  Br  Br27  1  0.89911334  0.28516555  0.00000000  1
  Br  Br28  1  0.89911334  0.71483445  0.00000000  1
  Br  Br29  1  0.93738654  0.00000000  0.50000000  1
