# generated using pymatgen
data_Mg5Pd2
_symmetry_space_group_name_H-M   'P 1'
_cell_length_a   8.05581435
_cell_length_b   8.80358955
_cell_length_c   8.80358955
_cell_angle_alpha   119.95167931
_cell_angle_beta   90.00000000
_cell_angle_gamma   90.00000000
_symmetry_Int_Tables_number   1
_chemical_formula_structural   Mg5Pd2
_chemical_formula_sum   'Mg20 Pd8'
_cell_volume   540.96717109
_cell_formula_units_Z   4
loop_
 _symmetry_equiv_pos_site_id
 _symmetry_equiv_pos_as_xyz
  1  'x, y, z'
loop_
 _atom_site_type_symbol
 _atom_site_label
 _atom_site_symmetry_multiplicity
 _atom_site_fract_x
 _atom_site_fract_y
 _atom_site_fract_z
 _atom_site_occupancy
  Mg  Mg0  1  0.56163290  0.80760878  0.61495219  1
  Mg  Mg1  1  0.56162018  0.80745622  0.19254378  1
  Mg  Mg2  1  0.56163290  0.38504781  0.19239122  1
  Mg  Mg3  1  0.43836710  0.19239122  0.38504781  1
  Mg  Mg4  1  0.43837982  0.19254378  0.80745622  1
  Mg  Mg5  1  0.43836710  0.61495219  0.80760878  1
  Mg  Mg6  1  0.06163290  0.19239122  0.38504781  1
  Mg  Mg7  1  0.06162018  0.19254378  0.80745622  1
  Mg  Mg8  1  0.06163290  0.61495219  0.80760878  1
  Mg  Mg9  1  0.93836710  0.80760878  0.61495219  1
  Mg  Mg10  1  0.93837982  0.80745622  0.19254378  1
  Mg  Mg11  1  0.93836710  0.38504781  0.19239122  1
  Mg  Mg12  1  0.75000000  0.46398370  0.92791686  1
  Mg  Mg13  1  0.75000000  0.46387404  0.53612596  1
  Mg  Mg14  1  0.75000000  0.07208314  0.53601630  1
  Mg  Mg15  1  0.25000000  0.53601630  0.07208314  1
  Mg  Mg16  1  0.25000000  0.53612596  0.46387404  1
  Mg  Mg17  1  0.25000000  0.92791686  0.46398370  1
  Mg  Mg18  1  0.50000000  0.00000000  0.00000000  1
  Mg  Mg19  1  0.00000000  0.00000000  0.00000000  1
  Pd  Pd20  1  0.75000000  0.12386717  0.24775253  1
  Pd  Pd21  1  0.75000000  0.12376846  0.87623154  1
  Pd  Pd22  1  0.75000000  0.75224747  0.87613283  1
  Pd  Pd23  1  0.25000000  0.87613283  0.75224747  1
  Pd  Pd24  1  0.25000000  0.87623154  0.12376846  1
  Pd  Pd25  1  0.25000000  0.24775253  0.12386717  1
  Pd  Pd26  1  0.75000000  0.66658723  0.33341277  1
  Pd  Pd27  1  0.25000000  0.33341277  0.66658723  1
