# generated using pymatgen
data_Ni5Sb2
_symmetry_space_group_name_H-M   'P 1'
_cell_length_a   5.41666215
_cell_length_b   6.14276755
_cell_length_c   7.02655787
_cell_angle_alpha   115.58197906
_cell_angle_beta   112.67118783
_cell_angle_gamma   89.99999999
_symmetry_Int_Tables_number   1
_chemical_formula_structural   Ni5Sb2
_chemical_formula_sum   'Ni10 Sb4'
_cell_volume   190.65280356
_cell_formula_units_Z   2
loop_
 _symmetry_equiv_pos_site_id
 _symmetry_equiv_pos_as_xyz
  1  'x, y, z'
loop_
 _atom_site_type_symbol
 _atom_site_label
 _atom_site_symmetry_multiplicity
 _atom_site_fract_x
 _atom_site_fract_y
 _atom_site_fract_z
 _atom_site_occupancy
  Ni  Ni0  1  0.75200334  0.00000000  0.00000000  1
  Ni  Ni1  1  0.25119116  0.00000000  0.00000000  1
  Ni  Ni2  1  0.37358240  0.14950319  0.74441431  1
  Ni  Ni3  1  0.62916809  0.85049681  0.25558569  1
  Ni  Ni4  1  0.90005075  0.59473165  0.79633243  1
  Ni  Ni5  1  0.10371833  0.40526835  0.20366757  1
  Ni  Ni6  1  0.52369650  0.74141191  0.54197951  1
  Ni  Ni7  1  0.98171699  0.25858809  0.45802049  1
  Ni  Ni8  1  0.02140359  0.74131921  0.54164792  1
  Ni  Ni9  1  0.47975567  0.25868079  0.45835208  1
  Sb  Sb10  1  0.87466942  0.15058439  0.74617503  1
  Sb  Sb11  1  0.12849438  0.84941561  0.25382497  1
  Sb  Sb12  1  0.39879670  0.59735379  0.79434402  1
  Sb  Sb13  1  0.60445268  0.40264621  0.20565598  1
