# generated using pymatgen
data_ZnCu2O3
_symmetry_space_group_name_H-M   'P 1'
_cell_length_a   3.90832120
_cell_length_b   9.69604166
_cell_length_c   3.46626829
_cell_angle_alpha   90.00000000
_cell_angle_beta   90.00000000
_cell_angle_gamma   90.00000000
_symmetry_Int_Tables_number   1
_chemical_formula_structural   ZnCu2O3
_chemical_formula_sum   'Zn2 Cu4 O6'
_cell_volume   131.35508669
_cell_formula_units_Z   2
loop_
 _symmetry_equiv_pos_site_id
 _symmetry_equiv_pos_as_xyz
  1  'x, y, z'
loop_
 _atom_site_type_symbol
 _atom_site_label
 _atom_site_symmetry_multiplicity
 _atom_site_fract_x
 _atom_site_fract_y
 _atom_site_fract_z
 _atom_site_occupancy
  Zn  Zn0  1  0.25000000  0.25000000  0.30439803  1
  Zn  Zn1  1  0.75000000  0.75000000  0.69560197  1
  Cu  Cu2  1  0.25000000  0.58599487  0.18429887  1
  Cu  Cu3  1  0.25000000  0.91400513  0.18429887  1
  Cu  Cu4  1  0.75000000  0.08599487  0.81570113  1
  Cu  Cu5  1  0.75000000  0.41400513  0.81570113  1
  O  O6  1  0.25000000  0.75000000  0.49864674  1
  O  O7  1  0.25000000  0.08825667  0.90231324  1
  O  O8  1  0.25000000  0.41174333  0.90231324  1
  O  O9  1  0.75000000  0.25000000  0.50135326  1
  O  O10  1  0.75000000  0.58825667  0.09768676  1
  O  O11  1  0.75000000  0.91174333  0.09768676  1
