# generated using pymatgen
data_ScTiO3
_symmetry_space_group_name_H-M   'P 1'
_cell_length_a   5.15558638
_cell_length_b   7.53918927
_cell_length_c   5.51972200
_cell_angle_alpha   90.00000000
_cell_angle_beta   90.00000000
_cell_angle_gamma   90.00000000
_symmetry_Int_Tables_number   1
_chemical_formula_structural   ScTiO3
_chemical_formula_sum   'Sc4 Ti4 O12'
_cell_volume   214.54575161
_cell_formula_units_Z   4
loop_
 _symmetry_equiv_pos_site_id
 _symmetry_equiv_pos_as_xyz
  1  'x, y, z'
loop_
 _atom_site_type_symbol
 _atom_site_label
 _atom_site_symmetry_multiplicity
 _atom_site_fract_x
 _atom_site_fract_y
 _atom_site_fract_z
 _atom_site_occupancy
  Sc  Sc0  1  0.01972883  0.74970144  0.06894527  1
  Sc  Sc1  1  0.48027117  0.74970144  0.56894527  1
  Sc  Sc2  1  0.51972883  0.24970144  0.43105473  1
  Sc  Sc3  1  0.98027117  0.24970144  0.93105473  1
  Ti  Ti4  1  0.99887510  0.50670790  0.49635482  1
  Ti  Ti5  1  0.50112490  0.50670790  0.99635482  1
  Ti  Ti6  1  0.49887510  0.00670790  0.00364518  1
  Ti  Ti7  1  0.00112490  0.00670790  0.50364518  1
  O  O8  1  0.14436196  0.25865260  0.56976264  1
  O  O9  1  0.18393082  0.58098391  0.80169326  1
  O  O10  1  0.17184358  0.94420415  0.82315496  1
  O  O11  1  0.31606918  0.58098391  0.30169326  1
  O  O12  1  0.32815642  0.94420415  0.32315496  1
  O  O13  1  0.35563804  0.25865260  0.06976264  1
  O  O14  1  0.64436196  0.75865260  0.93023736  1
  O  O15  1  0.68393082  0.08098391  0.69830674  1
  O  O16  1  0.67184358  0.44420415  0.67684504  1
  O  O17  1  0.81606918  0.08098391  0.19830674  1
  O  O18  1  0.82815642  0.44420415  0.17684504  1
  O  O19  1  0.85563804  0.75865260  0.43023736  1
