# generated using pymatgen
data_RbZn13
_symmetry_space_group_name_H-M   'P 1'
_cell_length_a   8.79969730
_cell_length_b   8.79969730
_cell_length_c   8.79969730
_cell_angle_alpha   60.00000000
_cell_angle_beta   60.00000001
_cell_angle_gamma   60.00000002
_symmetry_Int_Tables_number   1
_chemical_formula_structural   RbZn13
_chemical_formula_sum   'Rb2 Zn26'
_cell_volume   481.82374830
_cell_formula_units_Z   2
loop_
 _symmetry_equiv_pos_site_id
 _symmetry_equiv_pos_as_xyz
  1  'x, y, z'
loop_
 _atom_site_type_symbol
 _atom_site_label
 _atom_site_symmetry_multiplicity
 _atom_site_fract_x
 _atom_site_fract_y
 _atom_site_fract_z
 _atom_site_occupancy
  Zn  Zn0  1  0.50000000  0.50000000  0.50000000  1
  Zn  Zn1  1  0.00000000  0.00000000  0.00000000  1
  Zn  Zn2  1  0.20127615  0.79872385  0.43949434  1
  Zn  Zn3  1  0.70127615  0.06050566  0.93949434  1
  Zn  Zn4  1  0.93949434  0.29872385  0.70127615  1
  Zn  Zn5  1  0.70127615  0.93949434  0.29872385  1
  Zn  Zn6  1  0.06050566  0.29872385  0.93949434  1
  Zn  Zn7  1  0.06050566  0.93949434  0.70127615  1
  Zn  Zn8  1  0.93949434  0.06050566  0.29872385  1
  Zn  Zn9  1  0.43949434  0.20127615  0.79872385  1
  Zn  Zn10  1  0.79872385  0.43949434  0.20127615  1
  Zn  Zn11  1  0.56050566  0.20127615  0.43949434  1
  Zn  Zn12  1  0.79872385  0.56050566  0.43949434  1
  Zn  Zn13  1  0.56050566  0.79872385  0.20127615  1
  Zn  Zn14  1  0.43949434  0.79872385  0.56050566  1
  Zn  Zn15  1  0.20127615  0.43949434  0.56050566  1
  Zn  Zn16  1  0.20127615  0.56050566  0.79872385  1
  Zn  Zn17  1  0.93949434  0.70127615  0.06050566  1
  Zn  Zn18  1  0.29872385  0.93949434  0.06050566  1
  Zn  Zn19  1  0.29872385  0.70127615  0.93949434  1
  Zn  Zn20  1  0.70127615  0.29872385  0.06050566  1
  Zn  Zn21  1  0.06050566  0.70127615  0.29872385  1
  Zn  Zn22  1  0.29872385  0.06050566  0.70127615  1
  Zn  Zn23  1  0.43949434  0.56050566  0.20127615  1
  Zn  Zn24  1  0.56050566  0.43949434  0.79872385  1
  Zn  Zn25  1  0.79872385  0.20127615  0.56050566  1
  Rb  Rb26  1  0.75000000  0.75000000  0.75000000  1
  Rb  Rb27  1  0.25000000  0.25000000  0.25000000  1
