# generated using pymatgen
data_ScTlO2
_symmetry_space_group_name_H-M   'P 1'
_cell_length_a   3.26466228
_cell_length_b   3.26482385
_cell_length_c   12.96808494
_cell_angle_alpha   90.00298526
_cell_angle_beta   90.00394068
_cell_angle_gamma   120.00029616
_symmetry_Int_Tables_number   1
_chemical_formula_structural   ScTlO2
_chemical_formula_sum   'Sc2 Tl2 O4'
_cell_volume   119.70249301
_cell_formula_units_Z   2
loop_
 _symmetry_equiv_pos_site_id
 _symmetry_equiv_pos_as_xyz
  1  'x, y, z'
loop_
 _atom_site_type_symbol
 _atom_site_label
 _atom_site_symmetry_multiplicity
 _atom_site_fract_x
 _atom_site_fract_y
 _atom_site_fract_z
 _atom_site_occupancy
  Sc  Sc0  1  0.33322604  0.66675516  0.24999549  1
  Sc  Sc1  1  0.33319788  0.66677144  0.75000418  1
  Tl  Tl2  1  0.00040358  0.99966988  0.00000270  1
  Tl  Tl3  1  0.66704530  0.33291275  0.50000187  1
  O  O4  1  0.99986967  0.00011586  0.33176994  1
  O  O5  1  0.99987682  0.00013571  0.66822644  1
  O  O6  1  0.66655272  0.33350706  0.83178039  1
  O  O7  1  0.66652799  0.33343313  0.16821800  1
