# generated using pymatgen
data_K2RbGdV2O8
_symmetry_space_group_name_H-M   'P 1'
_cell_length_a   6.06874359
_cell_length_b   6.06874358
_cell_length_c   7.85268632
_cell_angle_alpha   90.00000000
_cell_angle_beta   90.00000000
_cell_angle_gamma   120.00000000
_symmetry_Int_Tables_number   1
_chemical_formula_structural   K2RbGdV2O8
_chemical_formula_sum   'K2 Rb1 Gd1 V2 O8'
_cell_volume   250.46466070
_cell_formula_units_Z   1
loop_
 _symmetry_equiv_pos_site_id
 _symmetry_equiv_pos_as_xyz
  1  'x, y, z'
loop_
 _atom_site_type_symbol
 _atom_site_label
 _atom_site_symmetry_multiplicity
 _atom_site_fract_x
 _atom_site_fract_y
 _atom_site_fract_z
 _atom_site_occupancy
  O  O0  1  0.82436536  0.17563464  0.17408784  1
  O  O1  1  0.82436536  0.64873072  0.17408784  1
  O  O2  1  0.35126928  0.17563464  0.17408784  1
  O  O3  1  0.64873072  0.82436536  0.82591216  1
  O  O4  1  0.17563464  0.35126928  0.82591216  1
  O  O5  1  0.17563464  0.82436536  0.82591216  1
  O  O6  1  0.33333333  0.66666667  0.53353433  1
  O  O7  1  0.66666667  0.33333333  0.46646567  1
  K  K8  1  0.66666667  0.33333333  0.79982607  1
  K  K9  1  0.33333333  0.66666667  0.20017393  1
  V  V10  1  0.66666667  0.33333333  0.25184526  1
  V  V11  1  0.33333333  0.66666667  0.74815474  1
  Rb  Rb12  1  0.00000000  0.00000000  0.50000000  1
  Gd  Gd13  1  0.00000000  0.00000000  0.00000000  1
