# generated using pymatgen
data_Na3B20
_symmetry_space_group_name_H-M   'P 1'
_cell_length_a   4.14890821
_cell_length_b   5.68972872
_cell_length_c   9.77146805
_cell_angle_alpha   106.92621324
_cell_angle_beta   90.00000000
_cell_angle_gamma   90.00000000
_symmetry_Int_Tables_number   1
_chemical_formula_structural   Na3B20
_chemical_formula_sum   'Na3 B20'
_cell_volume   220.67448325
_cell_formula_units_Z   1
loop_
 _symmetry_equiv_pos_site_id
 _symmetry_equiv_pos_as_xyz
  1  'x, y, z'
loop_
 _atom_site_type_symbol
 _atom_site_label
 _atom_site_symmetry_multiplicity
 _atom_site_fract_x
 _atom_site_fract_y
 _atom_site_fract_z
 _atom_site_occupancy
  B  B0  1  0.50000000  0.25596878  0.51193757  1
  B  B1  1  0.50000000  0.74403122  0.48806243  1
  B  B2  1  0.50000000  0.02640628  0.59508447  1
  B  B3  1  0.20806727  0.82597922  0.65195844  1
  B  B4  1  0.20806727  0.17402078  0.34804156  1
  B  B5  1  0.79193273  0.17402078  0.34804156  1
  B  B6  1  0.79193273  0.82597922  0.65195844  1
  B  B7  1  0.20165228  0.50000000  0.00000000  1
  B  B8  1  0.79834772  0.50000000  0.00000000  1
  B  B9  1  0.50000000  0.60808688  0.90575874  1
  B  B10  1  0.50000000  0.39191312  0.09424126  1
  B  B11  1  0.50000000  0.70232814  0.09424126  1
  B  B12  1  0.50000000  0.29767186  0.90575874  1
  B  B13  1  0.50000000  0.73464290  0.76934826  1
  B  B14  1  0.50000000  0.26535710  0.23065174  1
  B  B15  1  0.50000000  0.96529464  0.23065174  1
  B  B16  1  0.50000000  0.03470536  0.76934826  1
  B  B17  1  0.50000000  0.56867820  0.59508447  1
  B  B18  1  0.50000000  0.43132180  0.40491553  1
  B  B19  1  0.50000000  0.97359372  0.40491553  1
  Na  Na20  1  0.00000000  0.63552330  0.27104660  1
  Na  Na21  1  0.00000000  0.36447670  0.72895340  1
  Na  Na22  1  0.00000000  0.00000000  0.00000000  1
