# generated using pymatgen
data_Ti3O
_symmetry_space_group_name_H-M   'P 1'
_cell_length_a   5.15772750
_cell_length_b   5.15772750
_cell_length_c   9.50735140
_cell_angle_alpha   90.00000000
_cell_angle_beta   90.00000000
_cell_angle_gamma   120.00000000
_symmetry_Int_Tables_number   1
_chemical_formula_structural   Ti3O
_chemical_formula_sum   'Ti12 O4'
_cell_volume   219.03169504
_cell_formula_units_Z   4
loop_
 _symmetry_equiv_pos_site_id
 _symmetry_equiv_pos_as_xyz
  1  'x, y, z'
loop_
 _atom_site_type_symbol
 _atom_site_label
 _atom_site_symmetry_multiplicity
 _atom_site_fract_x
 _atom_site_fract_y
 _atom_site_fract_z
 _atom_site_occupancy
  O  O0  1  0.33333333  0.66666667  0.75000000  1
  O  O1  1  0.66666667  0.33333333  0.25000000  1
  O  O2  1  0.00000000  0.00000000  0.75000000  1
  O  O3  1  0.00000000  0.00000000  0.25000000  1
  Ti  Ti4  1  0.67185814  0.00569490  0.38274248  1
  Ti  Ti5  1  0.33383676  0.32814186  0.38274248  1
  Ti  Ti6  1  0.66616324  0.99430510  0.88274248  1
  Ti  Ti7  1  0.00569490  0.67185814  0.88274248  1
  Ti  Ti8  1  0.32814186  0.33383676  0.88274248  1
  Ti  Ti9  1  0.00569490  0.33383676  0.61725752  1
  Ti  Ti10  1  0.32814186  0.99430510  0.61725752  1
  Ti  Ti11  1  0.66616324  0.67185814  0.61725752  1
  Ti  Ti12  1  0.99430510  0.66616324  0.38274248  1
  Ti  Ti13  1  0.67185814  0.66616324  0.11725752  1
  Ti  Ti14  1  0.99430510  0.32814186  0.11725752  1
  Ti  Ti15  1  0.33383676  0.00569490  0.11725752  1
