# generated using pymatgen
data_Tb5Ge3
_symmetry_space_group_name_H-M   'P 1'
_cell_length_a   8.56038191
_cell_length_b   8.56038191
_cell_length_c   6.46458623
_cell_angle_alpha   90.00000000
_cell_angle_beta   90.00000000
_cell_angle_gamma   120.00000003
_symmetry_Int_Tables_number   1
_chemical_formula_structural   Tb5Ge3
_chemical_formula_sum   'Tb10 Ge6'
_cell_volume   410.25855464
_cell_formula_units_Z   2
loop_
 _symmetry_equiv_pos_site_id
 _symmetry_equiv_pos_as_xyz
  1  'x, y, z'
loop_
 _atom_site_type_symbol
 _atom_site_label
 _atom_site_symmetry_multiplicity
 _atom_site_fract_x
 _atom_site_fract_y
 _atom_site_fract_z
 _atom_site_occupancy
  Ge  Ge0  1  0.60621487  0.00000000  0.25000000  1
  Ge  Ge1  1  0.60621487  0.60621487  0.75000000  1
  Ge  Ge2  1  0.00000000  0.39378513  0.75000000  1
  Ge  Ge3  1  0.00000000  0.60621487  0.25000000  1
  Ge  Ge4  1  0.39378513  0.39378513  0.25000000  1
  Ge  Ge5  1  0.39378513  0.00000000  0.75000000  1
  Tb  Tb6  1  0.33333333  0.66666667  0.00000000  1
  Tb  Tb7  1  0.66666667  0.33333333  0.50000000  1
  Tb  Tb8  1  0.66666667  0.33333333  0.00000000  1
  Tb  Tb9  1  0.33333333  0.66666667  0.50000000  1
  Tb  Tb10  1  0.24224264  0.00000000  0.25000000  1
  Tb  Tb11  1  0.24224264  0.24224264  0.75000000  1
  Tb  Tb12  1  0.00000000  0.75775736  0.75000000  1
  Tb  Tb13  1  0.00000000  0.24224264  0.25000000  1
  Tb  Tb14  1  0.75775736  0.75775736  0.25000000  1
  Tb  Tb15  1  0.75775736  0.00000000  0.75000000  1
