# generated using pymatgen
data_TbFe3
_symmetry_space_group_name_H-M   'P 1'
_cell_length_a   8.64857391
_cell_length_b   8.64857391
_cell_length_c   8.64857391
_cell_angle_alpha   34.37994335
_cell_angle_beta   34.37994337
_cell_angle_gamma   34.37994338
_symmetry_Int_Tables_number   1
_chemical_formula_structural   TbFe3
_chemical_formula_sum   'Tb3 Fe9'
_cell_volume   183.98078102
_cell_formula_units_Z   3
loop_
 _symmetry_equiv_pos_site_id
 _symmetry_equiv_pos_as_xyz
  1  'x, y, z'
loop_
 _atom_site_type_symbol
 _atom_site_label
 _atom_site_symmetry_multiplicity
 _atom_site_fract_x
 _atom_site_fract_y
 _atom_site_fract_z
 _atom_site_occupancy
  Fe  Fe0  1  0.50000000  0.50000000  0.50000000  1
  Fe  Fe1  1  0.33269452  0.33269452  0.33269452  1
  Fe  Fe2  1  0.66730548  0.66730548  0.66730548  1
  Fe  Fe3  1  0.58052756  0.08238039  0.58052756  1
  Fe  Fe4  1  0.58052756  0.58052756  0.08238039  1
  Fe  Fe5  1  0.08238039  0.58052756  0.58052756  1
  Fe  Fe6  1  0.91761961  0.41947244  0.41947244  1
  Fe  Fe7  1  0.41947244  0.91761961  0.41947244  1
  Fe  Fe8  1  0.41947244  0.41947244  0.91761961  1
  Tb  Tb9  1  0.00000000  0.00000000  0.00000000  1
  Tb  Tb10  1  0.14186897  0.14186897  0.14186897  1
  Tb  Tb11  1  0.85813103  0.85813103  0.85813103  1
