# generated using pymatgen
data_Ba4Al5
_symmetry_space_group_name_H-M   'P 1'
_cell_length_a   6.12039440
_cell_length_b   6.12039440
_cell_length_c   17.95428595
_cell_angle_alpha   90.00000000
_cell_angle_beta   90.00000000
_cell_angle_gamma   120.00000001
_symmetry_Int_Tables_number   1
_chemical_formula_structural   Ba4Al5
_chemical_formula_sum   'Ba8 Al10'
_cell_volume   582.44857558
_cell_formula_units_Z   2
loop_
 _symmetry_equiv_pos_site_id
 _symmetry_equiv_pos_as_xyz
  1  'x, y, z'
loop_
 _atom_site_type_symbol
 _atom_site_label
 _atom_site_symmetry_multiplicity
 _atom_site_fract_x
 _atom_site_fract_y
 _atom_site_fract_z
 _atom_site_occupancy
  Al  Al0  1  0.49036583  0.98073165  0.75000000  1
  Al  Al1  1  0.50963417  0.49036583  0.25000000  1
  Al  Al2  1  0.98073165  0.49036583  0.25000000  1
  Al  Al3  1  0.01926835  0.50963417  0.75000000  1
  Al  Al4  1  0.49036583  0.50963417  0.75000000  1
  Al  Al5  1  0.50963417  0.01926835  0.25000000  1
  Al  Al6  1  0.33333333  0.66666667  0.36251511  1
  Al  Al7  1  0.66666667  0.33333333  0.86251511  1
  Al  Al8  1  0.33333333  0.66666667  0.13748489  1
  Al  Al9  1  0.66666667  0.33333333  0.63748489  1
  Ba  Ba10  1  0.00000000  0.00000000  0.35627044  1
  Ba  Ba11  1  0.00000000  0.00000000  0.85627044  1
  Ba  Ba12  1  0.00000000  0.00000000  0.64372956  1
  Ba  Ba13  1  0.00000000  0.00000000  0.14372956  1
  Ba  Ba14  1  0.33333333  0.66666667  0.92965369  1
  Ba  Ba15  1  0.66666667  0.33333333  0.42965369  1
  Ba  Ba16  1  0.66666667  0.33333333  0.07034631  1
  Ba  Ba17  1  0.33333333  0.66666667  0.57034631  1
