# generated using pymatgen
data_Zr3Rh5
_symmetry_space_group_name_H-M   'P 1'
_cell_length_a   5.64312499
_cell_length_b   5.64312499
_cell_length_c   8.72245307
_cell_angle_alpha   90.00000000
_cell_angle_beta   90.00000000
_cell_angle_gamma   102.55460613
_symmetry_Int_Tables_number   1
_chemical_formula_structural   Zr3Rh5
_chemical_formula_sum   'Zr6 Rh10'
_cell_volume   271.12372701
_cell_formula_units_Z   2
loop_
 _symmetry_equiv_pos_site_id
 _symmetry_equiv_pos_as_xyz
  1  'x, y, z'
loop_
 _atom_site_type_symbol
 _atom_site_label
 _atom_site_symmetry_multiplicity
 _atom_site_fract_x
 _atom_site_fract_y
 _atom_site_fract_z
 _atom_site_occupancy
  Zr  Zr0  1  0.56551485  0.56551485  0.75000000  1
  Zr  Zr1  1  0.43448515  0.43448515  0.25000000  1
  Zr  Zr2  1  0.20833682  0.79166318  0.50000000  1
  Zr  Zr3  1  0.79166318  0.20833682  0.00000000  1
  Zr  Zr4  1  0.79166318  0.20833682  0.50000000  1
  Zr  Zr5  1  0.20833682  0.79166318  0.00000000  1
  Rh  Rh6  1  0.71169239  0.71169239  0.02688792  1
  Rh  Rh7  1  0.71169239  0.71169239  0.47311208  1
  Rh  Rh8  1  0.28830761  0.28830761  0.97311208  1
  Rh  Rh9  1  0.28830761  0.28830761  0.52688792  1
  Rh  Rh10  1  0.02496750  0.49377279  0.75000000  1
  Rh  Rh11  1  0.97503250  0.50622721  0.25000000  1
  Rh  Rh12  1  0.01310713  0.01310713  0.25000000  1
  Rh  Rh13  1  0.98689287  0.98689287  0.75000000  1
  Rh  Rh14  1  0.49377279  0.02496750  0.75000000  1
  Rh  Rh15  1  0.50622721  0.97503250  0.25000000  1
