# generated using pymatgen
data_U2C3
_symmetry_space_group_name_H-M   'P 1'
_cell_length_a   6.97181272
_cell_length_b   6.97181272
_cell_length_c   6.97181272
_cell_angle_alpha   109.47122061
_cell_angle_beta   109.47122060
_cell_angle_gamma   109.47122063
_symmetry_Int_Tables_number   1
_chemical_formula_structural   U2C3
_chemical_formula_sum   'U8 C12'
_cell_volume   260.86465908
_cell_formula_units_Z   4
loop_
 _symmetry_equiv_pos_site_id
 _symmetry_equiv_pos_as_xyz
  1  'x, y, z'
loop_
 _atom_site_type_symbol
 _atom_site_label
 _atom_site_symmetry_multiplicity
 _atom_site_fract_x
 _atom_site_fract_y
 _atom_site_fract_z
 _atom_site_occupancy
  C  C0  1  0.75000000  0.78575361  0.03575361  1
  C  C1  1  0.75000000  0.96424639  0.21424639  1
  C  C2  1  0.28575361  0.25000000  0.53575361  1
  C  C3  1  0.53575361  0.28575361  0.25000000  1
  C  C4  1  0.21424639  0.75000000  0.96424639  1
  C  C5  1  0.96424639  0.21424639  0.75000000  1
  C  C6  1  0.25000000  0.71424639  0.46424639  1
  C  C7  1  0.71424639  0.46424639  0.25000000  1
  C  C8  1  0.25000000  0.53575361  0.28575361  1
  C  C9  1  0.46424639  0.25000000  0.71424639  1
  C  C10  1  0.03575361  0.75000000  0.78575361  1
  C  C11  1  0.78575361  0.03575361  0.75000000  1
  U  U12  1  0.59827521  0.59827521  0.59827521  1
  U  U13  1  0.40172479  0.50000000  0.00000000  1
  U  U14  1  0.50000000  0.00000000  0.40172479  1
  U  U15  1  0.00000000  0.40172479  0.50000000  1
  U  U16  1  0.50000000  0.00000000  0.90172479  1
  U  U17  1  0.00000000  0.90172479  0.50000000  1
  U  U18  1  0.90172479  0.50000000  0.00000000  1
  U  U19  1  0.09827521  0.09827521  0.09827521  1
