# generated using pymatgen
data_Ce7O12
_symmetry_space_group_name_H-M   'P 1'
_cell_length_a   6.78871561
_cell_length_b   6.78871561
_cell_length_c   6.78871561
_cell_angle_alpha   99.59758647
_cell_angle_beta   99.59758655
_cell_angle_gamma   99.59758649
_symmetry_Int_Tables_number   1
_chemical_formula_structural   Ce7O12
_chemical_formula_sum   'Ce7 O12'
_cell_volume   298.02115861
_cell_formula_units_Z   1
loop_
 _symmetry_equiv_pos_site_id
 _symmetry_equiv_pos_as_xyz
  1  'x, y, z'
loop_
 _atom_site_type_symbol
 _atom_site_label
 _atom_site_symmetry_multiplicity
 _atom_site_fract_x
 _atom_site_fract_y
 _atom_site_fract_z
 _atom_site_occupancy
  O  O0  1  0.93028534  0.07176840  0.67902880  1
  O  O1  1  0.07176840  0.67902880  0.93028534  1
  O  O2  1  0.67902880  0.93028534  0.07176840  1
  O  O3  1  0.06971466  0.92823160  0.32097120  1
  O  O4  1  0.92823160  0.32097120  0.06971466  1
  O  O5  1  0.32097120  0.06971466  0.92823160  1
  O  O6  1  0.82231218  0.56755417  0.41744504  1
  O  O7  1  0.58255496  0.17768782  0.43244583  1
  O  O8  1  0.43244583  0.58255496  0.17768782  1
  O  O9  1  0.17768782  0.43244583  0.58255496  1
  O  O10  1  0.41744504  0.82231218  0.56755417  1
  O  O11  1  0.56755417  0.41744504  0.82231218  1
  Ce  Ce12  1  0.70014277  0.86175653  0.39909598  1
  Ce  Ce13  1  0.86175653  0.39909598  0.70014277  1
  Ce  Ce14  1  0.39909598  0.70014277  0.86175653  1
  Ce  Ce15  1  0.29985723  0.13824347  0.60090402  1
  Ce  Ce16  1  0.13824347  0.60090402  0.29985723  1
  Ce  Ce17  1  0.60090402  0.29985723  0.13824347  1
  Ce  Ce18  1  0.00000000  0.00000000  0.00000000  1
