# generated using pymatgen
data_HoTlO2
_symmetry_space_group_name_H-M   'P 1'
_cell_length_a   3.47434486
_cell_length_b   6.80186143
_cell_length_c   3.47434495
_cell_angle_alpha   104.79708820
_cell_angle_beta   60.00000082
_cell_angle_gamma   104.79708810
_symmetry_Int_Tables_number   1
_chemical_formula_structural   HoTlO2
_chemical_formula_sum   'Ho1 Tl1 O2'
_cell_volume   67.94332844
_cell_formula_units_Z   1
loop_
 _symmetry_equiv_pos_site_id
 _symmetry_equiv_pos_as_xyz
  1  'x, y, z'
loop_
 _atom_site_type_symbol
 _atom_site_label
 _atom_site_symmetry_multiplicity
 _atom_site_fract_x
 _atom_site_fract_y
 _atom_site_fract_z
 _atom_site_occupancy
  Ho  Ho0  1  0.50000000  0.50000000  0.50000000  1
  Tl  Tl1  1  0.00000000  0.00000000  0.00000000  1
  O  O2  1  0.22345317  0.67035851  0.22345317  1
  O  O3  1  0.77654683  0.32964149  0.77654683  1
