# generated using pymatgen
data_TlF3
_symmetry_space_group_name_H-M   'P 1'
_cell_length_a   5.03605312
_cell_length_b   5.90977673
_cell_length_c   7.27018506
_cell_angle_alpha   90.00000000
_cell_angle_beta   90.00000000
_cell_angle_gamma   90.00000000
_symmetry_Int_Tables_number   1
_chemical_formula_structural   TlF3
_chemical_formula_sum   'Tl4 F12'
_cell_volume   216.37488090
_cell_formula_units_Z   4
loop_
 _symmetry_equiv_pos_site_id
 _symmetry_equiv_pos_as_xyz
  1  'x, y, z'
loop_
 _atom_site_type_symbol
 _atom_site_label
 _atom_site_symmetry_multiplicity
 _atom_site_fract_x
 _atom_site_fract_y
 _atom_site_fract_z
 _atom_site_occupancy
  F  F0  1  0.33079907  0.15805809  0.42970863  1
  F  F1  1  0.83079907  0.34194191  0.57029137  1
  F  F2  1  0.16920093  0.65805809  0.07029137  1
  F  F3  1  0.66920093  0.84194191  0.92970863  1
  F  F4  1  0.64281040  0.54016754  0.25000000  1
  F  F5  1  0.14281040  0.95983246  0.75000000  1
  F  F6  1  0.85718960  0.04016754  0.25000000  1
  F  F7  1  0.35718960  0.45983246  0.75000000  1
  F  F8  1  0.33079907  0.15805809  0.07029137  1
  F  F9  1  0.83079907  0.34194191  0.92970863  1
  F  F10  1  0.16920093  0.65805809  0.42970863  1
  F  F11  1  0.66920093  0.84194191  0.57029137  1
  Tl  Tl12  1  0.96076205  0.62938879  0.75000000  1
  Tl  Tl13  1  0.46076205  0.87061121  0.25000000  1
  Tl  Tl14  1  0.53923795  0.12938879  0.75000000  1
  Tl  Tl15  1  0.03923795  0.37061121  0.25000000  1
