# generated using pymatgen
data_P4S7
_symmetry_space_group_name_H-M   'P 1'
_cell_length_a   7.50331246
_cell_length_b   9.75808186
_cell_length_c   18.73190714
_cell_angle_alpha   90.00000000
_cell_angle_beta   90.00000000
_cell_angle_gamma   96.14566103
_symmetry_Int_Tables_number   1
_chemical_formula_structural   P4S7
_chemical_formula_sum   'P16 S28'
_cell_volume   1363.62944524
_cell_formula_units_Z   4
loop_
 _symmetry_equiv_pos_site_id
 _symmetry_equiv_pos_as_xyz
  1  'x, y, z'
loop_
 _atom_site_type_symbol
 _atom_site_label
 _atom_site_symmetry_multiplicity
 _atom_site_fract_x
 _atom_site_fract_y
 _atom_site_fract_z
 _atom_site_occupancy
  P  P0  1  0.31699419  0.71478437  0.37622111  1
  P  P1  1  0.18300581  0.78521563  0.87622111  1
  P  P2  1  0.68300581  0.28521563  0.62377889  1
  P  P3  1  0.81699419  0.21478437  0.12377889  1
  P  P4  1  0.53962024  0.65120707  0.29563930  1
  P  P5  1  0.96037976  0.84879293  0.79563930  1
  P  P6  1  0.46037976  0.34879293  0.70436070  1
  P  P7  1  0.03962024  0.15120707  0.20436070  1
  P  P8  1  0.71641735  0.73853809  0.45383897  1
  P  P9  1  0.78358265  0.76146191  0.95383897  1
  P  P10  1  0.28358265  0.26146191  0.54616103  1
  P  P11  1  0.21641735  0.23853809  0.04616103  1
  P  P12  1  0.59704980  0.98538649  0.33005714  1
  P  P13  1  0.90295020  0.51461351  0.83005714  1
  P  P14  1  0.40295020  0.01461351  0.66994286  1
  P  P15  1  0.09704980  0.48538649  0.16994286  1
  S  S16  1  0.76459520  0.94685978  0.41775716  1
  S  S17  1  0.73540480  0.55314022  0.91775716  1
  S  S18  1  0.23540480  0.05314022  0.58224284  1
  S  S19  1  0.26459520  0.44685978  0.08224284  1
  S  S20  1  0.87578287  0.71603068  0.53250761  1
  S  S21  1  0.62421713  0.78396932  0.03250761  1
  S  S22  1  0.12421713  0.28396932  0.46749239  1
  S  S23  1  0.37578287  0.21603068  0.96749239  1
  S  S24  1  0.65009361  0.17682039  0.30330449  1
  S  S25  1  0.84990639  0.32317961  0.80330449  1
  S  S26  1  0.34990639  0.82317961  0.69669551  1
  S  S27  1  0.15009361  0.67682039  0.19669551  1
  S  S28  1  0.44071307  0.69459286  0.47692472  1
  S  S29  1  0.05928693  0.80540714  0.97692472  1
  S  S30  1  0.55928693  0.30540714  0.52307528  1
  S  S31  1  0.94071307  0.19459286  0.02307528  1
  S  S32  1  0.74564693  0.60553614  0.36660141  1
  S  S33  1  0.75435307  0.89446386  0.86660141  1
  S  S34  1  0.25435307  0.39446386  0.63339859  1
  S  S35  1  0.24564693  0.10553614  0.13339859  1
  S  S36  1  0.63211901  0.84301969  0.24773430  1
  S  S37  1  0.86788099  0.65698031  0.74773430  1
  S  S38  1  0.36788099  0.15698031  0.75226570  1
  S  S39  1  0.13211901  0.34301969  0.25226570  1
  S  S40  1  0.32616208  0.93014632  0.35793901  1
  S  S41  1  0.17383792  0.56985368  0.85793901  1
  S  S42  1  0.67383792  0.06985368  0.64206099  1
  S  S43  1  0.82616208  0.43014632  0.14206099  1
