# generated using pymatgen
data_Mg14Ge5O24
_symmetry_space_group_name_H-M   'P 1'
_cell_length_a   6.01783918
_cell_length_b   10.35443217
_cell_length_c   14.68811463
_cell_angle_alpha   90.00000000
_cell_angle_beta   90.00000000
_cell_angle_gamma   90.00000000
_symmetry_Int_Tables_number   1
_chemical_formula_structural   Mg14Ge5O24
_chemical_formula_sum   'Mg28 Ge10 O48'
_cell_volume   915.23562876
_cell_formula_units_Z   2
loop_
 _symmetry_equiv_pos_site_id
 _symmetry_equiv_pos_as_xyz
  1  'x, y, z'
loop_
 _atom_site_type_symbol
 _atom_site_label
 _atom_site_symmetry_multiplicity
 _atom_site_fract_x
 _atom_site_fract_y
 _atom_site_fract_z
 _atom_site_occupancy
  O  O0  1  0.00000000  0.66283861  0.91619441  1
  O  O1  1  0.00000000  0.33716139  0.08380559  1
  O  O2  1  0.00000000  0.16283861  0.58380559  1
  O  O3  1  0.00000000  0.83716139  0.41619441  1
  O  O4  1  0.00000000  0.65187687  0.57867927  1
  O  O5  1  0.00000000  0.34812313  0.42132073  1
  O  O6  1  0.00000000  0.15187687  0.92132073  1
  O  O7  1  0.00000000  0.84812313  0.07867927  1
  O  O8  1  0.00000000  0.99644943  0.74825890  1
  O  O9  1  0.00000000  0.00355057  0.25174110  1
  O  O10  1  0.00000000  0.49644943  0.75174110  1
  O  O11  1  0.00000000  0.50355057  0.24825890  1
  O  O12  1  0.50000000  0.67029366  0.93255283  1
  O  O13  1  0.50000000  0.32970634  0.06744717  1
  O  O14  1  0.50000000  0.17029366  0.56744717  1
  O  O15  1  0.50000000  0.82970634  0.43255283  1
  O  O16  1  0.50000000  0.66853168  0.58592253  1
  O  O17  1  0.50000000  0.33146832  0.41407747  1
  O  O18  1  0.50000000  0.16853168  0.91407747  1
  O  O19  1  0.50000000  0.83146832  0.08592253  1
  O  O20  1  0.50000000  0.02209974  0.74405159  1
  O  O21  1  0.50000000  0.97790026  0.25594841  1
  O  O22  1  0.50000000  0.52209974  0.75594841  1
  O  O23  1  0.50000000  0.47790026  0.24405159  1
  O  O24  1  0.77554720  0.92224157  0.92416833  1
  O  O25  1  0.77554720  0.07775843  0.07583167  1
  O  O26  1  0.22445280  0.42224157  0.57583167  1
  O  O27  1  0.22445280  0.57775843  0.42416833  1
  O  O28  1  0.22445280  0.07775843  0.07583167  1
  O  O29  1  0.22445280  0.92224157  0.92416833  1
  O  O30  1  0.77554720  0.57775843  0.42416833  1
  O  O31  1  0.77554720  0.42224157  0.57583167  1
  O  O32  1  0.75171896  0.91867705  0.58588464  1
  O  O33  1  0.75171896  0.08132295  0.41411536  1
  O  O34  1  0.24828104  0.41867705  0.91411536  1
  O  O35  1  0.24828104  0.58132295  0.08588464  1
  O  O36  1  0.24828104  0.08132295  0.41411536  1
  O  O37  1  0.24828104  0.91867705  0.58588464  1
  O  O38  1  0.75171896  0.58132295  0.08588464  1
  O  O39  1  0.75171896  0.41867705  0.91411536  1
  O  O40  1  0.72750337  0.74874141  0.75677089  1
  O  O41  1  0.72750337  0.25125859  0.24322911  1
  O  O42  1  0.27249663  0.24874141  0.74322911  1
  O  O43  1  0.27249663  0.75125859  0.25677089  1
  O  O44  1  0.27249663  0.25125859  0.24322911  1
  O  O45  1  0.27249663  0.74874141  0.75677089  1
  O  O46  1  0.72750337  0.75125859  0.25677089  1
  O  O47  1  0.72750337  0.24874141  0.74322911  1
  Mg  Mg48  1  0.50000000  0.50000000  0.00000000  1
  Mg  Mg49  1  0.50000000  0.00000000  0.50000000  1
  Mg  Mg50  1  0.50000000  0.00000000  0.00000000  1
  Mg  Mg51  1  0.50000000  0.50000000  0.50000000  1
  Mg  Mg52  1  0.00000000  0.82146566  0.82422097  1
  Mg  Mg53  1  0.00000000  0.17853434  0.17577903  1
  Mg  Mg54  1  0.00000000  0.32146566  0.67577903  1
  Mg  Mg55  1  0.00000000  0.67853434  0.32422097  1
  Mg  Mg56  1  0.50000000  0.85342991  0.67441314  1
  Mg  Mg57  1  0.50000000  0.14657009  0.32558686  1
  Mg  Mg58  1  0.50000000  0.35342991  0.82558686  1
  Mg  Mg59  1  0.50000000  0.64657009  0.17441314  1
  Mg  Mg60  1  0.75790069  0.74868775  0.00465963  1
  Mg  Mg61  1  0.75790069  0.25131225  0.99534037  1
  Mg  Mg62  1  0.24209931  0.24868775  0.49534037  1
  Mg  Mg63  1  0.24209931  0.75131225  0.50465963  1
  Mg  Mg64  1  0.24209931  0.25131225  0.99534037  1
  Mg  Mg65  1  0.24209931  0.74868775  0.00465963  1
  Mg  Mg66  1  0.75790069  0.75131225  0.50465963  1
  Mg  Mg67  1  0.75790069  0.24868775  0.49534037  1
  Mg  Mg68  1  0.75380942  0.58104883  0.66851214  1
  Mg  Mg69  1  0.75380942  0.41895117  0.33148786  1
  Mg  Mg70  1  0.24619058  0.08104883  0.83148786  1
  Mg  Mg71  1  0.24619058  0.91895117  0.16851214  1
  Mg  Mg72  1  0.24619058  0.41895117  0.33148786  1
  Mg  Mg73  1  0.24619058  0.58104883  0.66851214  1
  Mg  Mg74  1  0.75380942  0.91895117  0.16851214  1
  Mg  Mg75  1  0.75380942  0.08104883  0.83148786  1
  Ge  Ge76  1  0.00000000  0.00000000  0.00000000  1
  Ge  Ge77  1  0.00000000  0.50000000  0.50000000  1
  Ge  Ge78  1  0.00000000  0.49870365  0.87439572  1
  Ge  Ge79  1  0.00000000  0.50129635  0.12560428  1
  Ge  Ge80  1  0.00000000  0.99870365  0.62560428  1
  Ge  Ge81  1  0.00000000  0.00129635  0.37439572  1
  Ge  Ge82  1  0.50000000  0.67450116  0.81389783  1
  Ge  Ge83  1  0.50000000  0.32549884  0.18610217  1
  Ge  Ge84  1  0.50000000  0.17450116  0.68610217  1
  Ge  Ge85  1  0.50000000  0.82549884  0.31389783  1
