# generated using pymatgen
data_Ho5Sb3
_symmetry_space_group_name_H-M   'P 1'
_cell_length_a   8.94411404
_cell_length_b   8.94411404
_cell_length_c   6.27843267
_cell_angle_alpha   90.00000000
_cell_angle_beta   90.00000000
_cell_angle_gamma   120.00000001
_symmetry_Int_Tables_number   1
_chemical_formula_structural   Ho5Sb3
_chemical_formula_sum   'Ho10 Sb6'
_cell_volume   434.96721979
_cell_formula_units_Z   2
loop_
 _symmetry_equiv_pos_site_id
 _symmetry_equiv_pos_as_xyz
  1  'x, y, z'
loop_
 _atom_site_type_symbol
 _atom_site_label
 _atom_site_symmetry_multiplicity
 _atom_site_fract_x
 _atom_site_fract_y
 _atom_site_fract_z
 _atom_site_occupancy
  Sb  Sb0  1  0.38890220  0.00000000  0.75000000  1
  Sb  Sb1  1  0.38890220  0.38890220  0.25000000  1
  Sb  Sb2  1  0.00000000  0.61109780  0.25000000  1
  Sb  Sb3  1  0.00000000  0.38890220  0.75000000  1
  Sb  Sb4  1  0.61109780  0.61109780  0.75000000  1
  Sb  Sb5  1  0.61109780  0.00000000  0.25000000  1
  Ho  Ho6  1  0.33333333  0.66666667  0.00000000  1
  Ho  Ho7  1  0.66666667  0.33333333  0.50000000  1
  Ho  Ho8  1  0.66666667  0.33333333  0.00000000  1
  Ho  Ho9  1  0.33333333  0.66666667  0.50000000  1
  Ho  Ho10  1  0.75351698  0.00000000  0.75000000  1
  Ho  Ho11  1  0.75351698  0.75351698  0.25000000  1
  Ho  Ho12  1  0.00000000  0.24648302  0.25000000  1
  Ho  Ho13  1  0.00000000  0.75351698  0.75000000  1
  Ho  Ho14  1  0.24648302  0.24648302  0.75000000  1
  Ho  Ho15  1  0.24648302  0.00000000  0.25000000  1
