# generated using pymatgen
data_Zr2Ni7
_symmetry_space_group_name_H-M   'P 1'
_cell_length_a   4.69122839
_cell_length_b   4.73733160
_cell_length_c   12.14906951
_cell_angle_alpha   87.16741545
_cell_angle_beta   84.27194947
_cell_angle_gamma   60.32140975
_symmetry_Int_Tables_number   1
_chemical_formula_structural   Zr2Ni7
_chemical_formula_sum   'Zr4 Ni14'
_cell_volume   233.40897212
_cell_formula_units_Z   2
loop_
 _symmetry_equiv_pos_site_id
 _symmetry_equiv_pos_as_xyz
  1  'x, y, z'
loop_
 _atom_site_type_symbol
 _atom_site_label
 _atom_site_symmetry_multiplicity
 _atom_site_fract_x
 _atom_site_fract_y
 _atom_site_fract_z
 _atom_site_occupancy
  Ni  Ni0  1  0.75010584  0.00000000  0.25000699  1
  Ni  Ni1  1  0.24989416  0.00000000  0.74999301  1
  Ni  Ni2  1  0.96125421  0.66828771  0.07820260  1
  Ni  Ni3  1  0.37045808  0.66828771  0.92179740  1
  Ni  Ni4  1  0.03874579  0.33171229  0.92179740  1
  Ni  Ni5  1  0.62954192  0.33171229  0.07820260  1
  Ni  Ni6  1  0.87064041  0.66827334  0.42179350  1
  Ni  Ni7  1  0.46108625  0.66827334  0.57820650  1
  Ni  Ni8  1  0.12935959  0.33172666  0.57820650  1
  Ni  Ni9  1  0.53891375  0.33172666  0.42179350  1
  Ni  Ni10  1  0.75008042  0.50001279  0.24999785  1
  Ni  Ni11  1  0.74990679  0.50001279  0.75000215  1
  Ni  Ni12  1  0.24991958  0.49998721  0.75000215  1
  Ni  Ni13  1  0.25009321  0.49998721  0.24999785  1
  Zr  Zr14  1  0.77866844  0.00000000  0.61413297  1
  Zr  Zr15  1  0.22133156  0.00000000  0.38586703  1
  Zr  Zr16  1  0.72113867  0.00000000  0.88584030  1
  Zr  Zr17  1  0.27886133  0.00000000  0.11415970  1
