# generated using pymatgen
data_Pr2Au
_symmetry_space_group_name_H-M   'P 1'
_cell_length_a   5.15280749
_cell_length_b   7.40620526
_cell_length_c   9.42382567
_cell_angle_alpha   90.00000000
_cell_angle_beta   90.00000000
_cell_angle_gamma   90.00000000
_symmetry_Int_Tables_number   1
_chemical_formula_structural   Pr2Au
_chemical_formula_sum   'Pr8 Au4'
_cell_volume   359.63910249
_cell_formula_units_Z   4
loop_
 _symmetry_equiv_pos_site_id
 _symmetry_equiv_pos_as_xyz
  1  'x, y, z'
loop_
 _atom_site_type_symbol
 _atom_site_label
 _atom_site_symmetry_multiplicity
 _atom_site_fract_x
 _atom_site_fract_y
 _atom_site_fract_z
 _atom_site_occupancy
  Pr  Pr0  1  0.25000000  0.99300436  0.67448635  1
  Pr  Pr1  1  0.75000000  0.00699564  0.32551365  1
  Pr  Pr2  1  0.25000000  0.49300436  0.82551365  1
  Pr  Pr3  1  0.75000000  0.50699564  0.17448635  1
  Pr  Pr4  1  0.75000000  0.14992212  0.91371038  1
  Pr  Pr5  1  0.25000000  0.85007788  0.08628962  1
  Pr  Pr6  1  0.75000000  0.64992212  0.58628962  1
  Pr  Pr7  1  0.25000000  0.35007788  0.41371038  1
  Au  Au8  1  0.25000000  0.75914391  0.40372471  1
  Au  Au9  1  0.75000000  0.24085609  0.59627529  1
  Au  Au10  1  0.25000000  0.25914391  0.09627529  1
  Au  Au11  1  0.75000000  0.74085609  0.90372471  1
