# generated using pymatgen
data_IrW
_symmetry_space_group_name_H-M   'P 1'
_cell_length_a   2.80607960
_cell_length_b   2.80607960
_cell_length_c   4.48394635
_cell_angle_alpha   90.00000000
_cell_angle_beta   90.00000000
_cell_angle_gamma   120.04931265
_symmetry_Int_Tables_number   1
_chemical_formula_structural   IrW
_chemical_formula_sum   'Ir1 W1'
_cell_volume   30.56152307
_cell_formula_units_Z   1
loop_
 _symmetry_equiv_pos_site_id
 _symmetry_equiv_pos_as_xyz
  1  'x, y, z'
loop_
 _atom_site_type_symbol
 _atom_site_label
 _atom_site_symmetry_multiplicity
 _atom_site_fract_x
 _atom_site_fract_y
 _atom_site_fract_z
 _atom_site_occupancy
  Ir  Ir0  1  0.66666514  0.33333486  0.75000000  1
  W  W1  1  0.33333486  0.66666514  0.25000000  1
