# generated using pymatgen
data_Tl2PS3
_symmetry_space_group_name_H-M   'P 1'
_cell_length_a   11.72750657
_cell_length_b   13.89630764
_cell_length_c   16.75785761
_cell_angle_alpha   90.00000000
_cell_angle_beta   90.00000000
_cell_angle_gamma   90.00000000
_symmetry_Int_Tables_number   1
_chemical_formula_structural   Tl2PS3
_chemical_formula_sum   'Tl32 P16 S48'
_cell_volume   2731.01195286
_cell_formula_units_Z   16
loop_
 _symmetry_equiv_pos_site_id
 _symmetry_equiv_pos_as_xyz
  1  'x, y, z'
loop_
 _atom_site_type_symbol
 _atom_site_label
 _atom_site_symmetry_multiplicity
 _atom_site_fract_x
 _atom_site_fract_y
 _atom_site_fract_z
 _atom_site_occupancy
  P  P0  1  0.29197976  0.85134255  0.62306674  1
  P  P1  1  0.79197976  0.14865745  0.87693326  1
  P  P2  1  0.20802024  0.35134255  0.37693326  1
  P  P3  1  0.70802024  0.64865745  0.12306674  1
  P  P4  1  0.70802024  0.14865745  0.37693326  1
  P  P5  1  0.20802024  0.85134255  0.12306674  1
  P  P6  1  0.79197976  0.64865745  0.62306674  1
  P  P7  1  0.29197976  0.35134255  0.87693326  1
  P  P8  1  0.75575729  0.98973450  0.36982870  1
  P  P9  1  0.25575729  0.01026550  0.13017130  1
  P  P10  1  0.74424271  0.48973450  0.63017130  1
  P  P11  1  0.24424271  0.51026550  0.86982870  1
  P  P12  1  0.24424271  0.01026550  0.63017130  1
  P  P13  1  0.74424271  0.98973450  0.86982870  1
  P  P14  1  0.25575729  0.51026550  0.36982870  1
  P  P15  1  0.75575729  0.48973450  0.13017130  1
  S  S16  1  0.60805603  0.91136721  0.37459344  1
  S  S17  1  0.10805603  0.08863279  0.12540656  1
  S  S18  1  0.89194397  0.41136721  0.62540656  1
  S  S19  1  0.39194397  0.58863279  0.87459344  1
  S  S20  1  0.39194397  0.08863279  0.62540656  1
  S  S21  1  0.89194397  0.91136721  0.87459344  1
  S  S22  1  0.10805603  0.58863279  0.37459344  1
  S  S23  1  0.60805603  0.41136721  0.12540656  1
  S  S24  1  0.36447744  0.78420928  0.12528488  1
  S  S25  1  0.86447744  0.21579072  0.37471512  1
  S  S26  1  0.13552256  0.28420928  0.87471512  1
  S  S27  1  0.63552256  0.71579072  0.62528488  1
  S  S28  1  0.63552256  0.21579072  0.87471512  1
  S  S29  1  0.13552256  0.78420928  0.62528488  1
  S  S30  1  0.86447744  0.71579072  0.12528488  1
  S  S31  1  0.36447744  0.28420928  0.37471512  1
  S  S32  1  0.38453492  0.81909370  0.72129448  1
  S  S33  1  0.88453492  0.18090630  0.77870552  1
  S  S34  1  0.11546508  0.31909370  0.27870552  1
  S  S35  1  0.61546508  0.68090630  0.22129448  1
  S  S36  1  0.61546508  0.18090630  0.27870552  1
  S  S37  1  0.11546508  0.81909370  0.22129448  1
  S  S38  1  0.88453492  0.68090630  0.72129448  1
  S  S39  1  0.38453492  0.31909370  0.77870552  1
  S  S40  1  0.66412338  0.97107067  0.76282165  1
  S  S41  1  0.16412338  0.02892933  0.73717835  1
  S  S42  1  0.83587662  0.47107067  0.23717835  1
  S  S43  1  0.33587662  0.52892933  0.26282165  1
  S  S44  1  0.33587662  0.02892933  0.23717835  1
  S  S45  1  0.83587662  0.97107067  0.26282165  1
  S  S46  1  0.16412338  0.52892933  0.76282165  1
  S  S47  1  0.66412338  0.47107067  0.73717835  1
  S  S48  1  0.37132094  0.83624425  0.51635699  1
  S  S49  1  0.87132094  0.16375575  0.98364301  1
  S  S50  1  0.12867906  0.33624425  0.48364301  1
  S  S51  1  0.62867906  0.66375575  0.01635699  1
  S  S52  1  0.62867906  0.16375575  0.48364301  1
  S  S53  1  0.12867906  0.83624425  0.01635699  1
  S  S54  1  0.87132094  0.66375575  0.51635699  1
  S  S55  1  0.37132094  0.33624425  0.98364301  1
  S  S56  1  0.64213827  0.96377302  0.96537568  1
  S  S57  1  0.14213827  0.03622698  0.53462432  1
  S  S58  1  0.85786173  0.46377302  0.03462432  1
  S  S59  1  0.35786173  0.53622698  0.46537568  1
  S  S60  1  0.35786173  0.03622698  0.03462432  1
  S  S61  1  0.85786173  0.96377302  0.46537568  1
  S  S62  1  0.14213827  0.53622698  0.96537568  1
  S  S63  1  0.64213827  0.46377302  0.53462432  1
  Tl  Tl64  1  0.61090463  0.93917655  0.56430125  1
  Tl  Tl65  1  0.11090463  0.06082345  0.93569875  1
  Tl  Tl66  1  0.88909537  0.43917655  0.43569875  1
  Tl  Tl67  1  0.38909537  0.56082345  0.06430125  1
  Tl  Tl68  1  0.38909537  0.06082345  0.43569875  1
  Tl  Tl69  1  0.88909537  0.93917655  0.06430125  1
  Tl  Tl70  1  0.11090463  0.56082345  0.56430125  1
  Tl  Tl71  1  0.61090463  0.43917655  0.93569875  1
  Tl  Tl72  1  0.66407725  0.75055680  0.80314163  1
  Tl  Tl73  1  0.16407725  0.24944320  0.69685837  1
  Tl  Tl74  1  0.83592275  0.25055680  0.19685837  1
  Tl  Tl75  1  0.33592275  0.74944320  0.30314163  1
  Tl  Tl76  1  0.33592275  0.24944320  0.19685837  1
  Tl  Tl77  1  0.83592275  0.75055680  0.30314163  1
  Tl  Tl78  1  0.16407725  0.74944320  0.80314163  1
  Tl  Tl79  1  0.66407725  0.25055680  0.69685837  1
  Tl  Tl80  1  0.39980823  0.83815516  0.95509562  1
  Tl  Tl81  1  0.89980823  0.16184484  0.54490438  1
  Tl  Tl82  1  0.10019177  0.33815516  0.04490438  1
  Tl  Tl83  1  0.60019177  0.66184484  0.45509562  1
  Tl  Tl84  1  0.60019177  0.16184484  0.04490438  1
  Tl  Tl85  1  0.10019177  0.83815516  0.45509562  1
  Tl  Tl86  1  0.89980823  0.66184484  0.95509562  1
  Tl  Tl87  1  0.39980823  0.33815516  0.54490438  1
  Tl  Tl88  1  0.57003694  0.93799458  0.19113479  1
  Tl  Tl89  1  0.07003694  0.06200542  0.30886521  1
  Tl  Tl90  1  0.92996306  0.43799458  0.80886521  1
  Tl  Tl91  1  0.42996306  0.56200542  0.69113479  1
  Tl  Tl92  1  0.42996306  0.06200542  0.80886521  1
  Tl  Tl93  1  0.92996306  0.93799458  0.69113479  1
  Tl  Tl94  1  0.07003694  0.56200542  0.19113479  1
  Tl  Tl95  1  0.57003694  0.43799458  0.30886521  1
