# generated using pymatgen
data_LaP2
_symmetry_space_group_name_H-M   'P 1'
_cell_length_a   8.84827661
_cell_length_b   8.93346582
_cell_length_c   9.40460668
_cell_angle_alpha   118.25407500
_cell_angle_beta   117.95890072
_cell_angle_gamma   90.19113237
_symmetry_Int_Tables_number   1
_chemical_formula_structural   LaP2
_chemical_formula_sum   'La8 P16'
_cell_volume   553.62085314
_cell_formula_units_Z   8
loop_
 _symmetry_equiv_pos_site_id
 _symmetry_equiv_pos_as_xyz
  1  'x, y, z'
loop_
 _atom_site_type_symbol
 _atom_site_label
 _atom_site_symmetry_multiplicity
 _atom_site_fract_x
 _atom_site_fract_y
 _atom_site_fract_z
 _atom_site_occupancy
  P  P0  1  0.18383012  0.27876444  0.73092559  1
  P  P1  1  0.45290452  0.04783885  0.26907441  1
  P  P2  1  0.24676004  0.35059420  0.56732772  1
  P  P3  1  0.67943232  0.28326648  0.43267228  1
  P  P4  1  0.79757587  0.20765818  0.24228465  1
  P  P5  1  0.55529122  0.46537353  0.75771535  1
  P  P6  1  0.66299490  0.41129896  0.99013679  1
  P  P7  1  0.67285810  0.92116217  0.00986321  1
  P  P8  1  0.23193338  0.43134147  0.23448142  1
  P  P9  1  0.99745195  0.69686005  0.76551858  1
  P  P10  1  0.28098737  0.68119585  0.24543726  1
  P  P11  1  0.03555011  0.93575859  0.75456274  1
  P  P12  1  0.80704536  0.04712460  0.74284296  1
  P  P13  1  0.06420240  0.80428164  0.25715704  1
  P  P14  1  0.40986524  0.86457831  0.76044422  1
  P  P15  1  0.64942102  0.60413409  0.23955578  1
  La  La16  1  0.03426170  0.59192410  0.42323089  1
  La  La17  1  0.61103081  0.66869321  0.57676911  1
  La  La18  1  0.94253315  0.44092976  0.88447240  1
  La  La19  1  0.05806075  0.05645736  0.11552760  1
  La  La20  1  0.42197289  0.06920466  0.58586231  1
  La  La21  1  0.83611058  0.98334235  0.41413769  1
  La  La22  1  0.37633421  0.67977969  0.95414221  1
  La  La23  1  0.42219200  0.22563748  0.04585779  1
