# generated using pymatgen
data_YGa2Ni3
_symmetry_space_group_name_H-M   'P 1'
_cell_length_a   8.93424356
_cell_length_b   8.93424356
_cell_length_c   3.92323006
_cell_angle_alpha   90.00000000
_cell_angle_beta   90.00000000
_cell_angle_gamma   119.99999999
_symmetry_Int_Tables_number   1
_chemical_formula_structural   YGa2Ni3
_chemical_formula_sum   'Y3 Ga6 Ni9'
_cell_volume   271.20018630
_cell_formula_units_Z   3
loop_
 _symmetry_equiv_pos_site_id
 _symmetry_equiv_pos_as_xyz
  1  'x, y, z'
loop_
 _atom_site_type_symbol
 _atom_site_label
 _atom_site_symmetry_multiplicity
 _atom_site_fract_x
 _atom_site_fract_y
 _atom_site_fract_z
 _atom_site_occupancy
  Ni  Ni0  1  0.17963160  0.35926321  0.00000000  1
  Ni  Ni1  1  0.82036840  0.64073679  0.00000000  1
  Ni  Ni2  1  0.17963160  0.82036840  0.00000000  1
  Ni  Ni3  1  0.64073679  0.82036840  0.00000000  1
  Ni  Ni4  1  0.35926321  0.17963160  0.00000000  1
  Ni  Ni5  1  0.82036840  0.17963160  0.00000000  1
  Ni  Ni6  1  0.50000000  0.00000000  0.00000000  1
  Ni  Ni7  1  0.00000000  0.50000000  0.00000000  1
  Ni  Ni8  1  0.50000000  0.50000000  0.00000000  1
  Ga  Ga9  1  0.31764061  0.31764061  0.50000000  1
  Ga  Ga10  1  0.68235939  0.00000000  0.50000000  1
  Ga  Ga11  1  0.68235939  0.68235939  0.50000000  1
  Ga  Ga12  1  0.00000000  0.31764061  0.50000000  1
  Ga  Ga13  1  0.00000000  0.68235939  0.50000000  1
  Ga  Ga14  1  0.31764061  0.00000000  0.50000000  1
  Y  Y15  1  0.00000000  0.00000000  0.00000000  1
  Y  Y16  1  0.33333333  0.66666667  0.50000000  1
  Y  Y17  1  0.66666667  0.33333333  0.50000000  1
