# generated using pymatgen
data_Ti2Cu3Te3O16
_symmetry_space_group_name_H-M   'P 1'
_cell_length_a   6.29053994
_cell_length_b   5.96256290
_cell_length_c   9.27843991
_cell_angle_alpha   90.07141965
_cell_angle_beta   86.82535463
_cell_angle_gamma   118.39796248
_symmetry_Int_Tables_number   1
_chemical_formula_structural   Ti2Cu3Te3O16
_chemical_formula_sum   'Ti2 Cu3 Te3 O16'
_cell_volume   305.54073811
_cell_formula_units_Z   1
loop_
 _symmetry_equiv_pos_site_id
 _symmetry_equiv_pos_as_xyz
  1  'x, y, z'
loop_
 _atom_site_type_symbol
 _atom_site_label
 _atom_site_symmetry_multiplicity
 _atom_site_fract_x
 _atom_site_fract_y
 _atom_site_fract_z
 _atom_site_occupancy
  Ti  Ti0  1  0.28743558  0.64472857  0.46415788  1
  Ti  Ti1  1  0.62276878  0.31053014  0.00982578  1
  Cu  Cu2  1  0.15742384  0.82876407  0.19823361  1
  Cu  Cu3  1  0.15735104  0.32870494  0.19834733  1
  Cu  Cu4  1  0.35229559  0.17596163  0.71289342  1
  Te  Te5  1  0.65255139  0.82594365  0.21844370  1
  Te  Te6  1  0.84948165  0.67444113  0.71383325  1
  Te  Te7  1  0.85003771  0.17539824  0.71353029  1
  O  O8  1  0.16630783  0.83635558  0.61212627  1
  O  O9  1  0.05705079  0.53002156  0.33749221  1
  O  O10  1  0.35290625  0.67650812  0.11203387  1
  O  O11  1  0.97270947  0.98628879  0.29360946  1
  O  O12  1  0.96530230  0.98311547  0.83309992  1
  O  O13  1  0.16667630  0.33123277  0.61195359  1
  O  O14  1  0.50418518  0.96094155  0.36265313  1
  O  O15  1  0.50098163  0.54123255  0.36140408  1
  O  O16  1  0.32309256  0.16100300  0.08909282  1
  O  O17  1  0.71561711  0.85722995  0.60212311  1
  O  O18  1  0.54468735  0.48952976  0.82588769  1
  O  O19  1  0.54524403  0.05437719  0.82574360  1
  O  O20  1  0.74782490  0.37363238  0.58827853  1
  O  O21  1  0.77274673  0.63367088  0.09466556  1
  O  O22  1  0.96200781  0.48148031  0.84115769  1
  O  O23  1  0.77331616  0.13910777  0.09513325  1
