# generated using pymatgen
data_Ni11As8
_symmetry_space_group_name_H-M   'P 1'
_cell_length_a   6.89493837
_cell_length_b   6.89493837
_cell_length_c   21.85026145
_cell_angle_alpha   90.00000000
_cell_angle_beta   90.00000000
_cell_angle_gamma   90.00000000
_symmetry_Int_Tables_number   1
_chemical_formula_structural   Ni11As8
_chemical_formula_sum   'Ni44 As32'
_cell_volume   1038.76525588
_cell_formula_units_Z   4
loop_
 _symmetry_equiv_pos_site_id
 _symmetry_equiv_pos_as_xyz
  1  'x, y, z'
loop_
 _atom_site_type_symbol
 _atom_site_label
 _atom_site_symmetry_multiplicity
 _atom_site_fract_x
 _atom_site_fract_y
 _atom_site_fract_z
 _atom_site_occupancy
  Ni  Ni0  1  0.12251869  0.37386916  0.26813287  1
  Ni  Ni1  1  0.12613084  0.62251869  0.51813287  1
  Ni  Ni2  1  0.87386916  0.37748131  0.01813287  1
  Ni  Ni3  1  0.62251869  0.12613084  0.48186713  1
  Ni  Ni4  1  0.37748131  0.87386916  0.98186713  1
  Ni  Ni5  1  0.87748131  0.62613084  0.76813287  1
  Ni  Ni6  1  0.37386916  0.12251869  0.73186713  1
  Ni  Ni7  1  0.62613084  0.87748131  0.23186713  1
  Ni  Ni8  1  0.37713719  0.37713719  0.00000000  1
  Ni  Ni9  1  0.12286281  0.87713719  0.25000000  1
  Ni  Ni10  1  0.87713719  0.12286281  0.75000000  1
  Ni  Ni11  1  0.62286281  0.62286281  0.50000000  1
  Ni  Ni12  1  0.12699671  0.57133622  0.17178941  1
  Ni  Ni13  1  0.92866378  0.62699671  0.42178941  1
  Ni  Ni14  1  0.07133622  0.37300329  0.92178941  1
  Ni  Ni15  1  0.62699671  0.92866378  0.57821059  1
  Ni  Ni16  1  0.37300329  0.07133622  0.07821059  1
  Ni  Ni17  1  0.87300329  0.42866378  0.67178941  1
  Ni  Ni18  1  0.57133622  0.12699671  0.82821059  1
  Ni  Ni19  1  0.42866378  0.87300329  0.32821059  1
  Ni  Ni20  1  0.62125186  0.56517080  0.17136781  1
  Ni  Ni21  1  0.93482920  0.12125186  0.42136781  1
  Ni  Ni22  1  0.06517080  0.87874814  0.92136781  1
  Ni  Ni23  1  0.12125186  0.93482920  0.57863219  1
  Ni  Ni24  1  0.87874814  0.06517080  0.07863219  1
  Ni  Ni25  1  0.37874814  0.43482920  0.67136781  1
  Ni  Ni26  1  0.56517080  0.62125186  0.82863219  1
  Ni  Ni27  1  0.43482920  0.37874814  0.32863219  1
  Ni  Ni28  1  0.37278345  0.68157398  0.07890268  1
  Ni  Ni29  1  0.81842602  0.87278345  0.32890268  1
  Ni  Ni30  1  0.18157398  0.12721655  0.82890268  1
  Ni  Ni31  1  0.87278345  0.81842602  0.67109732  1
  Ni  Ni32  1  0.12721655  0.18157398  0.17109732  1
  Ni  Ni33  1  0.62721655  0.31842602  0.57890268  1
  Ni  Ni34  1  0.68157398  0.37278345  0.92109732  1
  Ni  Ni35  1  0.31842602  0.62721655  0.42109732  1
  Ni  Ni36  1  0.87766407  0.68974994  0.07889073  1
  Ni  Ni37  1  0.81025006  0.37766407  0.32889073  1
  Ni  Ni38  1  0.18974994  0.62233593  0.82889073  1
  Ni  Ni39  1  0.37766407  0.81025006  0.67110927  1
  Ni  Ni40  1  0.62233593  0.18974994  0.17110927  1
  Ni  Ni41  1  0.12233593  0.31025006  0.57889073  1
  Ni  Ni42  1  0.68974994  0.87766407  0.92110927  1
  Ni  Ni43  1  0.31025006  0.12233593  0.42110927  1
  As  As44  1  0.12152149  0.12152149  0.00000000  1
  As  As45  1  0.37847851  0.62152149  0.25000000  1
  As  As46  1  0.62152149  0.37847851  0.75000000  1
  As  As47  1  0.87847851  0.87847851  0.50000000  1
  As  As48  1  0.63057626  0.63057626  0.00000000  1
  As  As49  1  0.86942374  0.13057626  0.25000000  1
  As  As50  1  0.13057626  0.86942374  0.75000000  1
  As  As51  1  0.36942374  0.36942374  0.50000000  1
  As  As52  1  0.63166768  0.12125614  0.00021892  1
  As  As53  1  0.37874386  0.13166768  0.25021892  1
  As  As54  1  0.62125614  0.86833232  0.75021892  1
  As  As55  1  0.13166768  0.37874386  0.74978108  1
  As  As56  1  0.86833232  0.62125614  0.24978108  1
  As  As57  1  0.36833232  0.87874386  0.50021892  1
  As  As58  1  0.12125614  0.63166768  0.99978108  1
  As  As59  1  0.87874386  0.36833232  0.49978108  1
  As  As60  1  0.87430573  0.37749492  0.12562111  1
  As  As61  1  0.12250508  0.37430573  0.37562111  1
  As  As62  1  0.87749492  0.62569427  0.87562111  1
  As  As63  1  0.37430573  0.12250508  0.62437889  1
  As  As64  1  0.62569427  0.87749492  0.12437889  1
  As  As65  1  0.12569427  0.62250508  0.62562111  1
  As  As66  1  0.37749492  0.87430573  0.87437889  1
  As  As67  1  0.62250508  0.12569427  0.37437889  1
  As  As68  1  0.12515498  0.87636091  0.12869227  1
  As  As69  1  0.62363909  0.62515498  0.37869227  1
  As  As70  1  0.37636091  0.37484502  0.87869227  1
  As  As71  1  0.62515498  0.62363909  0.62130773  1
  As  As72  1  0.37484502  0.37636091  0.12130773  1
  As  As73  1  0.87484502  0.12363909  0.62869227  1
  As  As74  1  0.87636091  0.12515498  0.87130773  1
  As  As75  1  0.12363909  0.87484502  0.37130773  1
