# generated using pymatgen
data_Li10BrN3
_symmetry_space_group_name_H-M   'P 1'
_cell_length_a   7.44113875
_cell_length_b   7.44113875
_cell_length_c   3.87810144
_cell_angle_alpha   90.00000000
_cell_angle_beta   90.00000000
_cell_angle_gamma   120.00000004
_symmetry_Int_Tables_number   1
_chemical_formula_structural   Li10BrN3
_chemical_formula_sum   'Li10 Br1 N3'
_cell_volume   185.96388121
_cell_formula_units_Z   1
loop_
 _symmetry_equiv_pos_site_id
 _symmetry_equiv_pos_as_xyz
  1  'x, y, z'
loop_
 _atom_site_type_symbol
 _atom_site_label
 _atom_site_symmetry_multiplicity
 _atom_site_fract_x
 _atom_site_fract_y
 _atom_site_fract_z
 _atom_site_occupancy
  Li  Li0  1  0.77833193  0.55666385  0.00000000  1
  Li  Li1  1  0.44333615  0.22166807  0.00000000  1
  Li  Li2  1  0.77833193  0.22166807  0.00000000  1
  Li  Li3  1  0.16717557  0.33435114  0.00000000  1
  Li  Li4  1  0.49164874  0.50835126  0.50000000  1
  Li  Li5  1  0.01670251  0.50835126  0.50000000  1
  Li  Li6  1  0.49164874  0.98329749  0.50000000  1
  Li  Li7  1  0.33333333  0.66666667  0.00000000  1
  Li  Li8  1  0.16717557  0.83282443  0.00000000  1
  Li  Li9  1  0.66564886  0.83282443  0.00000000  1
  N  N10  1  0.49137474  0.50862526  0.00000000  1
  N  N11  1  0.49137474  0.98274949  0.00000000  1
  N  N12  1  0.01725051  0.50862526  0.00000000  1
  Br  Br13  1  0.00000000  0.00000000  0.50000000  1
