# generated using pymatgen
data_Eu4Cl6O
_symmetry_space_group_name_H-M   'P 1'
_cell_length_a   9.49111033
_cell_length_b   9.49111032
_cell_length_c   7.19386999
_cell_angle_alpha   90.00000000
_cell_angle_beta   90.00000000
_cell_angle_gamma   119.99999999
_symmetry_Int_Tables_number   1
_chemical_formula_structural   Eu4Cl6O
_chemical_formula_sum   'Eu8 Cl12 O2'
_cell_volume   561.21240237
_cell_formula_units_Z   2
loop_
 _symmetry_equiv_pos_site_id
 _symmetry_equiv_pos_as_xyz
  1  'x, y, z'
loop_
 _atom_site_type_symbol
 _atom_site_label
 _atom_site_symmetry_multiplicity
 _atom_site_fract_x
 _atom_site_fract_y
 _atom_site_fract_z
 _atom_site_occupancy
  O  O0  1  0.33333333  0.66666667  0.10659703  1
  O  O1  1  0.66666667  0.33333333  0.60659703  1
  Cl  Cl2  1  0.46582868  0.93165737  0.71485077  1
  Cl  Cl3  1  0.53417132  0.06834263  0.21485077  1
  Cl  Cl4  1  0.93165737  0.46582868  0.21485077  1
  Cl  Cl5  1  0.46582868  0.53417132  0.71485077  1
  Cl  Cl6  1  0.85785824  0.14214176  0.89125927  1
  Cl  Cl7  1  0.71571648  0.85785824  0.39125927  1
  Cl  Cl8  1  0.53417132  0.46582868  0.21485077  1
  Cl  Cl9  1  0.06834263  0.53417132  0.71485077  1
  Cl  Cl10  1  0.14214176  0.85785824  0.39125927  1
  Cl  Cl11  1  0.28428352  0.14214176  0.89125927  1
  Cl  Cl12  1  0.85785824  0.71571648  0.89125927  1
  Cl  Cl13  1  0.14214176  0.28428352  0.39125927  1
  Eu  Eu14  1  0.80296178  0.19703822  0.50089240  1
  Eu  Eu15  1  0.60592355  0.80296178  0.00089240  1
  Eu  Eu16  1  0.19703822  0.39407645  0.00089240  1
  Eu  Eu17  1  0.80296178  0.60592355  0.50089240  1
  Eu  Eu18  1  0.39407645  0.19703822  0.50089240  1
  Eu  Eu19  1  0.19703822  0.80296178  0.00089240  1
  Eu  Eu20  1  0.66666667  0.33333333  0.93349564  1
  Eu  Eu21  1  0.33333333  0.66666667  0.43349564  1
