# generated using pymatgen
data_K3BiO3
_symmetry_space_group_name_H-M   'P 1'
_cell_length_a   9.43095859
_cell_length_b   9.43095858
_cell_length_c   9.43095859
_cell_angle_alpha   109.47122063
_cell_angle_beta   109.47122061
_cell_angle_gamma   109.47122064
_symmetry_Int_Tables_number   1
_chemical_formula_structural   K3BiO3
_chemical_formula_sum   'K12 Bi4 O12'
_cell_volume   645.72205892
_cell_formula_units_Z   4
loop_
 _symmetry_equiv_pos_site_id
 _symmetry_equiv_pos_as_xyz
  1  'x, y, z'
loop_
 _atom_site_type_symbol
 _atom_site_label
 _atom_site_symmetry_multiplicity
 _atom_site_fract_x
 _atom_site_fract_y
 _atom_site_fract_z
 _atom_site_occupancy
  O  O0  1  0.79012064  0.79012064  0.26180542  1
  O  O1  1  0.52831523  0.73819458  0.52831523  1
  O  O2  1  0.73819458  0.52831523  0.52831523  1
  O  O3  1  0.00000000  0.47168477  0.20987936  1
  O  O4  1  0.79012064  0.26180542  0.79012064  1
  O  O5  1  0.26180542  0.79012064  0.79012064  1
  O  O6  1  0.00000000  0.20987936  0.47168477  1
  O  O7  1  0.20987936  0.47168477  0.00000000  1
  O  O8  1  0.47168477  0.20987936  0.00000000  1
  O  O9  1  0.52831523  0.52831523  0.73819458  1
  O  O10  1  0.47168477  0.00000000  0.20987936  1
  O  O11  1  0.20987936  0.00000000  0.47168477  1
  K  K12  1  0.00000000  0.48508636  0.73065448  1
  K  K13  1  0.24556812  0.51491364  0.51491364  1
  K  K14  1  0.51491364  0.24556812  0.51491364  1
  K  K15  1  0.26934552  0.26934552  0.75443188  1
  K  K16  1  0.26934552  0.75443188  0.26934552  1
  K  K17  1  0.75443188  0.26934552  0.26934552  1
  K  K18  1  0.00000000  0.73065448  0.48508636  1
  K  K19  1  0.73065448  0.48508636  0.00000000  1
  K  K20  1  0.48508636  0.73065448  0.00000000  1
  K  K21  1  0.51491364  0.51491364  0.24556812  1
  K  K22  1  0.48508636  0.00000000  0.73065448  1
  K  K23  1  0.73065448  0.00000000  0.48508636  1
  Bi  Bi24  1  0.00000000  0.00000000  0.29629246  1
  Bi  Bi25  1  0.00000000  0.29629246  0.00000000  1
  Bi  Bi26  1  0.29629246  0.00000000  0.00000000  1
  Bi  Bi27  1  0.70370754  0.70370754  0.70370754  1
