# generated using pymatgen
data_Sr6Cu3N5
_symmetry_space_group_name_H-M   'P 1'
_cell_length_a   7.36364837
_cell_length_b   8.69477151
_cell_length_c   8.69477151
_cell_angle_alpha   90.00000000
_cell_angle_beta   90.00000000
_cell_angle_gamma   90.00000000
_symmetry_Int_Tables_number   1
_chemical_formula_structural   Sr6Cu3N5
_chemical_formula_sum   'Sr12 Cu6 N10'
_cell_volume   556.68483317
_cell_formula_units_Z   2
loop_
 _symmetry_equiv_pos_site_id
 _symmetry_equiv_pos_as_xyz
  1  'x, y, z'
loop_
 _atom_site_type_symbol
 _atom_site_label
 _atom_site_symmetry_multiplicity
 _atom_site_fract_x
 _atom_site_fract_y
 _atom_site_fract_z
 _atom_site_occupancy
  N  N0  1  0.63180509  0.50000000  0.00000000  1
  N  N1  1  0.13180509  0.00000000  0.50000000  1
  N  N2  1  0.24091319  0.78081729  0.00000000  1
  N  N3  1  0.74091319  0.00000000  0.78081729  1
  N  N4  1  0.74091319  0.00000000  0.21918271  1
  N  N5  1  0.24091319  0.21918271  0.00000000  1
  N  N6  1  0.48382467  0.71303174  0.50000000  1
  N  N7  1  0.98382467  0.50000000  0.71303174  1
  N  N8  1  0.98382467  0.50000000  0.28696826  1
  N  N9  1  0.48382467  0.28696826  0.50000000  1
  Cu  Cu10  1  0.97206471  0.50000000  0.50000000  1
  Cu  Cu11  1  0.47206471  0.50000000  0.50000000  1
  Cu  Cu12  1  0.43383711  0.35918427  0.00000000  1
  Cu  Cu13  1  0.93383711  0.00000000  0.35918427  1
  Cu  Cu14  1  0.93383711  0.00000000  0.64081573  1
  Cu  Cu15  1  0.43383711  0.64081573  0.00000000  1
  Sr  Sr16  1  0.50311514  0.00000000  0.00000000  1
  Sr  Sr17  1  1.00311514  0.00000000  0.00000000  1
  Sr  Sr18  1  0.02204382  0.50000000  0.00000000  1
  Sr  Sr19  1  0.52204382  0.00000000  0.50000000  1
  Sr  Sr20  1  0.71103032  0.30283110  0.26693991  1
  Sr  Sr21  1  0.71103032  0.69716890  0.73306009  1
  Sr  Sr22  1  0.21103032  0.26693991  0.69716890  1
  Sr  Sr23  1  0.21103032  0.73306009  0.30283110  1
  Sr  Sr24  1  0.21103032  0.73306009  0.69716890  1
  Sr  Sr25  1  0.71103032  0.30283110  0.73306009  1
  Sr  Sr26  1  0.71103032  0.69716890  0.26693991  1
  Sr  Sr27  1  0.21103032  0.26693991  0.30283110  1
