# generated using pymatgen
data_Hf6Ni16Ge7
_symmetry_space_group_name_H-M   'P 1'
_cell_length_a   8.20429417
_cell_length_b   8.20429446
_cell_length_c   8.20429412
_cell_angle_alpha   59.99999735
_cell_angle_beta   59.99999618
_cell_angle_gamma   59.99999627
_symmetry_Int_Tables_number   1
_chemical_formula_structural   Hf6Ni16Ge7
_chemical_formula_sum   'Hf6 Ni16 Ge7'
_cell_volume   390.48886418
_cell_formula_units_Z   1
loop_
 _symmetry_equiv_pos_site_id
 _symmetry_equiv_pos_as_xyz
  1  'x, y, z'
loop_
 _atom_site_type_symbol
 _atom_site_label
 _atom_site_symmetry_multiplicity
 _atom_site_fract_x
 _atom_site_fract_y
 _atom_site_fract_z
 _atom_site_occupancy
  Hf  Hf0  1  0.79499726  0.79499726  0.20500274  1
  Hf  Hf1  1  0.79499726  0.20500274  0.79499726  1
  Hf  Hf2  1  0.20500274  0.20500274  0.79499726  1
  Hf  Hf3  1  0.20500274  0.79499726  0.20500274  1
  Hf  Hf4  1  0.20500274  0.79499726  0.79499726  1
  Hf  Hf5  1  0.79499726  0.20500274  0.20500274  1
  Ni  Ni6  1  0.61844210  0.14467371  0.61844210  1
  Ni  Ni7  1  0.49742674  0.16752442  0.16752442  1
  Ni  Ni8  1  0.38155790  0.38155790  0.85532629  1
  Ni  Ni9  1  0.83247558  0.83247558  0.50257326  1
  Ni  Ni10  1  0.16752442  0.16752442  0.49742674  1
  Ni  Ni11  1  0.83247558  0.50257326  0.83247558  1
  Ni  Ni12  1  0.16752442  0.49742674  0.16752442  1
  Ni  Ni13  1  0.61844210  0.61844210  0.14467371  1
  Ni  Ni14  1  0.16752442  0.16752442  0.16752442  1
  Ni  Ni15  1  0.38155790  0.85532629  0.38155790  1
  Ni  Ni16  1  0.61844210  0.61844210  0.61844210  1
  Ni  Ni17  1  0.85532629  0.38155790  0.38155790  1
  Ni  Ni18  1  0.38155790  0.38155790  0.38155790  1
  Ni  Ni19  1  0.83247558  0.83247558  0.83247558  1
  Ni  Ni20  1  0.14467371  0.61844210  0.61844210  1
  Ni  Ni21  1  0.50257326  0.83247558  0.83247558  1
  Ge  Ge22  1  0.00000000  0.50000000  0.50000000  1
  Ge  Ge23  1  0.50000000  0.00000000  0.50000000  1
  Ge  Ge24  1  0.50000000  0.50000000  0.50000000  1
  Ge  Ge25  1  0.00000000  0.50000000  0.00000000  1
  Ge  Ge26  1  0.50000000  0.00000000  0.00000000  1
  Ge  Ge27  1  0.50000000  0.50000000  0.00000000  1
  Ge  Ge28  1  0.00000000  0.00000000  0.50000000  1
