# generated using pymatgen
data_MgMn2O4
_symmetry_space_group_name_H-M   'P 1'
_cell_length_a   5.82385984
_cell_length_b   5.82385984
_cell_length_c   6.25958848
_cell_angle_alpha   117.72284961
_cell_angle_beta   117.72284961
_cell_angle_gamma   90.00000004
_symmetry_Int_Tables_number   1
_chemical_formula_structural   MgMn2O4
_chemical_formula_sum   'Mg2 Mn4 O8'
_cell_volume   159.89348064
_cell_formula_units_Z   2
loop_
 _symmetry_equiv_pos_site_id
 _symmetry_equiv_pos_as_xyz
  1  'x, y, z'
loop_
 _atom_site_type_symbol
 _atom_site_label
 _atom_site_symmetry_multiplicity
 _atom_site_fract_x
 _atom_site_fract_y
 _atom_site_fract_z
 _atom_site_occupancy
  O  O0  1  0.75431077  0.77771117  0.50862155  1
  O  O1  1  0.76908962  0.24568923  0.99137845  1
  O  O2  1  0.22228883  0.24568923  0.99137845  1
  O  O3  1  0.24568923  0.22228883  0.49137845  1
  O  O4  1  0.24568923  0.76908962  0.49137845  1
  O  O5  1  0.23091038  0.75431077  0.00862155  1
  O  O6  1  0.75431077  0.23091038  0.50862155  1
  O  O7  1  0.77771117  0.75431077  0.00862155  1
  Mg  Mg8  1  0.37500000  0.62500000  0.75000000  1
  Mg  Mg9  1  0.62500000  0.37500000  0.25000000  1
  Mn  Mn10  1  0.00000000  0.00000000  0.50000000  1
  Mn  Mn11  1  0.00000000  0.50000000  0.00000000  1
  Mn  Mn12  1  0.50000000  0.00000000  0.50000000  1
  Mn  Mn13  1  0.00000000  0.00000000  0.00000000  1
