# generated using pymatgen
data_CoSi
_symmetry_space_group_name_H-M   'P 1'
_cell_length_a   4.43319762
_cell_length_b   4.43319762
_cell_length_c   4.43319762
_cell_angle_alpha   90.00000000
_cell_angle_beta   90.00000000
_cell_angle_gamma   90.00000000
_symmetry_Int_Tables_number   1
_chemical_formula_structural   CoSi
_chemical_formula_sum   'Co4 Si4'
_cell_volume   87.12670184
_cell_formula_units_Z   4
loop_
 _symmetry_equiv_pos_site_id
 _symmetry_equiv_pos_as_xyz
  1  'x, y, z'
loop_
 _atom_site_type_symbol
 _atom_site_label
 _atom_site_symmetry_multiplicity
 _atom_site_fract_x
 _atom_site_fract_y
 _atom_site_fract_z
 _atom_site_occupancy
  Si  Si0  1  0.15680422  0.34319578  0.65680422  1
  Si  Si1  1  0.34319578  0.65680422  0.15680422  1
  Si  Si2  1  0.65680422  0.15680422  0.34319578  1
  Si  Si3  1  0.84319578  0.84319578  0.84319578  1
  Co  Co4  1  0.85489980  0.64510020  0.35489980  1
  Co  Co5  1  0.64510020  0.35489980  0.85489980  1
  Co  Co6  1  0.35489980  0.85489980  0.64510020  1
  Co  Co7  1  0.14510020  0.14510020  0.14510020  1
