# generated using pymatgen
data_PmPbAu2
_symmetry_space_group_name_H-M   'P 1'
_cell_length_a   5.16997582
_cell_length_b   5.16997364
_cell_length_c   5.16997834
_cell_angle_alpha   59.99986725
_cell_angle_beta   59.99999946
_cell_angle_gamma   59.99996715
_symmetry_Int_Tables_number   1
_chemical_formula_structural   PmPbAu2
_chemical_formula_sum   'Pm1 Pb1 Au2'
_cell_volume   97.71247656
_cell_formula_units_Z   1
loop_
 _symmetry_equiv_pos_site_id
 _symmetry_equiv_pos_as_xyz
  1  'x, y, z'
loop_
 _atom_site_type_symbol
 _atom_site_label
 _atom_site_symmetry_multiplicity
 _atom_site_fract_x
 _atom_site_fract_y
 _atom_site_fract_z
 _atom_site_occupancy
  Pm  Pm0  1  0.75000015  0.75000004  0.75000002  1
  Pb  Pb1  1  0.24999996  0.25000006  0.25000015  1
  Au  Au2  1  0.50000070  0.50000067  0.50000078  1
  Au  Au3  1  0.00000018  0.00000023  0.00000006  1
