# generated using pymatgen
data_Sm2TeO6
_symmetry_space_group_name_H-M   'P 1'
_cell_length_a   5.08931899
_cell_length_b   5.08932005
_cell_length_c   10.32090778
_cell_angle_alpha   90.00000000
_cell_angle_beta   90.00000000
_cell_angle_gamma   89.99991253
_symmetry_Int_Tables_number   1
_chemical_formula_structural   Sm2TeO6
_chemical_formula_sum   'Sm4 Te2 O12'
_cell_volume   267.32361975
_cell_formula_units_Z   2
loop_
 _symmetry_equiv_pos_site_id
 _symmetry_equiv_pos_as_xyz
  1  'x, y, z'
loop_
 _atom_site_type_symbol
 _atom_site_label
 _atom_site_symmetry_multiplicity
 _atom_site_fract_x
 _atom_site_fract_y
 _atom_site_fract_z
 _atom_site_occupancy
  Sm  Sm0  1  0.99997876  0.99997532  0.33457337  1
  Sm  Sm1  1  0.99997876  0.99997532  0.66542663  1
  Sm  Sm2  1  0.50005015  0.50005512  0.16542702  1
  Sm  Sm3  1  0.50005015  0.50005512  0.83457298  1
  Te  Te4  1  0.00006989  0.00007496  0.00000000  1
  Te  Te5  1  0.49997648  0.49997055  0.50000000  1
  O  O6  1  0.18082048  0.18082288  0.14231475  1
  O  O7  1  0.18082048  0.18082288  0.85768525  1
  O  O8  1  0.22750252  0.22738554  0.50000000  1
  O  O9  1  0.27261044  0.72754756  0.00000000  1
  O  O10  1  0.31919168  0.68071175  0.35769630  1
  O  O11  1  0.31919168  0.68071175  0.64230370  1
  O  O12  1  0.68078851  0.31926030  0.35769481  1
  O  O13  1  0.68078851  0.31926030  0.64230519  1
  O  O14  1  0.72755147  0.27261634  0.00000000  1
  O  O15  1  0.77244733  0.77256258  0.50000000  1
  O  O16  1  0.81929085  0.81929536  0.14229577  1
  O  O17  1  0.81929085  0.81929536  0.85770423  1
