# generated using pymatgen
data_PmZn2Ag
_symmetry_space_group_name_H-M   'P 1'
_cell_length_a   4.82789097
_cell_length_b   4.82789156
_cell_length_c   4.82789146
_cell_angle_alpha   60.00016405
_cell_angle_beta   60.00019821
_cell_angle_gamma   60.00021894
_symmetry_Int_Tables_number   1
_chemical_formula_structural   PmZn2Ag
_chemical_formula_sum   'Pm1 Zn2 Ag1'
_cell_volume   79.57183402
_cell_formula_units_Z   1
loop_
 _symmetry_equiv_pos_site_id
 _symmetry_equiv_pos_as_xyz
  1  'x, y, z'
loop_
 _atom_site_type_symbol
 _atom_site_label
 _atom_site_symmetry_multiplicity
 _atom_site_fract_x
 _atom_site_fract_y
 _atom_site_fract_z
 _atom_site_occupancy
  Pm  Pm0  1  0.74999984  0.74999985  0.74999974  1
  Zn  Zn1  1  0.00000002  0.00000002  0.99999997  1
  Zn  Zn2  1  0.49999917  0.49999913  0.49999920  1
  Ag  Ag3  1  0.24999897  0.24999900  0.24999910  1
