# generated using pymatgen
data_H3F2
_symmetry_space_group_name_H-M   'P 1'
_cell_length_a   5.37516248
_cell_length_b   4.58672507
_cell_length_c   5.87309234
_cell_angle_alpha   121.15830069
_cell_angle_beta   62.33488398
_cell_angle_gamma   126.69915241
_symmetry_Int_Tables_number   1
_chemical_formula_structural   H3F2
_chemical_formula_sum   'H6 F4'
_cell_volume   96.77697103
_cell_formula_units_Z   2
loop_
 _symmetry_equiv_pos_site_id
 _symmetry_equiv_pos_as_xyz
  1  'x, y, z'
loop_
 _atom_site_type_symbol
 _atom_site_label
 _atom_site_symmetry_multiplicity
 _atom_site_fract_x
 _atom_site_fract_y
 _atom_site_fract_z
 _atom_site_occupancy
  H  H0  1  0.77246555  0.30149383  0.20308404  1
  H  H1  1  0.75545957  0.82542365  0.25959135  1
  H  H2  1  0.27514654  0.43017823  0.44632097  1
  H  H3  1  0.30259164  0.59941846  0.57514884  1
  H  H4  1  0.18823719  0.16928170  0.73597909  1
  H  H5  1  0.67462685  0.69060880  0.79214640  1
  F  F6  1  0.78047298  0.43621078  0.11303450  1
  F  F7  1  0.77071371  0.08034460  0.33773796  1
  F  F8  1  0.02281536  0.91917618  0.65159701  1
  F  F9  1  0.45748161  0.54786079  0.88535184  1
