# generated using pymatgen
data_Y2Hg2O5
_symmetry_space_group_name_H-M   'P 1'
_cell_length_a   7.67493552
_cell_length_b   11.63411324
_cell_length_c   3.55366756
_cell_angle_alpha   87.47021512
_cell_angle_beta   95.39851948
_cell_angle_gamma   96.24595745
_symmetry_Int_Tables_number   1
_chemical_formula_structural   Y2Hg2O5
_chemical_formula_sum   'Y4 Hg4 O10'
_cell_volume   313.84379407
_cell_formula_units_Z   2
loop_
 _symmetry_equiv_pos_site_id
 _symmetry_equiv_pos_as_xyz
  1  'x, y, z'
loop_
 _atom_site_type_symbol
 _atom_site_label
 _atom_site_symmetry_multiplicity
 _atom_site_fract_x
 _atom_site_fract_y
 _atom_site_fract_z
 _atom_site_occupancy
  Y  Y0  1  0.16332329  0.76415621  0.54513600  1
  Y  Y1  1  0.96182531  0.98179078  0.98233284  1
  Y  Y2  1  0.52330375  0.42106404  0.87586754  1
  Y  Y3  1  0.72470622  0.20330046  0.43898740  1
  Hg  Hg4  1  0.97609337  0.48200761  0.99749097  1
  Hg  Hg5  1  0.52172388  0.92174560  0.87610469  1
  Hg  Hg6  1  0.16567996  0.26311417  0.53929629  1
  Hg  Hg7  1  0.71234794  0.70251217  0.42417903  1
  O  O8  1  0.05808947  0.65609677  0.04102505  1
  O  O9  1  0.19542404  0.89412095  0.04063664  1
  O  O10  1  0.00447790  0.10884998  0.47004218  1
  O  O11  1  0.23873019  0.42912160  0.70484942  1
  O  O12  1  0.44819403  0.75613484  0.70871825  1
  O  O13  1  0.49079300  0.29089953  0.38008897  1
  O  O14  1  0.62961049  0.52866324  0.38045824  1
  O  O15  1  0.87815758  0.86130009  0.47809170  1
  O  O16  1  0.68146222  0.07612500  0.95116905  1
  O  O17  1  0.80859937  0.32365697  0.94289673  1
