# generated using pymatgen
data_K3SbS4
_symmetry_space_group_name_H-M   'P 1'
_cell_length_a   7.82567041
_cell_length_b   7.94179110
_cell_length_c   7.94179110
_cell_angle_alpha   93.33154198
_cell_angle_beta   90.00000000
_cell_angle_gamma   90.00000000
_symmetry_Int_Tables_number   1
_chemical_formula_structural   K3SbS4
_chemical_formula_sum   'K6 Sb2 S8'
_cell_volume   492.74687956
_cell_formula_units_Z   2
loop_
 _symmetry_equiv_pos_site_id
 _symmetry_equiv_pos_as_xyz
  1  'x, y, z'
loop_
 _atom_site_type_symbol
 _atom_site_label
 _atom_site_symmetry_multiplicity
 _atom_site_fract_x
 _atom_site_fract_y
 _atom_site_fract_z
 _atom_site_occupancy
  S  S0  1  0.15575635  0.57474912  0.42525088  1
  S  S1  1  0.65575635  0.42525088  0.57474912  1
  S  S2  1  0.22654446  0.90757448  0.09242552  1
  S  S3  1  0.72654446  0.09242552  0.90757448  1
  S  S4  1  0.84519273  0.95213282  0.40268599  1
  S  S5  1  0.34519273  0.04786718  0.59731401  1
  S  S6  1  0.84519273  0.59731401  0.04786718  1
  S  S7  1  0.34519273  0.40268599  0.95213282  1
  K  K8  1  0.01959801  0.30450739  0.69549261  1
  K  K9  1  0.51959801  0.69549261  0.30450739  1
  K  K10  1  0.51368987  0.18244326  0.25645900  1
  K  K11  1  0.01368987  0.81755674  0.74354100  1
  K  K12  1  0.51368987  0.74354100  0.81755674  1
  K  K13  1  0.01368987  0.25645900  0.18244326  1
  Sb  Sb14  1  0.51813599  0.24190805  0.75809195  1
  Sb  Sb15  1  0.01813599  0.75809195  0.24190805  1
