# generated using pymatgen
data_Ge2Os
_symmetry_space_group_name_H-M   'P 1'
_cell_length_a   3.13255653
_cell_length_b   4.81341787
_cell_length_c   6.99926542
_cell_angle_alpha   79.92922362
_cell_angle_beta   77.06899756
_cell_angle_gamma   71.01028891
_symmetry_Int_Tables_number   1
_chemical_formula_structural   Ge2Os
_chemical_formula_sum   'Ge4 Os2'
_cell_volume   96.66456763
_cell_formula_units_Z   2
loop_
 _symmetry_equiv_pos_site_id
 _symmetry_equiv_pos_as_xyz
  1  'x, y, z'
loop_
 _atom_site_type_symbol
 _atom_site_label
 _atom_site_symmetry_multiplicity
 _atom_site_fract_x
 _atom_site_fract_y
 _atom_site_fract_z
 _atom_site_occupancy
  Ge  Ge0  1  0.85614682  0.75555072  0.53215564  1
  Ge  Ge1  1  0.14385318  0.24444928  0.46784436  1
  Ge  Ge2  1  0.60076169  0.68700849  0.11146814  1
  Ge  Ge3  1  0.39923831  0.31299151  0.88853186  1
  Os  Os4  1  0.15418975  0.89257803  0.79904247  1
  Os  Os5  1  0.84581025  0.10742197  0.20095753  1
