# generated using pymatgen
data_VCoB3
_symmetry_space_group_name_H-M   'P 1'
_cell_length_a   2.97918061
_cell_length_b   3.01216678
_cell_length_c   8.87394134
_cell_angle_alpha   99.77152707
_cell_angle_beta   90.00000000
_cell_angle_gamma   90.00000000
_symmetry_Int_Tables_number   1
_chemical_formula_structural   VCoB3
_chemical_formula_sum   'V2 Co2 B6'
_cell_volume   78.47759119
_cell_formula_units_Z   2
loop_
 _symmetry_equiv_pos_site_id
 _symmetry_equiv_pos_as_xyz
  1  'x, y, z'
loop_
 _atom_site_type_symbol
 _atom_site_label
 _atom_site_symmetry_multiplicity
 _atom_site_fract_x
 _atom_site_fract_y
 _atom_site_fract_z
 _atom_site_occupancy
  B  B0  1  0.25000000  0.37544493  0.75088986  1
  B  B1  1  0.75000000  0.62455507  0.24911014  1
  B  B2  1  0.25000000  0.47497868  0.94995735  1
  B  B3  1  0.75000000  0.52502132  0.05004265  1
  B  B4  1  0.75000000  0.32086445  0.64172890  1
  B  B5  1  0.25000000  0.67913555  0.35827110  1
  V  V6  1  0.25000000  0.07441640  0.14883280  1
  V  V7  1  0.75000000  0.92558360  0.85116720  1
  Co  Co8  1  0.25000000  0.79616030  0.59232060  1
  Co  Co9  1  0.75000000  0.20383970  0.40767940  1
