# generated using pymatgen
data_CCl4
_symmetry_space_group_name_H-M   'P 1'
_cell_length_a   11.85756074
_cell_length_b   12.08710986
_cell_length_c   20.43453302
_cell_angle_alpha   74.29622689
_cell_angle_beta   73.13393940
_cell_angle_gamma   60.62625900
_symmetry_Int_Tables_number   1
_chemical_formula_structural   CCl4
_chemical_formula_sum   'C16 Cl64'
_cell_volume   2413.34424181
_cell_formula_units_Z   16
loop_
 _symmetry_equiv_pos_site_id
 _symmetry_equiv_pos_as_xyz
  1  'x, y, z'
loop_
 _atom_site_type_symbol
 _atom_site_label
 _atom_site_symmetry_multiplicity
 _atom_site_fract_x
 _atom_site_fract_y
 _atom_site_fract_z
 _atom_site_occupancy
  C  C0  1  0.94430773  0.80878725  0.87345632  1
  C  C1  1  0.62655130  0.69121275  0.62654368  1
  C  C2  1  0.05569227  0.19121275  0.12654368  1
  C  C3  1  0.37344870  0.30878725  0.37345632  1
  C  C4  1  0.18661290  0.63095358  0.62256248  1
  C  C5  1  0.44012896  0.86904642  0.87743752  1
  C  C6  1  0.81338710  0.36904642  0.37743752  1
  C  C7  1  0.55987104  0.13095358  0.12256248  1
  C  C8  1  0.68458065  0.13696985  0.62239272  1
  C  C9  1  0.44394323  0.36303015  0.87760728  1
  C  C10  1  0.31541935  0.86303015  0.37760728  1
  C  C11  1  0.55605677  0.63696985  0.12239272  1
  C  C12  1  0.93890060  0.31284793  0.87689359  1
  C  C13  1  0.12864212  0.18715207  0.62310641  1
  C  C14  1  0.06109940  0.68715207  0.12310641  1
  C  C15  1  0.87135788  0.81284793  0.37689359  1
  Cl  Cl16  1  0.86412751  0.88835150  0.80114536  1
  Cl  Cl17  1  0.55362437  0.61164850  0.69885464  1
  Cl  Cl18  1  0.13587249  0.11164850  0.19885464  1
  Cl  Cl19  1  0.44637563  0.38835150  0.30114536  1
  Cl  Cl20  1  0.95981101  0.64997057  0.89660622  1
  Cl  Cl21  1  0.50638780  0.85002943  0.60339378  1
  Cl  Cl22  1  0.04018899  0.35002943  0.10339378  1
  Cl  Cl23  1  0.49361220  0.14997057  0.39660622  1
  Cl  Cl24  1  0.84917584  0.89419669  0.94465232  1
  Cl  Cl25  1  0.68802485  0.60580331  0.55534768  1
  Cl  Cl26  1  0.15082416  0.10580331  0.05534768  1
  Cl  Cl27  1  0.31197515  0.39419669  0.44465232  1
  Cl  Cl28  1  0.10295473  0.80370160  0.85191080  1
  Cl  Cl29  1  0.75856713  0.69629840  0.64808920  1
  Cl  Cl30  1  0.89704527  0.19629840  0.14808920  1
  Cl  Cl31  1  0.24143287  0.30370160  0.35191080  1
  Cl  Cl32  1  0.18378390  0.76610692  0.64309350  1
  Cl  Cl33  1  0.59298432  0.73389308  0.85690650  1
  Cl  Cl34  1  0.81621610  0.23389308  0.35690650  1
  Cl  Cl35  1  0.40701568  0.26610692  0.14309350  1
  Cl  Cl36  1  0.10430036  0.56118154  0.69552778  1
  Cl  Cl37  1  0.36100968  0.93881846  0.80447222  1
  Cl  Cl38  1  0.89569964  0.43881846  0.30447222  1
  Cl  Cl39  1  0.63899032  0.06118154  0.19552778  1
  Cl  Cl40  1  0.35252158  0.51528337  0.60034869  1
  Cl  Cl41  1  0.46815363  0.98471663  0.89965131  1
  Cl  Cl42  1  0.64747842  0.48471663  0.39965131  1
  Cl  Cl43  1  0.53184637  0.01528337  0.10034869  1
  Cl  Cl44  1  0.10555931  0.68028933  0.55155899  1
  Cl  Cl45  1  0.33740763  0.81971067  0.94844101  1
  Cl  Cl46  1  0.89444069  0.31971067  0.44844101  1
  Cl  Cl47  1  0.66259237  0.18028933  0.05155899  1
  Cl  Cl48  1  0.68640077  0.27053963  0.64187257  1
  Cl  Cl49  1  0.59881297  0.22946037  0.85812743  1
  Cl  Cl50  1  0.31359923  0.72946037  0.35812743  1
  Cl  Cl51  1  0.40118703  0.77053963  0.14187257  1
  Cl  Cl52  1  0.59554514  0.07374040  0.69497824  1
  Cl  Cl53  1  0.36426378  0.42625960  0.80502176  1
  Cl  Cl54  1  0.40445486  0.92625960  0.30502176  1
  Cl  Cl55  1  0.63573622  0.57374040  0.19497824  1
  Cl  Cl56  1  0.84883246  0.01609494  0.60289309  1
  Cl  Cl57  1  0.46782049  0.48390506  0.89710691  1
  Cl  Cl58  1  0.15116754  0.98390506  0.39710691  1
  Cl  Cl59  1  0.53217951  0.51609494  0.10289309  1
  Cl  Cl60  1  0.60711807  0.18655622  0.54993272  1
  Cl  Cl61  1  0.34360701  0.31344378  0.95006728  1
  Cl  Cl62  1  0.39288193  0.81344378  0.45006728  1
  Cl  Cl63  1  0.65639299  0.68655622  0.04993272  1
  Cl  Cl64  1  0.85880074  0.39777593  0.80479774  1
  Cl  Cl65  1  0.06137441  0.10222407  0.69520226  1
  Cl  Cl66  1  0.14119926  0.60222407  0.19520226  1
  Cl  Cl67  1  0.93862559  0.89777593  0.30479774  1
  Cl  Cl68  1  0.84585648  0.39528002  0.94923266  1
  Cl  Cl69  1  0.19036916  0.10471998  0.55076734  1
  Cl  Cl70  1  0.15414352  0.60471998  0.05076734  1
  Cl  Cl71  1  0.80963084  0.89528002  0.44923266  1
  Cl  Cl72  1  0.95123418  0.15520494  0.89768408  1
  Cl  Cl73  1  0.00412320  0.34479506  0.60231592  1
  Cl  Cl74  1  0.04876582  0.84479506  0.10231592  1
  Cl  Cl75  1  0.99587680  0.65520494  0.39768408  1
  Cl  Cl76  1  0.09912057  0.30405834  0.85607269  1
  Cl  Cl77  1  0.25925160  0.19594166  0.64392731  1
  Cl  Cl78  1  0.90087943  0.69594166  0.14392731  1
  Cl  Cl79  1  0.74074840  0.80405834  0.35607269  1
