# generated using pymatgen
data_NaMn8O16
_symmetry_space_group_name_H-M   'P 1'
_cell_length_a   5.90848173
_cell_length_b   9.91285990
_cell_length_c   9.99517354
_cell_angle_alpha   89.50396752
_cell_angle_beta   90.01893358
_cell_angle_gamma   90.00082720
_symmetry_Int_Tables_number   1
_chemical_formula_structural   NaMn8O16
_chemical_formula_sum   'Na2 Mn16 O32'
_cell_volume   585.39485972
_cell_formula_units_Z   2
loop_
 _symmetry_equiv_pos_site_id
 _symmetry_equiv_pos_as_xyz
  1  'x, y, z'
loop_
 _atom_site_type_symbol
 _atom_site_label
 _atom_site_symmetry_multiplicity
 _atom_site_fract_x
 _atom_site_fract_y
 _atom_site_fract_z
 _atom_site_occupancy
  Na  Na0  1  0.24949887  0.49278117  0.50123106  1
  Na  Na1  1  0.50089665  0.99275570  0.00125576  1
  Mn  Mn2  1  0.49968697  0.34150835  0.83562046  1
  Mn  Mn3  1  0.99825997  0.34050378  0.83588772  1
  Mn  Mn4  1  0.50178528  0.82551718  0.65027570  1
  Mn  Mn5  1  0.00015476  0.82523115  0.65121476  1
  Mn  Mn6  1  0.00018722  0.16023408  0.35063440  1
  Mn  Mn7  1  0.50155987  0.15981213  0.35137333  1
  Mn  Mn8  1  0.99809008  0.64544805  0.16625371  1
  Mn  Mn9  1  0.49971998  0.64410013  0.16659669  1
  Mn  Mn10  1  0.75117898  0.84069608  0.33529816  1
  Mn  Mn11  1  0.24991008  0.84192647  0.33550471  1
  Mn  Mn12  1  0.74953488  0.32461975  0.15104364  1
  Mn  Mn13  1  0.24856412  0.32489900  0.14999263  1
  Mn  Mn14  1  0.74928185  0.66083422  0.85075561  1
  Mn  Mn15  1  0.24893456  0.66031162  0.85169813  1
  Mn  Mn16  1  0.75162304  0.14500928  0.66635665  1
  Mn  Mn17  1  0.25057675  0.14403419  0.66637648  1
  O  O18  1  0.74784097  0.66485471  0.04363933  1
  O  O19  1  0.24927173  0.66439520  0.04418550  1
  O  O20  1  0.75107743  0.03535585  0.34013264  1
  O  O21  1  0.25099509  0.03578671  0.33962359  1
  O  O22  1  0.75137608  0.95025954  0.66173113  1
  O  O23  1  0.25117525  0.94982372  0.66240577  1
  O  O24  1  0.74789917  0.32077471  0.95818918  1
  O  O25  1  0.24921656  0.32120979  0.95767336  1
  O  O26  1  0.00182164  0.16395310  0.54362345  1
  O  O27  1  0.50095839  0.16337237  0.54395350  1
  O  O28  1  0.99847561  0.53516562  0.84038810  1
  O  O29  1  0.49880614  0.53552223  0.83959826  1
  O  O30  1  0.49900595  0.45009787  0.16228616  1
  O  O31  1  0.99848522  0.45056078  0.16130970  1
  O  O32  1  0.50079250  0.82216152  0.45777972  1
  O  O33  1  0.00142752  0.82155316  0.45816057  1
  O  O34  1  0.49958866  0.84118438  0.20470290  1
  O  O35  1  0.00025239  0.84113640  0.20778485  1
  O  O36  1  -0.00018319  0.19463175  0.15863199  1
  O  O37  1  0.50066548  0.19142128  0.15756036  1
  O  O38  1  0.00033169  0.14534208  0.79440528  1
  O  O39  1  0.49944231  0.14490935  0.79741941  1
  O  O40  1  0.50063732  0.79352916  0.84442926  1
  O  O41  1  0.00013066  0.79055059  0.84339069  1
  O  O42  1  0.74978944  0.33936955  0.70703735  1
  O  O43  1  0.25084743  0.34005068  0.70409528  1
  O  O44  1  0.74989007  0.69522889  0.65823557  1
  O  O45  1  0.24978207  0.69258500  0.65720659  1
  O  O46  1  0.74981335  0.64691242  0.29518800  1
  O  O47  1  0.25094579  0.64607213  0.29794276  1
  O  O48  1  0.74996798  0.28989325  0.34385053  1
  O  O49  1  0.25002638  0.29232089  0.34475065  1
