# generated using pymatgen
data_P2S7
_symmetry_space_group_name_H-M   'P 1'
_cell_length_a   6.41321435
_cell_length_b   6.62408522
_cell_length_c   11.67301776
_cell_angle_alpha   82.25173431
_cell_angle_beta   88.46963174
_cell_angle_gamma   85.83521925
_symmetry_Int_Tables_number   1
_chemical_formula_structural   P2S7
_chemical_formula_sum   'P4 S14'
_cell_volume   489.99257669
_cell_formula_units_Z   2
loop_
 _symmetry_equiv_pos_site_id
 _symmetry_equiv_pos_as_xyz
  1  'x, y, z'
loop_
 _atom_site_type_symbol
 _atom_site_label
 _atom_site_symmetry_multiplicity
 _atom_site_fract_x
 _atom_site_fract_y
 _atom_site_fract_z
 _atom_site_occupancy
  P  P0  1  0.05173744  0.16480047  0.06342957  1
  P  P1  1  0.62686115  0.80842077  0.49365266  1
  P  P2  1  0.37313785  0.19157923  0.50634634  1
  P  P3  1  0.94826156  0.83519953  0.93657043  1
  S  S4  1  0.26871619  0.35501864  0.05140463  1
  S  S5  1  0.14550630  0.84770797  0.08079393  1
  S  S6  1  0.85707492  0.22163743  0.20776488  1
  S  S7  1  0.63860608  0.00680704  0.21735965  1
  S  S8  1  0.75288282  0.75743057  0.32863955  1
  S  S9  1  0.27920859  0.42237727  0.39696971  1
  S  S10  1  0.29925476  0.89589242  0.47407123  1
  S  S11  1  0.70074624  0.10410658  0.52592977  1
  S  S12  1  0.72079241  0.57762373  0.60303029  1
  S  S13  1  0.24711718  0.24256843  0.67136045  1
  S  S14  1  0.36139292  0.99319196  0.78264035  1
  S  S15  1  0.14292608  0.77836157  0.79223512  1
  S  S16  1  0.85449370  0.15229203  0.91920607  1
  S  S17  1  0.73128281  0.64498236  0.94859637  1
