# generated using pymatgen
data_K3Mn4O8
_symmetry_space_group_name_H-M   'P 1'
_cell_length_a   6.38840084
_cell_length_b   10.35618015
_cell_length_c   13.19198729
_cell_angle_alpha   71.62428025
_cell_angle_beta   85.28077977
_cell_angle_gamma   84.98886890
_symmetry_Int_Tables_number   1
_chemical_formula_structural   K3Mn4O8
_chemical_formula_sum   'K12 Mn16 O32'
_cell_volume   823.72132473
_cell_formula_units_Z   4
loop_
 _symmetry_equiv_pos_site_id
 _symmetry_equiv_pos_as_xyz
  1  'x, y, z'
loop_
 _atom_site_type_symbol
 _atom_site_label
 _atom_site_symmetry_multiplicity
 _atom_site_fract_x
 _atom_site_fract_y
 _atom_site_fract_z
 _atom_site_occupancy
  K  K0  1  0.74508340  0.71169280  0.75262801  1
  K  K1  1  0.75152618  0.70235445  0.25152444  1
  K  K2  1  0.47309940  0.07912118  0.74819517  1
  K  K3  1  0.03067632  0.39287665  0.24717070  1
  K  K4  1  0.47989779  0.05673087  0.25115288  1
  K  K5  1  0.24936308  0.70493127  0.25223758  1
  K  K6  1  0.23459119  0.78310830  0.74993119  1
  K  K7  1  0.00341951  0.41146528  0.75079577  1
  K  K8  1  0.96624872  0.08242472  0.74589807  1
  K  K9  1  0.97915434  0.05696324  0.24783076  1
  K  K10  1  0.49671789  0.42148041  0.75024929  1
  K  K11  1  0.53202771  0.39845025  0.25257415  1
  Mn  Mn12  1  0.24613308  0.74270158  0.00112458  1
  Mn  Mn13  1  0.23572957  0.74609424  0.49738592  1
  Mn  Mn14  1  0.73706743  0.24277761  0.99991652  1
  Mn  Mn15  1  0.74310669  0.24410583  0.50257953  1
  Mn  Mn16  1  0.74863224  0.74157027  0.00217515  1
  Mn  Mn17  1  0.74246675  0.74442011  0.50118951  1
  Mn  Mn18  1  0.23225272  0.24261742  0.99577490  1
  Mn  Mn19  1  0.23536411  0.24553282  0.49623140  1
  Mn  Mn20  1  0.99579748  0.99147934  0.00027013  1
  Mn  Mn21  1  0.98728863  0.99291531  0.50377067  1
  Mn  Mn22  1  0.48612206  0.49294724  0.99934308  1
  Mn  Mn23  1  0.49005956  0.49643983  0.49549078  1
  Mn  Mn24  1  0.50436210  0.99201507  0.00677604  1
  Mn  Mn25  1  0.48966538  0.99273803  0.50560131  1
  Mn  Mn26  1  0.98189824  0.49348293  0.99558264  1
  Mn  Mn27  1  0.99123411  0.49685219  0.49549785  1
  O  O28  1  0.76132534  0.94264632  0.92646597  1
  O  O29  1  0.75415396  0.94444097  0.42781883  1
  O  O30  1  0.22064388  0.43277078  0.91306563  1
  O  O31  1  0.22295444  0.44036482  0.40638753  1
  O  O32  1  0.22108220  0.93767030  0.91052277  1
  O  O33  1  0.21737348  0.93928671  0.41511462  1
  O  O34  1  0.71709585  0.43283479  0.91125623  1
  O  O35  1  0.75775050  0.44600332  0.41925239  1
  O  O36  1  0.97679772  0.68515923  0.91563908  1
  O  O37  1  0.97059439  0.68788475  0.41308557  1
  O  O38  1  0.50566342  0.18905712  0.92524753  1
  O  O39  1  0.47220123  0.18285169  0.41727853  1
  O  O40  1  0.47971796  0.68715869  0.91594942  1
  O  O41  1  0.47689987  0.68967639  0.41479224  1
  O  O42  1  0.96840395  0.18306038  0.91289643  1
  O  O43  1  0.96677934  0.18184460  0.41606126  1
  O  O44  1  0.00961768  0.80244357  0.58644553  1
  O  O45  1  0.01649484  0.80533084  0.08659421  1
  O  O46  1  0.50548009  0.30520835  0.58304467  1
  O  O47  1  0.50501541  0.29621411  0.08679100  1
  O  O48  1  0.50451197  0.79981152  0.58547001  1
  O  O49  1  0.51350203  0.80343440  0.08571099  1
  O  O50  1  0.01105354  0.30725422  0.58247187  1
  O  O51  1  0.96927439  0.29279100  0.07377019  1
  O  O52  1  0.22463415  0.54513862  0.57133850  1
  O  O53  1  0.26485948  0.54952714  0.09010324  1
  O  O54  1  0.75442794  0.04992692  0.59150052  1
  O  O55  1  0.76302907  0.05136077  0.08763037  1
  O  O56  1  0.76285940  0.55101991  0.58589657  1
  O  O57  1  0.76549908  0.54944207  0.08939512  1
  O  O58  1  0.22120638  0.04407727  0.58055632  1
  O  O59  1  0.23003429  0.04527315  0.07422782  1
