# generated using pymatgen
data_Ce4Si3Rh4
_symmetry_space_group_name_H-M   'P 1'
_cell_length_a   10.67127801
_cell_length_b   10.67127801
_cell_length_c   7.90445007
_cell_angle_alpha   70.59499521
_cell_angle_beta   109.40500479
_cell_angle_gamma   149.41767328
_symmetry_Int_Tables_number   1
_chemical_formula_structural   Ce4Si3Rh4
_chemical_formula_sum   'Ce8 Si6 Rh8'
_cell_volume   429.94059582
_cell_formula_units_Z   2
loop_
 _symmetry_equiv_pos_site_id
 _symmetry_equiv_pos_as_xyz
  1  'x, y, z'
loop_
 _atom_site_type_symbol
 _atom_site_label
 _atom_site_symmetry_multiplicity
 _atom_site_fract_x
 _atom_site_fract_y
 _atom_site_fract_z
 _atom_site_occupancy
  Ce  Ce0  1  0.21430422  0.55306165  0.09823801  1
  Ce  Ce1  1  0.55306165  0.21430422  0.40176199  1
  Ce  Ce2  1  0.78569678  0.44693935  0.90176199  1
  Ce  Ce3  1  0.44693935  0.78569678  0.59823801  1
  Ce  Ce4  1  0.20139266  0.07208416  0.67024799  1
  Ce  Ce5  1  0.07208416  0.20139266  0.82975101  1
  Ce  Ce6  1  0.79860834  0.92791684  0.32975201  1
  Ce  Ce7  1  0.92791584  0.79860834  0.17024799  1
  Si  Si8  1  0.05576135  0.71222529  0.55935019  1
  Si  Si9  1  0.71222429  0.05576135  0.94064981  1
  Si  Si10  1  0.94423965  0.28777571  0.44064981  1
  Si  Si11  1  0.28777671  0.94423965  0.05935019  1
  Si  Si12  1  0.35720434  0.35720334  0.25000100  1
  Si  Si13  1  0.64279766  0.64279666  0.75000100  1
  Rh  Rh14  1  0.43164234  0.30340403  0.02226423  1
  Rh  Rh15  1  0.30340403  0.43164234  0.47773577  1
  Rh  Rh16  1  0.56835766  0.69659497  0.97773577  1
  Rh  Rh17  1  0.69659597  0.56835666  0.52226323  1
  Rh  Rh18  1  0.36704311  0.92694686  0.81731628  1
  Rh  Rh19  1  0.92694686  0.36704311  0.68268572  1
  Rh  Rh20  1  0.63295689  0.07305214  0.18268572  1
  Rh  Rh21  1  0.07305214  0.63295589  0.31731628  1
