# generated using pymatgen
data_Tm5(ReO6)2
_symmetry_space_group_name_H-M   'P 1'
_cell_length_a   5.62484772
_cell_length_b   6.75568328
_cell_length_c   7.44928658
_cell_angle_alpha   106.23372194
_cell_angle_beta   90.00000000
_cell_angle_gamma   114.60151737
_symmetry_Int_Tables_number   1
_chemical_formula_structural   Tm5(ReO6)2
_chemical_formula_sum   'Tm5 Re2 O12'
_cell_volume   244.90735105
_cell_formula_units_Z   1
loop_
 _symmetry_equiv_pos_site_id
 _symmetry_equiv_pos_as_xyz
  1  'x, y, z'
loop_
 _atom_site_type_symbol
 _atom_site_label
 _atom_site_symmetry_multiplicity
 _atom_site_fract_x
 _atom_site_fract_y
 _atom_site_fract_z
 _atom_site_occupancy
  O  O0  1  0.41282084  0.33462182  0.08716172  1
  O  O1  1  0.07819902  0.66537818  0.91283828  1
  O  O2  1  0.58717916  0.66537818  0.91283828  1
  O  O3  1  0.92180098  0.33462182  0.08716172  1
  O  O4  1  0.59856241  0.69277707  0.42744345  1
  O  O5  1  0.90578534  0.30722293  0.57255655  1
  O  O6  1  0.40143759  0.30722293  0.57255655  1
  O  O7  1  0.00071331  0.00142662  0.18092314  1
  O  O8  1  0.99928669  0.99857338  0.81907686  1
  O  O9  1  0.49793726  0.99587452  0.20838144  1
  O  O10  1  0.50206274  0.00412548  0.79161856  1
  O  O11  1  0.09421466  0.69277707  0.42744345  1
  Tm  Tm12  1  0.80226477  0.60452955  0.64050771  1
  Tm  Tm13  1  0.19773523  0.39547045  0.35949229  1
  Tm  Tm14  1  0.18564695  0.37129390  0.82246211  1
  Tm  Tm15  1  0.81435305  0.62870610  0.17753789  1
  Tm  Tm16  1  0.50000000  0.00000000  0.50000000  1
  Re  Re17  1  0.28498368  0.00000000  0.00000000  1
  Re  Re18  1  0.71501632  0.00000000  0.00000000  1
