# generated using pymatgen
data_Ce(YS2)3
_symmetry_space_group_name_H-M   'P 1'
_cell_length_a   11.37274630
_cell_length_b   11.08616833
_cell_length_c   3.98319291
_cell_angle_alpha   90.00000000
_cell_angle_beta   90.00000000
_cell_angle_gamma   108.85392096
_symmetry_Int_Tables_number   1
_chemical_formula_structural   Ce(YS2)3
_chemical_formula_sum   'Ce2 Y6 S12'
_cell_volume   475.25632722
_cell_formula_units_Z   2
loop_
 _symmetry_equiv_pos_site_id
 _symmetry_equiv_pos_as_xyz
  1  'x, y, z'
loop_
 _atom_site_type_symbol
 _atom_site_label
 _atom_site_symmetry_multiplicity
 _atom_site_fract_x
 _atom_site_fract_y
 _atom_site_fract_z
 _atom_site_occupancy
  Ce  Ce0  1  0.19345846  0.54874628  0.25000100  1
  Ce  Ce1  1  0.80654154  0.45125472  0.75000000  1
  Y  Y2  1  0.00052634  0.18056296  0.25000100  1
  Y  Y3  1  0.99947466  0.81943704  0.75000000  1
  Y  Y4  1  0.58596791  0.65982353  0.25000100  1
  Y  Y5  1  0.41403309  0.34017747  0.75000000  1
  Y  Y6  1  0.33265379  0.94172906  0.25000100  1
  Y  Y7  1  0.66734521  0.05827094  0.75000000  1
  S  S8  1  0.55735101  0.89356474  0.25000100  1
  S  S9  1  0.44264799  0.10643526  0.75000000  1
  S  S10  1  0.24949327  0.30599123  0.25000100  1
  S  S11  1  0.75050773  0.69400877  0.75000000  1
  S  S12  1  0.11203841  0.97928346  0.25000100  1
  S  S13  1  0.88796059  0.02071554  0.75000000  1
  S  S14  1  0.96239385  0.61529710  0.25000100  1
  S  S15  1  0.03760615  0.38470290  0.75000000  1
  S  S16  1  0.77180346  0.23676848  0.25000100  1
  S  S17  1  0.22819654  0.76323152  0.75000000  1
  S  S18  1  0.59593126  0.41729664  0.25000100  1
  S  S19  1  0.40406974  0.58270436  0.75000000  1
