# generated using pymatgen
data_YGeAu
_symmetry_space_group_name_H-M   'P 1'
_cell_length_a   4.48212117
_cell_length_b   4.48212118
_cell_length_c   7.36955856
_cell_angle_alpha   90.00000000
_cell_angle_beta   90.00000000
_cell_angle_gamma   120.00000003
_symmetry_Int_Tables_number   1
_chemical_formula_structural   YGeAu
_chemical_formula_sum   'Y2 Ge2 Au2'
_cell_volume   128.21513458
_cell_formula_units_Z   2
loop_
 _symmetry_equiv_pos_site_id
 _symmetry_equiv_pos_as_xyz
  1  'x, y, z'
loop_
 _atom_site_type_symbol
 _atom_site_label
 _atom_site_symmetry_multiplicity
 _atom_site_fract_x
 _atom_site_fract_y
 _atom_site_fract_z
 _atom_site_occupancy
  Ge  Ge0  1  0.66666667  0.33333333  0.32740523  1
  Ge  Ge1  1  0.33333333  0.66666667  0.82740523  1
  Y  Y2  1  0.00000000  0.00000000  0.53421314  1
  Y  Y3  1  0.00000000  0.00000000  0.03421314  1
  Au  Au4  1  0.33333333  0.66666667  0.24748163  1
  Au  Au5  1  0.66666667  0.33333333  0.74748163  1
