# generated using pymatgen
data_Hf3(NiGe)4
_symmetry_space_group_name_H-M   'P 1'
_cell_length_a   3.91766150
_cell_length_b   6.52295166
_cell_length_c   7.49205310
_cell_angle_alpha   115.81198605
_cell_angle_beta   105.15638262
_cell_angle_gamma   90.00000004
_symmetry_Int_Tables_number   1
_chemical_formula_structural   Hf3(NiGe)4
_chemical_formula_sum   'Hf3 Ni4 Ge4'
_cell_volume   164.92592653
_cell_formula_units_Z   1
loop_
 _symmetry_equiv_pos_site_id
 _symmetry_equiv_pos_as_xyz
  1  'x, y, z'
loop_
 _atom_site_type_symbol
 _atom_site_label
 _atom_site_symmetry_multiplicity
 _atom_site_fract_x
 _atom_site_fract_y
 _atom_site_fract_z
 _atom_site_occupancy
  Ni  Ni0  1  0.32285510  0.12273028  0.64571021  1
  Ni  Ni1  1  0.67714490  0.87726972  0.35428979  1
  Ni  Ni2  1  0.32284174  0.52299076  0.64568347  1
  Ni  Ni3  1  0.67715826  0.47700924  0.35431653  1
  Ge  Ge4  1  0.21335929  0.71335495  0.42671858  1
  Ge  Ge5  1  0.50000692  0.20031700  0.00001383  1
  Ge  Ge6  1  0.49999308  0.79968300  0.99998617  1
  Ge  Ge7  1  0.78664071  0.28664505  0.57328142  1
  Hf  Hf8  1  0.12733924  0.12733221  0.25467847  1
  Hf  Hf9  1  0.87266076  0.87266779  0.74532153  1
  Hf  Hf10  1  0.00000000  0.50000000  0.00000000  1
