# generated using pymatgen
data_Ti2ReB2
_symmetry_space_group_name_H-M   'P 1'
_cell_length_a   3.17834665
_cell_length_b   5.94909522
_cell_length_c   5.94909522
_cell_angle_alpha   90.00000000
_cell_angle_beta   90.00000000
_cell_angle_gamma   90.00000000
_symmetry_Int_Tables_number   1
_chemical_formula_structural   Ti2ReB2
_chemical_formula_sum   'Ti4 Re2 B4'
_cell_volume   112.48719900
_cell_formula_units_Z   2
loop_
 _symmetry_equiv_pos_site_id
 _symmetry_equiv_pos_as_xyz
  1  'x, y, z'
loop_
 _atom_site_type_symbol
 _atom_site_label
 _atom_site_symmetry_multiplicity
 _atom_site_fract_x
 _atom_site_fract_y
 _atom_site_fract_z
 _atom_site_occupancy
  B  B0  1  0.00000000  0.60822246  0.10822246  1
  B  B1  1  0.00000000  0.89177754  0.60822246  1
  B  B2  1  0.00000000  0.10822246  0.39177754  1
  B  B3  1  0.00000000  0.39177754  0.89177754  1
  Ti  Ti4  1  0.50000000  0.68008091  0.81991909  1
  Ti  Ti5  1  0.50000000  0.81991909  0.31991909  1
  Ti  Ti6  1  0.50000000  0.31991909  0.18008091  1
  Ti  Ti7  1  0.50000000  0.18008091  0.68008091  1
  Re  Re8  1  0.00000000  0.50000000  0.50000000  1
  Re  Re9  1  0.00000000  0.00000000  0.00000000  1
