# generated using pymatgen
data_Y(BRu)4
_symmetry_space_group_name_H-M   'P 1'
_cell_length_a   7.49765576
_cell_length_b   7.49765575
_cell_length_c   9.20973778
_cell_angle_alpha   114.01968265
_cell_angle_beta   114.01968266
_cell_angle_gamma   89.99999997
_symmetry_Int_Tables_number   1
_chemical_formula_structural   Y(BRu)4
_chemical_formula_sum   'Y4 B16 Ru16'
_cell_volume   423.33862661
_cell_formula_units_Z   4
loop_
 _symmetry_equiv_pos_site_id
 _symmetry_equiv_pos_as_xyz
  1  'x, y, z'
loop_
 _atom_site_type_symbol
 _atom_site_label
 _atom_site_symmetry_multiplicity
 _atom_site_fract_x
 _atom_site_fract_y
 _atom_site_fract_z
 _atom_site_occupancy
  B  B0  1  0.87533602  0.65294078  0.08696064  1
  B  B1  1  0.56598014  0.28837538  0.41303936  1
  B  B2  1  0.84705922  0.62466398  0.41303936  1
  B  B3  1  0.28837538  0.84705922  0.91303936  1
  B  B4  1  0.62466398  0.56598014  0.91303936  1
  B  B5  1  0.93401986  0.87533602  0.58696064  1
  B  B6  1  0.65294078  0.21162462  0.58696064  1
  B  B7  1  0.21162462  0.93401986  0.08696064  1
  B  B8  1  0.12466398  0.34705922  0.91303936  1
  B  B9  1  0.43401986  0.71162462  0.58696064  1
  B  B10  1  0.15294078  0.37533602  0.58696064  1
  B  B11  1  0.71162462  0.15294078  0.08696064  1
  B  B12  1  0.37533602  0.43401986  0.08696064  1
  B  B13  1  0.06598014  0.12466398  0.41303936  1
  B  B14  1  0.34705922  0.78837538  0.41303936  1
  B  B15  1  0.78837538  0.06598014  0.91303936  1
  Y  Y16  1  0.12500000  0.37500000  0.25000000  1
  Y  Y17  1  0.37500000  0.12500000  0.75000000  1
  Y  Y18  1  0.87500000  0.62500000  0.75000000  1
  Y  Y19  1  0.62500000  0.87500000  0.25000000  1
  Ru  Ru20  1  0.67870501  0.46121172  0.12640507  1
  Ru  Ru21  1  0.33480665  0.05229994  0.37359493  1
  Ru  Ru22  1  0.03878828  0.82129499  0.37359493  1
  Ru  Ru23  1  0.05229994  0.03878828  0.87359493  1
  Ru  Ru24  1  0.82129499  0.33480665  0.87359493  1
  Ru  Ru25  1  0.16519335  0.67870501  0.62640507  1
  Ru  Ru26  1  0.46121172  0.44770006  0.62640507  1
  Ru  Ru27  1  0.44770006  0.16519335  0.12640507  1
  Ru  Ru28  1  0.32129499  0.53878828  0.87359493  1
  Ru  Ru29  1  0.66519335  0.94770006  0.62640507  1
  Ru  Ru30  1  0.96121172  0.17870501  0.62640507  1
  Ru  Ru31  1  0.94770006  0.96121172  0.12640507  1
  Ru  Ru32  1  0.17870501  0.66519335  0.12640507  1
  Ru  Ru33  1  0.83480665  0.32129499  0.37359493  1
  Ru  Ru34  1  0.53878828  0.55229994  0.37359493  1
  Ru  Ru35  1  0.55229994  0.83480665  0.87359493  1
