# generated using pymatgen
data_Sr3La4O9
_symmetry_space_group_name_H-M   'P 1'
_cell_length_a   6.22731488
_cell_length_b   9.66857975
_cell_length_c   6.22731442
_cell_angle_alpha   108.78626718
_cell_angle_beta   59.99999514
_cell_angle_gamma   108.78626588
_symmetry_Int_Tables_number   1
_chemical_formula_structural   Sr3La4O9
_chemical_formula_sum   'Sr3 La4 O9'
_cell_volume   301.42435930
_cell_formula_units_Z   1
loop_
 _symmetry_equiv_pos_site_id
 _symmetry_equiv_pos_as_xyz
  1  'x, y, z'
loop_
 _atom_site_type_symbol
 _atom_site_label
 _atom_site_symmetry_multiplicity
 _atom_site_fract_x
 _atom_site_fract_y
 _atom_site_fract_z
 _atom_site_occupancy
  Sr  Sr0  1  0.18239167  0.54717601  0.18239167  1
  Sr  Sr1  1  0.00386093  0.01158380  0.00386093  1
  Sr  Sr2  1  0.57434275  0.72302826  0.57434275  1
  La  La3  1  0.31145638  0.93436814  0.31145638  1
  La  La4  1  0.43991513  0.31974539  0.43991513  1
  La  La5  1  0.87538690  0.62616171  0.87538690  1
  La  La6  1  0.74395499  0.23186497  0.74395499  1
  O  O7  1  0.97891789  0.77929819  0.21238317  1
  O  O8  1  0.21238317  0.77929819  0.58799713  1
  O  O9  1  0.58799713  0.77929819  0.97891789  1
  O  O10  1  0.14951104  0.46114228  0.77299098  1
  O  O11  1  0.05945400  0.11949077  0.66175500  1
  O  O12  1  0.39828077  0.11949077  0.05945400  1
  O  O13  1  0.53863926  0.46114228  0.14951104  1
  O  O14  1  0.66175500  0.11949077  0.39828077  1
  O  O15  1  0.77299098  0.46114228  0.53863926  1
