# generated using pymatgen
data_V5SiB2
_symmetry_space_group_name_H-M   'P 1'
_cell_length_a   5.78159385
_cell_length_b   5.78159116
_cell_length_c   6.76105268
_cell_angle_alpha   115.31236016
_cell_angle_beta   115.31319753
_cell_angle_gamma   90.00000002
_symmetry_Int_Tables_number   1
_chemical_formula_structural   V5SiB2
_chemical_formula_sum   'V10 Si2 B4'
_cell_volume   180.00558899
_cell_formula_units_Z   2
loop_
 _symmetry_equiv_pos_site_id
 _symmetry_equiv_pos_as_xyz
  1  'x, y, z'
loop_
 _atom_site_type_symbol
 _atom_site_label
 _atom_site_symmetry_multiplicity
 _atom_site_fract_x
 _atom_site_fract_y
 _atom_site_fract_z
 _atom_site_occupancy
  B  B0  1  0.61490602  0.11490593  0.00001296  1
  B  B1  1  0.88510693  0.61490593  0.00001296  1
  B  B2  1  0.11489307  0.38509407  0.99998704  1
  B  B3  1  0.38509398  0.88509407  0.99998704  1
  Si  Si4  1  0.74999558  0.75000000  0.50000000  1
  Si  Si5  1  0.25000442  0.25000000  0.50000000  1
  V  V6  1  0.19327910  0.03290982  0.72618877  1
  V  V7  1  0.03290967  0.53290982  0.72618877  1
  V  V8  1  0.69328167  0.19328053  0.72619563  1
  V  V9  1  0.96709033  0.46709018  0.27381123  1
  V  V10  1  0.53291396  0.69328053  0.72619563  1
  V  V11  1  0.80672090  0.96709018  0.27381123  1
  V  V12  1  0.46708604  0.30671947  0.27380437  1
  V  V13  1  0.30671833  0.80671947  0.27380437  1
  V  V14  1  0.50000000  0.50000000  0.00000000  1
  V  V15  1  0.00000000  0.00000000  0.00000000  1
