# generated using pymatgen
data_Tb(Ni2B)6
_symmetry_space_group_name_H-M   'P 1'
_cell_length_a   6.02682989
_cell_length_b   6.02682989
_cell_length_c   10.96144599
_cell_angle_alpha   90.00000000
_cell_angle_beta   90.00000000
_cell_angle_gamma   104.77147321
_symmetry_Int_Tables_number   1
_chemical_formula_structural   Tb(Ni2B)6
_chemical_formula_sum   'Tb2 Ni24 B12'
_cell_volume   384.99043218
_cell_formula_units_Z   2
loop_
 _symmetry_equiv_pos_site_id
 _symmetry_equiv_pos_as_xyz
  1  'x, y, z'
loop_
 _atom_site_type_symbol
 _atom_site_label
 _atom_site_symmetry_multiplicity
 _atom_site_fract_x
 _atom_site_fract_y
 _atom_site_fract_z
 _atom_site_occupancy
  B  B0  1  0.98752224  0.40010425  0.87746379  1
  B  B1  1  0.01247776  0.59989575  0.37746379  1
  B  B2  1  0.59989575  0.01247776  0.37746379  1
  B  B3  1  0.40010425  0.98752224  0.87746379  1
  B  B4  1  0.75860567  0.32759065  0.61513381  1
  B  B5  1  0.24139433  0.67240935  0.11513381  1
  B  B6  1  0.67240935  0.24139433  0.11513381  1
  B  B7  1  0.32759065  0.75860567  0.61513381  1
  B  B8  1  0.51232925  0.51232925  0.34479626  1
  B  B9  1  0.48767075  0.48767075  0.84479626  1
  B  B10  1  0.16344411  0.16344411  0.16204058  1
  B  B11  1  0.83655589  0.83655589  0.66204058  1
  Ni  Ni12  1  0.63170648  0.99759400  0.56273231  1
  Ni  Ni13  1  0.34260247  0.73068824  0.43217480  1
  Ni  Ni14  1  0.73068824  0.34260247  0.43217480  1
  Ni  Ni15  1  0.26931176  0.65739753  0.93217480  1
  Ni  Ni16  1  0.36829352  0.00240600  0.06273231  1
  Ni  Ni17  1  0.00240600  0.36829352  0.06273231  1
  Ni  Ni18  1  0.99759400  0.63170648  0.56273231  1
  Ni  Ni19  1  0.43320689  0.43320689  0.08154471  1
  Ni  Ni20  1  0.47399315  0.21252057  0.72348712  1
  Ni  Ni21  1  0.52600685  0.78747943  0.22348712  1
  Ni  Ni22  1  0.78747943  0.52600685  0.22348712  1
  Ni  Ni23  1  0.21252057  0.47399315  0.72348712  1
  Ni  Ni24  1  0.56679311  0.56679311  0.58154471  1
  Ni  Ni25  1  0.21761553  0.21761553  0.90082105  1
  Ni  Ni26  1  0.88232368  0.14577230  0.74435703  1
  Ni  Ni27  1  0.11767632  0.85422770  0.24435703  1
  Ni  Ni28  1  0.85422770  0.11767632  0.24435703  1
  Ni  Ni29  1  0.14577230  0.88232368  0.74435703  1
  Ni  Ni30  1  0.80557454  0.54421347  0.76676185  1
  Ni  Ni31  1  0.19442546  0.45578653  0.26676185  1
  Ni  Ni32  1  0.45578653  0.19442546  0.26676185  1
  Ni  Ni33  1  0.54421347  0.80557454  0.76676185  1
  Ni  Ni34  1  0.78238447  0.78238447  0.40082105  1
  Ni  Ni35  1  0.65739753  0.26931176  0.93217480  1
  Tb  Tb36  1  0.83320067  0.83320067  0.00357597  1
  Tb  Tb37  1  0.16679933  0.16679933  0.50357597  1
