# generated using pymatgen
data_ZrZn16
_symmetry_space_group_name_H-M   'P 1'
_cell_length_a   6.98271495
_cell_length_b   6.98271549
_cell_length_c   11.82696958
_cell_angle_alpha   90.00000000
_cell_angle_beta   90.00000000
_cell_angle_gamma   112.32231042
_symmetry_Int_Tables_number   1
_chemical_formula_structural   ZrZn16
_chemical_formula_sum   'Zr2 Zn32'
_cell_volume   533.44903149
_cell_formula_units_Z   2
loop_
 _symmetry_equiv_pos_site_id
 _symmetry_equiv_pos_as_xyz
  1  'x, y, z'
loop_
 _atom_site_type_symbol
 _atom_site_label
 _atom_site_symmetry_multiplicity
 _atom_site_fract_x
 _atom_site_fract_y
 _atom_site_fract_z
 _atom_site_occupancy
  Zr  Zr0  1  0.04740224  0.95259776  0.75000000  1
  Zr  Zr1  1  0.95259776  0.04740224  0.25000000  1
  Zn  Zn2  1  0.35506302  0.98288211  0.93127946  1
  Zn  Zn3  1  0.64493698  0.01711789  0.43127946  1
  Zn  Zn4  1  0.98288211  0.35506302  0.06872054  1
  Zn  Zn5  1  0.01711789  0.64493698  0.56872054  1
  Zn  Zn6  1  0.64493698  0.01711789  0.06872054  1
  Zn  Zn7  1  0.35506302  0.98288211  0.56872054  1
  Zn  Zn8  1  0.01711789  0.64493698  0.93127946  1
  Zn  Zn9  1  0.98288211  0.35506302  0.43127946  1
  Zn  Zn10  1  0.64832399  0.75588581  0.86596759  1
  Zn  Zn11  1  0.35167601  0.24411419  0.36596759  1
  Zn  Zn12  1  0.75588581  0.64832399  0.13403241  1
  Zn  Zn13  1  0.24411419  0.35167601  0.63403241  1
  Zn  Zn14  1  0.35167601  0.24411419  0.13403241  1
  Zn  Zn15  1  0.64832399  0.75588581  0.63403241  1
  Zn  Zn16  1  0.24411419  0.35167601  0.86596759  1
  Zn  Zn17  1  0.75588581  0.64832399  0.36596759  1
  Zn  Zn18  1  0.48085414  0.19467078  0.75000000  1
  Zn  Zn19  1  0.51914586  0.80532922  0.25000000  1
  Zn  Zn20  1  0.19467078  0.48085414  0.25000000  1
  Zn  Zn21  1  0.80532922  0.51914586  0.75000000  1
  Zn  Zn22  1  0.17825163  0.82174837  0.36042149  1
  Zn  Zn23  1  0.82174837  0.17825163  0.86042149  1
  Zn  Zn24  1  0.82174837  0.17825163  0.63957851  1
  Zn  Zn25  1  0.17825163  0.82174837  0.13957851  1
  Zn  Zn26  1  0.62098921  0.37901079  0.96944997  1
  Zn  Zn27  1  0.37901079  0.62098921  0.46944997  1
  Zn  Zn28  1  0.37901079  0.62098921  0.03055003  1
  Zn  Zn29  1  0.62098921  0.37901079  0.53055003  1
  Zn  Zn30  1  0.29215654  0.70784346  0.75000000  1
  Zn  Zn31  1  0.70784346  0.29215654  0.25000000  1
  Zn  Zn32  1  -0.00000000  -0.00000000  0.00000000  1
  Zn  Zn33  1  -0.00000000  -0.00000000  0.50000000  1
