# generated using pymatgen
data_Re2O7
_symmetry_space_group_name_H-M   'P 1'
_cell_length_a   12.74065775
_cell_length_b   15.56604360
_cell_length_c   5.55836387
_cell_angle_alpha   90.00000000
_cell_angle_beta   90.00000000
_cell_angle_gamma   90.00000000
_symmetry_Int_Tables_number   1
_chemical_formula_structural   Re2O7
_chemical_formula_sum   'Re16 O56'
_cell_volume   1102.34380523
_cell_formula_units_Z   8
loop_
 _symmetry_equiv_pos_site_id
 _symmetry_equiv_pos_as_xyz
  1  'x, y, z'
loop_
 _atom_site_type_symbol
 _atom_site_label
 _atom_site_symmetry_multiplicity
 _atom_site_fract_x
 _atom_site_fract_y
 _atom_site_fract_z
 _atom_site_occupancy
  Re  Re0  1  0.02382074  0.63036369  0.06669827  1
  Re  Re1  1  0.02554874  0.35646395  0.67242360  1
  Re  Re2  1  0.21998992  0.13665810  0.81408029  1
  Re  Re3  1  0.23208728  0.63646500  0.56251927  1
  Re  Re4  1  0.26791272  0.36353500  0.06251927  1
  Re  Re5  1  0.28001008  0.86334190  0.31408029  1
  Re  Re6  1  0.47445126  0.64353605  0.17242360  1
  Re  Re7  1  0.47617926  0.36963631  0.56669827  1
  Re  Re8  1  0.52382074  0.86963631  0.93330173  1
  Re  Re9  1  0.52554874  0.14353605  0.32757640  1
  Re  Re10  1  0.71998992  0.36334190  0.18591971  1
  Re  Re11  1  0.73208728  0.86353500  0.43748073  1
  Re  Re12  1  0.76791272  0.13646500  0.93748073  1
  Re  Re13  1  0.78001008  0.63665810  0.68591971  1
  Re  Re14  1  0.97445126  0.85646395  0.82757640  1
  Re  Re15  1  0.97617926  0.13036369  0.43330173  1
  O  O16  1  0.00318352  0.26453125  0.48341397  1
  O  O17  1  0.01329977  0.95042858  0.96593820  1
  O  O18  1  0.05395988  0.52423168  0.01236385  1
  O  O19  1  0.04887988  0.84355299  0.57296776  1
  O  O20  1  0.07997492  0.12182718  0.23588652  1
  O  O21  1  0.08416466  0.13026665  0.72295434  1
  O  O22  1  0.12638336  0.66085579  0.76185118  1
  O  O23  1  0.12836472  0.66089876  0.26379595  1
  O  O24  1  0.16189432  0.36259778  0.25533935  1
  O  O25  1  0.16035537  0.36085607  0.76752367  1
  O  O26  1  0.20873932  0.85064679  0.05417294  1
  O  O27  1  0.21348845  0.52822485  0.51550545  1
  O  O28  1  0.23797398  0.95586243  0.45416072  1
  O  O29  1  0.24436580  0.22792953  0.00216620  1
  O  O30  1  0.25563420  0.77207047  0.50216620  1
  O  O31  1  0.26202602  0.04413757  0.95416072  1
  O  O32  1  0.28651155  0.47177515  0.01550545  1
  O  O33  1  0.29126068  0.14935321  0.55417294  1
  O  O34  1  0.33964463  0.63914393  0.26752367  1
  O  O35  1  0.33810568  0.63740222  0.75533935  1
  O  O36  1  0.37163528  0.33910124  0.76379595  1
  O  O37  1  0.37361664  0.33914421  0.26185118  1
  O  O38  1  0.41583534  0.86973335  0.22295434  1
  O  O39  1  0.42002508  0.87817282  0.73588652  1
  O  O40  1  0.45112012  0.15644701  0.07296776  1
  O  O41  1  0.44604012  0.47576832  0.51236385  1
  O  O42  1  0.48670023  0.04957142  0.46593820  1
  O  O43  1  0.49681648  0.73546875  0.98341397  1
  O  O44  1  0.50318352  0.23546875  0.51658603  1
  O  O45  1  0.51329977  0.54957142  0.03406180  1
  O  O46  1  0.55395988  0.97576832  0.98763615  1
  O  O47  1  0.54887988  0.65644701  0.42703224  1
  O  O48  1  0.57997492  0.37817282  0.76411348  1
  O  O49  1  0.58416466  0.36973335  0.27704566  1
  O  O50  1  0.62638336  0.83914421  0.23814882  1
  O  O51  1  0.62836472  0.83910124  0.73620405  1
  O  O52  1  0.66189432  0.13740222  0.74466065  1
  O  O53  1  0.66035537  0.13914393  0.23247633  1
  O  O54  1  0.70873932  0.64935321  0.94582706  1
  O  O55  1  0.71348845  0.97177515  0.48449455  1
  O  O56  1  0.73797398  0.54413757  0.54583928  1
  O  O57  1  0.74436580  0.27207047  0.99783380  1
  O  O58  1  0.75563420  0.72792953  0.49783380  1
  O  O59  1  0.76202602  0.45586243  0.04583928  1
  O  O60  1  0.78651155  0.02822485  0.98449455  1
  O  O61  1  0.79126068  0.35064679  0.44582706  1
  O  O62  1  0.83964463  0.86085607  0.73247633  1
  O  O63  1  0.83810568  0.86259778  0.24466065  1
  O  O64  1  0.87163528  0.16089876  0.23620405  1
  O  O65  1  0.87361664  0.16085579  0.73814882  1
  O  O66  1  0.91583534  0.63026665  0.77704566  1
  O  O67  1  0.92002508  0.62182718  0.26411348  1
  O  O68  1  0.95112012  0.34355299  0.92703224  1
  O  O69  1  0.94604012  0.02423168  0.48763615  1
  O  O70  1  0.98670023  0.45042858  0.53406180  1
  O  O71  1  0.99681648  0.76453125  0.01658603  1
