# generated using pymatgen
data_KMn3O6
_symmetry_space_group_name_H-M   'P 1'
_cell_length_a   5.80312924
_cell_length_b   7.26272933
_cell_length_c   15.85452223
_cell_angle_alpha   87.95641642
_cell_angle_beta   90.00873192
_cell_angle_gamma   66.42599420
_symmetry_Int_Tables_number   1
_chemical_formula_structural   KMn3O6
_chemical_formula_sum   'K4 Mn12 O24'
_cell_volume   611.98196545
_cell_formula_units_Z   4
loop_
 _symmetry_equiv_pos_site_id
 _symmetry_equiv_pos_as_xyz
  1  'x, y, z'
loop_
 _atom_site_type_symbol
 _atom_site_label
 _atom_site_symmetry_multiplicity
 _atom_site_fract_x
 _atom_site_fract_y
 _atom_site_fract_z
 _atom_site_occupancy
  K  K0  1  0.94561494  0.51866746  0.15013729  1
  K  K1  1  0.28448492  0.51944839  0.64957178  1
  K  K2  1  0.96523314  0.48306150  0.85128942  1
  K  K3  1  0.30183777  0.48395392  0.35099337  1
  Mn  Mn4  1  0.75103741  0.99939297  0.50043219  1
  Mn  Mn5  1  0.24861856  0.00438463  0.50075350  1
  Mn  Mn6  1  0.73669216  0.02417329  0.16990199  1
  Mn  Mn7  1  0.24344299  0.01236064  0.16932160  1
  Mn  Mn8  1  0.26017404  0.97776577  0.83128939  1
  Mn  Mn9  1  0.75486348  0.98969402  0.83185011  1
  Mn  Mn10  1  0.49764977  0.00331859  0.00075880  1
  Mn  Mn11  1  0.00008154  0.99830060  0.00041877  1
  Mn  Mn12  1  0.98889968  0.02449367  0.66987901  1
  Mn  Mn13  1  0.49412044  0.01272904  0.66929180  1
  Mn  Mn14  1  0.51186262  0.97830665  0.33128812  1
  Mn  Mn15  1  0.00493431  0.99042454  0.33189348  1
  O  O16  1  0.18412647  0.12812676  0.93482767  1
  O  O17  1  0.68477925  0.13150217  0.93596635  1
  O  O18  1  0.81133528  0.87364055  0.06640013  1
  O  O19  1  0.31546280  0.87022919  0.06524724  1
  O  O20  1  0.93312503  0.13253022  0.43591795  1
  O  O21  1  0.43721435  0.12908347  0.43479398  1
  O  O22  1  0.06471467  0.87443161  0.56631162  1
  O  O23  1  0.56399642  0.87110942  0.56515596  1
  O  O24  1  0.58791765  0.82866619  0.87768448  1
  O  O25  1  0.08212989  0.82584978  0.87705113  1
  O  O26  1  0.91533193  0.17315018  0.12337736  1
  O  O27  1  0.40668563  0.17611259  0.12403027  1
  O  O28  1  0.84172879  0.82663794  0.37717527  1
  O  O29  1  0.33311113  0.82948177  0.37779784  1
  O  O30  1  0.16681075  0.17668774  0.62414133  1
  O  O31  1  0.66112352  0.17378849  0.62348701  1
  O  O32  1  0.42351869  0.14499106  0.77901482  1
  O  O33  1  0.92942493  0.14692608  0.78023292  1
  O  O34  1  0.06719503  0.85736977  0.22230208  1
  O  O35  1  0.57505018  0.85536378  0.22109531  1
  O  O36  1  0.67336727  0.14732442  0.28011329  1
  O  O37  1  0.18121960  0.14530574  0.27888040  1
  O  O38  1  0.31959879  0.85550266  0.72092155  1
  O  O39  1  0.82551016  0.85741174  0.72214840  1
