# generated using pymatgen
data_Ca(BeAs)2
_symmetry_space_group_name_H-M   'P 1'
_cell_length_a   3.88937409
_cell_length_b   3.88940724
_cell_length_c   6.82427298
_cell_angle_alpha   89.99999997
_cell_angle_beta   90.00046735
_cell_angle_gamma   120.00028902
_symmetry_Int_Tables_number   1
_chemical_formula_structural   Ca(BeAs)2
_chemical_formula_sum   'Ca1 Be2 As2'
_cell_volume   89.40234148
_cell_formula_units_Z   1
loop_
 _symmetry_equiv_pos_site_id
 _symmetry_equiv_pos_as_xyz
  1  'x, y, z'
loop_
 _atom_site_type_symbol
 _atom_site_label
 _atom_site_symmetry_multiplicity
 _atom_site_fract_x
 _atom_site_fract_y
 _atom_site_fract_z
 _atom_site_occupancy
  Ca  Ca0  1  0.00000000  0.00000000  0.00000000  1
  Be  Be1  1  0.66672000  0.33336000  0.37580921  1
  Be  Be2  1  0.33328000  0.66664000  0.62419079  1
  As  As3  1  0.66665685  0.33332843  0.71867377  1
  As  As4  1  0.33334315  0.66667157  0.28132623  1
