# generated using pymatgen
data_HfZn16
_symmetry_space_group_name_H-M   'P 1'
_cell_length_a   6.96157652
_cell_length_b   6.96157639
_cell_length_c   11.84369409
_cell_angle_alpha   90.00000000
_cell_angle_beta   90.00000000
_cell_angle_gamma   112.34343593
_symmetry_Int_Tables_number   1
_chemical_formula_structural   HfZn16
_chemical_formula_sum   'Hf2 Zn32'
_cell_volume   530.89347252
_cell_formula_units_Z   2
loop_
 _symmetry_equiv_pos_site_id
 _symmetry_equiv_pos_as_xyz
  1  'x, y, z'
loop_
 _atom_site_type_symbol
 _atom_site_label
 _atom_site_symmetry_multiplicity
 _atom_site_fract_x
 _atom_site_fract_y
 _atom_site_fract_z
 _atom_site_occupancy
  Hf  Hf0  1  0.04726508  0.95273492  0.75000000  1
  Hf  Hf1  1  0.95273492  0.04726508  0.25000000  1
  Zn  Zn2  1  0.35495247  0.98287729  0.93075163  1
  Zn  Zn3  1  0.64504753  0.01712271  0.43075163  1
  Zn  Zn4  1  0.98287729  0.35495247  0.06924837  1
  Zn  Zn5  1  0.01712271  0.64504753  0.56924837  1
  Zn  Zn6  1  0.64504753  0.01712271  0.06924837  1
  Zn  Zn7  1  0.35495247  0.98287729  0.56924837  1
  Zn  Zn8  1  0.01712271  0.64504753  0.93075163  1
  Zn  Zn9  1  0.98287729  0.35495247  0.43075163  1
  Zn  Zn10  1  0.64866011  0.75601846  0.86590097  1
  Zn  Zn11  1  0.35133989  0.24398154  0.36590097  1
  Zn  Zn12  1  0.75601846  0.64866011  0.13409903  1
  Zn  Zn13  1  0.24398154  0.35133989  0.63409903  1
  Zn  Zn14  1  0.35133989  0.24398154  0.13409903  1
  Zn  Zn15  1  0.64866011  0.75601846  0.63409903  1
  Zn  Zn16  1  0.24398154  0.35133989  0.86590097  1
  Zn  Zn17  1  0.75601846  0.64866011  0.36590097  1
  Zn  Zn18  1  0.47984679  0.19396234  0.75000000  1
  Zn  Zn19  1  0.52015321  0.80603766  0.25000000  1
  Zn  Zn20  1  0.19396234  0.47984679  0.25000000  1
  Zn  Zn21  1  0.80603766  0.52015321  0.75000000  1
  Zn  Zn22  1  0.17781721  0.82218279  0.36042951  1
  Zn  Zn23  1  0.82218279  0.17781721  0.86042951  1
  Zn  Zn24  1  0.82218279  0.17781721  0.63957049  1
  Zn  Zn25  1  0.17781721  0.82218279  0.13957049  1
  Zn  Zn26  1  0.62107936  0.37892064  0.96911063  1
  Zn  Zn27  1  0.37892064  0.62107936  0.46911063  1
  Zn  Zn28  1  0.37892064  0.62107936  0.03088937  1
  Zn  Zn29  1  0.62107936  0.37892064  0.53088937  1
  Zn  Zn30  1  0.29198181  0.70801819  0.75000000  1
  Zn  Zn31  1  0.70801819  0.29198181  0.25000000  1
  Zn  Zn32  1  0.00000000  0.00000000  0.00000000  1
  Zn  Zn33  1  0.00000000  0.00000000  0.50000000  1
