# generated using pymatgen
data_Al(PO3)3
_symmetry_space_group_name_H-M   'P 1'
_cell_length_a   6.17416548
_cell_length_b   8.29838650
_cell_length_c   15.26537109
_cell_angle_alpha   90.00000000
_cell_angle_beta   90.00000000
_cell_angle_gamma   105.11659559
_symmetry_Int_Tables_number   1
_chemical_formula_structural   Al(PO3)3
_chemical_formula_sum   'Al4 P12 O36'
_cell_volume   755.06666250
_cell_formula_units_Z   4
loop_
 _symmetry_equiv_pos_site_id
 _symmetry_equiv_pos_as_xyz
  1  'x, y, z'
loop_
 _atom_site_type_symbol
 _atom_site_label
 _atom_site_symmetry_multiplicity
 _atom_site_fract_x
 _atom_site_fract_y
 _atom_site_fract_z
 _atom_site_occupancy
  Al  Al0  1  0.38487152  0.62350471  0.63804438  1
  Al  Al1  1  0.61512848  0.87649529  0.13804438  1
  Al  Al2  1  0.61512848  0.37649529  0.36195562  1
  Al  Al3  1  0.38487152  0.12350471  0.86195562  1
  P  P4  1  0.29804518  0.48252834  0.83732502  1
  P  P5  1  0.70195482  0.01747166  0.33732502  1
  P  P6  1  0.70195482  0.51747166  0.16267498  1
  P  P7  1  0.29804518  0.98252834  0.66267498  1
  P  P8  1  0.35481582  0.28188286  0.54395757  1
  P  P9  1  0.64518418  0.21811714  0.04395757  1
  P  P10  1  0.64518418  0.71811714  0.45604243  1
  P  P11  1  0.35481582  0.78188286  0.95604243  1
  P  P12  1  0.91538938  0.70984032  0.61282726  1
  P  P13  1  0.08461062  0.79015968  0.11282726  1
  P  P14  1  0.08461062  0.29015968  0.38717274  1
  P  P15  1  0.91538938  0.20984032  0.88717274  1
  O  O16  1  0.69450660  0.64614814  0.65812710  1
  O  O17  1  0.30549340  0.85385186  0.15812710  1
  O  O18  1  0.30549340  0.35385186  0.34187290  1
  O  O19  1  0.69450660  0.14614814  0.84187290  1
  O  O20  1  0.07719589  0.60371499  0.61483384  1
  O  O21  1  0.92280411  0.89628501  0.11483384  1
  O  O22  1  0.92280411  0.39628501  0.38516616  1
  O  O23  1  0.07719589  0.10371499  0.88516616  1
  O  O24  1  0.32463095  0.59080091  0.75809974  1
  O  O25  1  0.67536905  0.90919909  0.25809974  1
  O  O26  1  0.67536905  0.40919909  0.24190026  1
  O  O27  1  0.32463095  0.09080091  0.74190026  1
  O  O28  1  0.33503670  0.38972465  0.62071684  1
  O  O29  1  0.66496330  0.11027535  0.12071684  1
  O  O30  1  0.66496330  0.61027535  0.37928316  1
  O  O31  1  0.33503670  0.88972465  0.87928316  1
  O  O32  1  0.43313179  0.35772624  0.84588791  1
  O  O33  1  0.56686821  0.14227376  0.34588791  1
  O  O34  1  0.56686821  0.64227376  0.15411209  1
  O  O35  1  0.43313179  0.85772624  0.65411209  1
  O  O36  1  0.55405605  0.33787182  0.48450838  1
  O  O37  1  0.44594395  0.16212818  0.98450838  1
  O  O38  1  0.44594395  0.66212818  0.51549162  1
  O  O39  1  0.55405605  0.83787182  0.01549162  1
  O  O40  1  0.34859367  0.59788953  0.92326406  1
  O  O41  1  0.65140633  0.90211047  0.42326406  1
  O  O42  1  0.65140633  0.40211047  0.07673594  1
  O  O43  1  0.34859367  0.09788953  0.57673594  1
  O  O44  1  0.12601016  0.24602304  0.48768743  1
  O  O45  1  0.87398984  0.25397696  0.98768743  1
  O  O46  1  0.87398984  0.75397696  0.51231257  1
  O  O47  1  0.12601016  0.74602304  0.01231257  1
  O  O48  1  0.03426692  0.39179320  0.84808827  1
  O  O49  1  0.96573308  0.10820680  0.34808827  1
  O  O50  1  0.96573308  0.60820680  0.15191173  1
  O  O51  1  0.03426692  0.89179320  0.65191173  1
