# generated using pymatgen
data_Lu2MgSe4
_symmetry_space_group_name_H-M   'P 1'
_cell_length_a   8.14817181
_cell_length_b   8.14817181
_cell_length_c   8.14817181
_cell_angle_alpha   59.99999995
_cell_angle_beta   59.99999996
_cell_angle_gamma   59.99999999
_symmetry_Int_Tables_number   1
_chemical_formula_structural   Lu2MgSe4
_chemical_formula_sum   'Lu4 Mg2 Se8'
_cell_volume   382.53003069
_cell_formula_units_Z   2
loop_
 _symmetry_equiv_pos_site_id
 _symmetry_equiv_pos_as_xyz
  1  'x, y, z'
loop_
 _atom_site_type_symbol
 _atom_site_label
 _atom_site_symmetry_multiplicity
 _atom_site_fract_x
 _atom_site_fract_y
 _atom_site_fract_z
 _atom_site_occupancy
  Mg  Mg0  1  0.87500000  0.87500000  0.87500000  1
  Mg  Mg1  1  0.12500000  0.12500000  0.12500000  1
  Se  Se2  1  0.25583265  0.25583265  0.73250204  1
  Se  Se3  1  0.74416735  0.74416735  0.74416735  1
  Se  Se4  1  0.74416735  0.74416735  0.26749796  1
  Se  Se5  1  0.25583265  0.73250204  0.25583265  1
  Se  Se6  1  0.25583265  0.25583265  0.25583265  1
  Se  Se7  1  0.26749796  0.74416735  0.74416735  1
  Se  Se8  1  0.74416735  0.26749796  0.74416735  1
  Se  Se9  1  0.73250204  0.25583265  0.25583265  1
  Lu  Lu10  1  0.50000000  0.50000000  0.50000000  1
  Lu  Lu11  1  0.50000000  0.00000000  0.50000000  1
  Lu  Lu12  1  0.00000000  0.50000000  0.50000000  1
  Lu  Lu13  1  0.50000000  0.50000000  0.00000000  1
