# generated using pymatgen
data_Ba3Ca2(SiN3)2
_symmetry_space_group_name_H-M   'P 1'
_cell_length_a   6.14088025
_cell_length_b   6.14088025
_cell_length_c   13.46306233
_cell_angle_alpha   80.15660358
_cell_angle_beta   80.15660358
_cell_angle_gamma   68.08872708
_symmetry_Int_Tables_number   1
_chemical_formula_structural   Ba3Ca2(SiN3)2
_chemical_formula_sum   'Ba6 Ca4 Si4 N12'
_cell_volume   460.88893515
_cell_formula_units_Z   2
loop_
 _symmetry_equiv_pos_site_id
 _symmetry_equiv_pos_as_xyz
  1  'x, y, z'
loop_
 _atom_site_type_symbol
 _atom_site_label
 _atom_site_symmetry_multiplicity
 _atom_site_fract_x
 _atom_site_fract_y
 _atom_site_fract_z
 _atom_site_occupancy
  Ba  Ba0  1  0.40230840  0.59769160  0.25000000  1
  Ba  Ba1  1  0.59769160  0.40230840  0.75000000  1
  Ba  Ba2  1  0.79746047  0.32190366  0.00689678  1
  Ba  Ba3  1  0.67809634  0.20253953  0.49310322  1
  Ba  Ba4  1  0.20253953  0.67809634  0.99310322  1
  Ba  Ba5  1  0.32190366  0.79746047  0.50689678  1
  Ca  Ca6  1  0.08863470  0.21460257  0.28147240  1
  Ca  Ca7  1  0.78539743  0.91136530  0.21852760  1
  Ca  Ca8  1  0.91136530  0.78539743  0.71852760  1
  Ca  Ca9  1  0.21460257  0.08863470  0.78147240  1
  Si  Si10  1  0.92724225  0.63121544  0.42070038  1
  Si  Si11  1  0.36878456  0.07275775  0.07929962  1
  Si  Si12  1  0.07275775  0.36878456  0.57929962  1
  Si  Si13  1  0.63121544  0.92724225  0.92070038  1
  N  N14  1  0.98282538  0.89036040  0.36990553  1
  N  N15  1  0.10963960  0.01717462  0.13009447  1
  N  N16  1  0.01717462  0.10963960  0.63009447  1
  N  N17  1  0.89036040  0.98282538  0.86990553  1
  N  N18  1  0.19516172  0.37669125  0.44579213  1
  N  N19  1  0.62330875  0.80483828  0.05420787  1
  N  N20  1  0.80483828  0.62330875  0.55420787  1
  N  N21  1  0.37669125  0.19516172  0.94579213  1
  N  N22  1  0.76741404  0.56784231  0.33990583  1
  N  N23  1  0.43215769  0.23258596  0.16009417  1
  N  N24  1  0.23258596  0.43215769  0.66009417  1
  N  N25  1  0.56784231  0.76741404  0.83990583  1
