# generated using pymatgen
data_Na12NbO7
_symmetry_space_group_name_H-M   'P 1'
_cell_length_a   7.52093911
_cell_length_b   7.52093911
_cell_length_c   7.52093930
_cell_angle_alpha   106.14451228
_cell_angle_beta   106.14451231
_cell_angle_gamma   106.14452090
_symmetry_Int_Tables_number   1
_chemical_formula_structural   Na12NbO7
_chemical_formula_sum   'Na12 Nb1 O7'
_cell_volume   362.24266540
_cell_formula_units_Z   1
loop_
 _symmetry_equiv_pos_site_id
 _symmetry_equiv_pos_as_xyz
  1  'x, y, z'
loop_
 _atom_site_type_symbol
 _atom_site_label
 _atom_site_symmetry_multiplicity
 _atom_site_fract_x
 _atom_site_fract_y
 _atom_site_fract_z
 _atom_site_occupancy
  Na  Na0  1  0.32316285  0.93135185  0.79543788  1
  Na  Na1  1  0.20456212  0.67683715  0.06864815  1
  Na  Na2  1  0.16639646  0.42986428  0.36746463  1
  Na  Na3  1  0.63253537  0.83360354  0.57013572  1
  Na  Na4  1  0.06864815  0.20456212  0.67683715  1
  Na  Na5  1  0.57013572  0.63253537  0.83360354  1
  Na  Na6  1  0.42986428  0.36746463  0.16639646  1
  Na  Na7  1  0.93135185  0.79543788  0.32316285  1
  Na  Na8  1  0.36746463  0.16639646  0.42986428  1
  Na  Na9  1  0.83360354  0.57013572  0.63253537  1
  Na  Na10  1  0.79543788  0.32316285  0.93135185  1
  Na  Na11  1  0.67683715  0.06864815  0.20456212  1
  Nb  Nb12  1  0.00000000  0.00000000  0.00000000  1
  O  O13  1  0.70568859  0.98199966  0.90483406  1
  O  O14  1  0.09516594  0.29431141  0.01800034  1
  O  O15  1  0.01800034  0.09516594  0.29431141  1
  O  O16  1  0.50000000  0.50000000  0.50000000  1
  O  O17  1  0.98199966  0.90483406  0.70568859  1
  O  O18  1  0.90483406  0.70568859  0.98199966  1
  O  O19  1  0.29431141  0.01800034  0.09516594  1
