# generated using pymatgen
data_Ba2H3I
_symmetry_space_group_name_H-M   'P 1'
_cell_length_a   4.53669541
_cell_length_b   4.53682478
_cell_length_c   8.16797909
_cell_angle_alpha   89.99999999
_cell_angle_beta   89.99961384
_cell_angle_gamma   120.00094819
_symmetry_Int_Tables_number   1
_chemical_formula_structural   Ba2H3I
_chemical_formula_sum   'Ba2 H3 I1'
_cell_volume   145.59039609
_cell_formula_units_Z   1
loop_
 _symmetry_equiv_pos_site_id
 _symmetry_equiv_pos_as_xyz
  1  'x, y, z'
loop_
 _atom_site_type_symbol
 _atom_site_label
 _atom_site_symmetry_multiplicity
 _atom_site_fract_x
 _atom_site_fract_y
 _atom_site_fract_z
 _atom_site_occupancy
  Ba  Ba0  1  0.66666478  0.33333239  0.68446998  1
  Ba  Ba1  1  0.33333522  0.66666761  0.31553002  1
  H  H2  1  0.66667429  0.33333715  0.35594587  1
  H  H3  1  0.33332571  0.66666285  0.64405413  1
  H  H4  1  0.00000000  0.00000000  0.50000000  1
  I  I5  1  0.00000000  0.00000000  0.00000000  1
