# generated using pymatgen
data_Ba3Si2(B3O8)2
_symmetry_space_group_name_H-M   'P 1'
_cell_length_a   5.08421707
_cell_length_b   7.68159642
_cell_length_c   8.62702756
_cell_angle_alpha   77.17018223
_cell_angle_beta   77.68898940
_cell_angle_gamma   87.28812014
_symmetry_Int_Tables_number   1
_chemical_formula_structural   Ba3Si2(B3O8)2
_chemical_formula_sum   'Ba3 Si2 B6 O16'
_cell_volume   320.96161643
_cell_formula_units_Z   1
loop_
 _symmetry_equiv_pos_site_id
 _symmetry_equiv_pos_as_xyz
  1  'x, y, z'
loop_
 _atom_site_type_symbol
 _atom_site_label
 _atom_site_symmetry_multiplicity
 _atom_site_fract_x
 _atom_site_fract_y
 _atom_site_fract_z
 _atom_site_occupancy
  Ba  Ba0  1  0.50000000  0.00000000  0.50000000  1
  Ba  Ba1  1  0.61891854  0.57977246  0.23476949  1
  Ba  Ba2  1  0.38108146  0.42022754  0.76523051  1
  Si  Si3  1  0.24052762  0.82610005  0.94002178  1
  Si  Si4  1  0.75947238  0.17389995  0.05997822  1
  B  B5  1  0.81669114  0.76072459  0.79605474  1
  B  B6  1  0.18330886  0.23927541  0.20394526  1
  B  B7  1  0.96893407  0.30311959  0.47584687  1
  B  B8  1  0.03106593  0.69688041  0.52415313  1
  B  B9  1  0.02181639  0.90942825  0.24633444  1
  B  B10  1  0.97818361  0.09057175  0.75366556  1
  O  O11  1  0.21465101  0.82190201  0.13315710  1
  O  O12  1  0.78534899  0.17809799  0.86684290  1
  O  O13  1  0.14496823  0.35835754  0.32200333  1
  O  O14  1  0.85503177  0.64164246  0.67799667  1
  O  O15  1  0.99810209  0.70579332  0.91480774  1
  O  O16  1  0.00189791  0.29420668  0.08519226  1
  O  O17  1  0.90524337  0.77337712  0.39502597  1
  O  O18  1  0.09475663  0.22662288  0.60497403  1
  O  O19  1  0.70139585  0.32436034  0.49416276  1
  O  O20  1  0.29860415  0.67563966  0.50583724  1
  O  O21  1  0.47170903  0.27342569  0.11115828  1
  O  O22  1  0.52829097  0.72657431  0.88884172  1
  O  O23  1  0.86410630  0.94517903  0.70626653  1
  O  O24  1  0.13589370  0.05482097  0.29373347  1
  O  O25  1  0.77904848  0.97279101  0.17288963  1
  O  O26  1  0.22095152  0.02720899  0.82711037  1
