# generated using pymatgen
data_BaNaLi3(BO2)6
_symmetry_space_group_name_H-M   'P 1'
_cell_length_a   8.39910569
_cell_length_b   8.39910569
_cell_length_c   8.39910556
_cell_angle_alpha   69.38326921
_cell_angle_beta   69.38326921
_cell_angle_gamma   69.38327144
_symmetry_Int_Tables_number   1
_chemical_formula_structural   BaNaLi3(BO2)6
_chemical_formula_sum   'Ba2 Na2 Li6 B12 O24'
_cell_volume   501.14243309
_cell_formula_units_Z   2
loop_
 _symmetry_equiv_pos_site_id
 _symmetry_equiv_pos_as_xyz
  1  'x, y, z'
loop_
 _atom_site_type_symbol
 _atom_site_label
 _atom_site_symmetry_multiplicity
 _atom_site_fract_x
 _atom_site_fract_y
 _atom_site_fract_z
 _atom_site_occupancy
  Ba  Ba0  1  0.85236052  0.85236052  0.85236052  1
  Ba  Ba1  1  0.14763948  0.14763948  0.14763948  1
  Na  Na2  1  0.66863235  0.66863235  0.66863235  1
  Na  Na3  1  0.33136765  0.33136765  0.33136765  1
  Li  Li4  1  0.59852618  0.78268807  0.27993561  1
  Li  Li5  1  0.78268807  0.27993561  0.59852618  1
  Li  Li6  1  0.27993561  0.59852618  0.78268807  1
  Li  Li7  1  0.40147382  0.21731193  0.72006439  1
  Li  Li8  1  0.21731193  0.72006439  0.40147382  1
  Li  Li9  1  0.72006439  0.40147382  0.21731193  1
  B  B10  1  0.48463253  0.69286544  0.06735660  1
  B  B11  1  0.69286544  0.06735660  0.48463253  1
  B  B12  1  0.06735660  0.48463253  0.69286544  1
  B  B13  1  0.51536747  0.30713456  0.93264340  1
  B  B14  1  0.30713456  0.93264340  0.51536747  1
  B  B15  1  0.93264340  0.51536747  0.30713456  1
  B  B16  1  0.68607783  0.13251249  0.16660044  1
  B  B17  1  0.13251249  0.16660044  0.68607783  1
  B  B18  1  0.16660044  0.68607783  0.13251249  1
  B  B19  1  0.31392217  0.86748751  0.83339956  1
  B  B20  1  0.86748751  0.83339956  0.31392217  1
  B  B21  1  0.83339956  0.31392217  0.86748751  1
  O  O22  1  0.80994814  0.90374975  0.47074620  1
  O  O23  1  0.90374975  0.47074620  0.80994814  1
  O  O24  1  0.47074620  0.80994814  0.90374975  1
  O  O25  1  0.19005186  0.09625025  0.52925380  1
  O  O26  1  0.09625025  0.52925380  0.19005186  1
  O  O27  1  0.52925380  0.19005186  0.09625025  1
  O  O28  1  0.82304998  0.65768142  0.37809054  1
  O  O29  1  0.65768142  0.37809054  0.82304998  1
  O  O30  1  0.37809054  0.82304998  0.65768142  1
  O  O31  1  0.17695002  0.34231858  0.62190946  1
  O  O32  1  0.34231858  0.62190946  0.17695002  1
  O  O33  1  0.62190946  0.17695002  0.34231858  1
  O  O34  1  0.76005841  0.94291451  0.18646639  1
  O  O35  1  0.94291451  0.18646639  0.76005841  1
  O  O36  1  0.18646639  0.76005841  0.94291451  1
  O  O37  1  0.23994159  0.05708549  0.81353361  1
  O  O38  1  0.05708549  0.81353361  0.23994159  1
  O  O39  1  0.81353361  0.23994159  0.05708549  1
  O  O40  1  0.63316055  0.65178372  0.11797693  1
  O  O41  1  0.65178372  0.11797693  0.63316055  1
  O  O42  1  0.11797693  0.63316055  0.65178372  1
  O  O43  1  0.36683945  0.34821628  0.88202307  1
  O  O44  1  0.34821628  0.88202307  0.36683945  1
  O  O45  1  0.88202307  0.36683945  0.34821628  1
