# generated using pymatgen
data_BaCaB2O5
_symmetry_space_group_name_H-M   'P 1'
_cell_length_a   6.65599645
_cell_length_b   20.83190702
_cell_length_c   8.29179681
_cell_angle_alpha   90.00000000
_cell_angle_beta   116.96130163
_cell_angle_gamma   90.00000000
_symmetry_Int_Tables_number   1
_chemical_formula_structural   BaCaB2O5
_chemical_formula_sum   'Ba8 Ca8 B16 O40'
_cell_volume   1024.75720061
_cell_formula_units_Z   8
loop_
 _symmetry_equiv_pos_site_id
 _symmetry_equiv_pos_as_xyz
  1  'x, y, z'
loop_
 _atom_site_type_symbol
 _atom_site_label
 _atom_site_symmetry_multiplicity
 _atom_site_fract_x
 _atom_site_fract_y
 _atom_site_fract_z
 _atom_site_occupancy
  Ba  Ba0  1  0.52140499  0.53093337  0.76146385  1
  Ba  Ba1  1  0.47859501  0.03093337  0.73853615  1
  Ba  Ba2  1  0.47859501  0.46906663  0.23853615  1
  Ba  Ba3  1  0.52140499  0.96906663  0.26146385  1
  Ba  Ba4  1  0.99254533  0.72067188  0.73286973  1
  Ba  Ba5  1  0.00745467  0.22067188  0.76713027  1
  Ba  Ba6  1  0.00745467  0.27932812  0.26713027  1
  Ba  Ba7  1  0.99254533  0.77932812  0.23286973  1
  Ca  Ca8  1  0.01032368  0.58515616  0.26744897  1
  Ca  Ca9  1  0.98967632  0.08515616  0.23255103  1
  Ca  Ca10  1  0.98967632  0.41484384  0.73255103  1
  Ca  Ca11  1  0.01032368  0.91484384  0.76744897  1
  Ca  Ca12  1  0.50391393  0.66392687  0.25163283  1
  Ca  Ca13  1  0.49608607  0.16392687  0.24836717  1
  Ca  Ca14  1  0.49608607  0.33607313  0.74836717  1
  Ca  Ca15  1  0.50391393  0.83607313  0.75163283  1
  B  B16  1  0.13505687  0.55837523  0.92495338  1
  B  B17  1  0.86494313  0.05837523  0.57504662  1
  B  B18  1  0.86494313  0.44162477  0.07504662  1
  B  B19  1  0.13505687  0.94162477  0.42495338  1
  B  B20  1  0.34771791  0.69079283  0.58460678  1
  B  B21  1  0.65228209  0.19079283  0.91539322  1
  B  B22  1  0.65228209  0.30920717  0.41539322  1
  B  B23  1  0.34771791  0.80920717  0.08460678  1
  B  B24  1  0.62979474  0.68758253  0.91748501  1
  B  B25  1  0.37020526  0.18758253  0.58251499  1
  B  B26  1  0.37020526  0.31241747  0.08251499  1
  B  B27  1  0.62979474  0.81241747  0.41748501  1
  B  B28  1  0.85416819  0.56491605  0.59233029  1
  B  B29  1  0.14583181  0.06491605  0.90766971  1
  B  B30  1  0.14583181  0.43508395  0.40766971  1
  B  B31  1  0.85416819  0.93508395  0.09233029  1
  O  O32  1  0.21894850  0.50303847  0.88929129  1
  O  O33  1  0.78105150  0.00303847  0.61070871  1
  O  O34  1  0.78105150  0.49696153  0.11070871  1
  O  O35  1  0.21894850  0.99696153  0.38929129  1
  O  O36  1  0.71891703  0.74378809  0.89381285  1
  O  O37  1  0.28108297  0.24378809  0.60618715  1
  O  O38  1  0.28108297  0.25621191  0.10618715  1
  O  O39  1  0.71891703  0.75621191  0.39381285  1
  O  O40  1  0.27308993  0.75221446  0.57761467  1
  O  O41  1  0.72691007  0.25221446  0.92238533  1
  O  O42  1  0.72691007  0.24778554  0.42238533  1
  O  O43  1  0.27308993  0.74778554  0.07761467  1
  O  O44  1  0.77118517  0.50416927  0.56958350  1
  O  O45  1  0.22881483  0.00416927  0.93041650  1
  O  O46  1  0.22881483  0.49583073  0.43041650  1
  O  O47  1  0.77118517  0.99583073  0.06958350  1
  O  O48  1  0.21707724  0.58531350  0.09337667  1
  O  O49  1  0.78292276  0.08531350  0.40662333  1
  O  O50  1  0.78292276  0.41468650  0.90662333  1
  O  O51  1  0.21707724  0.91468650  0.59337667  1
  O  O52  1  0.95383346  0.59064347  0.77679314  1
  O  O53  1  0.04616654  0.09064347  0.72320686  1
  O  O54  1  0.04616654  0.40935653  0.22320686  1
  O  O55  1  0.95383346  0.90935653  0.27679314  1
  O  O56  1  0.70788845  0.65458948  0.07705539  1
  O  O57  1  0.29211155  0.15458948  0.42294461  1
  O  O58  1  0.29211155  0.34541052  0.92294461  1
  O  O59  1  0.70788845  0.84541052  0.57705539  1
  O  O60  1  0.83572822  0.60675892  0.45997270  1
  O  O61  1  0.16427178  0.10675892  0.04002730  1
  O  O62  1  0.16427178  0.39324108  0.54002730  1
  O  O63  1  0.83572822  0.89324108  0.95997270  1
  O  O64  1  0.44596689  0.65948181  0.76086856  1
  O  O65  1  0.55403311  0.15948181  0.73913144  1
  O  O66  1  0.55403311  0.34051819  0.23913144  1
  O  O67  1  0.44596689  0.84051819  0.26086856  1
  O  O68  1  0.31971452  0.65459616  0.43919063  1
  O  O69  1  0.68028548  0.15459616  0.06080937  1
  O  O70  1  0.68028548  0.34540384  0.56080937  1
  O  O71  1  0.31971452  0.84540384  0.93919063  1
