# generated using pymatgen
data_BaMg2Si2O7
_symmetry_space_group_name_H-M   'P 1'
_cell_length_a   7.35107567
_cell_length_b   7.40411897
_cell_length_c   13.90877438
_cell_angle_alpha   90.11426329
_cell_angle_beta   90.23018406
_cell_angle_gamma   60.23669783
_symmetry_Int_Tables_number   1
_chemical_formula_structural   BaMg2Si2O7
_chemical_formula_sum   'Ba4 Mg8 Si8 O28'
_cell_volume   657.16009512
_cell_formula_units_Z   4
loop_
 _symmetry_equiv_pos_site_id
 _symmetry_equiv_pos_as_xyz
  1  'x, y, z'
loop_
 _atom_site_type_symbol
 _atom_site_label
 _atom_site_symmetry_multiplicity
 _atom_site_fract_x
 _atom_site_fract_y
 _atom_site_fract_z
 _atom_site_occupancy
  Ba  Ba0  1  0.21791607  0.96719377  0.62063457  1
  Ba  Ba1  1  0.81489016  0.96719377  0.87936543  1
  Ba  Ba2  1  0.78208393  0.03280623  0.37936543  1
  Ba  Ba3  1  0.18510984  0.03280623  0.12063457  1
  Mg  Mg4  1  0.76889238  0.46221525  0.75000000  1
  Mg  Mg5  1  0.23110762  0.53778475  0.25000000  1
  Mg  Mg6  1  0.22923205  0.54153591  0.75000000  1
  Mg  Mg7  1  0.77076795  0.45846409  0.25000000  1
  Mg  Mg8  1  0.27263025  0.53013694  0.00878096  1
  Mg  Mg9  1  0.19723281  0.53013694  0.49121904  1
  Mg  Mg10  1  0.72736975  0.46986306  0.99121904  1
  Mg  Mg11  1  0.80276719  0.46986306  0.50878096  1
  Si  Si12  1  0.15908334  0.25241303  0.86634177  1
  Si  Si13  1  0.58850363  0.25241303  0.63365823  1
  Si  Si14  1  0.84091666  0.74758697  0.13365823  1
  Si  Si15  1  0.41149637  0.74758697  0.36634177  1
  Si  Si16  1  0.42720068  0.78989496  0.87885585  1
  Si  Si17  1  0.78290436  0.78989496  0.62114415  1
  Si  Si18  1  0.57279932  0.21010504  0.12114415  1
  Si  Si19  1  0.21709564  0.21010504  0.37885585  1
  O  O20  1  0.20155928  0.44751187  0.88546992  1
  O  O21  1  0.35092886  0.44751187  0.61453008  1
  O  O22  1  0.79844072  0.55248813  0.11453008  1
  O  O23  1  0.64907114  0.55248813  0.38546992  1
  O  O24  1  0.28670191  0.76776250  0.79472672  1
  O  O25  1  0.94553559  0.76776250  0.70527328  1
  O  O26  1  0.71329809  0.23223750  0.20527328  1
  O  O27  1  0.05446441  0.23223750  0.29472672  1
  O  O28  1  0.38832417  0.72138314  0.98546118  1
  O  O29  1  0.89029270  0.72138314  0.51453882  1
  O  O30  1  0.61167583  0.27861686  0.01453882  1
  O  O31  1  0.10970730  0.27861686  0.48546118  1
  O  O32  1  0.68283423  0.63996719  0.86576433  1
  O  O33  1  0.67719858  0.63996719  0.63423567  1
  O  O34  1  0.31716577  0.36003281  0.13423567  1
  O  O35  1  0.32280142  0.36003281  0.36576433  1
  O  O36  1  0.39155926  0.03186597  0.87868721  1
  O  O37  1  0.57657477  0.03186597  0.62131279  1
  O  O38  1  0.60844074  0.96813403  0.12131279  1
  O  O39  1  0.42342523  0.96813403  0.37868721  1
  O  O40  1  0.07844280  0.28180018  0.75419467  1
  O  O41  1  0.63975703  0.28180018  0.74580533  1
  O  O42  1  0.92155720  0.71819982  0.24580533  1
  O  O43  1  0.36024297  0.71819982  0.25419467  1
  O  O44  1  0.00120731  0.23156095  0.94213389  1
  O  O45  1  0.76723175  0.23156095  0.55786611  1
  O  O46  1  0.99879269  0.76843905  0.05786611  1
  O  O47  1  0.23276825  0.76843905  0.44213389  1
