# generated using pymatgen
data_BaS4O13
_symmetry_space_group_name_H-M   'P 1'
_cell_length_a   7.68541454
_cell_length_b   7.68541454
_cell_length_c   9.81984013
_cell_angle_alpha   95.31010364
_cell_angle_beta   95.31010364
_cell_angle_gamma   103.37562242
_symmetry_Int_Tables_number   1
_chemical_formula_structural   BaS4O13
_chemical_formula_sum   'Ba2 S8 O26'
_cell_volume   557.95858218
_cell_formula_units_Z   2
loop_
 _symmetry_equiv_pos_site_id
 _symmetry_equiv_pos_as_xyz
  1  'x, y, z'
loop_
 _atom_site_type_symbol
 _atom_site_label
 _atom_site_symmetry_multiplicity
 _atom_site_fract_x
 _atom_site_fract_y
 _atom_site_fract_z
 _atom_site_occupancy
  Ba  Ba0  1  0.80444751  0.19555249  0.25000000  1
  Ba  Ba1  1  0.19555249  0.80444751  0.75000000  1
  S  S2  1  0.23021874  0.57415537  0.11865815  1
  S  S3  1  0.42584463  0.76978126  0.38134185  1
  S  S4  1  0.76978126  0.42584463  0.88134185  1
  S  S5  1  0.57415537  0.23021874  0.61865815  1
  S  S6  1  0.28768944  0.19690215  0.07811153  1
  S  S7  1  0.80309785  0.71231056  0.42188847  1
  S  S8  1  0.71231056  0.80309785  0.92188847  1
  S  S9  1  0.19690215  0.28768944  0.57811153  1
  O  O10  1  0.06160765  0.50978048  0.17079374  1
  O  O11  1  0.49021952  0.93839235  0.32920626  1
  O  O12  1  0.93839235  0.49021952  0.82920626  1
  O  O13  1  0.50978048  0.06160765  0.67079374  1
  O  O14  1  0.25428164  0.73076004  0.04669944  1
  O  O15  1  0.26923996  0.74571836  0.45330056  1
  O  O16  1  0.74571836  0.26923996  0.95330056  1
  O  O17  1  0.73076004  0.25428164  0.54669944  1
  O  O18  1  0.38985279  0.61014721  0.25000000  1
  O  O19  1  0.61014721  0.38985279  0.75000000  1
  O  O20  1  0.29244236  0.42842416  0.03244801  1
  O  O21  1  0.57157584  0.70755764  0.46755199  1
  O  O22  1  0.70755764  0.57157584  0.96755199  1
  O  O23  1  0.42842416  0.29244236  0.53244801  1
  O  O24  1  0.44842557  0.23322834  0.17457665  1
  O  O25  1  0.76677166  0.55157443  0.32542335  1
  O  O26  1  0.55157443  0.76677166  0.82542335  1
  O  O27  1  0.23322834  0.44842557  0.67457665  1
  O  O28  1  0.29891801  0.11791282  0.94113356  1
  O  O29  1  0.88208718  0.70108199  0.55886644  1
  O  O30  1  0.70108199  0.88208718  0.05886644  1
  O  O31  1  0.11791282  0.29891801  0.44113356  1
  O  O32  1  0.11715759  0.14581916  0.13200912  1
  O  O33  1  0.85418084  0.88284241  0.36799088  1
  O  O34  1  0.88284241  0.85418084  0.86799088  1
  O  O35  1  0.14581916  0.11715759  0.63200912  1
