# generated using pymatgen
data_Ba2P2O7
_symmetry_space_group_name_H-M   'P 1'
_cell_length_a   9.42273513
_cell_length_b   5.69576471
_cell_length_c   14.02823121
_cell_angle_alpha   90.00000000
_cell_angle_beta   90.00000000
_cell_angle_gamma   90.00000000
_symmetry_Int_Tables_number   1
_chemical_formula_structural   Ba2P2O7
_chemical_formula_sum   'Ba8 P8 O28'
_cell_volume   752.89071122
_cell_formula_units_Z   4
loop_
 _symmetry_equiv_pos_site_id
 _symmetry_equiv_pos_as_xyz
  1  'x, y, z'
loop_
 _atom_site_type_symbol
 _atom_site_label
 _atom_site_symmetry_multiplicity
 _atom_site_fract_x
 _atom_site_fract_y
 _atom_site_fract_z
 _atom_site_occupancy
  Ba  Ba0  1  0.36022709  0.25000000  0.08266314  1
  Ba  Ba1  1  0.86022709  0.25000000  0.41733686  1
  Ba  Ba2  1  0.63977291  0.75000000  0.91733686  1
  Ba  Ba3  1  0.13977291  0.75000000  0.58266314  1
  Ba  Ba4  1  0.34113123  0.25000000  0.75546915  1
  Ba  Ba5  1  0.84113123  0.25000000  0.74453085  1
  Ba  Ba6  1  0.65886877  0.75000000  0.24453085  1
  Ba  Ba7  1  0.15886877  0.75000000  0.25546915  1
  P  P8  1  0.71808753  0.25000000  0.04261311  1
  P  P9  1  0.21808753  0.25000000  0.45738689  1
  P  P10  1  0.28191247  0.75000000  0.95738689  1
  P  P11  1  0.78191247  0.75000000  0.54261311  1
  P  P12  1  0.95272512  0.25000000  0.18519376  1
  P  P13  1  0.45272512  0.25000000  0.31480624  1
  P  P14  1  0.04727488  0.75000000  0.81480624  1
  P  P15  1  0.54727488  0.75000000  0.68519376  1
  O  O16  1  0.64352713  0.02739697  0.07998623  1
  O  O17  1  0.14352713  0.47260303  0.42001377  1
  O  O18  1  0.35647287  0.52739697  0.92001377  1
  O  O19  1  0.85647287  0.97260303  0.57998623  1
  O  O20  1  0.35647287  0.97260303  0.92001377  1
  O  O21  1  0.85647287  0.52739697  0.57998623  1
  O  O22  1  0.64352713  0.47260303  0.07998623  1
  O  O23  1  0.14352713  0.02739697  0.42001377  1
  O  O24  1  0.72773786  0.25000000  0.93326532  1
  O  O25  1  0.22773786  0.25000000  0.56673468  1
  O  O26  1  0.27226214  0.75000000  0.06673468  1
  O  O27  1  0.77226214  0.75000000  0.43326532  1
  O  O28  1  0.88130261  0.25000000  0.07916174  1
  O  O29  1  0.38130261  0.25000000  0.42083826  1
  O  O30  1  0.11869739  0.75000000  0.92083826  1
  O  O31  1  0.61869739  0.75000000  0.57916174  1
  O  O32  1  0.90434476  0.02662678  0.23775749  1
  O  O33  1  0.40434476  0.47337322  0.26224251  1
  O  O34  1  0.09565524  0.52662678  0.76224251  1
  O  O35  1  0.59565524  0.97337322  0.73775749  1
  O  O36  1  0.09565524  0.97337322  0.76224251  1
  O  O37  1  0.59565524  0.52662678  0.73775749  1
  O  O38  1  0.90434476  0.47337322  0.23775749  1
  O  O39  1  0.40434476  0.02662678  0.26224251  1
  O  O40  1  0.11253163  0.25000000  0.16730510  1
  O  O41  1  0.61253163  0.25000000  0.33269490  1
  O  O42  1  0.88746837  0.75000000  0.83269490  1
  O  O43  1  0.38746837  0.75000000  0.66730510  1
