# generated using pymatgen
data_Ba8Al10B12O41
_symmetry_space_group_name_H-M   'P 1'
_cell_length_a   9.35363497
_cell_length_b   9.93258360
_cell_length_c   11.23431440
_cell_angle_alpha   76.25697923
_cell_angle_beta   73.72265235
_cell_angle_gamma   77.99798843
_symmetry_Int_Tables_number   1
_chemical_formula_structural   Ba8Al10B12O41
_chemical_formula_sum   'Ba8 Al10 B12 O41'
_cell_volume   961.96374273
_cell_formula_units_Z   1
loop_
 _symmetry_equiv_pos_site_id
 _symmetry_equiv_pos_as_xyz
  1  'x, y, z'
loop_
 _atom_site_type_symbol
 _atom_site_label
 _atom_site_symmetry_multiplicity
 _atom_site_fract_x
 _atom_site_fract_y
 _atom_site_fract_z
 _atom_site_occupancy
  Ba  Ba0  1  0.77762122  0.94802424  0.85527703  1
  Ba  Ba1  1  0.22237878  0.05197576  0.14472297  1
  Ba  Ba2  1  0.80426053  0.42478955  0.84899668  1
  Ba  Ba3  1  0.19573947  0.57521045  0.15100332  1
  Ba  Ba4  1  0.79045287  0.57164590  0.44605078  1
  Ba  Ba5  1  0.20954713  0.42835410  0.55394922  1
  Ba  Ba6  1  0.21067036  0.94389758  0.55750216  1
  Ba  Ba7  1  0.78932964  0.05610242  0.44249784  1
  Al  Al8  1  0.58334433  0.28939782  0.70452871  1
  Al  Al9  1  0.41665567  0.71060218  0.29547129  1
  Al  Al10  1  0.45202907  0.33963738  0.99290440  1
  Al  Al11  1  0.54797093  0.66036262  0.00709560  1
  Al  Al12  1  0.10304369  0.13501573  0.81374599  1
  Al  Al13  1  0.89695631  0.86498427  0.18625401  1
  Al  Al14  1  0.13101788  0.63758046  0.79533827  1
  Al  Al15  1  0.86898212  0.36241954  0.20466173  1
  Al  Al16  1  0.57966175  0.79241098  0.70705861  1
  Al  Al17  1  0.42033825  0.20758902  0.29294139  1
  B  B18  1  0.90300750  0.21579104  0.64617232  1
  B  B19  1  0.09699250  0.78420896  0.35382768  1
  B  B20  1  0.43133781  0.07507672  0.66666616  1
  B  B21  1  0.56866219  0.92492328  0.33333384  1
  B  B22  1  0.43947426  0.57646481  0.66305098  1
  B  B23  1  0.56052574  0.42353519  0.33694902  1
  B  B24  1  0.18059397  0.34995875  0.90862340  1
  B  B25  1  0.81940603  0.65004125  0.09137660  1
  B  B26  1  0.11852749  0.84253256  0.93976664  1
  B  B27  1  0.88147251  0.15746744  0.06023336  1
  B  B28  1  0.90058925  0.71587645  0.65673657  1
  B  B29  1  0.09941075  0.28412355  0.34326343  1
  O  O30  1  0.92229142  0.08562837  0.62077668  1
  O  O31  1  0.07770858  0.91437163  0.37922332  1
  O  O32  1  0.77462881  0.31537593  0.63005975  1
  O  O33  1  0.22537119  0.68462407  0.36994025  1
  O  O34  1  0.00386956  0.25297923  0.69984385  1
  O  O35  1  0.99613044  0.74702077  0.30015615  1
  O  O36  1  0.46512519  0.93930414  0.64219943  1
  O  O37  1  0.53487481  0.06069586  0.35780057  1
  O  O38  1  0.28605285  0.14363420  0.68046944  1
  O  O39  1  0.71394715  0.85636580  0.31953056  1
  O  O40  1  0.55240242  0.13704100  0.66597010  1
  O  O41  1  0.44759758  0.86295900  0.33402990  1
  O  O42  1  0.46325481  0.43894545  0.64763128  1
  O  O43  1  0.53674519  0.56105455  0.35236872  1
  O  O44  1  0.29560684  0.65217348  0.67017077  1
  O  O45  1  0.70439316  0.34782652  0.32982923  1
  O  O46  1  0.55862823  0.63753192  0.66396190  1
  O  O47  1  0.44137177  0.36246808  0.33603810  1
  O  O48  1  0.17459724  0.21198278  0.91157877  1
  O  O49  1  0.82540276  0.78801722  0.08842123  1
  O  O50  1  0.10461112  0.45838136  0.83343154  1
  O  O51  1  0.89538888  0.54161864  0.16656846  1
  O  O52  1  0.25991404  0.38273528  0.98129188  1
  O  O53  1  0.74008596  0.61726472  0.01870812  1
  O  O54  1  0.13939174  0.70390572  0.92362609  1
  O  O55  1  0.86060826  0.29609428  0.07637391  1
  O  O56  1  0.09669709  0.86415426  0.06087161  1
  O  O57  1  0.90330291  0.13584574  0.93912839  1
  O  O58  1  0.11928353  0.94750794  0.83375651  1
  O  O59  1  0.88071647  0.05249206  0.16624349  1
  O  O60  1  0.98386435  0.74870841  0.73032652  1
  O  O61  1  0.01613565  0.25129159  0.26967348  1
  O  O62  1  0.93634936  0.59297882  0.61625152  1
  O  O63  1  0.06365064  0.40702118  0.38374848  1
  O  O64  1  0.77344619  0.81422062  0.63621364  1
  O  O65  1  0.22655381  0.18577938  0.36378636  1
  O  O66  1  0.57372247  0.26874016  0.86499267  1
  O  O67  1  0.42627753  0.73125984  0.13500733  1
  O  O68  1  0.43988444  0.21532924  0.13364048  1
  O  O69  1  0.56011556  0.78467076  0.86635952  1
  O  O70  1  0.50000000  0.50000000  0.00000000  1
