# generated using pymatgen
data_BaY4Si5O17
_symmetry_space_group_name_H-M   'P 1'
_cell_length_a   5.59639405
_cell_length_b   20.02467992
_cell_length_c   6.95112567
_cell_angle_alpha   90.00000000
_cell_angle_beta   106.68936985
_cell_angle_gamma   90.00000000
_symmetry_Int_Tables_number   1
_chemical_formula_structural   BaY4Si5O17
_chemical_formula_sum   'Ba2 Y8 Si10 O34'
_cell_volume   746.17072763
_cell_formula_units_Z   2
loop_
 _symmetry_equiv_pos_site_id
 _symmetry_equiv_pos_as_xyz
  1  'x, y, z'
loop_
 _atom_site_type_symbol
 _atom_site_label
 _atom_site_symmetry_multiplicity
 _atom_site_fract_x
 _atom_site_fract_y
 _atom_site_fract_z
 _atom_site_occupancy
  Ba  Ba0  1  0.24424787  0.25000000  0.80968823  1
  Ba  Ba1  1  0.75575213  0.75000000  0.19031177  1
  Y  Y2  1  0.30199552  0.46117975  0.11721793  1
  Y  Y3  1  0.69800448  0.96117975  0.88278207  1
  Y  Y4  1  0.69800448  0.53882025  0.88278207  1
  Y  Y5  1  0.30199552  0.03882025  0.11721793  1
  Y  Y6  1  0.64797578  0.34182175  0.48212647  1
  Y  Y7  1  0.35202422  0.84182175  0.51787353  1
  Y  Y8  1  0.35202422  0.65817825  0.51787353  1
  Y  Y9  1  0.64797578  0.15817825  0.48212647  1
  Si  Si10  1  0.06352072  0.25000000  0.28104059  1
  Si  Si11  1  0.93647928  0.75000000  0.71895941  1
  Si  Si12  1  0.77126894  0.36420441  0.00801120  1
  Si  Si13  1  0.22873106  0.86420441  0.99198880  1
  Si  Si14  1  0.22873106  0.63579559  0.99198880  1
  Si  Si15  1  0.77126894  0.13579559  0.00801120  1
  Si  Si16  1  0.19626267  0.43926732  0.59474904  1
  Si  Si17  1  0.80373733  0.93926732  0.40525096  1
  Si  Si18  1  0.80373733  0.56073268  0.40525096  1
  Si  Si19  1  0.19626267  0.06073268  0.59474904  1
  O  O20  1  0.86701166  0.25000000  0.41627320  1
  O  O21  1  0.13298834  0.75000000  0.58372680  1
  O  O22  1  0.35611242  0.25000000  0.41758418  1
  O  O23  1  0.64388758  0.75000000  0.58241582  1
  O  O24  1  0.01677347  0.31604032  0.13058007  1
  O  O25  1  0.98322653  0.81604032  0.86941993  1
  O  O26  1  0.98322653  0.68395968  0.86941993  1
  O  O27  1  0.01677347  0.18395968  0.13058007  1
  O  O28  1  0.63858165  0.32664714  0.79710209  1
  O  O29  1  0.36141835  0.82664714  0.20289791  1
  O  O30  1  0.36141835  0.67335286  0.20289791  1
  O  O31  1  0.63858165  0.17335286  0.79710209  1
  O  O32  1  0.89813411  0.43634313  0.98322364  1
  O  O33  1  0.10186589  0.93634313  0.01677636  1
  O  O34  1  0.10186589  0.56365687  0.01677636  1
  O  O35  1  0.89813411  0.06365687  0.98322364  1
  O  O36  1  0.57960207  0.37045854  0.14853336  1
  O  O37  1  0.42039793  0.87045854  0.85146664  1
  O  O38  1  0.42039793  0.62954146  0.85146664  1
  O  O39  1  0.57960207  0.12954146  0.14853336  1
  O  O40  1  0.04187430  0.37221006  0.61510764  1
  O  O41  1  0.95812570  0.87221006  0.38489236  1
  O  O42  1  0.95812570  0.62778994  0.38489236  1
  O  O43  1  0.04187430  0.12778994  0.61510764  1
  O  O44  1  0.37442990  0.46580590  0.81252261  1
  O  O45  1  0.62557010  0.96580590  0.18747739  1
  O  O46  1  0.62557010  0.53419410  0.18747739  1
  O  O47  1  0.37442990  0.03419410  0.81252261  1
  O  O48  1  -0.00000000  0.50000000  0.50000000  1
  O  O49  1  -0.00000000  0.00000000  0.50000000  1
  O  O50  1  0.36898310  0.42666559  0.44039654  1
  O  O51  1  0.63101690  0.92666559  0.55960346  1
  O  O52  1  0.63101690  0.57333441  0.55960346  1
  O  O53  1  0.36898310  0.07333441  0.44039654  1
