# generated using pymatgen
data_BaGe(S2O7)3
_symmetry_space_group_name_H-M   'P 1'
_cell_length_a   7.73511508
_cell_length_b   13.24451308
_cell_length_c   17.28916288
_cell_angle_alpha   90.00000000
_cell_angle_beta   90.00000000
_cell_angle_gamma   90.00000000
_symmetry_Int_Tables_number   1
_chemical_formula_structural   BaGe(S2O7)3
_chemical_formula_sum   'Ba4 Ge4 S24 O84'
_cell_volume   1771.23726889
_cell_formula_units_Z   4
loop_
 _symmetry_equiv_pos_site_id
 _symmetry_equiv_pos_as_xyz
  1  'x, y, z'
loop_
 _atom_site_type_symbol
 _atom_site_label
 _atom_site_symmetry_multiplicity
 _atom_site_fract_x
 _atom_site_fract_y
 _atom_site_fract_z
 _atom_site_occupancy
  Ba  Ba0  1  0.25239928  0.51201199  0.47921897  1
  Ba  Ba1  1  0.24760072  0.48798801  0.97921897  1
  Ba  Ba2  1  0.75239928  0.98798801  0.52078103  1
  Ba  Ba3  1  0.74760072  0.01201199  0.02078103  1
  Ge  Ge4  1  0.25480517  0.76652953  0.23228568  1
  Ge  Ge5  1  0.24519483  0.23347047  0.73228568  1
  Ge  Ge6  1  0.75480517  0.73347047  0.76771432  1
  Ge  Ge7  1  0.74519483  0.26652953  0.26771432  1
  S  S8  1  0.24586078  0.93556881  0.10685549  1
  S  S9  1  0.25413922  0.06443119  0.60685549  1
  S  S10  1  0.74586078  0.56443119  0.89314451  1
  S  S11  1  0.75413922  0.43556881  0.39314451  1
  S  S12  1  0.26887523  0.53428540  0.24846649  1
  S  S13  1  0.23112477  0.46571460  0.74846649  1
  S  S14  1  0.76887523  0.96571460  0.75153351  1
  S  S15  1  0.73112477  0.03428540  0.25153351  1
  S  S16  1  0.03631856  0.75886956  0.08172839  1
  S  S17  1  0.46368144  0.24113044  0.58172839  1
  S  S18  1  0.53631856  0.74113044  0.91827161  1
  S  S19  1  0.96368144  0.25886956  0.41827161  1
  S  S20  1  0.47530425  0.78053756  0.38285392  1
  S  S21  1  0.02469575  0.21946244  0.88285392  1
  S  S22  1  0.97530425  0.71946244  0.61714608  1
  S  S23  1  0.52469575  0.28053756  0.11714608  1
  S  S24  1  0.10829219  0.81315430  0.39654235  1
  S  S25  1  0.39170781  0.18684570  0.89654235  1
  S  S26  1  0.60829219  0.68684570  0.60345765  1
  S  S27  1  0.89170781  0.31315430  0.10345765  1
  S  S28  1  0.53437030  0.62240446  0.15364354  1
  S  S29  1  0.96562970  0.37759554  0.65364354  1
  S  S30  1  0.03437030  0.87759554  0.84635646  1
  S  S31  1  0.46562970  0.12240446  0.34635646  1
  O  O32  1  0.27307205  0.46754051  0.31381003  1
  O  O33  1  0.22692795  0.53245949  0.81381003  1
  O  O34  1  0.77307205  0.03245949  0.68618997  1
  O  O35  1  0.72692795  0.96754051  0.18618997  1
  O  O36  1  0.21230886  0.63859416  0.27774568  1
  O  O37  1  0.28769114  0.36140584  0.77774568  1
  O  O38  1  0.71230886  0.86140584  0.72225432  1
  O  O39  1  0.78769114  0.13859416  0.22225432  1
  O  O40  1  0.05357030  0.74981874  0.16909482  1
  O  O41  1  0.44642970  0.25018126  0.66909482  1
  O  O42  1  0.55357030  0.75018126  0.83090518  1
  O  O43  1  0.94642970  0.24981874  0.33090518  1
  O  O44  1  0.28575052  0.89735557  0.18852480  1
  O  O45  1  0.21424948  0.10264443  0.68852480  1
  O  O46  1  0.78575052  0.60264443  0.81147520  1
  O  O47  1  0.71424948  0.39735557  0.31147520  1
  O  O48  1  0.45463674  0.79446463  0.29561979  1
  O  O49  1  0.04536326  0.20553537  0.79561979  1
  O  O50  1  0.95463674  0.70553537  0.70438021  1
  O  O51  1  0.54536326  0.29446463  0.20438021  1
  O  O52  1  0.47589072  0.55300661  0.22932120  1
  O  O53  1  0.02410928  0.44699339  0.72932120  1
  O  O54  1  0.97589072  0.94699339  0.77067880  1
  O  O55  1  0.52410928  0.05300661  0.27067880  1
  O  O56  1  0.62194307  0.83716699  0.40863014  1
  O  O57  1  0.87805693  0.16283301  0.90863014  1
  O  O58  1  0.12194307  0.66283301  0.59136986  1
  O  O59  1  0.37805693  0.33716699  0.09136986  1
  O  O60  1  0.20374054  0.83155420  0.05803844  1
  O  O61  1  0.29625946  0.16844580  0.55803844  1
  O  O62  1  0.70374054  0.66844580  0.94196156  1
  O  O63  1  0.79625946  0.33155420  0.44196156  1
  O  O64  1  0.45751713  0.67704665  0.40606274  1
  O  O65  1  0.04248287  0.32295335  0.90606274  1
  O  O66  1  0.95751713  0.82295335  0.59393726  1
  O  O67  1  0.54248287  0.17704665  0.09393726  1
  O  O68  1  0.88140747  0.81278805  0.06262574  1
  O  O69  1  0.61859253  0.18721195  0.56262574  1
  O  O70  1  0.38140747  0.68721195  0.93737426  1
  O  O71  1  0.11859253  0.31278805  0.43737426  1
  O  O72  1  0.40589080  0.71049080  0.15552884  1
  O  O73  1  0.09410920  0.28950920  0.65552884  1
  O  O74  1  0.90589080  0.78950920  0.84447116  1
  O  O75  1  0.59410920  0.21049080  0.34447116  1
  O  O76  1  0.07378842  0.66657389  0.04212897  1
  O  O77  1  0.42621158  0.33342611  0.54212897  1
  O  O78  1  0.57378842  0.83342611  0.95787103  1
  O  O79  1  0.92621158  0.16657389  0.45787103  1
  O  O80  1  0.10498966  0.82416266  0.30864346  1
  O  O81  1  0.39501034  0.17583734  0.80864346  1
  O  O82  1  0.60498966  0.67583734  0.69135654  1
  O  O83  1  0.89501034  0.32416266  0.19135654  1
  O  O84  1  0.31060933  0.84483791  0.41854962  1
  O  O85  1  0.18939067  0.15516209  0.91854962  1
  O  O86  1  0.81060933  0.65516209  0.58145038  1
  O  O87  1  0.68939067  0.34483791  0.08145038  1
  O  O88  1  0.40023441  0.97202387  0.07105214  1
  O  O89  1  0.09976559  0.02797613  0.57105214  1
  O  O90  1  0.90023441  0.52797613  0.92894786  1
  O  O91  1  0.59976559  0.47202387  0.42894786  1
  O  O92  1  0.09366139  0.99774183  0.10588225  1
  O  O93  1  0.40633861  0.00225817  0.60588225  1
  O  O94  1  0.59366139  0.50225817  0.89411775  1
  O  O95  1  0.90633861  0.49774183  0.39411775  1
  O  O96  1  0.01192887  0.89374360  0.43033370  1
  O  O97  1  0.48807113  0.10625640  0.93033370  1
  O  O98  1  0.51192887  0.60625640  0.56966630  1
  O  O99  1  0.98807113  0.39374360  0.06966630  1
  O  O100  1  0.07975391  0.71165079  0.42249058  1
  O  O101  1  0.42024609  0.28834921  0.92249058  1
  O  O102  1  0.57975391  0.78834921  0.57750942  1
  O  O103  1  0.92024609  0.21165079  0.07750942  1
  O  O104  1  0.50165364  0.56437285  0.08462602  1
  O  O105  1  0.99834636  0.43562715  0.58462602  1
  O  O106  1  0.00165364  0.93562715  0.91537398  1
  O  O107  1  0.49834636  0.06437285  0.41537398  1
  O  O108  1  0.18355917  0.50605523  0.17853679  1
  O  O109  1  0.31644083  0.49394477  0.67853679  1
  O  O110  1  0.68355917  0.99394477  0.82146321  1
  O  O111  1  0.81644083  0.00605523  0.32146321  1
  O  O112  1  0.70685573  0.65056959  0.17221172  1
  O  O113  1  0.79314427  0.34943041  0.67221172  1
  O  O114  1  0.20685573  0.84943041  0.82778828  1
  O  O115  1  0.29314427  0.15056959  0.32778828  1
