# generated using pymatgen
data_TbGdO3
_symmetry_space_group_name_H-M   'P 1'
_cell_length_a   6.03343615
_cell_length_b   8.49043783
_cell_length_c   5.78441390
_cell_angle_alpha   90.00000000
_cell_angle_beta   90.00000000
_cell_angle_gamma   90.00000000
_symmetry_Int_Tables_number   1
_chemical_formula_structural   TbGdO3
_chemical_formula_sum   'Tb4 Gd4 O12'
_cell_volume   296.31536271
_cell_formula_units_Z   4
loop_
 _symmetry_equiv_pos_site_id
 _symmetry_equiv_pos_as_xyz
  1  'x, y, z'
loop_
 _atom_site_type_symbol
 _atom_site_label
 _atom_site_symmetry_multiplicity
 _atom_site_fract_x
 _atom_site_fract_y
 _atom_site_fract_z
 _atom_site_occupancy
  Tb  Tb0  1  0.00000000  0.00000000  0.50000000  1
  Tb  Tb1  1  0.00000000  0.50000000  0.50000000  1
  Tb  Tb2  1  0.50000000  0.00000000  0.00000000  1
  Tb  Tb3  1  0.50000000  0.50000000  0.00000000  1
  Gd  Gd4  1  0.04822285  0.25000000  0.98892336  1
  Gd  Gd5  1  0.45177715  0.75000000  0.48892336  1
  Gd  Gd6  1  0.54822285  0.25000000  0.51107664  1
  Gd  Gd7  1  0.95177715  0.75000000  0.01107664  1
  O  O8  1  0.07989755  0.75000000  0.64577621  1
  O  O9  1  0.18017523  0.57503613  0.17660834  1
  O  O10  1  0.18017523  0.92496387  0.17660834  1
  O  O11  1  0.31982477  0.42496387  0.67660834  1
  O  O12  1  0.31982477  0.07503613  0.67660834  1
  O  O13  1  0.42010245  0.25000000  0.14577621  1
  O  O14  1  0.57989755  0.75000000  0.85422379  1
  O  O15  1  0.68017523  0.57503613  0.32339166  1
  O  O16  1  0.68017523  0.92496387  0.32339166  1
  O  O17  1  0.81982477  0.07503613  0.82339166  1
  O  O18  1  0.81982477  0.42496387  0.82339166  1
  O  O19  1  0.92010245  0.25000000  0.35422379  1
