# generated using pymatgen
data_BaB2S3O13
_symmetry_space_group_name_H-M   'P 1'
_cell_length_a   4.49816226
_cell_length_b   12.65766459
_cell_length_c   17.55378499
_cell_angle_alpha   90.00000000
_cell_angle_beta   90.00000000
_cell_angle_gamma   90.00000000
_symmetry_Int_Tables_number   1
_chemical_formula_structural   BaB2S3O13
_chemical_formula_sum   'Ba4 B8 S12 O52'
_cell_volume   999.44632479
_cell_formula_units_Z   4
loop_
 _symmetry_equiv_pos_site_id
 _symmetry_equiv_pos_as_xyz
  1  'x, y, z'
loop_
 _atom_site_type_symbol
 _atom_site_label
 _atom_site_symmetry_multiplicity
 _atom_site_fract_x
 _atom_site_fract_y
 _atom_site_fract_z
 _atom_site_occupancy
  Ba  Ba0  1  0.52755829  0.25000000  0.71850379  1
  Ba  Ba1  1  0.97244171  0.25000000  0.21850379  1
  Ba  Ba2  1  0.47244171  0.75000000  0.28149621  1
  Ba  Ba3  1  0.02755829  0.75000000  0.78149621  1
  B  B4  1  0.93732923  0.34943131  0.42057266  1
  B  B5  1  0.56267077  0.15056869  0.92057266  1
  B  B6  1  0.06267077  0.84943131  0.57942734  1
  B  B7  1  0.43732923  0.65056869  0.07942734  1
  B  B8  1  0.06267077  0.65056869  0.57942734  1
  B  B9  1  0.43732923  0.84943131  0.07942734  1
  B  B10  1  0.93732923  0.15056869  0.42057266  1
  B  B11  1  0.56267077  0.34943131  0.92057266  1
  S  S12  1  0.05705583  0.43633373  0.85273753  1
  S  S13  1  0.44294417  0.06366627  0.35273753  1
  S  S14  1  0.94294417  0.93633373  0.14726247  1
  S  S15  1  0.55705583  0.56366627  0.64726247  1
  S  S16  1  0.94294417  0.56366627  0.14726247  1
  S  S17  1  0.55705583  0.93633373  0.64726247  1
  S  S18  1  0.05705583  0.06366627  0.85273753  1
  S  S19  1  0.44294417  0.43633373  0.35273753  1
  S  S20  1  0.13328366  0.25000000  0.54618494  1
  S  S21  1  0.36671634  0.25000000  0.04618494  1
  S  S22  1  0.86671634  0.75000000  0.45381506  1
  S  S23  1  0.63328366  0.75000000  0.95381506  1
  O  O24  1  0.53618444  0.25000000  0.88368411  1
  O  O25  1  0.96381556  0.25000000  0.38368411  1
  O  O26  1  0.46381556  0.75000000  0.11631589  1
  O  O27  1  0.03618444  0.75000000  0.61631589  1
  O  O28  1  0.01402715  0.34710294  0.50305788  1
  O  O29  1  0.48597285  0.15289706  0.00305788  1
  O  O30  1  0.98597285  0.84710294  0.49694212  1
  O  O31  1  0.51402715  0.65289706  0.99694212  1
  O  O32  1  0.98597285  0.65289706  0.49694212  1
  O  O33  1  0.51402715  0.84710294  0.99694212  1
  O  O34  1  0.01402715  0.15289706  0.50305788  1
  O  O35  1  0.48597285  0.34710294  0.00305788  1
  O  O36  1  0.02553121  0.36523726  0.78756078  1
  O  O37  1  0.47446879  0.13476274  0.28756078  1
  O  O38  1  0.97446879  0.86523726  0.21243922  1
  O  O39  1  0.52553121  0.63476274  0.71243922  1
  O  O40  1  0.97446879  0.63476274  0.21243922  1
  O  O41  1  0.52553121  0.86523726  0.71243922  1
  O  O42  1  0.02553121  0.13476274  0.78756078  1
  O  O43  1  0.47446879  0.36523726  0.28756078  1
  O  O44  1  0.00537745  0.25000000  0.62257414  1
  O  O45  1  0.49462255  0.25000000  0.12257414  1
  O  O46  1  0.99462255  0.75000000  0.37742586  1
  O  O47  1  0.50537745  0.75000000  0.87742586  1
  O  O48  1  0.45296403  0.25000000  0.54810239  1
  O  O49  1  0.04703597  0.25000000  0.04810239  1
  O  O50  1  0.54703597  0.75000000  0.45189761  1
  O  O51  1  0.95296403  0.75000000  0.95189761  1
  O  O52  1  0.98947539  0.54559318  0.83753971  1
  O  O53  1  0.51052461  0.95440682  0.33753971  1
  O  O54  1  0.01052461  0.04559318  0.16246029  1
  O  O55  1  0.48947539  0.45440682  0.66246029  1
  O  O56  1  0.01052461  0.45440682  0.16246029  1
  O  O57  1  0.48947539  0.04559318  0.66246029  1
  O  O58  1  0.98947539  0.95440682  0.83753971  1
  O  O59  1  0.51052461  0.54559318  0.33753971  1
  O  O60  1  0.37944746  0.43349029  0.88188897  1
  O  O61  1  0.12055254  0.06650971  0.38188897  1
  O  O62  1  0.62055254  0.93349029  0.11811103  1
  O  O63  1  0.87944746  0.56650971  0.61811103  1
  O  O64  1  0.62055254  0.56650971  0.11811103  1
  O  O65  1  0.87944746  0.93349029  0.61811103  1
  O  O66  1  0.37944746  0.06650971  0.88188897  1
  O  O67  1  0.12055254  0.43349029  0.38188897  1
  O  O68  1  0.87565984  0.39489202  0.92059728  1
  O  O69  1  0.62434016  0.10510798  0.42059728  1
  O  O70  1  0.12434016  0.89489202  0.07940272  1
  O  O71  1  0.37565984  0.60510798  0.57940272  1
  O  O72  1  0.12434016  0.60510798  0.07940272  1
  O  O73  1  0.37565984  0.89489202  0.57940272  1
  O  O74  1  0.87565984  0.10510798  0.92059728  1
  O  O75  1  0.62434016  0.39489202  0.42059728  1
