# generated using pymatgen
data_BaNaB5O9
_symmetry_space_group_name_H-M   'P 1'
_cell_length_a   6.66767373
_cell_length_b   14.15302701
_cell_length_c   8.51597309
_cell_angle_alpha   90.00000000
_cell_angle_beta   105.17352977
_cell_angle_gamma   90.00000000
_symmetry_Int_Tables_number   1
_chemical_formula_structural   BaNaB5O9
_chemical_formula_sum   'Ba4 Na4 B20 O36'
_cell_volume   775.61670788
_cell_formula_units_Z   4
loop_
 _symmetry_equiv_pos_site_id
 _symmetry_equiv_pos_as_xyz
  1  'x, y, z'
loop_
 _atom_site_type_symbol
 _atom_site_label
 _atom_site_symmetry_multiplicity
 _atom_site_fract_x
 _atom_site_fract_y
 _atom_site_fract_z
 _atom_site_occupancy
  Ba  Ba0  1  0.58711461  0.78228736  0.56228019  1
  Ba  Ba1  1  0.41288539  0.28228736  0.93771981  1
  Ba  Ba2  1  0.41288539  0.21771264  0.43771981  1
  Ba  Ba3  1  0.58711461  0.71771264  0.06228019  1
  Na  Na4  1  0.04441998  0.91911821  0.85964228  1
  Na  Na5  1  0.95558002  0.41911821  0.64035772  1
  Na  Na6  1  0.95558002  0.08088179  0.14035772  1
  Na  Na7  1  0.04441998  0.58088179  0.35964228  1
  B  B8  1  0.07554426  0.74735797  0.61524983  1
  B  B9  1  0.92445574  0.24735797  0.88475017  1
  B  B10  1  0.92445574  0.25264203  0.38475017  1
  B  B11  1  0.07554426  0.75264203  0.11524983  1
  B  B12  1  0.30756254  0.05628948  0.74664460  1
  B  B13  1  0.69243746  0.55628948  0.75335540  1
  B  B14  1  0.69243746  0.94371052  0.25335540  1
  B  B15  1  0.30756254  0.44371052  0.24664460  1
  B  B16  1  0.96170409  0.15101230  0.64491965  1
  B  B17  1  0.03829591  0.65101230  0.85508035  1
  B  B18  1  0.03829591  0.84898770  0.35508035  1
  B  B19  1  0.96170409  0.34898770  0.14491965  1
  B  B20  1  0.31886328  0.88817240  0.22030111  1
  B  B21  1  0.68113672  0.38817240  0.27969889  1
  B  B22  1  0.68113672  0.11182760  0.77969889  1
  B  B23  1  0.31886328  0.61182760  0.72030111  1
  B  B24  1  0.59780290  0.94526167  0.84855193  1
  B  B25  1  0.40219710  0.44526167  0.65144807  1
  B  B26  1  0.40219710  0.05473833  0.15144807  1
  B  B27  1  0.59780290  0.55473833  0.34855193  1
  O  O28  1  0.66232626  0.64409884  0.37365397  1
  O  O29  1  0.33767374  0.14409884  0.12634603  1
  O  O30  1  0.33767374  0.35590116  0.62634603  1
  O  O31  1  0.66232626  0.85590116  0.87365397  1
  O  O32  1  0.00171088  0.82207227  0.51352805  1
  O  O33  1  0.99828912  0.32207227  0.98647195  1
  O  O34  1  0.99828912  0.17792773  0.48647195  1
  O  O35  1  0.00171088  0.67792773  0.01352805  1
  O  O36  1  0.98366564  0.73505839  0.74160170  1
  O  O37  1  0.01633436  0.23505839  0.75839830  1
  O  O38  1  0.01633436  0.26494161  0.25839830  1
  O  O39  1  0.98366564  0.76494161  0.24160170  1
  O  O40  1  0.25285637  0.87518310  0.36773081  1
  O  O41  1  0.74714363  0.37518310  0.13226919  1
  O  O42  1  0.74714363  0.12481690  0.63226919  1
  O  O43  1  0.25285637  0.62481690  0.86773081  1
  O  O44  1  0.38135852  0.96638112  0.80022196  1
  O  O45  1  0.61864148  0.46638112  0.69977804  1
  O  O46  1  0.61864148  0.03361888  0.19977804  1
  O  O47  1  0.38135852  0.53361888  0.30022196  1
  O  O48  1  0.73783935  0.01971399  0.85847865  1
  O  O49  1  0.26216065  0.51971399  0.64152135  1
  O  O50  1  0.26216065  0.98028601  0.14152135  1
  O  O51  1  0.73783935  0.48028601  0.35847865  1
  O  O52  1  0.23065932  0.81263439  0.09491426  1
  O  O53  1  0.76934068  0.31263439  0.40508574  1
  O  O54  1  0.76934068  0.18736561  0.90508574  1
  O  O55  1  0.23065932  0.68736561  0.59491426  1
  O  O56  1  0.09976448  0.06963792  0.71162548  1
  O  O57  1  0.90023552  0.56963792  0.78837452  1
  O  O58  1  0.90023552  0.93036208  0.28837452  1
  O  O59  1  0.09976448  0.43036208  0.21162548  1
  O  O60  1  0.44807035  0.12648016  0.73542108  1
  O  O61  1  0.55192965  0.62648016  0.76457892  1
  O  O62  1  0.55192965  0.87351984  0.26457892  1
  O  O63  1  0.44807035  0.37351984  0.23542108  1
