# generated using pymatgen
data_Ca4Al6SO16
_symmetry_space_group_name_H-M   'P 1'
_cell_length_a   13.09727507
_cell_length_b   13.26663000
_cell_length_c   9.25465575
_cell_angle_alpha   90.00000000
_cell_angle_beta   90.00000000
_cell_angle_gamma   90.00000000
_symmetry_Int_Tables_number   1
_chemical_formula_structural   Ca4Al6SO16
_chemical_formula_sum   'Ca16 Al24 S4 O64'
_cell_volume   1608.05846461
_cell_formula_units_Z   4
loop_
 _symmetry_equiv_pos_site_id
 _symmetry_equiv_pos_as_xyz
  1  'x, y, z'
loop_
 _atom_site_type_symbol
 _atom_site_label
 _atom_site_symmetry_multiplicity
 _atom_site_fract_x
 _atom_site_fract_y
 _atom_site_fract_z
 _atom_site_occupancy
  Ca  Ca0  1  0.94318105  0.24922875  0.65195441  1
  Ca  Ca1  1  0.05681895  0.75077125  0.65195441  1
  Ca  Ca2  1  0.94318105  0.75077125  0.15195441  1
  Ca  Ca3  1  0.05681895  0.24922875  0.15195441  1
  Ca  Ca4  1  0.74661880  0.93557922  0.79249755  1
  Ca  Ca5  1  0.25338120  0.06442078  0.79249755  1
  Ca  Ca6  1  0.74661880  0.06442078  0.29249755  1
  Ca  Ca7  1  0.25338120  0.93557922  0.29249755  1
  Ca  Ca8  1  0.74170405  0.52432006  0.73976962  1
  Ca  Ca9  1  0.25829595  0.47567994  0.73976962  1
  Ca  Ca10  1  0.74170405  0.47567994  0.23976962  1
  Ca  Ca11  1  0.25829595  0.52432006  0.23976962  1
  Ca  Ca12  1  0.50912020  0.25403983  0.71898893  1
  Ca  Ca13  1  0.49087980  0.74596017  0.71898893  1
  Ca  Ca14  1  0.50912020  0.74596017  0.21898893  1
  Ca  Ca15  1  0.49087980  0.25403983  0.21898893  1
  Al  Al16  1  0.50000000  0.50000000  0.72894871  1
  Al  Al17  1  0.50000000  0.50000000  0.22894871  1
  Al  Al18  1  0.50000000  0.00000000  0.74511142  1
  Al  Al19  1  0.50000000  0.00000000  0.24511142  1
  Al  Al20  1  0.00000000  0.00000000  0.72429227  1
  Al  Al21  1  0.00000000  0.00000000  0.22429227  1
  Al  Al22  1  0.00000000  0.50000000  0.69931681  1
  Al  Al23  1  0.00000000  0.50000000  0.19931681  1
  Al  Al24  1  0.37316263  0.12095664  0.49154483  1
  Al  Al25  1  0.62683737  0.87904336  0.49154483  1
  Al  Al26  1  0.37316263  0.87904336  0.99154483  1
  Al  Al27  1  0.62683737  0.12095664  0.99154483  1
  Al  Al28  1  0.88028057  0.63014439  0.45221270  1
  Al  Al29  1  0.11971943  0.36985561  0.45221270  1
  Al  Al30  1  0.88028057  0.36985561  0.95221270  1
  Al  Al31  1  0.11971943  0.63014439  0.95221270  1
  Al  Al32  1  0.62961386  0.63125386  0.47722256  1
  Al  Al33  1  0.37038614  0.36874614  0.47722256  1
  Al  Al34  1  0.62961386  0.36874614  0.97722256  1
  Al  Al35  1  0.37038614  0.63125386  0.97722256  1
  Al  Al36  1  0.87761630  0.87828903  0.47223150  1
  Al  Al37  1  0.12238370  0.12171097  0.47223150  1
  Al  Al38  1  0.87761630  0.12171097  0.97223150  1
  Al  Al39  1  0.12238370  0.87828903  0.97223150  1
  S  S40  1  0.72311356  0.26561431  0.47008704  1
  S  S41  1  0.27688644  0.73438569  0.47008704  1
  S  S42  1  0.72311356  0.73438569  0.97008704  1
  S  S43  1  0.27688644  0.26561431  0.97008704  1
  O  O44  1  0.33025030  0.26514358  0.11042378  1
  O  O45  1  0.66974970  0.73485642  0.11042378  1
  O  O46  1  0.33025030  0.73485642  0.61042378  1
  O  O47  1  0.66974970  0.26514358  0.61042378  1
  O  O48  1  0.18521316  0.19677221  0.97819748  1
  O  O49  1  0.81478684  0.80322779  0.97819748  1
  O  O50  1  0.18521316  0.80322779  0.47819748  1
  O  O51  1  0.81478684  0.19677221  0.47819748  1
  O  O52  1  0.24194972  0.36972952  0.93697485  1
  O  O53  1  0.75805028  0.63027048  0.93697485  1
  O  O54  1  0.24194972  0.63027048  0.43697485  1
  O  O55  1  0.75805028  0.36972952  0.43697485  1
  O  O56  1  0.34305661  0.22536232  0.85165385  1
  O  O57  1  0.65694339  0.77463768  0.85165385  1
  O  O58  1  0.34305661  0.77463768  0.35165385  1
  O  O59  1  0.65694339  0.22536232  0.35165385  1
  O  O60  1  0.59023314  0.24473626  0.94352797  1
  O  O61  1  0.40976686  0.75526374  0.94352797  1
  O  O62  1  0.59023314  0.75526374  0.44352797  1
  O  O63  1  0.40976686  0.24473626  0.44352797  1
  O  O64  1  0.43151134  0.40552343  0.63863010  1
  O  O65  1  0.56848866  0.59447657  0.63863010  1
  O  O66  1  0.43151134  0.59447657  0.13863010  1
  O  O67  1  0.56848866  0.40552343  0.13863010  1
  O  O68  1  0.45055639  0.10060449  0.64456963  1
  O  O69  1  0.54944361  0.89939551  0.64456963  1
  O  O70  1  0.45055639  0.89939551  0.14456963  1
  O  O71  1  0.54944361  0.10060449  0.14456963  1
  O  O72  1  0.24291794  0.60458944  0.01727708  1
  O  O73  1  0.75708206  0.39541056  0.01727708  1
  O  O74  1  0.24291794  0.39541056  0.51727708  1
  O  O75  1  0.75708206  0.60458944  0.51727708  1
  O  O76  1  0.40293130  0.43672378  0.32180890  1
  O  O77  1  0.59706870  0.56327622  0.32180890  1
  O  O78  1  0.40293130  0.56327622  0.82180890  1
  O  O79  1  0.59706870  0.43672378  0.82180890  1
  O  O80  1  0.10463331  0.44666629  0.29584662  1
  O  O81  1  0.89536669  0.55333371  0.29584662  1
  O  O82  1  0.10463331  0.55333371  0.79584662  1
  O  O83  1  0.89536669  0.44666629  0.79584662  1
  O  O84  1  0.24531181  0.89639117  0.04889406  1
  O  O85  1  0.75468819  0.10360883  0.04889406  1
  O  O86  1  0.24531181  0.10360883  0.54889406  1
  O  O87  1  0.75468819  0.89639117  0.54889406  1
  O  O88  1  0.10901345  0.03461763  0.32797007  1
  O  O89  1  0.89098655  0.96538237  0.32797007  1
  O  O90  1  0.10901345  0.96538237  0.82797007  1
  O  O91  1  0.89098655  0.03461763  0.82797007  1
  O  O92  1  0.39187521  0.03933520  0.34495906  1
  O  O93  1  0.60812479  0.96066480  0.34495906  1
  O  O94  1  0.39187521  0.96066480  0.84495906  1
  O  O95  1  0.60812479  0.03933520  0.84495906  1
  O  O96  1  0.90355960  0.24347687  0.89718082  1
  O  O97  1  0.09644040  0.75652313  0.89718082  1
  O  O98  1  0.90355960  0.75652313  0.39718082  1
  O  O99  1  0.09644040  0.24347687  0.39718082  1
  O  O100  1  0.03659572  0.10719039  0.62016123  1
  O  O101  1  0.96340428  0.89280961  0.62016123  1
  O  O102  1  0.03659572  0.89280961  0.12016123  1
  O  O103  1  0.96340428  0.10719039  0.12016123  1
  O  O104  1  0.03757143  0.39289661  0.59863075  1
  O  O105  1  0.96242857  0.60710339  0.59863075  1
  O  O106  1  0.03757143  0.60710339  0.09863075  1
  O  O107  1  0.96242857  0.39289661  0.09863075  1
