# generated using pymatgen
data_Cs2Na2Sr(B3O5)6
_symmetry_space_group_name_H-M   'P 1'
_cell_length_a   8.59957347
_cell_length_b   8.65495633
_cell_length_c   17.46180205
_cell_angle_alpha   90.00000000
_cell_angle_beta   92.80568070
_cell_angle_gamma   90.00000000
_symmetry_Int_Tables_number   1
_chemical_formula_structural   Cs2Na2Sr(B3O5)6
_chemical_formula_sum   'Cs4 Na4 Sr2 B36 O60'
_cell_volume   1298.10537195
_cell_formula_units_Z   2
loop_
 _symmetry_equiv_pos_site_id
 _symmetry_equiv_pos_as_xyz
  1  'x, y, z'
loop_
 _atom_site_type_symbol
 _atom_site_label
 _atom_site_symmetry_multiplicity
 _atom_site_fract_x
 _atom_site_fract_y
 _atom_site_fract_z
 _atom_site_occupancy
  Cs  Cs0  1  0.49859777  0.53938682  0.80462864  1
  Cs  Cs1  1  0.50140223  0.03938682  0.69537136  1
  Cs  Cs2  1  0.50140223  0.46061318  0.19537136  1
  Cs  Cs3  1  0.49859777  0.96061318  0.30462864  1
  Na  Na4  1  0.77426274  0.73893777  0.61851338  1
  Na  Na5  1  0.22573726  0.23893777  0.88148662  1
  Na  Na6  1  0.22573726  0.26106223  0.38148662  1
  Na  Na7  1  0.77426274  0.76106223  0.11851338  1
  Sr  Sr8  1  -0.00000000  -0.00000000  -0.00000000  1
  Sr  Sr9  1  -0.00000000  0.50000000  0.50000000  1
  B  B10  1  0.82848745  0.34902922  0.91773565  1
  B  B11  1  0.17151255  0.84902922  0.58226435  1
  B  B12  1  0.17151255  0.65097078  0.08226435  1
  B  B13  1  0.82848745  0.15097078  0.41773565  1
  B  B14  1  0.82233218  0.37898811  0.05787012  1
  B  B15  1  0.17766782  0.87898811  0.44212988  1
  B  B16  1  0.17766782  0.62101189  0.94212988  1
  B  B17  1  0.82233218  0.12101189  0.55787012  1
  B  B18  1  0.77730250  0.60336901  0.97450773  1
  B  B19  1  0.22269750  0.10336901  0.52549227  1
  B  B20  1  0.22269750  0.39663099  0.02549227  1
  B  B21  1  0.77730250  0.89663099  0.47450773  1
  B  B22  1  0.66973149  0.85794774  0.91458842  1
  B  B23  1  0.33026851  0.35794774  0.58541158  1
  B  B24  1  0.33026851  0.14205226  0.08541158  1
  B  B25  1  0.66973149  0.64205226  0.41458842  1
  B  B26  1  0.62440534  0.13918469  0.90757932  1
  B  B27  1  0.37559466  0.63918469  0.59242068  1
  B  B28  1  0.37559466  0.86081531  0.09242068  1
  B  B29  1  0.62440534  0.36081531  0.40757932  1
  B  B30  1  0.40383739  0.96021916  0.89525788  1
  B  B31  1  0.59616261  0.46021916  0.60474212  1
  B  B32  1  0.59616261  0.03978084  0.10474212  1
  B  B33  1  0.40383739  0.53978084  0.39525788  1
  B  B34  1  0.04629804  0.80975431  0.71104751  1
  B  B35  1  0.95370196  0.30975431  0.78895249  1
  B  B36  1  0.95370196  0.19024569  0.28895249  1
  B  B37  1  0.04629804  0.69024569  0.21104751  1
  B  B38  1  0.14897861  0.83420252  0.84425889  1
  B  B39  1  0.85102139  0.33420252  0.65574111  1
  B  B40  1  0.85102139  0.16579748  0.15574111  1
  B  B41  1  0.14897861  0.66579748  0.34425889  1
  B  B42  1  0.86562006  0.82704576  0.81460394  1
  B  B43  1  0.13437994  0.32704576  0.68539606  1
  B  B44  1  0.13437994  0.17295424  0.18539606  1
  B  B45  1  0.86562006  0.67295424  0.31460394  1
  O  O46  1  0.67172611  0.28603777  0.89807033  1
  O  O47  1  0.32827389  0.78603777  0.60192967  1
  O  O48  1  0.32827389  0.71396223  0.10192967  1
  O  O49  1  0.67172611  0.21396223  0.39807033  1
  O  O50  1  0.94771428  0.29283055  0.86680117  1
  O  O51  1  0.05228572  0.79283055  0.63319883  1
  O  O52  1  0.05228572  0.70716945  0.13319883  1
  O  O53  1  0.94771428  0.20716945  0.36680117  1
  O  O54  1  0.87843581  0.29823543  0.99700455  1
  O  O55  1  0.12156419  0.79823543  0.50299545  1
  O  O56  1  0.12156419  0.70176457  0.00299545  1
  O  O57  1  0.87843581  0.20176457  0.49700455  1
  O  O58  1  0.81276222  0.51932775  0.91212378  1
  O  O59  1  0.18723778  0.01932775  0.58787622  1
  O  O60  1  0.18723778  0.48067225  0.08787622  1
  O  O61  1  0.81276222  0.98067225  0.41212378  1
  O  O62  1  0.81001242  0.32223148  0.12961924  1
  O  O63  1  0.18998758  0.82223148  0.37038076  1
  O  O64  1  0.18998758  0.67776852  0.87038076  1
  O  O65  1  0.81001242  0.17776852  0.62961924  1
  O  O66  1  0.76942460  0.53199821  0.04661151  1
  O  O67  1  0.23057540  0.03199821  0.45338849  1
  O  O68  1  0.23057540  0.46800179  0.95338849  1
  O  O69  1  0.76942460  0.96800179  0.54661151  1
  O  O70  1  0.74651518  0.75981404  0.97445382  1
  O  O71  1  0.25348482  0.25981404  0.52554618  1
  O  O72  1  0.25348482  0.24018596  0.02554618  1
  O  O73  1  0.74651518  0.74018596  0.47445382  1
  O  O74  1  0.71698664  0.01933624  0.93426168  1
  O  O75  1  0.28301336  0.51933624  0.56573832  1
  O  O76  1  0.28301336  0.98066376  0.06573832  1
  O  O77  1  0.71698664  0.48066376  0.43426168  1
  O  O78  1  0.49817740  0.83848495  0.91384268  1
  O  O79  1  0.50182260  0.33848495  0.58615732  1
  O  O80  1  0.50182260  0.16151505  0.08615732  1
  O  O81  1  0.49817740  0.66151505  0.41384268  1
  O  O82  1  0.71506774  0.82245970  0.83547243  1
  O  O83  1  0.28493226  0.32245970  0.66452757  1
  O  O84  1  0.28493226  0.17754030  0.16452757  1
  O  O85  1  0.71506774  0.67754030  0.33547243  1
  O  O86  1  0.46785619  0.10851228  0.88494576  1
  O  O87  1  0.53214381  0.60851228  0.61505424  1
  O  O88  1  0.53214381  0.89148772  0.11505424  1
  O  O89  1  0.46785619  0.39148772  0.38494576  1
  O  O90  1  0.24506363  0.95629389  0.88306532  1
  O  O91  1  0.75493637  0.45629389  0.61693468  1
  O  O92  1  0.75493637  0.04370611  0.11693468  1
  O  O93  1  0.24506363  0.54370611  0.38306532  1
  O  O94  1  0.89465767  0.79043632  0.73844237  1
  O  O95  1  0.10534233  0.29043632  0.76155763  1
  O  O96  1  0.10534233  0.20956368  0.26155763  1
  O  O97  1  0.89465767  0.70956368  0.23844237  1
  O  O98  1  0.16915244  0.84051663  0.76067798  1
  O  O99  1  0.83084756  0.34051663  0.73932202  1
  O  O100  1  0.83084756  0.15948337  0.23932202  1
  O  O101  1  0.16915244  0.65948337  0.26067798  1
  O  O102  1  0.98666524  0.87168081  0.86371871  1
  O  O103  1  0.01333476  0.37168081  0.63628129  1
  O  O104  1  0.01333476  0.12831919  0.13628129  1
  O  O105  1  0.98666524  0.62831919  0.36371871  1
