# generated using pymatgen
data_CaMg3SiN4
_symmetry_space_group_name_H-M   'P 1'
_cell_length_a   10.56176355
_cell_length_b   10.56176355
_cell_length_c   10.56176355
_cell_angle_alpha   100.59770842
_cell_angle_beta   114.08201986
_cell_angle_gamma   114.08201986
_symmetry_Int_Tables_number   1
_chemical_formula_structural   CaMg3SiN4
_chemical_formula_sum   'Ca8 Mg24 Si8 N32'
_cell_volume   891.00931969
_cell_formula_units_Z   8
loop_
 _symmetry_equiv_pos_site_id
 _symmetry_equiv_pos_as_xyz
  1  'x, y, z'
loop_
 _atom_site_type_symbol
 _atom_site_label
 _atom_site_symmetry_multiplicity
 _atom_site_fract_x
 _atom_site_fract_y
 _atom_site_fract_z
 _atom_site_occupancy
  Ca  Ca0  1  0.21355358  0.57785781  0.32007174  1
  Ca  Ca1  1  0.28644642  0.10651816  0.86430423  1
  Ca  Ca2  1  0.24221393  0.32007174  0.10651816  1
  Ca  Ca3  1  0.25778607  0.86430423  0.57785781  1
  Ca  Ca4  1  0.78644642  0.42214219  0.67992826  1
  Ca  Ca5  1  0.71355358  0.89348184  0.13569577  1
  Ca  Ca6  1  0.75778607  0.67992826  0.89348184  1
  Ca  Ca7  1  0.74221393  0.13569577  0.42214219  1
  Mg  Mg8  1  0.11009911  0.17459552  0.29215992  1
  Mg  Mg9  1  0.38990089  0.18206081  0.56449641  1
  Mg  Mg10  1  0.61756440  0.29215992  0.18206081  1
  Mg  Mg11  1  0.88243560  0.56449641  0.17459552  1
  Mg  Mg12  1  0.88990089  0.82540448  0.70784008  1
  Mg  Mg13  1  0.61009911  0.81793919  0.43550359  1
  Mg  Mg14  1  0.38243560  0.70784008  0.81793919  1
  Mg  Mg15  1  0.11756440  0.43550359  0.82540448  1
  Mg  Mg16  1  0.42798732  0.47131028  0.57731341  1
  Mg  Mg17  1  0.07201268  0.14932610  0.54332296  1
  Mg  Mg18  1  0.60600313  0.57731341  0.14932610  1
  Mg  Mg19  1  0.89399687  0.54332296  0.47131028  1
  Mg  Mg20  1  0.57201268  0.52868972  0.42268659  1
  Mg  Mg21  1  0.92798732  0.85067390  0.45667704  1
  Mg  Mg22  1  0.39399687  0.42268659  0.85067390  1
  Mg  Mg23  1  0.10600313  0.45667704  0.52868972  1
  Mg  Mg24  1  0.06507970  0.65569939  0.03220922  1
  Mg  Mg25  1  0.43492030  0.96712953  0.09061969  1
  Mg  Mg26  1  0.87650983  0.03220922  0.96712953  1
  Mg  Mg27  1  0.62349017  0.09061969  0.65569939  1
  Mg  Mg28  1  0.93492030  0.34430061  0.96779078  1
  Mg  Mg29  1  0.56507970  0.03287047  0.90938031  1
  Mg  Mg30  1  0.12349017  0.96779078  0.03287047  1
  Mg  Mg31  1  0.37650983  0.90938031  0.34430061  1
  Si  Si32  1  0.39080098  0.65687266  0.12593364  1
  Si  Si33  1  0.10919902  0.73513266  0.76607168  1
  Si  Si34  1  0.96906098  0.12593364  0.73513266  1
  Si  Si35  1  0.53093902  0.76607168  0.65687266  1
  Si  Si36  1  0.60919902  0.34312734  0.87406636  1
  Si  Si37  1  0.89080098  0.26486734  0.23392832  1
  Si  Si38  1  0.03093902  0.87406636  0.26486734  1
  Si  Si39  1  0.46906098  0.23392832  0.34312734  1
  N  N40  1  0.35868244  0.31450153  0.37201732  1
  N  N41  1  0.14131756  0.01333488  0.45581910  1
  N  N42  1  0.55751579  0.37201732  0.01333488  1
  N  N43  1  0.94248421  0.45581910  0.31450153  1
  N  N44  1  0.64131756  0.68549847  0.62798268  1
  N  N45  1  0.85868244  0.98666512  0.54418090  1
  N  N46  1  0.44248421  0.62798268  0.98666512  1
  N  N47  1  0.05751579  0.54418090  0.68549847  1
  N  N48  1  0.17975406  0.53389435  0.05178066  1
  N  N49  1  0.32024594  0.87202659  0.85414029  1
  N  N50  1  0.01788630  0.05178066  0.87202659  1
  N  N51  1  0.48211370  0.85414029  0.53389435  1
  N  N52  1  0.82024594  0.46610565  0.94821934  1
  N  N53  1  0.67975406  0.12797341  0.14585971  1
  N  N54  1  0.98211370  0.94821934  0.12797341  1
  N  N55  1  0.51788630  0.14585971  0.46610565  1
  N  N56  1  0.48888042  0.59695070  0.26048471  1
  N  N57  1  0.01111958  0.77160429  0.60807028  1
  N  N58  1  0.16353401  0.26048471  0.77160429  1
  N  N59  1  0.33646599  0.60807028  0.59695070  1
  N  N60  1  0.51111958  0.40304930  0.73951529  1
  N  N61  1  0.98888042  0.22839571  0.39192972  1
  N  N62  1  0.83646599  0.73951529  0.22839571  1
  N  N63  1  0.66353401  0.39192972  0.40304930  1
  N  N64  1  0.98290260  0.25376736  0.12760499  1
  N  N65  1  0.51709740  0.14470239  0.77086476  1
  N  N66  1  0.37383763  0.12760499  0.14470239  1
  N  N67  1  0.12616237  0.77086476  0.25376736  1
  N  N68  1  0.01709740  0.74623264  0.87239501  1
  N  N69  1  0.48290260  0.85529761  0.22913524  1
  N  N70  1  0.62616237  0.87239501  0.85529761  1
  N  N71  1  0.87383763  0.22913524  0.74623264  1
