# generated using pymatgen
data_CaS3O10
_symmetry_space_group_name_H-M   'P 1'
_cell_length_a   8.61753030
_cell_length_b   9.20999394
_cell_length_c   10.25661775
_cell_angle_alpha   90.00000000
_cell_angle_beta   91.48056446
_cell_angle_gamma   90.00000000
_symmetry_Int_Tables_number   1
_chemical_formula_structural   CaS3O10
_chemical_formula_sum   'Ca4 S12 O40'
_cell_volume   813.76933181
_cell_formula_units_Z   4
loop_
 _symmetry_equiv_pos_site_id
 _symmetry_equiv_pos_as_xyz
  1  'x, y, z'
loop_
 _atom_site_type_symbol
 _atom_site_label
 _atom_site_symmetry_multiplicity
 _atom_site_fract_x
 _atom_site_fract_y
 _atom_site_fract_z
 _atom_site_occupancy
  Ca  Ca0  1  0.29753431  0.22551778  0.52344780  1
  Ca  Ca1  1  0.79753431  0.27448222  0.02344780  1
  Ca  Ca2  1  0.70246569  0.77448222  0.47655220  1
  Ca  Ca3  1  0.20246569  0.72551778  0.97655220  1
  S  S4  1  0.15007507  0.83325995  0.50084337  1
  S  S5  1  0.65007507  0.66674005  0.00084337  1
  S  S6  1  0.84992493  0.16674005  0.49915663  1
  S  S7  1  0.34992493  0.33325995  0.99915663  1
  S  S8  1  0.34334142  0.92337538  0.28754367  1
  S  S9  1  0.84334142  0.57662462  0.78754367  1
  S  S10  1  0.65665858  0.07662462  0.71245633  1
  S  S11  1  0.15665858  0.42337538  0.21245633  1
  S  S12  1  0.34383732  0.61364741  0.63884083  1
  S  S13  1  0.84383732  0.88635259  0.13884083  1
  S  S14  1  0.65616268  0.38635259  0.36115917  1
  S  S15  1  0.15616268  0.11364741  0.86115917  1
  O  O16  1  0.33012675  0.07390167  0.32767757  1
  O  O17  1  0.83012675  0.42609833  0.82767757  1
  O  O18  1  0.66987325  0.92609833  0.67232243  1
  O  O19  1  0.16987325  0.57390167  0.17232243  1
  O  O20  1  0.24910911  0.93461452  0.56958858  1
  O  O21  1  0.74910911  0.56538548  0.06958858  1
  O  O22  1  0.75089089  0.06538548  0.43041142  1
  O  O23  1  0.25089089  0.43461452  0.93041142  1
  O  O24  1  0.98508950  0.83847454  0.51543483  1
  O  O25  1  0.48508950  0.66152546  0.01543483  1
  O  O26  1  0.01491050  0.16152546  0.48456517  1
  O  O27  1  0.51491050  0.33847454  0.98456517  1
  O  O28  1  0.31203264  0.89421187  0.15146917  1
  O  O29  1  0.81203264  0.60578813  0.65146917  1
  O  O30  1  0.68796736  0.10578813  0.84853083  1
  O  O31  1  0.18796736  0.39421187  0.34853083  1
  O  O32  1  0.19779384  0.67153063  0.53009051  1
  O  O33  1  0.69779384  0.82846937  0.03009051  1
  O  O34  1  0.80220616  0.32846937  0.46990949  1
  O  O35  1  0.30220616  0.17153063  0.96990949  1
  O  O36  1  0.17599942  0.84438378  0.34933270  1
  O  O37  1  0.67599942  0.65561622  0.84933270  1
  O  O38  1  0.82400058  0.15561622  0.65066730  1
  O  O39  1  0.32400058  0.34438378  0.15066730  1
  O  O40  1  0.47120906  0.84367984  0.34788898  1
  O  O41  1  0.97120906  0.65632016  0.84788898  1
  O  O42  1  0.52879094  0.15632016  0.65211102  1
  O  O43  1  0.02879094  0.34367984  0.15211102  1
  O  O44  1  0.30889663  0.46031618  0.63275006  1
  O  O45  1  0.80889663  0.03968382  0.13275006  1
  O  O46  1  0.69110337  0.53968382  0.36724994  1
  O  O47  1  0.19110337  0.96031618  0.86724994  1
  O  O48  1  0.30866223  0.68579643  0.75952558  1
  O  O49  1  0.80866223  0.81420357  0.25952558  1
  O  O50  1  0.69133777  0.31420357  0.24047442  1
  O  O51  1  0.19133777  0.18579643  0.74047442  1
  O  O52  1  0.48510675  0.65869637  0.57846570  1
  O  O53  1  0.98510675  0.84130363  0.07846570  1
  O  O54  1  0.51489325  0.34130363  0.42153430  1
  O  O55  1  0.01489325  0.15869637  0.92153430  1
