# generated using pymatgen
data_Cs2B2S3O13
_symmetry_space_group_name_H-M   'P 1'
_cell_length_a   6.84282066
_cell_length_b   12.71690859
_cell_length_c   15.42850880
_cell_angle_alpha   104.44306414
_cell_angle_beta   90.00000000
_cell_angle_gamma   90.00000000
_symmetry_Int_Tables_number   1
_chemical_formula_structural   Cs2B2S3O13
_chemical_formula_sum   'Cs8 B8 S12 O52'
_cell_volume   1300.15051813
_cell_formula_units_Z   4
loop_
 _symmetry_equiv_pos_site_id
 _symmetry_equiv_pos_as_xyz
  1  'x, y, z'
loop_
 _atom_site_type_symbol
 _atom_site_label
 _atom_site_symmetry_multiplicity
 _atom_site_fract_x
 _atom_site_fract_y
 _atom_site_fract_z
 _atom_site_occupancy
  Cs  Cs0  1  0.32773549  0.73430871  0.88159741  1
  Cs  Cs1  1  0.82773549  0.76569129  0.11840259  1
  Cs  Cs2  1  0.67226451  0.26569129  0.11840259  1
  Cs  Cs3  1  0.17226451  0.23430871  0.88159741  1
  Cs  Cs4  1  0.77505453  0.86649906  0.48813498  1
  Cs  Cs5  1  0.27505453  0.63350094  0.51186502  1
  Cs  Cs6  1  0.22494547  0.13350094  0.51186502  1
  Cs  Cs7  1  0.72494547  0.36649906  0.48813498  1
  B  B8  1  0.36312638  0.02089475  0.24909229  1
  B  B9  1  0.86312638  0.47910525  0.75090771  1
  B  B10  1  0.63687362  0.97910525  0.75090771  1
  B  B11  1  0.13687362  0.52089475  0.24909229  1
  B  B12  1  0.44797754  0.62596696  0.24410785  1
  B  B13  1  0.94797754  0.87403304  0.75589215  1
  B  B14  1  0.55202246  0.37403304  0.75589215  1
  B  B15  1  0.05202246  0.12596696  0.24410785  1
  S  S16  1  0.31136267  0.83555262  0.30690826  1
  S  S17  1  0.81136267  0.66444738  0.69309174  1
  S  S18  1  0.68863733  0.16444738  0.69309174  1
  S  S19  1  0.18863733  0.33555262  0.30690826  1
  S  S20  1  0.25654716  0.54200305  0.09027835  1
  S  S21  1  0.75654716  0.95799695  0.90972165  1
  S  S22  1  0.74345284  0.45799695  0.90972165  1
  S  S23  1  0.24345284  0.04200305  0.09027835  1
  S  S24  1  0.74182376  0.04905972  0.32066942  1
  S  S25  1  0.24182376  0.45094028  0.67933058  1
  S  S26  1  0.25817624  0.95094028  0.67933058  1
  S  S27  1  0.75817624  0.54905972  0.32066942  1
  O  O28  1  0.12086207  0.78907006  0.28345004  1
  O  O29  1  0.62086207  0.71092994  0.71654996  1
  O  O30  1  0.87913793  0.21092994  0.71654996  1
  O  O31  1  0.37913793  0.28907006  0.28345004  1
  O  O32  1  0.33765241  0.90168102  0.39766255  1
  O  O33  1  0.83765241  0.59831898  0.60233745  1
  O  O34  1  0.66234759  0.09831898  0.60233745  1
  O  O35  1  0.16234759  0.40168102  0.39766255  1
  O  O36  1  0.17788754  0.59588747  0.02621745  1
  O  O37  1  0.67788754  0.90411253  0.97378255  1
  O  O38  1  0.82211246  0.40411253  0.97378255  1
  O  O39  1  0.32211246  0.09588747  0.02621745  1
  O  O40  1  0.34296681  0.43599376  0.05708602  1
  O  O41  1  0.84296681  0.06400624  0.94291398  1
  O  O42  1  0.65703319  0.56400624  0.94291398  1
  O  O43  1  0.15703319  0.93599376  0.05708602  1
  O  O44  1  0.80437205  0.11563976  0.40693236  1
  O  O45  1  0.30437205  0.38436024  0.59306764  1
  O  O46  1  0.19562795  0.88436024  0.59306764  1
  O  O47  1  0.69562795  0.61563976  0.40693236  1
  O  O48  1  0.76952184  0.93336887  0.30664207  1
  O  O49  1  0.26952184  0.56663113  0.69335793  1
  O  O50  1  0.23047816  0.06663113  0.69335793  1
  O  O51  1  0.73047816  0.43336887  0.30664207  1
  O  O52  1  0.18357136  0.06726860  0.28372109  1
  O  O53  1  0.68357136  0.43273140  0.71627891  1
  O  O54  1  0.81642864  0.93273140  0.71627891  1
  O  O55  1  0.31642864  0.56726860  0.28372109  1
  O  O56  1  0.37520244  0.89967332  0.23808731  1
  O  O57  1  0.87520244  0.60032668  0.76191269  1
  O  O58  1  0.62479756  0.10032668  0.76191269  1
  O  O59  1  0.12479756  0.39967332  0.23808731  1
  O  O60  1  0.52466207  0.07699553  0.31121120  1
  O  O61  1  0.02466207  0.42300447  0.68878880  1
  O  O62  1  0.47533793  0.92300447  0.68878880  1
  O  O63  1  0.97533793  0.57699553  0.31121120  1
  O  O64  1  0.84079898  0.08734895  0.24337496  1
  O  O65  1  0.34079898  0.41265105  0.75662504  1
  O  O66  1  0.15920102  0.91265105  0.75662504  1
  O  O67  1  0.65920102  0.58734895  0.24337496  1
  O  O68  1  0.46973633  0.74537610  0.29219826  1
  O  O69  1  0.96973633  0.75462390  0.70780174  1
  O  O70  1  0.53026367  0.25462390  0.70780174  1
  O  O71  1  0.03026367  0.24537610  0.29219826  1
  O  O72  1  0.40777350  0.62213027  0.14799999  1
  O  O73  1  0.90777350  0.87786973  0.85200001  1
  O  O74  1  0.59222650  0.37786973  0.85200001  1
  O  O75  1  0.09222650  0.12213027  0.14799999  1
  O  O76  1  0.08968396  0.53667786  0.15814703  1
  O  O77  1  0.58968396  0.96332214  0.84185297  1
  O  O78  1  0.91031604  0.46332214  0.84185297  1
  O  O79  1  0.41031604  0.03667786  0.15814703  1
