# generated using pymatgen
data_Cs3BO3
_symmetry_space_group_name_H-M   'P 1'
_cell_length_a   10.61512198
_cell_length_b   11.15245131
_cell_length_c   11.19763489
_cell_angle_alpha   90.00000000
_cell_angle_beta   90.00000000
_cell_angle_gamma   90.00000000
_symmetry_Int_Tables_number   1
_chemical_formula_structural   Cs3BO3
_chemical_formula_sum   'Cs24 B8 O24'
_cell_volume   1325.62787488
_cell_formula_units_Z   8
loop_
 _symmetry_equiv_pos_site_id
 _symmetry_equiv_pos_as_xyz
  1  'x, y, z'
loop_
 _atom_site_type_symbol
 _atom_site_label
 _atom_site_symmetry_multiplicity
 _atom_site_fract_x
 _atom_site_fract_y
 _atom_site_fract_z
 _atom_site_occupancy
  Cs  Cs0  1  0.24948511  0.75335740  0.25593121  1
  Cs  Cs1  1  0.24948511  0.24664260  0.74406879  1
  Cs  Cs2  1  0.75051489  0.25335740  0.24406879  1
  Cs  Cs3  1  0.75051489  0.74664260  0.75593121  1
  Cs  Cs4  1  0.75051489  0.24664260  0.74406879  1
  Cs  Cs5  1  0.75051489  0.75335740  0.25593121  1
  Cs  Cs6  1  0.24948511  0.74664260  0.75593121  1
  Cs  Cs7  1  0.24948511  0.25335740  0.24406879  1
  Cs  Cs8  1  0.50000000  0.66945398  0.48352691  1
  Cs  Cs9  1  0.50000000  0.33054602  0.51647309  1
  Cs  Cs10  1  0.50000000  0.16945398  0.01647309  1
  Cs  Cs11  1  0.50000000  0.83054602  0.98352691  1
  Cs  Cs12  1  0.00000000  0.52043490  0.16939625  1
  Cs  Cs13  1  0.00000000  0.47956510  0.83060375  1
  Cs  Cs14  1  0.00000000  0.02043490  0.33060375  1
  Cs  Cs15  1  0.00000000  0.97956510  0.66939625  1
  Cs  Cs16  1  0.31529730  0.50000000  0.00000000  1
  Cs  Cs17  1  0.68470270  -0.00000000  0.50000000  1
  Cs  Cs18  1  0.68470270  0.50000000  0.00000000  1
  Cs  Cs19  1  0.31529730  -0.00000000  0.50000000  1
  Cs  Cs20  1  0.18430047  0.50000000  0.50000000  1
  Cs  Cs21  1  0.81569953  -0.00000000  0.00000000  1
  Cs  Cs22  1  0.81569953  0.50000000  0.50000000  1
  Cs  Cs23  1  0.18430047  -0.00000000  0.00000000  1
  B  B24  1  0.00000000  0.75599564  0.46676246  1
  B  B25  1  0.00000000  0.24400436  0.53323754  1
  B  B26  1  0.00000000  0.25599564  0.03323754  1
  B  B27  1  0.00000000  0.74400436  0.96676246  1
  B  B28  1  0.50000000  0.96606471  0.24414967  1
  B  B29  1  0.50000000  0.03393529  0.75585033  1
  B  B30  1  0.50000000  0.46606471  0.25585033  1
  B  B31  1  0.50000000  0.53393529  0.74414967  1
  O  O32  1  0.11569236  0.69741851  0.00862109  1
  O  O33  1  0.11569236  0.30258149  0.99137891  1
  O  O34  1  0.88430764  0.19741851  0.49137891  1
  O  O35  1  0.88430764  0.80258149  0.50862109  1
  O  O36  1  0.88430764  0.30258149  0.99137891  1
  O  O37  1  0.88430764  0.69741851  0.00862109  1
  O  O38  1  0.11569236  0.80258149  0.50862109  1
  O  O39  1  0.11569236  0.19741851  0.49137891  1
  O  O40  1  0.00000000  0.66541878  0.38008081  1
  O  O41  1  0.00000000  0.33458122  0.61991919  1
  O  O42  1  0.00000000  0.16541878  0.11991919  1
  O  O43  1  0.00000000  0.83458122  0.88008081  1
  O  O44  1  0.50000000  0.88078439  0.33586084  1
  O  O45  1  0.50000000  0.11921561  0.66413916  1
  O  O46  1  0.50000000  0.38078439  0.16413916  1
  O  O47  1  0.50000000  0.61921561  0.83586084  1
  O  O48  1  0.38436074  0.50732114  0.30328867  1
  O  O49  1  0.38436074  0.49267886  0.69671133  1
  O  O50  1  0.61563926  0.00732114  0.19671133  1
  O  O51  1  0.61563926  0.99267886  0.80328867  1
  O  O52  1  0.61563926  0.49267886  0.69671133  1
  O  O53  1  0.61563926  0.50732114  0.30328867  1
  O  O54  1  0.38436074  0.99267886  0.80328867  1
  O  O55  1  0.38436074  0.00732114  0.19671133  1
