# generated using pymatgen
data_Cs2Li2B2P4O15
_symmetry_space_group_name_H-M   'P 1'
_cell_length_a   7.27433153
_cell_length_b   7.97996911
_cell_length_c   14.27363058
_cell_angle_alpha   86.04167215
_cell_angle_beta   75.63748462
_cell_angle_gamma   66.19659065
_symmetry_Int_Tables_number   1
_chemical_formula_structural   Cs2Li2B2P4O15
_chemical_formula_sum   'Cs4 Li4 B4 P8 O30'
_cell_volume   733.94214651
_cell_formula_units_Z   2
loop_
 _symmetry_equiv_pos_site_id
 _symmetry_equiv_pos_as_xyz
  1  'x, y, z'
loop_
 _atom_site_type_symbol
 _atom_site_label
 _atom_site_symmetry_multiplicity
 _atom_site_fract_x
 _atom_site_fract_y
 _atom_site_fract_z
 _atom_site_occupancy
  Cs  Cs0  1  0.28237345  0.81172340  0.86577906  1
  Cs  Cs1  1  0.71762655  0.18827660  0.13422094  1
  Cs  Cs2  1  0.90108015  0.75957470  0.64926178  1
  Cs  Cs3  1  0.09891985  0.24042530  0.35073822  1
  Li  Li4  1  0.77829711  0.77288667  0.99120178  1
  Li  Li5  1  0.22170289  0.22711333  0.00879822  1
  Li  Li6  1  0.28880548  0.25810622  0.77640611  1
  Li  Li7  1  0.71119452  0.74189378  0.22359389  1
  B  B8  1  0.86413131  0.28313306  0.71361504  1
  B  B9  1  0.13586869  0.71686694  0.28638496  1
  B  B10  1  0.53653765  0.24298512  0.49043707  1
  B  B11  1  0.46346235  0.75701488  0.50956293  1
  P  P12  1  0.26408624  0.10858646  0.59815509  1
  P  P13  1  0.73591376  0.89141354  0.40184491  1
  P  P14  1  0.51743546  0.46977373  0.64031980  1
  P  P15  1  0.48256454  0.53022627  0.35968020  1
  P  P16  1  0.65998601  0.15753310  0.87073992  1
  P  P17  1  0.34001399  0.84246690  0.12926008  1
  P  P18  1  0.83509117  0.41890471  0.89003211  1
  P  P19  1  0.16490883  0.58109529  0.10996789  1
  O  O20  1  0.32352816  0.25520131  0.53216783  1
  O  O21  1  0.67647184  0.74479869  0.46783217  1
  O  O22  1  0.36316154  0.05509420  0.68245289  1
  O  O23  1  0.63683846  0.94490580  0.31754711  1
  O  O24  1  0.30988897  0.94842861  0.52667476  1
  O  O25  1  0.69011103  0.05157139  0.47332524  1
  O  O26  1  0.02270129  0.19826916  0.62540994  1
  O  O27  1  0.97729871  0.80173084  0.37459006  1
  O  O28  1  0.61087362  0.32583885  0.55449785  1
  O  O29  1  0.38912638  0.67416115  0.44550215  1
  O  O30  1  0.45617778  0.66860442  0.60275877  1
  O  O31  1  0.54382222  0.33139558  0.39724123  1
  O  O32  1  0.33377505  0.46144925  0.71371974  1
  O  O33  1  0.66622495  0.53855075  0.28628026  1
  O  O34  1  0.44020853  0.17874021  0.87926111  1
  O  O35  1  0.55979147  0.82125979  0.12073889  1
  O  O36  1  0.77893131  0.14849351  0.75947968  1
  O  O37  1  0.22106869  0.85150649  0.24052032  1
  O  O38  1  0.78868934  0.00169807  0.92347551  1
  O  O39  1  0.21131066  0.99830193  0.07652449  1
  O  O40  1  0.64275013  0.35283607  0.91045961  1
  O  O41  1  0.35724987  0.64716393  0.08954039  1
  O  O42  1  0.70354139  0.44775004  0.68396483  1
  O  O43  1  0.29645861  0.55224996  0.31603517  1
  O  O44  1  0.97843788  0.31716525  0.95365974  1
  O  O45  1  0.02156212  0.68283475  0.04634026  1
  O  O46  1  0.95344871  0.34475666  0.78023254  1
  O  O47  1  0.04655129  0.65524334  0.21976746  1
  O  O48  1  0.74161115  0.62534213  0.89577196  1
  O  O49  1  0.25838885  0.37465787  0.10422804  1
