# generated using pymatgen
data_Cs2MgSi5O12
_symmetry_space_group_name_H-M   'P 1'
_cell_length_a   13.91041187
_cell_length_b   13.92318305
_cell_length_c   13.89775181
_cell_angle_alpha   90.00000000
_cell_angle_beta   90.00000000
_cell_angle_gamma   90.00000000
_symmetry_Int_Tables_number   1
_chemical_formula_structural   Cs2MgSi5O12
_chemical_formula_sum   'Cs16 Mg8 Si40 O96'
_cell_volume   2691.67780649
_cell_formula_units_Z   8
loop_
 _symmetry_equiv_pos_site_id
 _symmetry_equiv_pos_as_xyz
  1  'x, y, z'
loop_
 _atom_site_type_symbol
 _atom_site_label
 _atom_site_symmetry_multiplicity
 _atom_site_fract_x
 _atom_site_fract_y
 _atom_site_fract_z
 _atom_site_occupancy
  Cs  Cs0  1  0.62824473  0.13780030  0.35445087  1
  Cs  Cs1  1  0.12824473  0.36219970  0.64554913  1
  Cs  Cs2  1  0.37175527  0.63780030  0.14554913  1
  Cs  Cs3  1  0.87175527  0.86219970  0.85445087  1
  Cs  Cs4  1  0.37175527  0.86219970  0.64554913  1
  Cs  Cs5  1  0.87175527  0.63780030  0.35445087  1
  Cs  Cs6  1  0.62824473  0.36219970  0.85445087  1
  Cs  Cs7  1  0.12824473  0.13780030  0.14554913  1
  Cs  Cs8  1  0.88357403  0.39557181  0.11135885  1
  Cs  Cs9  1  0.38357403  0.10442819  0.88864115  1
  Cs  Cs10  1  0.11642597  0.89557181  0.38864115  1
  Cs  Cs11  1  0.61642597  0.60442819  0.61135885  1
  Cs  Cs12  1  0.11642597  0.60442819  0.88864115  1
  Cs  Cs13  1  0.61642597  0.89557181  0.11135885  1
  Cs  Cs14  1  0.88357403  0.10442819  0.61135885  1
  Cs  Cs15  1  0.38357403  0.39557181  0.38864115  1
  Mg  Mg16  1  0.87774220  0.83793028  0.56922897  1
  Mg  Mg17  1  0.37774220  0.66206972  0.43077103  1
  Mg  Mg18  1  0.12225780  0.33793028  0.93077103  1
  Mg  Mg19  1  0.62225780  0.16206972  0.06922897  1
  Mg  Mg20  1  0.12225780  0.16206972  0.43077103  1
  Mg  Mg21  1  0.62225780  0.33793028  0.56922897  1
  Mg  Mg22  1  0.87774220  0.66206972  0.06922897  1
  Mg  Mg23  1  0.37774220  0.83793028  0.93077103  1
  Si  Si24  1  0.62649225  0.66681194  0.90018811  1
  Si  Si25  1  0.12649225  0.83318806  0.09981189  1
  Si  Si26  1  0.37350775  0.16681194  0.59981189  1
  Si  Si27  1  0.87350775  0.33318806  0.40018811  1
  Si  Si28  1  0.37350775  0.33318806  0.09981189  1
  Si  Si29  1  0.87350775  0.16681194  0.90018811  1
  Si  Si30  1  0.62649225  0.83318806  0.40018811  1
  Si  Si31  1  0.12649225  0.66681194  0.59981189  1
  Si  Si32  1  0.08821505  0.11819223  0.86154034  1
  Si  Si33  1  0.58821505  0.38180777  0.13845966  1
  Si  Si34  1  0.91178495  0.61819223  0.63845966  1
  Si  Si35  1  0.41178495  0.88180777  0.36154034  1
  Si  Si36  1  0.91178495  0.88180777  0.13845966  1
  Si  Si37  1  0.41178495  0.61819223  0.86154034  1
  Si  Si38  1  0.08821505  0.38180777  0.36154034  1
  Si  Si39  1  0.58821505  0.11819223  0.63845966  1
  Si  Si40  1  0.15493820  0.59605111  0.38947611  1
  Si  Si41  1  0.65493820  0.90394889  0.61052389  1
  Si  Si42  1  0.84506180  0.09605111  0.11052389  1
  Si  Si43  1  0.34506180  0.40394889  0.88947611  1
  Si  Si44  1  0.84506180  0.40394889  0.61052389  1
  Si  Si45  1  0.34506180  0.09605111  0.38947611  1
  Si  Si46  1  0.15493820  0.90394889  0.88947611  1
  Si  Si47  1  0.65493820  0.59605111  0.11052389  1
  Si  Si48  1  0.40895871  0.37163053  0.68072532  1
  Si  Si49  1  0.90895871  0.12836947  0.31927468  1
  Si  Si50  1  0.59104129  0.87163053  0.81927468  1
  Si  Si51  1  0.09104129  0.62836947  0.18072532  1
  Si  Si52  1  0.59104129  0.62836947  0.31927468  1
  Si  Si53  1  0.09104129  0.87163053  0.68072532  1
  Si  Si54  1  0.40895871  0.12836947  0.18072532  1
  Si  Si55  1  0.90895871  0.37163053  0.81927468  1
  Si  Si56  1  0.33171404  0.92001457  0.14887574  1
  Si  Si57  1  0.83171404  0.57998543  0.85112426  1
  Si  Si58  1  0.66828596  0.42001457  0.35112426  1
  Si  Si59  1  0.16828596  0.07998543  0.64887574  1
  Si  Si60  1  0.66828596  0.07998543  0.85112426  1
  Si  Si61  1  0.16828596  0.42001457  0.14887574  1
  Si  Si62  1  0.33171404  0.57998543  0.64887574  1
  Si  Si63  1  0.83171404  0.92001457  0.35112426  1
  O  O64  1  0.96954381  0.37350193  0.34576834  1
  O  O65  1  0.46954381  0.12649807  0.65423166  1
  O  O66  1  0.03045619  0.87350193  0.15423166  1
  O  O67  1  0.53045619  0.62649807  0.84576834  1
  O  O68  1  0.03045619  0.62649807  0.65423166  1
  O  O69  1  0.53045619  0.87350193  0.34576834  1
  O  O70  1  0.96954381  0.12649807  0.84576834  1
  O  O71  1  0.46954381  0.37350193  0.15423166  1
  O  O72  1  0.60636475  0.48965642  0.09383321  1
  O  O73  1  0.10636475  0.01034358  0.90616679  1
  O  O74  1  0.39363525  0.98965642  0.40616679  1
  O  O75  1  0.89363525  0.51034358  0.59383321  1
  O  O76  1  0.39363525  0.51034358  0.90616679  1
  O  O77  1  0.89363525  0.98965642  0.09383321  1
  O  O78  1  0.60636475  0.01034358  0.59383321  1
  O  O79  1  0.10636475  0.48965642  0.40616679  1
  O  O80  1  0.88240542  0.16124954  0.01718904  1
  O  O81  1  0.38240542  0.33875046  0.98281096  1
  O  O82  1  0.11759458  0.66124954  0.48281096  1
  O  O83  1  0.61759458  0.83875046  0.51718904  1
  O  O84  1  0.11759458  0.83875046  0.98281096  1
  O  O85  1  0.61759458  0.66124954  0.01718904  1
  O  O86  1  0.88240542  0.33875046  0.51718904  1
  O  O87  1  0.38240542  0.16124954  0.48281096  1
  O  O88  1  0.23160594  0.40687801  0.87698581  1
  O  O89  1  0.73160594  0.09312199  0.12301419  1
  O  O90  1  0.76839406  0.90687801  0.62301419  1
  O  O91  1  0.26839406  0.59312199  0.37698581  1
  O  O92  1  0.76839406  0.59312199  0.12301419  1
  O  O93  1  0.26839406  0.90687801  0.87698581  1
  O  O94  1  0.23160594  0.09312199  0.37698581  1
  O  O95  1  0.73160594  0.40687801  0.62301419  1
  O  O96  1  0.14520688  0.72039268  0.12707743  1
  O  O97  1  0.64520688  0.77960732  0.87292257  1
  O  O98  1  0.85479312  0.22039268  0.37292257  1
  O  O99  1  0.35479312  0.27960732  0.62707743  1
  O  O100  1  0.85479312  0.27960732  0.87292257  1
  O  O101  1  0.35479312  0.22039268  0.12707743  1
  O  O102  1  0.14520688  0.77960732  0.62707743  1
  O  O103  1  0.64520688  0.72039268  0.37292257  1
  O  O104  1  0.86522377  0.62439140  0.74689876  1
  O  O105  1  0.36522377  0.87560860  0.25310124  1
  O  O106  1  0.13477623  0.12439140  0.75310124  1
  O  O107  1  0.63477623  0.37560860  0.24689876  1
  O  O108  1  0.13477623  0.37560860  0.25310124  1
  O  O109  1  0.63477623  0.12439140  0.74689876  1
  O  O110  1  0.86522377  0.87560860  0.24689876  1
  O  O111  1  0.36522377  0.62439140  0.75310124  1
  O  O112  1  0.48285243  0.88743447  0.85211042  1
  O  O113  1  0.98285243  0.61256553  0.14788958  1
  O  O114  1  0.51714757  0.38743447  0.64788958  1
  O  O115  1  0.01714757  0.11256553  0.35211042  1
  O  O116  1  0.51714757  0.11256553  0.14788958  1
  O  O117  1  0.01714757  0.38743447  0.85211042  1
  O  O118  1  0.48285243  0.61256553  0.35211042  1
  O  O119  1  0.98285243  0.88743447  0.64788958  1
  O  O120  1  0.16363105  0.96148582  0.65346487  1
  O  O121  1  0.66363105  0.53851418  0.34653513  1
  O  O122  1  0.83636895  0.46148582  0.84653513  1
  O  O123  1  0.33636895  0.03851418  0.15346487  1
  O  O124  1  0.83636895  0.03851418  0.34653513  1
  O  O125  1  0.33636895  0.46148582  0.65346487  1
  O  O126  1  0.16363105  0.53851418  0.15346487  1
  O  O127  1  0.66363105  0.96148582  0.84653513  1
  O  O128  1  0.39401941  0.62612831  0.56497902  1
  O  O129  1  0.89401941  0.87387169  0.43502098  1
  O  O130  1  0.60598059  0.12612831  0.93502098  1
  O  O131  1  0.10598059  0.37387169  0.06497902  1
  O  O132  1  0.60598059  0.37387169  0.43502098  1
  O  O133  1  0.10598059  0.12612831  0.56497902  1
  O  O134  1  0.39401941  0.87387169  0.06497902  1
  O  O135  1  0.89401941  0.62612831  0.93502098  1
  O  O136  1  0.71437130  0.89903294  0.35909692  1
  O  O137  1  0.21437130  0.60096706  0.64090308  1
  O  O138  1  0.28562870  0.39903294  0.14090308  1
  O  O139  1  0.78562870  0.10096706  0.85909692  1
  O  O140  1  0.28562870  0.10096706  0.64090308  1
  O  O141  1  0.78562870  0.39903294  0.35909692  1
  O  O142  1  0.71437130  0.60096706  0.85909692  1
  O  O143  1  0.21437130  0.89903294  0.14090308  1
  O  O144  1  0.63127974  0.19869446  0.56983865  1
  O  O145  1  0.13127974  0.30130554  0.43016135  1
  O  O146  1  0.36872026  0.69869446  0.93016135  1
  O  O147  1  0.86872026  0.80130554  0.06983865  1
  O  O148  1  0.36872026  0.80130554  0.43016135  1
  O  O149  1  0.86872026  0.69869446  0.56983865  1
  O  O150  1  0.63127974  0.30130554  0.06983865  1
  O  O151  1  0.13127974  0.19869446  0.93016135  1
  O  O152  1  0.40172883  0.14822265  0.29817731  1
  O  O153  1  0.90172883  0.35177735  0.70182269  1
  O  O154  1  0.59827117  0.64822265  0.20182269  1
  O  O155  1  0.09827117  0.85177735  0.79817731  1
  O  O156  1  0.59827117  0.85177735  0.70182269  1
  O  O157  1  0.09827117  0.64822265  0.29817731  1
  O  O158  1  0.40172883  0.35177735  0.79817731  1
  O  O159  1  0.90172883  0.14822265  0.20182269  1
