# generated using pymatgen
data_Cs2Al2B2O7
_symmetry_space_group_name_H-M   'P 1'
_cell_length_a   6.80485709
_cell_length_b   7.22978602
_cell_length_c   9.74717828
_cell_angle_alpha   90.00000000
_cell_angle_beta   115.22495394
_cell_angle_gamma   90.00000000
_symmetry_Int_Tables_number   1
_chemical_formula_structural   Cs2Al2B2O7
_chemical_formula_sum   'Cs4 Al4 B4 O14'
_cell_volume   433.81032291
_cell_formula_units_Z   2
loop_
 _symmetry_equiv_pos_site_id
 _symmetry_equiv_pos_as_xyz
  1  'x, y, z'
loop_
 _atom_site_type_symbol
 _atom_site_label
 _atom_site_symmetry_multiplicity
 _atom_site_fract_x
 _atom_site_fract_y
 _atom_site_fract_z
 _atom_site_occupancy
  Cs  Cs0  1  0.77740468  0.13719043  0.61730457  1
  Cs  Cs1  1  0.22259532  0.63719043  0.88269543  1
  Cs  Cs2  1  0.22259532  0.86280957  0.38269543  1
  Cs  Cs3  1  0.77740468  0.36280957  0.11730457  1
  Al  Al4  1  0.23942864  0.38080195  0.54008152  1
  Al  Al5  1  0.76057136  0.88080195  0.95991848  1
  Al  Al6  1  0.76057136  0.61919805  0.45991848  1
  Al  Al7  1  0.23942864  0.11919805  0.04008152  1
  B  B8  1  0.35396251  0.11134996  0.77547695  1
  B  B9  1  0.64603749  0.61134996  0.72452305  1
  B  B10  1  0.64603749  0.88865004  0.22452305  1
  B  B11  1  0.35396251  0.38865004  0.27547695  1
  O  O12  1  0.25522311  0.15986111  0.62303175  1
  O  O13  1  0.74477689  0.65986111  0.87696825  1
  O  O14  1  0.74477689  0.84013889  0.37696825  1
  O  O15  1  0.25522311  0.34013889  0.12303175  1
  O  O16  1  0.25937227  0.16823928  0.86857057  1
  O  O17  1  0.74062773  0.66823928  0.63142943  1
  O  O18  1  0.74062773  0.83176072  0.13142943  1
  O  O19  1  0.25937227  0.33176072  0.36857057  1
  O  O20  1  0.00000000  0.50000000  0.50000000  1
  O  O21  1  0.00000000  -0.00000000  -0.00000000  1
  O  O22  1  0.53874557  0.00577530  0.82769359  1
  O  O23  1  0.46125443  0.50577530  0.67230641  1
  O  O24  1  0.46125443  0.99422470  0.17230641  1
  O  O25  1  0.53874557  0.49422470  0.32769359  1
