# generated using pymatgen
data_Cs2BaP2O7
_symmetry_space_group_name_H-M   'P 1'
_cell_length_a   10.92874351
_cell_length_b   6.27439541
_cell_length_c   14.16048231
_cell_angle_alpha   90.00000000
_cell_angle_beta   105.18503228
_cell_angle_gamma   90.00000000
_symmetry_Int_Tables_number   1
_chemical_formula_structural   Cs2BaP2O7
_chemical_formula_sum   'Cs8 Ba4 P8 O28'
_cell_volume   937.09950556
_cell_formula_units_Z   4
loop_
 _symmetry_equiv_pos_site_id
 _symmetry_equiv_pos_as_xyz
  1  'x, y, z'
loop_
 _atom_site_type_symbol
 _atom_site_label
 _atom_site_symmetry_multiplicity
 _atom_site_fract_x
 _atom_site_fract_y
 _atom_site_fract_z
 _atom_site_occupancy
  Cs  Cs0  1  0.13793142  0.73551377  0.65597418  1
  Cs  Cs1  1  0.63793142  0.76448623  0.15597418  1
  Cs  Cs2  1  0.86206858  0.26448623  0.34402582  1
  Cs  Cs3  1  0.36206858  0.23551377  0.84402582  1
  Cs  Cs4  1  0.85931660  0.72423349  0.82619869  1
  Cs  Cs5  1  0.35931660  0.77576651  0.32619869  1
  Cs  Cs6  1  0.14068340  0.27576651  0.17380131  1
  Cs  Cs7  1  0.64068340  0.22423349  0.67380131  1
  Ba  Ba8  1  0.74830217  0.75770970  0.50854315  1
  Ba  Ba9  1  0.24830217  0.74229030  0.00854315  1
  Ba  Ba10  1  0.25169783  0.24229030  0.49145685  1
  Ba  Ba11  1  0.75169783  0.25770970  0.99145685  1
  P  P12  1  0.04071024  0.22316476  0.86468942  1
  P  P13  1  0.54071024  0.27683524  0.36468942  1
  P  P14  1  0.95928976  0.77683524  0.13531058  1
  P  P15  1  0.45928976  0.72316476  0.63531058  1
  P  P16  1  0.53195180  0.74018240  0.85847457  1
  P  P17  1  0.03195180  0.75981760  0.35847457  1
  P  P18  1  0.46804820  0.25981760  0.14152543  1
  P  P19  1  0.96804820  0.24018240  0.64152543  1
  O  O20  1  0.60070737  0.52813129  0.85506431  1
  O  O21  1  0.10070737  0.97186871  0.35506431  1
  O  O22  1  0.39929263  0.47186871  0.14493569  1
  O  O23  1  0.89929263  0.02813129  0.64493569  1
  O  O24  1  0.90185822  0.21284231  0.86915975  1
  O  O25  1  0.40185822  0.28715769  0.36915975  1
  O  O26  1  0.09814178  0.78715769  0.13084025  1
  O  O27  1  0.59814178  0.71284231  0.63084025  1
  O  O28  1  0.10553458  0.00366348  0.87382096  1
  O  O29  1  0.60553458  0.49633652  0.37382096  1
  O  O30  1  0.89446542  0.99633652  0.12617904  1
  O  O31  1  0.39446542  0.50366348  0.62617904  1
  O  O32  1  0.04040510  0.31468794  0.75501677  1
  O  O33  1  0.54040510  0.18531206  0.25501677  1
  O  O34  1  0.95959490  0.68531206  0.24498323  1
  O  O35  1  0.45959490  0.81468794  0.74498323  1
  O  O36  1  0.11939943  0.39296570  0.93177943  1
  O  O37  1  0.61939943  0.10703430  0.43177943  1
  O  O38  1  0.88060057  0.60703430  0.06822057  1
  O  O39  1  0.38060057  0.89296570  0.56822057  1
  O  O40  1  0.42175232  0.72129101  0.90670243  1
  O  O41  1  0.92175232  0.77870899  0.40670243  1
  O  O42  1  0.57824768  0.27870899  0.09329757  1
  O  O43  1  0.07824768  0.22129101  0.59329757  1
  O  O44  1  0.62122629  0.92717906  0.89769767  1
  O  O45  1  0.12122629  0.57282094  0.39769767  1
  O  O46  1  0.37877371  0.07282094  0.10230233  1
  O  O47  1  0.87877371  0.42717906  0.60230233  1
