# generated using pymatgen
data_CaPbI4
_symmetry_space_group_name_H-M   'P 1'
_cell_length_a   9.35560609
_cell_length_b   7.91114419
_cell_length_c   16.33129046
_cell_angle_alpha   90.00000000
_cell_angle_beta   92.14120558
_cell_angle_gamma   90.00000000
_symmetry_Int_Tables_number   1
_chemical_formula_structural   CaPbI4
_chemical_formula_sum   'Ca4 Pb4 I16'
_cell_volume   1207.89280081
_cell_formula_units_Z   4
loop_
 _symmetry_equiv_pos_site_id
 _symmetry_equiv_pos_as_xyz
  1  'x, y, z'
loop_
 _atom_site_type_symbol
 _atom_site_label
 _atom_site_symmetry_multiplicity
 _atom_site_fract_x
 _atom_site_fract_y
 _atom_site_fract_z
 _atom_site_occupancy
  Ca  Ca0  1  0.31382925  0.18330191  0.60668036  1
  Ca  Ca1  1  0.31382925  0.31669809  0.10668036  1
  Ca  Ca2  1  0.68617075  0.68330191  0.89331964  1
  Ca  Ca3  1  0.68617075  0.81669809  0.39331964  1
  Pb  Pb4  1  0.14346835  0.49375589  0.87230218  1
  Pb  Pb5  1  0.14346835  0.00624411  0.37230218  1
  Pb  Pb6  1  0.85653165  0.99375589  0.62769782  1
  Pb  Pb7  1  0.85653165  0.50624411  0.12769782  1
  I  I8  1  0.05930243  0.33420662  0.68916700  1
  I  I9  1  0.05930243  0.16579338  0.18916700  1
  I  I10  1  0.17591232  0.84841380  0.55628894  1
  I  I11  1  0.17591232  0.65158620  0.05628894  1
  I  I12  1  0.31922144  0.18023896  0.93594288  1
  I  I13  1  0.31922144  0.31976104  0.43594288  1
  I  I14  1  0.40630702  0.68029697  0.79792681  1
  I  I15  1  0.40630702  0.81970303  0.29792681  1
  I  I16  1  0.59369298  0.18029697  0.70207319  1
  I  I17  1  0.59369298  0.31970303  0.20207319  1
  I  I18  1  0.68077856  0.68023896  0.56405712  1
  I  I19  1  0.68077856  0.81976104  0.06405712  1
  I  I20  1  0.82408768  0.34841380  0.94371106  1
  I  I21  1  0.82408768  0.15158620  0.44371106  1
  I  I22  1  0.94069757  0.83420662  0.81083300  1
  I  I23  1  0.94069757  0.66579338  0.31083300  1
