# generated using pymatgen
data_K2Ca4Si8O21
_symmetry_space_group_name_H-M   'P 1'
_cell_length_a   6.88500389
_cell_length_b   7.19627856
_cell_length_c   11.33226238
_cell_angle_alpha   96.68814655
_cell_angle_beta   105.30633430
_cell_angle_gamma   109.11516557
_symmetry_Int_Tables_number   1
_chemical_formula_structural   K2Ca4Si8O21
_chemical_formula_sum   'K2 Ca4 Si8 O21'
_cell_volume   498.85201618
_cell_formula_units_Z   1
loop_
 _symmetry_equiv_pos_site_id
 _symmetry_equiv_pos_as_xyz
  1  'x, y, z'
loop_
 _atom_site_type_symbol
 _atom_site_label
 _atom_site_symmetry_multiplicity
 _atom_site_fract_x
 _atom_site_fract_y
 _atom_site_fract_z
 _atom_site_occupancy
  K  K0  1  0.73958481  0.70784540  0.43044499  1
  K  K1  1  0.26041519  0.29215460  0.56955501  1
  Ca  Ca2  1  0.66234826  0.78524539  0.81699287  1
  Ca  Ca3  1  0.33765174  0.21475461  0.18300713  1
  Ca  Ca4  1  0.37102951  0.73300477  0.04276096  1
  Ca  Ca5  1  0.62897049  0.26699523  0.95723904  1
  Si  Si6  1  0.09752685  0.23892710  0.88670470  1
  Si  Si7  1  0.90247315  0.76107290  0.11329530  1
  Si  Si8  1  0.17547380  0.90141603  0.74508635  1
  Si  Si9  1  0.82452620  0.09858397  0.25491365  1
  Si  Si10  1  0.66300088  0.19967934  0.47077788  1
  Si  Si11  1  0.33699912  0.80032066  0.52922212  1
  Si  Si12  1  0.87171905  0.47045922  0.74268381  1
  Si  Si13  1  0.12828095  0.52954078  0.25731619  1
  O  O14  1  0.50000000  0.00000000  0.50000000  1
  O  O15  1  0.84571675  0.34398851  0.60491242  1
  O  O16  1  0.15428325  0.65601149  0.39508758  1
  O  O17  1  0.38925437  0.91166400  0.85113091  1
  O  O18  1  0.61074563  0.08833600  0.14886909  1
  O  O19  1  0.87384169  0.12390436  0.91217784  1
  O  O20  1  0.12615831  0.87609564  0.08782216  1
  O  O21  1  0.67448399  0.69318625  0.00255478  1
  O  O22  1  0.32551601  0.30681375  -0.00255478  1
  O  O23  1  0.11653923  0.10486936  0.76215601  1
  O  O24  1  0.88346077  0.89513064  0.23784399  1
  O  O25  1  0.08685898  0.45478056  0.84497915  1
  O  O26  1  0.91314102  0.54521944  0.15502085  1
  O  O27  1  0.95162879  0.71499328  0.73999532  1
  O  O28  1  0.04837121  0.28500672  0.26000468  1
  O  O29  1  0.46768773  0.68659394  0.60892379  1
  O  O30  1  0.53231227  0.31340606  0.39107621  1
  O  O31  1  0.34244330  0.58516186  0.21737096  1
  O  O32  1  0.65755670  0.41483814  0.78262904  1
  O  O33  1  0.18732616  0.88060745  0.60022557  1
  O  O34  1  0.81267384  0.11939255  0.39977443  1
