# generated using pymatgen
data_Eu(NO3)3
_symmetry_space_group_name_H-M   'P 1'
_cell_length_a   11.41535550
_cell_length_b   6.46067654
_cell_length_c   10.19129561
_cell_angle_alpha   90.00000000
_cell_angle_beta   92.58612675
_cell_angle_gamma   90.00000000
_symmetry_Int_Tables_number   1
_chemical_formula_structural   Eu(NO3)3
_chemical_formula_sum   'Eu4 N12 O36'
_cell_volume   750.85191811
_cell_formula_units_Z   4
loop_
 _symmetry_equiv_pos_site_id
 _symmetry_equiv_pos_as_xyz
  1  'x, y, z'
loop_
 _atom_site_type_symbol
 _atom_site_label
 _atom_site_symmetry_multiplicity
 _atom_site_fract_x
 _atom_site_fract_y
 _atom_site_fract_z
 _atom_site_occupancy
  Eu  Eu0  1  0.74060741  0.31869619  0.71258822  1
  Eu  Eu1  1  0.25939259  0.81869619  0.78741178  1
  Eu  Eu2  1  0.25939259  0.68130381  0.28741178  1
  Eu  Eu3  1  0.74060741  0.18130381  0.21258822  1
  N  N4  1  0.49252752  0.61606423  0.82675940  1
  N  N5  1  0.50747248  0.11606423  0.67324060  1
  N  N6  1  0.50747248  0.38393577  0.17324060  1
  N  N7  1  0.49252752  0.88393577  0.32675940  1
  N  N8  1  0.21059570  0.26934803  0.80420671  1
  N  N9  1  0.78940430  0.76934803  0.69579329  1
  N  N10  1  0.78940430  0.73065197  0.19579329  1
  N  N11  1  0.21059570  0.23065197  0.30420671  1
  N  N12  1  0.87959223  0.27856694  0.46762838  1
  N  N13  1  0.12040777  0.77856694  0.03237162  1
  N  N14  1  0.12040777  0.72143306  0.53237162  1
  N  N15  1  0.87959223  0.22143306  0.96762838  1
  O  O16  1  0.42605521  0.57888396  0.72544814  1
  O  O17  1  0.57394479  0.07888396  0.77455186  1
  O  O18  1  0.57394479  0.42111604  0.27455186  1
  O  O19  1  0.42605521  0.92111604  0.22544814  1
  O  O20  1  0.45336730  0.73460392  0.91374793  1
  O  O21  1  0.54663270  0.23460392  0.58625207  1
  O  O22  1  0.54663270  0.26539608  0.08625207  1
  O  O23  1  0.45336730  0.76539608  0.41374793  1
  O  O24  1  0.59286629  0.53932691  0.84011784  1
  O  O25  1  0.40713371  0.03932691  0.65988216  1
  O  O26  1  0.40713371  0.46067309  0.15988216  1
  O  O27  1  0.59286629  0.96067309  0.34011784  1
  O  O28  1  0.27168855  0.17943281  0.89430438  1
  O  O29  1  0.72831145  0.67943281  0.60569562  1
  O  O30  1  0.72831145  0.82056719  0.10569562  1
  O  O31  1  0.27168855  0.32056719  0.39430438  1
  O  O32  1  0.19059218  0.46031696  0.81012702  1
  O  O33  1  0.80940782  0.96031696  0.68987298  1
  O  O34  1  0.80940782  0.53968304  0.18987298  1
  O  O35  1  0.19059218  0.03968304  0.31012702  1
  O  O36  1  0.16917853  0.16308749  0.70890248  1
  O  O37  1  0.83082147  0.66308749  0.79109752  1
  O  O38  1  0.83082147  0.83691251  0.29109752  1
  O  O39  1  0.16917853  0.33691251  0.20890248  1
  O  O40  1  0.76557123  0.26796113  0.46011793  1
  O  O41  1  0.23442877  0.76796113  0.03988207  1
  O  O42  1  0.23442877  0.73203887  0.53988207  1
  O  O43  1  0.76557123  0.23203887  0.96011793  1
  O  O44  1  0.92827434  0.32734104  0.57578225  1
  O  O45  1  0.07172566  0.82734104  0.92421775  1
  O  O46  1  0.07172566  0.67265896  0.42421775  1
  O  O47  1  0.92827434  0.17265896  0.07578225  1
  O  O48  1  0.93366644  0.23854423  0.36690103  1
  O  O49  1  0.06633356  0.73854423  0.13309897  1
  O  O50  1  0.06633356  0.76145577  0.63309897  1
  O  O51  1  0.93366644  0.26145577  0.86690103  1
