# generated using pymatgen
data_CsBe4(BO3)3
_symmetry_space_group_name_H-M   'P 1'
_cell_length_a   8.45744877
_cell_length_b   13.47130679
_cell_length_c   6.52948886
_cell_angle_alpha   90.00000000
_cell_angle_beta   90.00000000
_cell_angle_gamma   90.00000000
_symmetry_Int_Tables_number   1
_chemical_formula_structural   CsBe4(BO3)3
_chemical_formula_sum   'Cs4 Be16 B12 O36'
_cell_volume   743.92351672
_cell_formula_units_Z   4
loop_
 _symmetry_equiv_pos_site_id
 _symmetry_equiv_pos_as_xyz
  1  'x, y, z'
loop_
 _atom_site_type_symbol
 _atom_site_label
 _atom_site_symmetry_multiplicity
 _atom_site_fract_x
 _atom_site_fract_y
 _atom_site_fract_z
 _atom_site_occupancy
  Cs  Cs0  1  0.91697975  0.75000000  0.34035433  1
  Cs  Cs1  1  0.41697975  0.75000000  0.15964567  1
  Cs  Cs2  1  0.08302025  0.25000000  0.65964567  1
  Cs  Cs3  1  0.58302025  0.25000000  0.84035433  1
  Be  Be4  1  0.06229793  0.55843127  0.91184824  1
  Be  Be5  1  0.56229793  0.94156873  0.58815176  1
  Be  Be6  1  0.93770207  0.05843127  0.08815176  1
  Be  Be7  1  0.43770207  0.44156873  0.41184824  1
  Be  Be8  1  0.93770207  0.44156873  0.08815176  1
  Be  Be9  1  0.43770207  0.05843127  0.41184824  1
  Be  Be10  1  0.06229793  0.94156873  0.91184824  1
  Be  Be11  1  0.56229793  0.55843127  0.58815176  1
  Be  Be12  1  0.27421902  0.64210716  0.64274444  1
  Be  Be13  1  0.77421902  0.85789284  0.85725556  1
  Be  Be14  1  0.72578098  0.14210716  0.35725556  1
  Be  Be15  1  0.22578098  0.35789284  0.14274444  1
  Be  Be16  1  0.72578098  0.35789284  0.35725556  1
  Be  Be17  1  0.22578098  0.14210716  0.14274444  1
  Be  Be18  1  0.27421902  0.85789284  0.64274444  1
  Be  Be19  1  0.77421902  0.64210716  0.85725556  1
  B  B20  1  0.04671020  0.75000000  0.81427703  1
  B  B21  1  0.54671020  0.75000000  0.68572297  1
  B  B22  1  0.95328980  0.25000000  0.18572297  1
  B  B23  1  0.45328980  0.25000000  0.31427703  1
  B  B24  1  0.17395105  0.53127683  0.30803224  1
  B  B25  1  0.67395105  0.96872317  0.19196776  1
  B  B26  1  0.82604895  0.03127683  0.69196776  1
  B  B27  1  0.32604895  0.46872317  0.80803224  1
  B  B28  1  0.82604895  0.46872317  0.69196776  1
  B  B29  1  0.32604895  0.03127683  0.80803224  1
  B  B30  1  0.17395105  0.96872317  0.30803224  1
  B  B31  1  0.67395105  0.53127683  0.19196776  1
  O  O32  1  0.97111305  0.66197715  0.85844649  1
  O  O33  1  0.47111305  0.83802285  0.64155351  1
  O  O34  1  0.02888695  0.16197715  0.14155351  1
  O  O35  1  0.52888695  0.33802285  0.35844649  1
  O  O36  1  0.02888695  0.33802285  0.14155351  1
  O  O37  1  0.52888695  0.16197715  0.35844649  1
  O  O38  1  0.97111305  0.83802285  0.85844649  1
  O  O39  1  0.47111305  0.66197715  0.64155351  1
  O  O40  1  0.23879997  0.55742464  0.81979023  1
  O  O41  1  0.73879997  0.94257536  0.68020977  1
  O  O42  1  0.76120003  0.05742464  0.18020977  1
  O  O43  1  0.26120003  0.44257536  0.31979023  1
  O  O44  1  0.76120003  0.44257536  0.18020977  1
  O  O45  1  0.26120003  0.05742464  0.31979023  1
  O  O46  1  0.23879997  0.94257536  0.81979023  1
  O  O47  1  0.73879997  0.55742464  0.68020977  1
  O  O48  1  0.05417582  0.53355196  0.15927638  1
  O  O49  1  0.55417582  0.96644804  0.34072362  1
  O  O50  1  0.94582418  0.03355196  0.84072362  1
  O  O51  1  0.44582418  0.46644804  0.65927638  1
  O  O52  1  0.94582418  0.46644804  0.84072362  1
  O  O53  1  0.44582418  0.03355196  0.65927638  1
  O  O54  1  0.05417582  0.96644804  0.15927638  1
  O  O55  1  0.55417582  0.53355196  0.34072362  1
  O  O56  1  0.20229302  0.61113346  0.42706482  1
  O  O57  1  0.70229302  0.88886654  0.07293518  1
  O  O58  1  0.79770698  0.11113346  0.57293518  1
  O  O59  1  0.29770698  0.38886654  0.92706482  1
  O  O60  1  0.79770698  0.38886654  0.57293518  1
  O  O61  1  0.29770698  0.11113346  0.92706482  1
  O  O62  1  0.20229302  0.88886654  0.42706482  1
  O  O63  1  0.70229302  0.61113346  0.07293518  1
  O  O64  1  0.19565030  0.75000000  0.72658655  1
  O  O65  1  0.69565030  0.75000000  0.77341345  1
  O  O66  1  0.80434970  0.25000000  0.27341345  1
  O  O67  1  0.30434970  0.25000000  0.22658655  1
