# generated using pymatgen
data_EuAl2O4
_symmetry_space_group_name_H-M   'P 1'
_cell_length_a   8.49530801
_cell_length_b   8.89045148
_cell_length_c   5.20729266
_cell_angle_alpha   90.00000000
_cell_angle_beta   93.37153314
_cell_angle_gamma   90.00000000
_symmetry_Int_Tables_number   1
_chemical_formula_structural   EuAl2O4
_chemical_formula_sum   'Eu4 Al8 O16'
_cell_volume   392.61111575
_cell_formula_units_Z   4
loop_
 _symmetry_equiv_pos_site_id
 _symmetry_equiv_pos_as_xyz
  1  'x, y, z'
loop_
 _atom_site_type_symbol
 _atom_site_label
 _atom_site_symmetry_multiplicity
 _atom_site_fract_x
 _atom_site_fract_y
 _atom_site_fract_z
 _atom_site_occupancy
  Eu  Eu0  1  0.51259595  0.49917266  0.74621992  1
  Eu  Eu1  1  0.48740405  -0.00082734  0.25378008  1
  Eu  Eu2  1  0.97383603  0.49116970  0.80171416  1
  Eu  Eu3  1  0.02616397  0.99116970  0.19828584  1
  Al  Al4  1  0.81051473  0.33009409  0.29176027  1
  Al  Al5  1  0.18948527  0.83009409  0.70823973  1
  Al  Al6  1  0.20134972  0.33729662  0.27347632  1
  Al  Al7  1  0.79865028  0.83729662  0.72652368  1
  Al  Al8  1  0.29142299  0.16823351  0.77891924  1
  Al  Al9  1  0.70857701  0.66823351  0.22108076  1
  Al  Al10  1  0.32017754  0.66938569  0.19714968  1
  Al  Al11  1  0.67982246  0.16938569  0.80285032  1
  O  O12  1  0.73263921  0.67043026  0.56254057  1
  O  O13  1  0.26736079  0.17043026  0.43745943  1
  O  O14  1  0.26951043  0.81691557  0.40452928  1
  O  O15  1  0.73048957  0.31691557  0.59547072  1
  O  O16  1  0.67120054  0.99057266  0.65537836  1
  O  O17  1  0.32879946  0.49057266  0.34462164  1
  O  O18  1  0.73547301  0.48326384  0.10233046  1
  O  O19  1  0.26452699  0.98326384  0.89766954  1
  O  O20  1  0.83000599  0.79467040  0.06093055  1
  O  O21  1  0.16999401  0.29467040  0.93906945  1
  O  O22  1  0.79402297  0.16420237  0.10146240  1
  O  O23  1  0.20597703  0.66420237  0.89853760  1
  O  O24  1  0.51357603  0.71817551  0.11302752  1
  O  O25  1  0.48642397  0.21817551  0.88697248  1
  O  O26  1  0.00946781  0.38381714  0.36317606  1
  O  O27  1  0.99053219  0.88381714  0.63682394  1
