# generated using pymatgen
data_CsCa10(PO4)7
_symmetry_space_group_name_H-M   'P 1'
_cell_length_a   10.68431148
_cell_length_b   10.68431121
_cell_length_c   13.93751693
_cell_angle_alpha   67.46154304
_cell_angle_beta   67.46154283
_cell_angle_gamma   60.00055460
_symmetry_Int_Tables_number   1
_chemical_formula_structural   CsCa10(PO4)7
_chemical_formula_sum   'Cs2 Ca20 P14 O56'
_cell_volume   1235.57046431
_cell_formula_units_Z   2
loop_
 _symmetry_equiv_pos_site_id
 _symmetry_equiv_pos_as_xyz
  1  'x, y, z'
loop_
 _atom_site_type_symbol
 _atom_site_label
 _atom_site_symmetry_multiplicity
 _atom_site_fract_x
 _atom_site_fract_y
 _atom_site_fract_z
 _atom_site_occupancy
  Cs  Cs0  1  0.66628462  0.66627302  0.00115279  1
  Cs  Cs1  1  0.16627302  0.16628462  0.50115279  1
  Ca  Ca2  1  0.98678809  0.98678506  0.03964321  1
  Ca  Ca3  1  0.48678506  0.48678809  0.53964321  1
  Ca  Ca4  1  0.06089902  0.04912820  0.24535179  1
  Ca  Ca5  1  0.64462210  0.06090030  0.24535406  1
  Ca  Ca6  1  0.04913178  0.64462135  0.24535087  1
  Ca  Ca7  1  0.54912820  0.56089902  0.74535179  1
  Ca  Ca8  1  0.14462135  0.54913178  0.74535087  1
  Ca  Ca9  1  0.56090030  0.14462210  0.74535406  1
  Ca  Ca10  1  0.40104150  0.83007508  0.33698954  1
  Ca  Ca11  1  0.43190789  0.40102929  0.33699198  1
  Ca  Ca12  1  0.83007893  0.43189799  0.33699270  1
  Ca  Ca13  1  0.33007508  0.90104150  0.83698954  1
  Ca  Ca14  1  0.93189799  0.33007893  0.83699270  1
  Ca  Ca15  1  0.90102929  0.93190789  0.83699198  1
  Ca  Ca16  1  0.45315585  0.05459499  0.06162742  1
  Ca  Ca17  1  0.43062824  0.45316024  0.06162590  1
  Ca  Ca18  1  0.05459500  0.43062646  0.06162986  1
  Ca  Ca19  1  0.55459499  0.95315585  0.56162742  1
  Ca  Ca20  1  0.93062646  0.55459500  0.56162986  1
  Ca  Ca21  1  0.95316024  0.93062824  0.56162590  1
  P  P22  1  0.25580757  0.25579935  0.23259163  1
  P  P23  1  0.75579935  0.75580757  0.73259163  1
  P  P24  1  0.17346421  0.67309634  0.44212669  1
  P  P25  1  0.71130850  0.17346581  0.44213878  1
  P  P26  1  0.67310412  0.71130206  0.44213516  1
  P  P27  1  0.17309634  0.67346421  0.94212669  1
  P  P28  1  0.21130206  0.17310412  0.94213516  1
  P  P29  1  0.67346581  0.21130850  0.94213878  1
  P  P30  1  0.29850544  0.76440654  0.13641099  1
  P  P31  1  0.80068965  0.29848171  0.13641973  1
  P  P32  1  0.76439274  0.80069524  0.13642975  1
  P  P33  1  0.26440654  0.79850544  0.63641099  1
  P  P34  1  0.30069524  0.26439274  0.63642975  1
  P  P35  1  0.79848171  0.30068965  0.63641973  1
  O  O36  1  0.29751311  0.29751858  0.10747716  1
  O  O37  1  0.79751858  0.79751311  0.60747716  1
  O  O38  1  0.25665418  0.09757247  0.27125527  1
  O  O39  1  0.37451087  0.25663632  0.27127426  1
  O  O40  1  0.09757647  0.37449472  0.27127615  1
  O  O41  1  0.59757247  0.75665418  0.77125527  1
  O  O42  1  0.87449472  0.59757647  0.77127615  1
  O  O43  1  0.75663632  0.87451087  0.77127426  1
  O  O44  1  0.34727262  0.60810765  0.41090303  1
  O  O45  1  0.63371541  0.34727591  0.41090741  1
  O  O46  1  0.60810554  0.63371946  0.41090168  1
  O  O47  1  0.10810765  0.84727262  0.91090303  1
  O  O48  1  0.13371946  0.10810554  0.91090168  1
  O  O49  1  0.84727591  0.13371541  0.91090741  1
  O  O50  1  0.12521475  0.58738475  0.40465643  1
  O  O51  1  0.88273502  0.12521618  0.40468107  1
  O  O52  1  0.58739545  0.88273245  0.40467044  1
  O  O53  1  0.08738475  0.62521475  0.90465643  1
  O  O54  1  0.38273245  0.08739545  0.90467044  1
  O  O55  1  0.62521618  0.38273502  0.90468107  1
  O  O56  1  0.10949176  0.65078379  0.56515408  1
  O  O57  1  0.67452478  0.10949393  0.56516043  1
  O  O58  1  0.65081411  0.67453297  0.56515609  1
  O  O59  1  0.15078379  0.60949176  0.06515408  1
  O  O60  1  0.17453297  0.15081411  0.06515609  1
  O  O61  1  0.60949393  0.17452478  0.06516043  1
  O  O62  1  0.11323470  0.84290277  0.39182767  1
  O  O63  1  0.65204390  0.11324708  0.39181658  1
  O  O64  1  0.84290963  0.65202437  0.39182339  1
  O  O65  1  0.34290277  0.61323470  0.89182767  1
  O  O66  1  0.15202437  0.34290963  0.89182339  1
  O  O67  1  0.61324708  0.15204390  0.89181658  1
  O  O68  1  0.33209269  0.59628519  0.19295958  1
  O  O69  1  0.87867647  0.33206506  0.19296639  1
  O  O70  1  0.59627043  0.87868411  0.19297127  1
  O  O71  1  0.09628519  0.83209269  0.69295958  1
  O  O72  1  0.37868411  0.09627043  0.69297127  1
  O  O73  1  0.83206506  0.37867647  0.69296639  1
  O  O74  1  0.12468796  0.85029991  0.16819282  1
  O  O75  1  0.85683269  0.12466346  0.16820373  1
  O  O76  1  0.85028321  0.85682956  0.16821928  1
  O  O77  1  0.35029991  0.62468796  0.66819282  1
  O  O78  1  0.35682956  0.35028321  0.66821928  1
  O  O79  1  0.62466346  0.35683269  0.66820373  1
  O  O80  1  0.36837980  0.83006954  0.17323110  1
  O  O81  1  0.62833213  0.36835223  0.17324330  1
  O  O82  1  0.83004304  0.62833532  0.17324758  1
  O  O83  1  0.33006954  0.86837980  0.67323110  1
  O  O84  1  0.12833532  0.33004304  0.67324758  1
  O  O85  1  0.86835223  0.12833213  0.67324330  1
  O  O86  1  0.35486548  0.77608006  0.01488667  1
  O  O87  1  0.85417830  0.35484388  0.01489361  1
  O  O88  1  0.77608000  0.85418946  0.01490069  1
  O  O89  1  0.27608006  0.85486548  0.51488667  1
  O  O90  1  0.35418946  0.27608000  0.51490069  1
  O  O91  1  0.85484388  0.35417830  0.51489361  1
