# generated using pymatgen
data_Cs3Y(PO4)2
_symmetry_space_group_name_H-M   'P 1'
_cell_length_a   10.36975948
_cell_length_b   10.53033540
_cell_length_c   10.73144001
_cell_angle_alpha   90.00000000
_cell_angle_beta   107.50133341
_cell_angle_gamma   90.00000000
_symmetry_Int_Tables_number   1
_chemical_formula_structural   Cs3Y(PO4)2
_chemical_formula_sum   'Cs12 Y4 P8 O32'
_cell_volume   1117.59694148
_cell_formula_units_Z   4
loop_
 _symmetry_equiv_pos_site_id
 _symmetry_equiv_pos_as_xyz
  1  'x, y, z'
loop_
 _atom_site_type_symbol
 _atom_site_label
 _atom_site_symmetry_multiplicity
 _atom_site_fract_x
 _atom_site_fract_y
 _atom_site_fract_z
 _atom_site_occupancy
  Cs  Cs0  1  0.98957339  0.68694507  0.70509646  1
  Cs  Cs1  1  0.01042661  0.18694507  0.29490354  1
  Cs  Cs2  1  0.03452551  0.53726170  0.16519290  1
  Cs  Cs3  1  0.96547449  0.03726170  0.83480710  1
  Cs  Cs4  1  0.27900502  0.66790334  0.51909377  1
  Cs  Cs5  1  0.72099498  0.16790334  0.48090623  1
  Cs  Cs6  1  0.52218428  0.58582797  0.27785562  1
  Cs  Cs7  1  0.47781572  0.08582797  0.72214438  1
  Cs  Cs8  1  0.72498847  0.74864248  0.93450755  1
  Cs  Cs9  1  0.27501153  0.24864248  0.06549245  1
  Cs  Cs10  1  0.33203777  0.78768601  0.95532377  1
  Cs  Cs11  1  0.66796223  0.28768601  0.04467623  1
  Y  Y12  1  0.65590472  0.47758435  0.66108426  1
  Y  Y13  1  0.34409528  0.97758435  0.33891574  1
  Y  Y14  1  0.15816591  0.33374833  0.66130163  1
  Y  Y15  1  0.84183409  0.83374833  0.33869837  1
  P  P16  1  0.90061453  0.35824130  0.84730787  1
  P  P17  1  0.09938547  0.85824130  0.15269213  1
  P  P18  1  0.63709737  0.82177559  0.57460226  1
  P  P19  1  0.36290263  0.32177559  0.42539774  1
  P  P20  1  0.13241941  0.98882474  0.57594571  1
  P  P21  1  0.86758059  0.48882474  0.42405429  1
  P  P22  1  0.39815790  0.46165943  0.84364587  1
  P  P23  1  0.60184210  0.96165943  0.15635413  1
  O  O24  1  0.49462667  0.87735407  0.49967891  1
  O  O25  1  0.50537333  0.37735407  0.50032109  1
  O  O26  1  0.70706257  0.90534312  0.69323104  1
  O  O27  1  0.29293743  0.40534312  0.30676896  1
  O  O28  1  0.61323207  0.68478933  0.62121586  1
  O  O29  1  0.38676793  0.18478933  0.37878414  1
  O  O30  1  0.72204841  0.81313078  0.47884069  1
  O  O31  1  0.27795159  0.31313078  0.52115931  1
  O  O32  1  0.98874271  0.93892418  0.49804333  1
  O  O33  1  0.01125729  0.43892418  0.50195667  1
  O  O34  1  0.11149804  0.12700506  0.62170859  1
  O  O35  1  0.88850196  0.62700506  0.37829141  1
  O  O36  1  0.19699794  0.90400489  0.69486583  1
  O  O37  1  0.80300206  0.40400489  0.30513417  1
  O  O38  1  0.22111884  0.99304621  0.48184319  1
  O  O39  1  0.77888116  0.49304621  0.51815681  1
  O  O40  1  0.26639513  0.52624598  0.75299688  1
  O  O41  1  0.73360487  0.02624598  0.24700312  1
  O  O42  1  0.43287499  0.50460889  0.98657568  1
  O  O43  1  0.56712501  0.00460889  0.01342432  1
  O  O44  1  0.52038523  0.48778352  0.79016765  1
  O  O45  1  0.47961477  0.98778352  0.20983235  1
  O  O46  1  0.36253980  0.31516059  0.82977005  1
  O  O47  1  0.63746020  0.81516059  0.17022995  1
  O  O48  1  0.02228661  0.33849426  0.79173201  1
  O  O49  1  0.97771339  0.83849426  0.20826799  1
  O  O50  1  0.85731012  0.50226452  0.84017869  1
  O  O51  1  0.14268988  0.00226452  0.15982131  1
  O  O52  1  0.77045022  0.29116523  0.75484939  1
  O  O53  1  0.22954978  0.79116523  0.24515061  1
  O  O54  1  0.93903409  0.30509906  0.98733685  1
  O  O55  1  0.06096591  0.80509906  0.01266315  1
