# generated using pymatgen
data_Cs4Si3O8
_symmetry_space_group_name_H-M   'P 1'
_cell_length_a   9.52968129
_cell_length_b   11.32379412
_cell_length_c   13.77310209
_cell_angle_alpha   101.32521335
_cell_angle_beta   100.95562627
_cell_angle_gamma   114.09604026
_symmetry_Int_Tables_number   1
_chemical_formula_structural   Cs4Si3O8
_chemical_formula_sum   'Cs16 Si12 O32'
_cell_volume   1268.28188206
_cell_formula_units_Z   4
loop_
 _symmetry_equiv_pos_site_id
 _symmetry_equiv_pos_as_xyz
  1  'x, y, z'
loop_
 _atom_site_type_symbol
 _atom_site_label
 _atom_site_symmetry_multiplicity
 _atom_site_fract_x
 _atom_site_fract_y
 _atom_site_fract_z
 _atom_site_occupancy
  Cs  Cs0  1  0.60433592  0.26879226  0.74860247  1
  Cs  Cs1  1  0.39566408  0.73120774  0.25139753  1
  Cs  Cs2  1  0.95898329  0.72873822  0.24354124  1
  Cs  Cs3  1  0.04101671  0.27126178  0.75645876  1
  Cs  Cs4  1  0.38366634  0.90125551  0.82942655  1
  Cs  Cs5  1  0.61633366  0.09874449  0.17057345  1
  Cs  Cs6  1  0.93185084  0.90098756  0.82659346  1
  Cs  Cs7  1  0.06814916  0.09901244  0.17340654  1
  Cs  Cs8  1  0.60849381  0.92439383  0.59196527  1
  Cs  Cs9  1  0.39150619  0.07560617  0.40803473  1
  Cs  Cs10  1  0.37598711  0.26067754  0.99209883  1
  Cs  Cs11  1  0.62401289  0.73932246  0.00790117  1
  Cs  Cs12  1  0.92749408  0.54509681  0.64310279  1
  Cs  Cs13  1  0.07250592  0.45490319  0.35689721  1
  Cs  Cs14  1  0.43370637  0.55795728  0.65849275  1
  Cs  Cs15  1  0.56629363  0.44204272  0.34150725  1
  Si  Si16  1  0.81872012  0.95155261  0.35832542  1
  Si  Si17  1  0.18127988  0.04844739  0.64167458  1
  Si  Si18  1  0.19020299  0.79038374  0.52209099  1
  Si  Si19  1  0.80979701  0.20961626  0.47790901  1
  Si  Si20  1  0.86497174  0.79562191  0.51582113  1
  Si  Si21  1  0.13502826  0.20437809  0.48417887  1
  Si  Si22  1  0.19461559  0.59764116  0.93486604  1
  Si  Si23  1  0.80538441  0.40235884  0.06513396  1
  Si  Si24  1  0.80774982  0.14176305  0.94334690  1
  Si  Si25  1  0.19225018  0.85823695  0.05665310  1
  Si  Si26  1  0.87299078  0.59797308  0.92786852  1
  Si  Si27  1  0.12700922  0.40202692  0.07213148  1
  O  O28  1  0.98222178  0.94933335  0.60281026  1
  O  O29  1  0.01777822  0.05066665  0.39718974  1
  O  O30  1  0.78200927  0.82303454  0.40933485  1
  O  O31  1  0.21799073  0.17696546  0.59066515  1
  O  O32  1  0.74901656  0.89280903  0.23477982  1
  O  O33  1  0.25098344  0.10719097  0.76522018  1
  O  O34  1  0.26302502  0.95815654  0.58920655  1
  O  O35  1  0.73697498  0.04184346  0.41079345  1
  O  O36  1  0.75120591  0.21789666  0.58025931  1
  O  O37  1  0.24879409  0.78210334  0.41974069  1
  O  O38  1  0.23891424  0.71349407  0.59866215  1
  O  O39  1  0.76108576  0.28650593  0.40133785  1
  O  O40  1  0.98618541  0.73288572  0.48542048  1
  O  O41  1  0.01381459  0.26711428  0.51457952  1
  O  O42  1  0.73071452  0.69943998  0.55769282  1
  O  O43  1  0.26928548  0.30056002  0.44230718  1
  O  O44  1  0.99541518  0.53994336  0.88971176  1
  O  O45  1  0.00458482  0.46005664  0.11028824  1
  O  O46  1  0.77633220  0.49926726  0.99393954  1
  O  O47  1  0.22366780  0.50073274  0.00606046  1
  O  O48  1  0.27502687  0.59292646  0.84364679  1
  O  O49  1  0.72497313  0.40707354  0.15635321  1
  O  O50  1  0.72900552  0.24707144  0.98329540  1
  O  O51  1  0.27099448  0.75292856  0.01670460  1
  O  O52  1  0.75099830  0.08904439  0.81820445  1
  O  O53  1  0.24900170  0.91095561  0.18179555  1
  O  O54  1  0.76581229  0.02526347  0.99977333  1
  O  O55  1  0.23418771  0.97473653  0.00022667  1
  O  O56  1  0.98909635  0.75169366  0.01285706  1
  O  O57  1  0.01090365  0.24830634  0.98714294  1
  O  O58  1  0.74771396  0.59581253  0.83151490  1
  O  O59  1  0.25228604  0.40418747  0.16848510  1
