# generated using pymatgen
data_CsBS3O11
_symmetry_space_group_name_H-M   'P 1'
_cell_length_a   8.47923128
_cell_length_b   10.75544757
_cell_length_c   11.72039845
_cell_angle_alpha   90.00000000
_cell_angle_beta   90.00000000
_cell_angle_gamma   103.21143304
_symmetry_Int_Tables_number   1
_chemical_formula_structural   CsBS3O11
_chemical_formula_sum   'Cs4 B4 S12 O44'
_cell_volume   1040.58644470
_cell_formula_units_Z   4
loop_
 _symmetry_equiv_pos_site_id
 _symmetry_equiv_pos_as_xyz
  1  'x, y, z'
loop_
 _atom_site_type_symbol
 _atom_site_label
 _atom_site_symmetry_multiplicity
 _atom_site_fract_x
 _atom_site_fract_y
 _atom_site_fract_z
 _atom_site_occupancy
  Cs  Cs0  1  0.55749013  0.24217277  0.36926581  1
  Cs  Cs1  1  0.94250987  0.75782723  0.86926581  1
  Cs  Cs2  1  0.44250987  0.75782723  0.63073419  1
  Cs  Cs3  1  0.05749013  0.24217277  0.13073419  1
  B  B4  1  0.43651473  0.32322281  0.77798118  1
  B  B5  1  0.06348527  0.67677719  0.27798118  1
  B  B6  1  0.56348527  0.67677719  0.22201882  1
  B  B7  1  0.93651473  0.32322281  0.72201882  1
  S  S8  1  0.70435781  0.45334587  0.66254491  1
  S  S9  1  0.79564219  0.54665413  0.16254491  1
  S  S10  1  0.29564219  0.54665413  0.33745509  1
  S  S11  1  0.20435781  0.45334587  0.83745509  1
  S  S12  1  0.95069263  0.76507667  0.47723457  1
  S  S13  1  0.54930737  0.23492333  0.97723457  1
  S  S14  1  0.04930737  0.23492333  0.52276543  1
  S  S15  1  0.45069263  0.76507667  0.02276543  1
  S  S16  1  0.19831797  0.92288442  0.34034311  1
  S  S17  1  0.30168203  0.07711558  0.84034311  1
  S  S18  1  0.80168203  0.07711558  0.65965689  1
  S  S19  1  0.69831797  0.92288442  0.15965689  1
  O  O20  1  0.74133701  0.44798599  0.54335645  1
  O  O21  1  0.75866299  0.55201401  0.04335645  1
  O  O22  1  0.25866299  0.55201401  0.45664355  1
  O  O23  1  0.24133701  0.44798599  0.95664355  1
  O  O24  1  0.32351139  0.43048014  0.28940402  1
  O  O25  1  0.17648861  0.56951986  0.78940402  1
  O  O26  1  0.67648861  0.56951986  0.71059598  1
  O  O27  1  0.82351139  0.43048014  0.21059598  1
  O  O28  1  0.21795774  0.23739562  0.51553491  1
  O  O29  1  0.28204226  0.76260438  0.01553491  1
  O  O30  1  0.78204226  0.76260438  0.48446509  1
  O  O31  1  0.71795774  0.23739562  0.98446509  1
  O  O32  1  0.95516705  0.23478979  0.42143946  1
  O  O33  1  0.54483295  0.76521021  0.92143946  1
  O  O34  1  0.04483295  0.76521021  0.57856054  1
  O  O35  1  0.45516705  0.23478979  0.07856054  1
  O  O36  1  0.32265050  0.91937124  0.42244717  1
  O  O37  1  0.17734950  0.08062876  0.92244717  1
  O  O38  1  0.67734950  0.08062876  0.57755283  1
  O  O39  1  0.82265050  0.91937124  0.07755283  1
  O  O40  1  0.20614569  0.03610236  0.27443740  1
  O  O41  1  0.29385431  0.96389764  0.77443740  1
  O  O42  1  0.79385431  0.96389764  0.72556260  1
  O  O43  1  0.70614569  0.03610236  0.22556260  1
  O  O44  1  0.55593083  0.33870497  0.68478948  1
  O  O45  1  0.94406917  0.66129503  0.18478948  1
  O  O46  1  0.44406917  0.66129503  0.31521052  1
  O  O47  1  0.05593083  0.33870497  0.81521052  1
  O  O48  1  0.65718490  0.57946664  0.23690321  1
  O  O49  1  0.84281510  0.42053336  0.73690321  1
  O  O50  1  0.34281510  0.42053336  0.76309679  1
  O  O51  1  0.15718490  0.57946664  0.26309679  1
  O  O52  1  0.98447902  0.66512201  0.39248755  1
  O  O53  1  0.51552098  0.33487799  0.89248755  1
  O  O54  1  0.01552098  0.33487799  0.60751245  1
  O  O55  1  0.48447902  0.66512201  0.10751245  1
  O  O56  1  0.16986424  0.80680119  0.26008081  1
  O  O57  1  0.33013576  0.19319881  0.76008081  1
  O  O58  1  0.83013576  0.19319881  0.73991919  1
  O  O59  1  0.66986424  0.80680119  0.23991919  1
  O  O60  1  0.02336090  0.90087866  0.40591450  1
  O  O61  1  0.47663910  0.09912134  0.90591450  1
  O  O62  1  0.97663910  0.09912134  0.59408550  1
  O  O63  1  0.52336090  0.90087866  0.09408550  1
