# generated using pymatgen
data_RbEu(PO3)4
_symmetry_space_group_name_H-M   'P 1'
_cell_length_a   10.65966301
_cell_length_b   9.15081565
_cell_length_c   11.19317417
_cell_angle_alpha   90.00000000
_cell_angle_beta   106.73758203
_cell_angle_gamma   90.00000000
_symmetry_Int_Tables_number   1
_chemical_formula_structural   RbEu(PO3)4
_chemical_formula_sum   'Rb4 Eu4 P16 O48'
_cell_volume   1045.57697162
_cell_formula_units_Z   4
loop_
 _symmetry_equiv_pos_site_id
 _symmetry_equiv_pos_as_xyz
  1  'x, y, z'
loop_
 _atom_site_type_symbol
 _atom_site_label
 _atom_site_symmetry_multiplicity
 _atom_site_fract_x
 _atom_site_fract_y
 _atom_site_fract_z
 _atom_site_occupancy
  Eu  Eu0  1  0.99977597  0.72625487  0.31585142  1
  Eu  Eu1  1  0.49977597  0.77374513  0.81585142  1
  Eu  Eu2  1  0.00022403  0.27374513  0.68414858  1
  Eu  Eu3  1  0.50022403  0.22625487  0.18414858  1
  Rb  Rb4  1  0.79934998  0.43427116  0.04144997  1
  Rb  Rb5  1  0.29934998  0.06572884  0.54144997  1
  Rb  Rb6  1  0.20065002  0.56572884  0.95855003  1
  Rb  Rb7  1  0.70065002  0.93427116  0.45855003  1
  P  P8  1  0.04008640  0.32707375  0.36033857  1
  P  P9  1  0.54008640  0.17292625  0.86033857  1
  P  P10  1  0.95991360  0.67292625  0.63966143  1
  P  P11  1  0.45991360  0.82707375  0.13966143  1
  P  P12  1  0.75085125  0.52841913  0.72361976  1
  P  P13  1  0.25085125  0.97158087  0.22361976  1
  P  P14  1  0.24914875  0.47158087  0.27638024  1
  P  P15  1  0.74914875  0.02841913  0.77638024  1
  P  P16  1  0.82262078  0.89675889  0.02165860  1
  P  P17  1  0.32262078  0.60324111  0.52165860  1
  P  P18  1  0.17737922  0.10324111  0.97834140  1
  P  P19  1  0.67737922  0.39675889  0.47834140  1
  P  P20  1  0.85591766  0.09409102  0.24040008  1
  P  P21  1  0.35591766  0.40590898  0.74040008  1
  P  P22  1  0.14408234  0.90590898  0.75959992  1
  P  P23  1  0.64408234  0.59409102  0.25959992  1
  O  O24  1  0.67404903  0.59510921  0.80272892  1
  O  O25  1  0.17404903  0.90489079  0.30272892  1
  O  O26  1  0.32595097  0.40489079  0.19727108  1
  O  O27  1  0.82595097  0.09510921  0.69727108  1
  O  O28  1  0.64506645  0.45867615  0.60163594  1
  O  O29  1  0.14506645  0.04132385  0.10163594  1
  O  O30  1  0.35493355  0.54132385  0.39836406  1
  O  O31  1  0.85493355  0.95867615  0.89836406  1
  O  O32  1  0.85401536  0.41810172  0.78549497  1
  O  O33  1  0.35401536  0.08189828  0.28549497  1
  O  O34  1  0.14598464  0.58189828  0.21450503  1
  O  O35  1  0.64598464  0.91810172  0.71450503  1
  O  O36  1  0.96384621  0.46635185  0.32580641  1
  O  O37  1  0.46384621  0.03364815  0.82580641  1
  O  O38  1  0.03615379  0.53364815  0.67419359  1
  O  O39  1  0.53615379  0.96635185  0.17419359  1
  O  O40  1  0.18410946  0.65824972  0.48496041  1
  O  O41  1  0.68410946  0.84175028  0.98496041  1
  O  O42  1  0.81589054  0.34175028  0.51503959  1
  O  O43  1  0.31589054  0.15824972  0.01503959  1
  O  O44  1  0.92791224  0.79314119  0.09088035  1
  O  O45  1  0.42791224  0.70685881  0.59088035  1
  O  O46  1  0.07208776  0.20685881  0.90911965  1
  O  O47  1  0.57208776  0.29314119  0.40911965  1
  O  O48  1  0.93759336  0.74121122  0.51387128  1
  O  O49  1  0.43759336  0.75878878  0.01387128  1
  O  O50  1  0.06240664  0.25878878  0.48612872  1
  O  O51  1  0.56240664  0.24121122  0.98612872  1
  O  O52  1  0.97567164  0.20811754  0.25146014  1
  O  O53  1  0.47567164  0.29188246  0.75146014  1
  O  O54  1  0.02432836  0.79188246  0.74853986  1
  O  O55  1  0.52432836  0.70811754  0.24853986  1
  O  O56  1  0.83235165  0.05029473  0.09619310  1
  O  O57  1  0.33235165  0.44970527  0.59619310  1
  O  O58  1  0.16764835  0.94970527  0.90380690  1
  O  O59  1  0.66764835  0.55029473  0.40380690  1
  O  O60  1  0.76060164  0.67667548  0.24639310  1
  O  O61  1  0.26060164  0.82332452  0.74639310  1
  O  O62  1  0.23939836  0.32332452  0.75360690  1
  O  O63  1  0.73939836  0.17667548  0.25360690  1
  O  O64  1  0.90223516  0.96443640  0.32363510  1
  O  O65  1  0.40223516  0.53556360  0.82363510  1
  O  O66  1  0.09776484  0.03556360  0.67636490  1
  O  O67  1  0.59776484  0.46443640  0.17636490  1
  O  O68  1  0.81676679  0.65857244  0.66295567  1
  O  O69  1  0.31676679  0.84142756  0.16295567  1
  O  O70  1  0.18323321  0.34142756  0.33704433  1
  O  O71  1  0.68323321  0.15857244  0.83704433  1
