# generated using pymatgen
data_K2NaZn(BO2)5
_symmetry_space_group_name_H-M   'P 1'
_cell_length_a   7.68406946
_cell_length_b   7.68406946
_cell_length_c   19.64192369
_cell_angle_alpha   94.92009779
_cell_angle_beta   94.92009779
_cell_angle_gamma   116.72530150
_symmetry_Int_Tables_number   1
_chemical_formula_structural   K2NaZn(BO2)5
_chemical_formula_sum   'K8 Na4 Zn4 B20 O40'
_cell_volume   1021.92195565
_cell_formula_units_Z   4
loop_
 _symmetry_equiv_pos_site_id
 _symmetry_equiv_pos_as_xyz
  1  'x, y, z'
loop_
 _atom_site_type_symbol
 _atom_site_label
 _atom_site_symmetry_multiplicity
 _atom_site_fract_x
 _atom_site_fract_y
 _atom_site_fract_z
 _atom_site_occupancy
  K  K0  1  0.00237364  0.18243853  0.43772706  1
  K  K1  1  0.81756147  0.99762636  0.06227294  1
  K  K2  1  0.99762636  0.81756147  0.56227294  1
  K  K3  1  0.18243853  0.00237364  0.93772706  1
  K  K4  1  0.45982196  0.62138307  0.42262836  1
  K  K5  1  0.37861693  0.54017804  0.07737164  1
  K  K6  1  0.54017804  0.37861693  0.57737164  1
  K  K7  1  0.62138307  0.45982196  0.92262836  1
  Na  Na8  1  0.15286152  0.84713848  0.25000000  1
  Na  Na9  1  0.84713848  0.15286152  0.75000000  1
  Na  Na10  1  0.65108677  0.34891323  0.25000000  1
  Na  Na11  1  0.34891323  0.65108677  0.75000000  1
  Zn  Zn12  1  0.95837307  0.63757304  0.38946768  1
  Zn  Zn13  1  0.36242696  0.04162693  0.11053232  1
  Zn  Zn14  1  0.04162693  0.36242696  0.61053232  1
  Zn  Zn15  1  0.63757304  0.95837307  0.88946768  1
  B  B16  1  0.32091861  0.99513333  0.41661275  1
  B  B17  1  0.00486667  0.67908139  0.08338725  1
  B  B18  1  0.67908139  0.00486667  0.58338725  1
  B  B19  1  0.99513333  0.32091861  0.91661275  1
  B  B20  1  0.62940303  0.30267892  0.41868753  1
  B  B21  1  0.69732108  0.37059697  0.08131247  1
  B  B22  1  0.37059697  0.69732108  0.58131247  1
  B  B23  1  0.30267892  0.62940303  0.91868753  1
  B  B24  1  0.56094776  0.00353855  0.33285853  1
  B  B25  1  0.99646145  0.43905224  0.16714147  1
  B  B26  1  0.43905224  0.99646145  0.66714147  1
  B  B27  1  0.00353855  0.56094776  0.83285853  1
  B  B28  1  0.72883314  0.79790931  0.29558833  1
  B  B29  1  0.20209069  0.27116686  0.20441167  1
  B  B30  1  0.27116686  0.20209069  0.70441167  1
  B  B31  1  0.79790931  0.72883314  0.79558833  1
  B  B32  1  0.56732627  0.90454882  0.20620828  1
  B  B33  1  0.09545118  0.43267373  0.29379172  1
  B  B34  1  0.43267373  0.09545118  0.79379172  1
  B  B35  1  0.90454882  0.56732627  0.70620828  1
  O  O36  1  0.14957996  0.89979000  0.44183027  1
  O  O37  1  0.10021000  0.85042004  0.05816973  1
  O  O38  1  0.85042004  0.10021000  0.55816973  1
  O  O39  1  0.89979000  0.14957996  0.94183027  1
  O  O40  1  0.37349166  0.90955879  0.36230961  1
  O  O41  1  0.09044121  0.62650834  0.13769039  1
  O  O42  1  0.62650834  0.09044121  0.63769039  1
  O  O43  1  0.90955879  0.37349166  0.86230961  1
  O  O44  1  0.45119433  0.19326272  0.44556693  1
  O  O45  1  0.80673728  0.54880567  0.05443307  1
  O  O46  1  0.54880567  0.80673728  0.55443307  1
  O  O47  1  0.19326272  0.45119433  0.94556693  1
  O  O48  1  0.67411023  0.21244626  0.36372011  1
  O  O49  1  0.78755374  0.32588977  0.13627989  1
  O  O50  1  0.32588977  0.78755374  0.63627989  1
  O  O51  1  0.21244626  0.67411023  0.86372011  1
  O  O52  1  0.74613806  0.49210236  0.44682289  1
  O  O53  1  0.50789764  0.25386194  0.05317711  1
  O  O54  1  0.25386194  0.50789764  0.55317711  1
  O  O55  1  0.49210236  0.74613806  0.94682289  1
  O  O56  1  0.67926646  0.89838452  0.34681220  1
  O  O57  1  0.10161548  0.32073354  0.15318780  1
  O  O58  1  0.32073354  0.10161548  0.65318780  1
  O  O59  1  0.89838452  0.67926646  0.84681220  1
  O  O60  1  0.51266406  0.99562068  0.25835601  1
  O  O61  1  0.00437932  0.48733594  0.24164399  1
  O  O62  1  0.48733594  0.00437932  0.74164399  1
  O  O63  1  0.99562068  0.51266406  0.75835601  1
  O  O64  1  0.67441847  0.80366788  0.22533923  1
  O  O65  1  0.19633212  0.32558153  0.27466077  1
  O  O66  1  0.32558153  0.19633212  0.77466077  1
  O  O67  1  0.80366788  0.67441847  0.72533923  1
  O  O68  1  0.82510630  0.69304283  0.30915736  1
  O  O69  1  0.30695717  0.17489370  0.19084264  1
  O  O70  1  0.17489370  0.30695717  0.69084264  1
  O  O71  1  0.69304283  0.82510630  0.80915736  1
  O  O72  1  0.51941986  0.90751379  0.13896711  1
  O  O73  1  0.09248621  0.48058014  0.36103289  1
  O  O74  1  0.48058014  0.09248621  0.86103289  1
  O  O75  1  0.90751379  0.51941986  0.63896711  1
