# generated using pymatgen
data_K2Na3P3O10
_symmetry_space_group_name_H-M   'P 1'
_cell_length_a   5.70251479
_cell_length_b   5.76011472
_cell_length_c   18.89277947
_cell_angle_alpha   95.37117093
_cell_angle_beta   90.00000000
_cell_angle_gamma   119.66976311
_symmetry_Int_Tables_number   1
_chemical_formula_structural   K2Na3P3O10
_chemical_formula_sum   'K4 Na6 P6 O20'
_cell_volume   536.07389464
_cell_formula_units_Z   2
loop_
 _symmetry_equiv_pos_site_id
 _symmetry_equiv_pos_as_xyz
  1  'x, y, z'
loop_
 _atom_site_type_symbol
 _atom_site_label
 _atom_site_symmetry_multiplicity
 _atom_site_fract_x
 _atom_site_fract_y
 _atom_site_fract_z
 _atom_site_occupancy
  K  K0  1  0.17762448  0.81105519  0.92262045  1
  K  K1  1  0.36656929  0.18894481  0.57737955  1
  K  K2  1  0.82237552  0.18894481  0.07737955  1
  K  K3  1  0.63343071  0.81105519  0.42262045  1
  Na  Na4  1  0.47359984  0.56344096  0.17226868  1
  Na  Na5  1  0.91015889  0.43655904  0.32773132  1
  Na  Na6  1  0.52640016  0.43655904  0.82773132  1
  Na  Na7  1  0.08984111  0.56344096  0.67226868  1
  Na  Na8  1  0.50000000  0.50000000  0.00000000  1
  Na  Na9  1  0.00000000  0.50000000  0.50000000  1
  P  P10  1  0.16134039  0.86431861  0.10131236  1
  P  P11  1  0.29702178  0.13568139  0.39868764  1
  P  P12  1  0.83865961  0.13568139  0.89868764  1
  P  P13  1  0.70297822  0.86431861  0.60131236  1
  P  P14  1  0.09562915  1.00000000  0.25000000  1
  P  P15  1  0.90437085  0.00000000  0.75000000  1
  O  O16  1  0.29730339  0.14595546  0.07687231  1
  O  O17  1  0.15134793  0.85404454  0.42312769  1
  O  O18  1  0.70269661  0.85404454  0.92312769  1
  O  O19  1  0.84865207  0.14595546  0.57687231  1
  O  O20  1  0.28989268  0.69787001  0.07339293  1
  O  O21  1  0.59202267  0.30212999  0.42660707  1
  O  O22  1  0.71010732  0.30212999  0.92660707  1
  O  O23  1  0.40797733  0.69787001  0.57339293  1
  O  O24  1  0.85276315  0.71503220  0.09365314  1
  O  O25  1  0.13773095  0.28496780  0.40634686  1
  O  O26  1  0.14723685  0.28496780  0.90634686  1
  O  O27  1  0.86226905  0.71503220  0.59365314  1
  O  O28  1  0.24129053  0.90963783  0.18873540  1
  O  O29  1  0.33165270  0.09036217  0.31126460  1
  O  O30  1  0.75870947  0.09036217  0.81126460  1
  O  O31  1  0.66834730  0.90963783  0.68873540  1
  O  O32  1  0.07827564  0.24103301  0.23081557  1
  O  O33  1  0.83724263  0.75896699  0.26918443  1
  O  O34  1  0.92172436  0.75896699  0.76918443  1
  O  O35  1  0.16275737  0.24103301  0.73081557  1
