# generated using pymatgen
data_La2(SiO3)3
_symmetry_space_group_name_H-M   'P 1'
_cell_length_a   7.59960399
_cell_length_b   8.68291250
_cell_length_c   5.56409100
_cell_angle_alpha   108.20598109
_cell_angle_beta   91.72528869
_cell_angle_gamma   108.20772922
_symmetry_Int_Tables_number   1
_chemical_formula_structural   La2(SiO3)3
_chemical_formula_sum   'La4 Si6 O18'
_cell_volume   327.97674295
_cell_formula_units_Z   2
loop_
 _symmetry_equiv_pos_site_id
 _symmetry_equiv_pos_as_xyz
  1  'x, y, z'
loop_
 _atom_site_type_symbol
 _atom_site_label
 _atom_site_symmetry_multiplicity
 _atom_site_fract_x
 _atom_site_fract_y
 _atom_site_fract_z
 _atom_site_occupancy
  La  La0  1  0.18344165  0.58360239  0.80709933  1
  La  La1  1  0.20395882  0.21777523  0.13224519  1
  La  La2  1  0.79604118  0.78222477  0.86775481  1
  La  La3  1  0.81655835  0.41639761  0.19290067  1
  Si  Si4  1  0.07699214  0.85950534  0.42991155  1
  Si  Si5  1  0.48745578  0.99783254  0.76293189  1
  Si  Si6  1  0.48123579  0.66792214  0.33973469  1
  Si  Si7  1  0.51876421  0.33207786  0.66026531  1
  Si  Si8  1  0.51254422  0.00216746  0.23706811  1
  Si  Si9  1  0.92300786  0.14049466  0.57008845  1
  O  O10  1  0.00614494  0.99897725  0.70072155  1
  O  O11  1  0.01554937  0.70983542  0.13184835  1
  O  O12  1  0.03076458  0.70585905  0.57420417  1
  O  O13  1  0.33373789  0.95599411  0.98676897  1
  O  O14  1  0.32313049  0.95244122  0.47087213  1
  O  O15  1  0.28681119  0.51463484  0.20415064  1
  O  O16  1  0.33776329  0.38504581  0.62265183  1
  O  O17  1  0.46957769  0.77843156  0.63927222  1
  O  O18  1  0.50966531  0.78622213  0.14902969  1
  O  O19  1  0.49033469  0.21377787  0.85097031  1
  O  O20  1  0.53042231  0.22156844  0.36072778  1
  O  O21  1  0.66223671  0.61495419  0.37734817  1
  O  O22  1  0.71318881  0.48536516  0.79584936  1
  O  O23  1  0.67686951  0.04755878  0.52912787  1
  O  O24  1  0.66626211  0.04400589  0.01323103  1
  O  O25  1  0.96923542  0.29414095  0.42579583  1
  O  O26  1  0.98445063  0.29016458  0.86815165  1
  O  O27  1  0.99385506  0.00102275  0.29927845  1
