# generated using pymatgen
data_K3Zn(BO2)5
_symmetry_space_group_name_H-M   'P 1'
_cell_length_a   7.77167424
_cell_length_b   19.48901251
_cell_length_c   7.80934575
_cell_angle_alpha   90.00000000
_cell_angle_beta   116.65399207
_cell_angle_gamma   90.00000000
_symmetry_Int_Tables_number   1
_chemical_formula_structural   K3Zn(BO2)5
_chemical_formula_sum   'K12 Zn4 B20 O40'
_cell_volume   1057.12497326
_cell_formula_units_Z   4
loop_
 _symmetry_equiv_pos_site_id
 _symmetry_equiv_pos_as_xyz
  1  'x, y, z'
loop_
 _atom_site_type_symbol
 _atom_site_label
 _atom_site_symmetry_multiplicity
 _atom_site_fract_x
 _atom_site_fract_y
 _atom_site_fract_z
 _atom_site_occupancy
  K  K0  1  0.35084669  0.57911578  0.01307669  1
  K  K1  1  0.85084669  0.92088422  0.51307669  1
  K  K2  1  0.64915331  0.42088422  0.98692331  1
  K  K3  1  0.14915331  0.07911578  0.48692331  1
  K  K4  1  0.78982790  0.56266077  0.46984892  1
  K  K5  1  0.28982790  0.93733923  0.96984892  1
  K  K6  1  0.21017210  0.43733923  0.53015108  1
  K  K7  1  0.71017210  0.06266077  0.03015108  1
  K  K8  1  0.53606418  0.75370871  0.77712803  1
  K  K9  1  0.03606418  0.74629129  0.27712803  1
  K  K10  1  0.46393582  0.24629129  0.22287197  1
  K  K11  1  0.96393582  0.25370871  0.72287197  1
  Zn  Zn12  1  0.32214707  0.60699577  0.49495406  1
  Zn  Zn13  1  0.82214707  0.89300423  0.99495406  1
  Zn  Zn14  1  0.67785293  0.39300423  0.50504594  1
  Zn  Zn15  1  0.17785293  0.10699577  0.00504594  1
  B  B16  1  0.96993943  0.57871895  0.14411530  1
  B  B17  1  0.46993943  0.92128105  0.64411530  1
  B  B18  1  0.03006057  0.42128105  0.85588470  1
  B  B19  1  0.53006057  0.07871895  0.35588470  1
  B  B20  1  0.92831681  0.66148264  0.87487899  1
  B  B21  1  0.42831681  0.83851736  0.37487899  1
  B  B22  1  0.07168319  0.33851736  0.12512101  1
  B  B23  1  0.57168319  0.16148264  0.62512101  1
  B  B24  1  0.48578421  0.71217079  0.32779595  1
  B  B25  1  0.98578421  0.78782921  0.82779595  1
  B  B26  1  0.51421579  0.28782921  0.67220405  1
  B  B27  1  0.01421579  0.21217079  0.17220405  1
  B  B28  1  0.66487507  0.57752886  0.84040469  1
  B  B29  1  0.16487507  0.92247114  0.34040469  1
  B  B30  1  0.33512493  0.42247114  0.15959531  1
  B  B31  1  0.83512493  0.07752886  0.65959531  1
  B  B32  1  0.11575917  0.69670687  0.69481071  1
  B  B33  1  0.61575917  0.80329313  0.19481071  1
  B  B34  1  0.88424083  0.30329313  0.30518929  1
  B  B35  1  0.38424083  0.19670687  0.80518929  1
  O  O36  1  0.46237808  0.64487607  0.35354404  1
  O  O37  1  0.96237808  0.85512393  0.85354404  1
  O  O38  1  0.53762192  0.35512393  0.64645596  1
  O  O39  1  0.03762192  0.14487607  0.14645596  1
  O  O40  1  0.07747859  0.55550950  0.32449328  1
  O  O41  1  0.57747859  0.94449050  0.82449328  1
  O  O42  1  0.92252141  0.44449050  0.67550672  1
  O  O43  1  0.42252141  0.05550950  0.17550672  1
  O  O44  1  0.22365761  0.68026981  0.60668786  1
  O  O45  1  0.72365761  0.81973019  0.10668786  1
  O  O46  1  0.77634239  0.31973019  0.39331214  1
  O  O47  1  0.27634239  0.18026981  0.89331214  1
  O  O48  1  0.53557105  0.86997458  0.56632378  1
  O  O49  1  0.03557105  0.63002542  0.06632378  1
  O  O50  1  0.46442895  0.13002542  0.43367622  1
  O  O51  1  0.96442895  0.36997458  0.93367622  1
  O  O52  1  0.48943074  0.54955215  0.73075481  1
  O  O53  1  0.98943074  0.95044785  0.23075481  1
  O  O54  1  0.51056926  0.45044785  0.26924519  1
  O  O55  1  0.01056926  0.04955215  0.76924519  1
  O  O56  1  0.58799241  0.73256770  0.22320158  1
  O  O57  1  0.08799241  0.76743230  0.72320158  1
  O  O58  1  0.41200759  0.26743230  0.77679842  1
  O  O59  1  0.91200759  0.23256770  0.27679842  1
  O  O60  1  0.03282009  0.64685692  0.76063477  1
  O  O61  1  0.53282009  0.85314308  0.26063477  1
  O  O62  1  0.96717991  0.35314308  0.23936523  1
  O  O63  1  0.46717991  0.14685692  0.73936523  1
  O  O64  1  0.91299809  0.73599002  0.89794140  1
  O  O65  1  0.41299809  0.76400998  0.39794140  1
  O  O66  1  0.08700191  0.26400998  0.10205860  1
  O  O67  1  0.58700191  0.23599002  0.60205860  1
  O  O68  1  0.21959145  0.44785588  0.96992276  1
  O  O69  1  0.71959145  0.05214412  0.46992276  1
  O  O70  1  0.78040855  0.55214412  0.03007724  1
  O  O71  1  0.28040855  0.94785588  0.53007724  1
  O  O72  1  0.73334588  0.63187923  0.77615316  1
  O  O73  1  0.23334588  0.86812077  0.27615316  1
  O  O74  1  0.26665412  0.36812077  0.22384684  1
  O  O75  1  0.76665412  0.13187923  0.72384684  1
