# generated using pymatgen
data_K2La2B2O7
_symmetry_space_group_name_H-M   'P 1'
_cell_length_a   11.50475418
_cell_length_b   6.73283582
_cell_length_c   10.91604484
_cell_angle_alpha   90.00000000
_cell_angle_beta   117.11524476
_cell_angle_gamma   90.00000000
_symmetry_Int_Tables_number   1
_chemical_formula_structural   K2La2B2O7
_chemical_formula_sum   'K8 La8 B8 O28'
_cell_volume   752.61932339
_cell_formula_units_Z   4
loop_
 _symmetry_equiv_pos_site_id
 _symmetry_equiv_pos_as_xyz
  1  'x, y, z'
loop_
 _atom_site_type_symbol
 _atom_site_label
 _atom_site_symmetry_multiplicity
 _atom_site_fract_x
 _atom_site_fract_y
 _atom_site_fract_z
 _atom_site_occupancy
  K  K0  1  0.96769211  0.93825777  0.73520698  1
  K  K1  1  0.03230789  0.43825777  0.76479302  1
  K  K2  1  0.03230789  0.06174223  0.26479302  1
  K  K3  1  0.96769211  0.56174223  0.23520698  1
  K  K4  1  0.11763437  0.75524533  0.55495205  1
  K  K5  1  0.88236563  0.25524533  0.94504795  1
  K  K6  1  0.88236563  0.24475467  0.44504795  1
  K  K7  1  0.11763437  0.74475467  0.05495205  1
  La  La8  1  0.51874601  0.45388271  0.81965853  1
  La  La9  1  0.48125399  0.95388271  0.68034147  1
  La  La10  1  0.48125399  0.54611729  0.18034147  1
  La  La11  1  0.51874601  0.04611729  0.31965853  1
  La  La12  1  0.32220908  0.08232215  0.91512568  1
  La  La13  1  0.67779092  0.58232215  0.58487432  1
  La  La14  1  0.67779092  0.91767785  0.08487432  1
  La  La15  1  0.32220908  0.41767785  0.41512568  1
  B  B16  1  0.19491540  0.25282926  0.58835754  1
  B  B17  1  0.80508460  0.75282926  0.91164246  1
  B  B18  1  0.80508460  0.74717074  0.41164246  1
  B  B19  1  0.19491540  0.24717074  0.08835754  1
  B  B20  1  0.30370106  0.65410258  0.85446122  1
  B  B21  1  0.69629894  0.15410258  0.64553878  1
  B  B22  1  0.69629894  0.34589742  0.14553878  1
  B  B23  1  0.30370106  0.84589742  0.35446122  1
  O  O24  1  0.12217916  0.34974052  0.46442576  1
  O  O25  1  0.87782084  0.84974052  0.03557424  1
  O  O26  1  0.87782084  0.65025948  0.53557424  1
  O  O27  1  0.12217916  0.15025948  0.96442576  1
  O  O28  1  0.14157634  0.15296381  0.66150097  1
  O  O29  1  0.85842366  0.65296381  0.83849903  1
  O  O30  1  0.85842366  0.84703619  0.33849903  1
  O  O31  1  0.14157634  0.34703619  0.16150097  1
  O  O32  1  0.35073556  0.46737094  0.91221364  1
  O  O33  1  0.64926444  0.96737094  0.58778636  1
  O  O34  1  0.64926444  0.53262906  0.08778636  1
  O  O35  1  0.35073556  0.03262906  0.41221364  1
  O  O36  1  0.19938469  0.74590204  0.85939222  1
  O  O37  1  0.80061531  0.24590204  0.64060778  1
  O  O38  1  0.80061531  0.25409796  0.14060778  1
  O  O39  1  0.19938469  0.75409796  0.35939222  1
  O  O40  1  0.63368371  0.25206534  0.71286407  1
  O  O41  1  0.36631629  0.75206534  0.78713593  1
  O  O42  1  0.36631629  0.74793466  0.28713593  1
  O  O43  1  0.63368371  0.24793466  0.21286407  1
  O  O44  1  0.52692645  0.11983481  0.90232602  1
  O  O45  1  0.47307355  0.61983481  0.59767398  1
  O  O46  1  0.47307355  0.88016519  0.09767398  1
  O  O47  1  0.52692645  0.38016519  0.40232602  1
  O  O48  1  0.33289329  0.25736787  0.63880058  1
  O  O49  1  0.66710671  0.75736787  0.86119942  1
  O  O50  1  0.66710671  0.74263213  0.36119942  1
  O  O51  1  0.33289329  0.24263213  0.13880058  1
