# generated using pymatgen
data_K3B(SO4)3
_symmetry_space_group_name_H-M   'P 1'
_cell_length_a   7.21334466
_cell_length_b   14.01503622
_cell_length_c   14.01503622
_cell_angle_alpha   62.80681247
_cell_angle_beta   75.08753296
_cell_angle_gamma   75.08753296
_symmetry_Int_Tables_number   1
_chemical_formula_structural   K3B(SO4)3
_chemical_formula_sum   'K12 B4 S12 O48'
_cell_volume   1201.60278083
_cell_formula_units_Z   4
loop_
 _symmetry_equiv_pos_site_id
 _symmetry_equiv_pos_as_xyz
  1  'x, y, z'
loop_
 _atom_site_type_symbol
 _atom_site_label
 _atom_site_symmetry_multiplicity
 _atom_site_fract_x
 _atom_site_fract_y
 _atom_site_fract_z
 _atom_site_occupancy
  K  K0  1  0.17875378  0.06268325  0.29572389  1
  K  K1  1  0.03716093  0.43731675  0.20427611  1
  K  K2  1  0.32124622  0.70427611  0.93731675  1
  K  K3  1  0.46283907  0.79572389  0.56268325  1
  K  K4  1  0.82124622  0.93731675  0.70427611  1
  K  K5  1  0.96283907  0.56268325  0.79572389  1
  K  K6  1  0.67875378  0.29572389  0.06268325  1
  K  K7  1  0.53716093  0.20427611  0.43731675  1
  K  K8  1  0.75000000  0.44062915  0.55937085  1
  K  K9  1  0.25000000  0.05937085  0.94062915  1
  K  K10  1  0.25000000  0.55937085  0.44062915  1
  K  K11  1  0.75000000  0.94062915  0.05937085  1
  B  B12  1  0.08230992  0.16769008  0.66769008  1
  B  B13  1  0.41769008  0.33230992  0.83230992  1
  B  B14  1  0.91769008  0.83230992  0.33230992  1
  B  B15  1  0.58230992  0.66769008  0.16769008  1
  S  S16  1  0.00864534  0.22159171  0.46500663  1
  S  S17  1  0.19524368  0.27840829  0.03499337  1
  S  S18  1  0.49135466  0.53499337  0.77840829  1
  S  S19  1  0.30475632  0.96500663  0.72159171  1
  S  S20  1  0.99135466  0.77840829  0.53499337  1
  S  S21  1  0.80475632  0.72159171  0.96500663  1
  S  S22  1  0.50864534  0.46500663  0.22159171  1
  S  S23  1  0.69524368  0.03499337  0.27840829  1
  S  S24  1  0.75000000  0.18567273  0.81432727  1
  S  S25  1  0.25000000  0.31432727  0.68567273  1
  S  S26  1  0.25000000  0.81432727  0.18567273  1
  S  S27  1  0.75000000  0.68567273  0.31432727  1
  O  O28  1  0.10438892  0.05024440  0.71932889  1
  O  O29  1  0.37396221  0.44975560  0.78067111  1
  O  O30  1  0.39561108  0.28067111  0.94975560  1
  O  O31  1  0.12603779  0.21932889  0.55024440  1
  O  O32  1  0.89561108  0.94975560  0.28067111  1
  O  O33  1  0.62603779  0.55024440  0.21932889  1
  O  O34  1  0.60438892  0.71932889  0.05024440  1
  O  O35  1  0.87396221  0.78067111  0.44975560  1
  O  O36  1  0.16457299  0.21732625  0.37566726  1
  O  O37  1  0.25756650  0.28267375  0.12433274  1
  O  O38  1  0.33542701  0.62433274  0.78267375  1
  O  O39  1  0.24243350  0.87566726  0.71732625  1
  O  O40  1  0.83542701  0.78267375  0.62433274  1
  O  O41  1  0.74243350  0.71732625  0.87566726  1
  O  O42  1  0.66457299  0.37566726  0.21732625  1
  O  O43  1  0.75756650  0.12433274  0.28267375  1
  O  O44  1  0.37321778  0.89337745  0.15838644  1
  O  O45  1  0.92498167  0.60662255  0.34161356  1
  O  O46  1  0.12678222  0.84161356  0.10662255  1
  O  O47  1  0.57501833  0.65838644  0.39337745  1
  O  O48  1  0.62678222  0.10662255  0.84161356  1
  O  O49  1  0.07501833  0.39337745  0.65838644  1
  O  O50  1  0.87321778  0.15838644  0.89337745  1
  O  O51  1  0.42498167  0.34161356  0.60662255  1
  O  O52  1  0.87195660  0.21075757  0.69954630  1
  O  O53  1  0.28226046  0.28924243  0.80045370  1
  O  O54  1  0.62804340  0.30045370  0.78924243  1
  O  O55  1  0.21773954  0.19954630  0.71075757  1
  O  O56  1  0.12804340  0.78924243  0.30045370  1
  O  O57  1  0.71773954  0.71075757  0.19954630  1
  O  O58  1  0.37195660  0.69954630  0.21075757  1
  O  O59  1  0.78226046  0.80045370  0.28924243  1
  O  O60  1  0.87638443  0.32636707  0.43417132  1
  O  O61  1  0.13692281  0.17363293  0.06582868  1
  O  O62  1  0.62361557  0.56582868  0.67363293  1
  O  O63  1  0.36307719  0.93417132  0.82636707  1
  O  O64  1  0.12361557  0.67363293  0.56582868  1
  O  O65  1  0.86307719  0.82636707  0.93417132  1
  O  O66  1  0.37638443  0.43417132  0.32636707  1
  O  O67  1  0.63692281  0.06582868  0.17363293  1
  O  O68  1  0.90707535  0.12768965  0.51946709  1
  O  O69  1  0.05423209  0.37231035  0.98053291  1
  O  O70  1  0.59292465  0.48053291  0.87231035  1
  O  O71  1  0.44576791  0.01946709  0.62768965  1
  O  O72  1  0.09292465  0.87231035  0.48053291  1
  O  O73  1  0.94576791  0.62768965  0.01946709  1
  O  O74  1  0.40707535  0.51946709  0.12768965  1
  O  O75  1  0.55423209  0.98053291  0.37231035  1
