# generated using pymatgen
data_K2Si(S2O7)3
_symmetry_space_group_name_H-M   'P 1'
_cell_length_a   9.63360193
_cell_length_b   11.30677812
_cell_length_c   16.81939048
_cell_angle_alpha   92.35433007
_cell_angle_beta   90.00000000
_cell_angle_gamma   90.00000000
_symmetry_Int_Tables_number   1
_chemical_formula_structural   K2Si(S2O7)3
_chemical_formula_sum   'K8 Si4 S24 O84'
_cell_volume   1830.50564919
_cell_formula_units_Z   4
loop_
 _symmetry_equiv_pos_site_id
 _symmetry_equiv_pos_as_xyz
  1  'x, y, z'
loop_
 _atom_site_type_symbol
 _atom_site_label
 _atom_site_symmetry_multiplicity
 _atom_site_fract_x
 _atom_site_fract_y
 _atom_site_fract_z
 _atom_site_occupancy
  K  K0  1  0.49189380  0.43718382  0.63914829  1
  K  K1  1  0.00810620  0.93718382  0.13914829  1
  K  K2  1  0.50810620  0.56281618  0.36085171  1
  K  K3  1  0.99189380  0.06281618  0.86085171  1
  K  K4  1  0.50302814  0.90485959  0.68472428  1
  K  K5  1  0.99697186  0.40485959  0.18472428  1
  K  K6  1  0.49697186  0.09514041  0.31527572  1
  K  K7  1  0.00302814  0.59514041  0.81527572  1
  Si  Si8  1  0.50128145  0.26724514  0.99709184  1
  Si  Si9  1  0.99871855  0.76724514  0.49709184  1
  Si  Si10  1  0.49871855  0.73275486  0.00290816  1
  Si  Si11  1  0.00128145  0.23275486  0.50290816  1
  S  S12  1  0.24131248  0.14791848  0.60353300  1
  S  S13  1  0.25868752  0.64791848  0.10353300  1
  S  S14  1  0.75868752  0.85208152  0.39646700  1
  S  S15  1  0.74131248  0.35208152  0.89646700  1
  S  S16  1  0.78455795  0.67314835  0.61831084  1
  S  S17  1  0.71544205  0.17314835  0.11831084  1
  S  S18  1  0.21544205  0.32685165  0.38168916  1
  S  S19  1  0.28455795  0.82685165  0.88168916  1
  S  S20  1  0.57854441  0.16023592  0.82959811  1
  S  S21  1  0.92145559  0.66023592  0.32959811  1
  S  S22  1  0.42145559  0.83976408  0.17040189  1
  S  S23  1  0.07854441  0.33976408  0.67040189  1
  S  S24  1  0.28525469  0.67275882  0.55234082  1
  S  S25  1  0.21474531  0.17275882  0.05234082  1
  S  S26  1  0.71474531  0.32724118  0.44765918  1
  S  S27  1  0.78525469  0.82724118  0.94765918  1
  S  S28  1  0.46561815  0.63619708  0.83144980  1
  S  S29  1  0.03438185  0.13619708  0.33144980  1
  S  S30  1  0.53438185  0.36380292  0.16855020  1
  S  S31  1  0.96561815  0.86380292  0.66855020  1
  S  S32  1  0.72329455  0.15733901  0.56947099  1
  S  S33  1  0.77670545  0.65733901  0.06947099  1
  S  S34  1  0.27670545  0.84266099  0.43052901  1
  S  S35  1  0.22329455  0.34266099  0.93052901  1
  O  O36  1  0.54682747  0.71704931  0.78711793  1
  O  O37  1  0.95317253  0.21704931  0.28711793  1
  O  O38  1  0.45317253  0.28295069  0.21288207  1
  O  O39  1  0.04682747  0.78295069  0.71288207  1
  O  O40  1  0.13092420  0.67158445  0.53391159  1
  O  O41  1  0.36907580  0.17158445  0.03391159  1
  O  O42  1  0.86907580  0.32841555  0.46608841  1
  O  O43  1  0.63092420  0.82841555  0.96608841  1
  O  O44  1  0.51155569  0.63282767  0.91773907  1
  O  O45  1  0.98844431  0.13282767  0.41773907  1
  O  O46  1  0.48844431  0.36717233  0.08226093  1
  O  O47  1  0.01155569  0.86717233  0.58226093  1
  O  O48  1  0.27398533  0.03273191  0.62980908  1
  O  O49  1  0.22601467  0.53273191  0.12980908  1
  O  O50  1  0.72601467  0.96726809  0.37019092  1
  O  O51  1  0.77398533  0.46726809  0.87019092  1
  O  O52  1  0.87462819  0.67478564  0.54439051  1
  O  O53  1  0.62537181  0.17478564  0.04439051  1
  O  O54  1  0.12537181  0.32521436  0.45560949  1
  O  O55  1  0.37462819  0.82521436  0.95560949  1
  O  O56  1  0.33937139  0.79863136  0.51657274  1
  O  O57  1  0.16062861  0.29863136  0.01657274  1
  O  O58  1  0.66062861  0.20136864  0.48342726  1
  O  O59  1  0.83937139  0.70136864  0.98342726  1
  O  O60  1  0.44117600  0.51884064  0.79992912  1
  O  O61  1  0.05882400  0.01884064  0.29992912  1
  O  O62  1  0.55882400  0.48115936  0.20007088  1
  O  O63  1  0.94117600  0.98115936  0.70007088  1
  O  O64  1  0.51365188  0.16813142  0.91227653  1
  O  O65  1  0.98634812  0.66813142  0.41227653  1
  O  O66  1  0.48634812  0.83186858  0.08772347  1
  O  O67  1  0.01365188  0.33186858  0.58772347  1
  O  O68  1  0.31469484  0.69013150  0.63548248  1
  O  O69  1  0.18530516  0.19013150  0.13548248  1
  O  O70  1  0.68530516  0.30986850  0.36451752  1
  O  O71  1  0.81469484  0.80986850  0.86451752  1
  O  O72  1  0.87672678  0.14140478  0.54969330  1
  O  O73  1  0.62327322  0.64140478  0.04969330  1
  O  O74  1  0.12327322  0.85859522  0.45030670  1
  O  O75  1  0.37672678  0.35859522  0.95030670  1
  O  O76  1  0.65088070  0.29227287  0.82171864  1
  O  O77  1  0.84911930  0.79227287  0.32171864  1
  O  O78  1  0.34911930  0.70772713  0.17828136  1
  O  O79  1  0.15088070  0.20772713  0.67828136  1
  O  O80  1  0.35009195  0.22862484  0.58425735  1
  O  O81  1  0.14990805  0.72862484  0.08425735  1
  O  O82  1  0.64990805  0.77137516  0.41574265  1
  O  O83  1  0.85009195  0.27137516  0.91574265  1
  O  O84  1  0.63957513  0.67447382  0.59909325  1
  O  O85  1  0.86042487  0.17447382  0.09909325  1
  O  O86  1  0.36042487  0.32552618  0.40090675  1
  O  O87  1  0.13957513  0.82552618  0.90090675  1
  O  O88  1  0.66058544  0.04400138  0.57706598  1
  O  O89  1  0.83941456  0.54400138  0.07706598  1
  O  O90  1  0.33941456  0.95599862  0.42293402  1
  O  O91  1  0.16058544  0.45599862  0.92293402  1
  O  O92  1  0.47586096  0.15878263  0.76819588  1
  O  O93  1  0.02413904  0.65878263  0.26819588  1
  O  O94  1  0.52413904  0.84121737  0.23180412  1
  O  O95  1  0.97586096  0.34121737  0.73180412  1
  O  O96  1  0.83446555  0.58757135  0.67210981  1
  O  O97  1  0.66553445  0.08757135  0.17210981  1
  O  O98  1  0.16553445  0.41242865  0.32789019  1
  O  O99  1  0.33446555  0.91242865  0.82789019  1
  O  O100  1  0.80666341  0.80793341  0.65943093  1
  O  O101  1  0.69333659  0.30793341  0.15943093  1
  O  O102  1  0.19333659  0.19206659  0.34056907  1
  O  O103  1  0.30666341  0.69206659  0.84056907  1
  O  O104  1  0.13221087  0.13681865  0.53786932  1
  O  O105  1  0.36778913  0.63681865  0.03786932  1
  O  O106  1  0.86778913  0.86318135  0.46213068  1
  O  O107  1  0.63221087  0.36318135  0.96213068  1
  O  O108  1  0.35176022  0.57586621  0.50924275  1
  O  O109  1  0.14823978  0.07586621  0.00924275  1
  O  O110  1  0.64823978  0.42413379  0.49075725  1
  O  O111  1  0.85176022  0.92413379  0.99075725  1
  O  O112  1  0.69920142  0.25124662  0.62786171  1
  O  O113  1  0.80079858  0.75124662  0.12786171  1
  O  O114  1  0.30079858  0.74875338  0.37213829  1
  O  O115  1  0.19920142  0.24875338  0.87213829  1
  O  O116  1  0.68570860  0.07169169  0.82626737  1
  O  O117  1  0.81429140  0.57169169  0.32626737  1
  O  O118  1  0.31429140  0.92830831  0.17373263  1
  O  O119  1  0.18570860  0.42830831  0.67373263  1
