# generated using pymatgen
data_K2CeAl(SiO3)4
_symmetry_space_group_name_H-M   'P 1'
_cell_length_a   7.46231519
_cell_length_b   14.07806204
_cell_length_c   14.13678348
_cell_angle_alpha   64.74163437
_cell_angle_beta   74.69646443
_cell_angle_gamma   74.63105859
_symmetry_Int_Tables_number   1
_chemical_formula_structural   K2CeAl(SiO3)4
_chemical_formula_sum   'K8 Ce4 Al4 Si16 O48'
_cell_volume   1275.59473534
_cell_formula_units_Z   4
loop_
 _symmetry_equiv_pos_site_id
 _symmetry_equiv_pos_as_xyz
  1  'x, y, z'
loop_
 _atom_site_type_symbol
 _atom_site_label
 _atom_site_symmetry_multiplicity
 _atom_site_fract_x
 _atom_site_fract_y
 _atom_site_fract_z
 _atom_site_occupancy
  K  K0  1  0.19033066  0.08805715  0.52566192  1
  K  K1  1  0.19595027  0.58805715  0.02566192  1
  K  K2  1  0.80966934  0.91194285  0.47433808  1
  K  K3  1  0.80404973  0.41194285  0.97433808  1
  K  K4  1  0.27913137  0.38859900  0.53687726  1
  K  K5  1  0.79539237  0.88859900  0.03687726  1
  K  K6  1  0.72086863  0.61140100  0.46312274  1
  K  K7  1  0.20460763  0.11140100  0.96312274  1
  Ce  Ce8  1  0.55658505  0.71113167  0.75059935  1
  Ce  Ce9  1  0.98168393  0.21113167  0.25059935  1
  Ce  Ce10  1  0.44341495  0.28886833  0.24940065  1
  Ce  Ce11  1  0.01831607  0.78886833  0.74940065  1
  Al  Al12  1  0.74012972  0.41390890  0.72856583  1
  Al  Al13  1  0.11739555  0.91390890  0.22856583  1
  Al  Al14  1  0.25987028  0.58609110  0.27143417  1
  Al  Al15  1  0.88260445  0.08609110  0.77143417  1
  Si  Si16  1  0.69529838  0.67718322  0.99595899  1
  Si  Si17  1  0.63155941  0.17718322  0.49595899  1
  Si  Si18  1  0.30470162  0.32281678  0.00404101  1
  Si  Si19  1  0.36844059  0.82281678  0.50404101  1
  Si  Si20  1  0.67875107  0.47545762  0.20958021  1
  Si  Si21  1  0.63621110  0.97545762  0.70958021  1
  Si  Si22  1  0.32124893  0.52454238  0.79041979  1
  Si  Si23  1  0.36378890  0.02454238  0.29041979  1
  Si  Si24  1  0.02607003  0.57612277  0.65888231  1
  Si  Si25  1  0.73892488  0.07612277  0.15888231  1
  Si  Si26  1  0.97392997  0.42387723  0.34111769  1
  Si  Si27  1  0.26107512  0.92387723  0.84111769  1
  Si  Si28  1  0.79874372  0.29936142  0.57786312  1
  Si  Si29  1  0.32403174  0.79936142  0.07786312  1
  Si  Si30  1  0.20125628  0.70063858  0.42213688  1
  Si  Si31  1  0.67596826  0.20063858  0.92213688  1
  O  O32  1  0.23993218  0.52883730  0.69068746  1
  O  O33  1  0.54054306  0.02883730  0.19068746  1
  O  O34  1  0.76006782  0.47116270  0.30931254  1
  O  O35  1  0.45945694  0.97116270  0.80931254  1
  O  O36  1  0.05053906  0.64654603  0.52950201  1
  O  O37  1  0.77341289  0.14654603  0.02950201  1
  O  O38  1  0.94946094  0.35345397  0.47049799  1
  O  O39  1  0.22658711  0.85345397  0.97049799  1
  O  O40  1  0.92663383  0.19831764  0.65544492  1
  O  O41  1  0.21960361  0.69831764  0.15544492  1
  O  O42  1  0.07336617  0.80168236  0.34455508  1
  O  O43  1  0.78039639  0.30168236  0.84455508  1
  O  O44  1  0.55319365  0.76292451  0.04867992  1
  O  O45  1  0.63520192  0.26292451  0.54867992  1
  O  O46  1  0.44680635  0.23707549  0.95132008  1
  O  O47  1  0.36479808  0.73707549  0.45132008  1
  O  O48  1  0.76354356  0.56871545  0.10015407  1
  O  O49  1  0.56758692  0.06871545  0.60015407  1
  O  O50  1  0.23645644  0.43128455  0.89984593  1
  O  O51  1  0.43241308  0.93128455  0.39984593  1
  O  O52  1  0.16237035  0.85407594  0.56821072  1
  O  O53  1  0.41534299  0.35407594  0.06821072  1
  O  O54  1  0.83762965  0.14592406  0.43178928  1
  O  O55  1  0.58465701  0.64592406  0.93178928  1
  O  O56  1  0.54136107  0.76989081  0.57011322  1
  O  O57  1  0.11863490  0.26989081  0.07011322  1
  O  O58  1  0.45863893  0.23010919  0.42988678  1
  O  O59  1  0.88136510  0.73010919  0.92988678  1
  O  O60  1  0.93989457  0.47457424  0.67567202  1
  O  O61  1  0.90985917  0.97457424  0.17567202  1
  O  O62  1  0.06010543  0.52542576  0.32432798  1
  O  O63  1  0.09014083  0.02542576  0.82432798  1
  O  O64  1  0.44784375  0.49355739  0.23608818  1
  O  O65  1  0.82251068  0.99355739  0.73608818  1
  O  O66  1  0.55215625  0.50644261  0.76391182  1
  O  O67  1  0.17748932  0.00644261  0.26391182  1
  O  O68  1  0.68978936  0.38842873  0.62791469  1
  O  O69  1  0.29386722  0.88842873  0.12791469  1
  O  O70  1  0.31021064  0.61157127  0.37208531  1
  O  O71  1  0.70613278  0.11157127  0.87208531  1
  O  O72  1  0.89870480  0.64923597  0.72341638  1
  O  O73  1  0.72864285  0.14923597  0.22341638  1
  O  O74  1  0.10129520  0.35076403  0.27658362  1
  O  O75  1  0.27135715  0.85076403  0.77658362  1
  O  O76  1  0.70279100  0.86143038  0.69636602  1
  O  O77  1  0.73941261  0.36143038  0.19636602  1
  O  O78  1  0.29720900  0.13856962  0.30363398  1
  O  O79  1  0.26058739  0.63856962  0.80363398  1
