# generated using pymatgen
data_K2Li3B(P2O7)2
_symmetry_space_group_name_H-M   'P 1'
_cell_length_a   7.00045202
_cell_length_b   14.10716467
_cell_length_c   14.10716467
_cell_angle_alpha   119.70924058
_cell_angle_beta   90.00000000
_cell_angle_gamma   90.00000000
_symmetry_Int_Tables_number   1
_chemical_formula_structural   K2Li3B(P2O7)2
_chemical_formula_sum   'K8 Li12 B4 P16 O56'
_cell_volume   1210.04404221
_cell_formula_units_Z   4
loop_
 _symmetry_equiv_pos_site_id
 _symmetry_equiv_pos_as_xyz
  1  'x, y, z'
loop_
 _atom_site_type_symbol
 _atom_site_label
 _atom_site_symmetry_multiplicity
 _atom_site_fract_x
 _atom_site_fract_y
 _atom_site_fract_z
 _atom_site_occupancy
  K  K0  1  0.75000000  0.09198041  0.59198041  1
  K  K1  1  0.25000000  0.40801959  0.90801959  1
  K  K2  1  0.25000000  0.90801959  0.40801959  1
  K  K3  1  0.75000000  0.59198041  0.09198041  1
  K  K4  1  0.69826281  0.60896988  0.60896988  1
  K  K5  1  0.30173719  0.39103012  0.39103012  1
  K  K6  1  0.19826281  0.89103012  0.89103012  1
  K  K7  1  0.80173719  0.10896988  0.10896988  1
  Li  Li8  1  0.97417228  0.89866168  0.62964947  1
  Li  Li9  1  0.02582772  0.37035053  0.10133832  1
  Li  Li10  1  0.47417228  0.87035053  0.60133832  1
  Li  Li11  1  0.52582772  0.39866168  0.12964947  1
  Li  Li12  1  0.02582772  0.10133832  0.37035053  1
  Li  Li13  1  0.97417228  0.62964947  0.89866168  1
  Li  Li14  1  0.52582772  0.12964947  0.39866168  1
  Li  Li15  1  0.47417228  0.60133832  0.87035053  1
  Li  Li16  1  0.00000000  0.11784447  0.88215553  1
  Li  Li17  1  0.50000000  0.61784447  0.38215553  1
  Li  Li18  1  0.00000000  0.88215553  0.11784447  1
  Li  Li19  1  0.50000000  0.38215553  0.61784447  1
  B  B20  1  0.50000000  0.11885328  0.88114672  1
  B  B21  1  0.00000000  0.61885328  0.38114672  1
  B  B22  1  0.50000000  0.88114672  0.11885328  1
  B  B23  1  0.00000000  0.38114672  0.61885328  1
  P  P24  1  0.69706149  0.92366246  0.79990122  1
  P  P25  1  0.30293851  0.20009878  0.07633754  1
  P  P26  1  0.19706149  0.70009878  0.57633754  1
  P  P27  1  0.80293851  0.42366246  0.29990122  1
  P  P28  1  0.30293851  0.07633754  0.20009878  1
  P  P29  1  0.69706149  0.79990122  0.92366246  1
  P  P30  1  0.80293851  0.29990122  0.42366246  1
  P  P31  1  0.19706149  0.57633754  0.70009878  1
  P  P32  1  0.75723588  0.78444177  0.40415697  1
  P  P33  1  0.24276412  0.59584303  0.21555823  1
  P  P34  1  0.25723588  0.09584303  0.71555823  1
  P  P35  1  0.74276412  0.28444177  0.90415697  1
  P  P36  1  0.24276412  0.21555823  0.59584303  1
  P  P37  1  0.75723588  0.40415697  0.78444177  1
  P  P38  1  0.74276412  0.90415697  0.28444177  1
  P  P39  1  0.25723588  0.71555823  0.09584303  1
  O  O40  1  0.87002262  0.98345743  0.86459732  1
  O  O41  1  0.12997738  0.13540268  0.01654257  1
  O  O42  1  0.37002262  0.63540268  0.51654257  1
  O  O43  1  0.62997738  0.48345743  0.36459732  1
  O  O44  1  0.12997738  0.01654257  0.13540268  1
  O  O45  1  0.87002262  0.86459732  0.98345743  1
  O  O46  1  0.62997738  0.36459732  0.48345743  1
  O  O47  1  0.37002262  0.51654257  0.63540268  1
  O  O48  1  0.51325353  0.99861186  0.83264183  1
  O  O49  1  0.48674647  0.16735817  0.00138814  1
  O  O50  1  0.01325353  0.66735817  0.50138814  1
  O  O51  1  0.98674647  0.49861186  0.33264183  1
  O  O52  1  0.48674647  0.00138814  0.16735817  1
  O  O53  1  0.51325353  0.83264183  0.99861186  1
  O  O54  1  0.98674647  0.33264183  0.49861186  1
  O  O55  1  0.01325353  0.50138814  0.66735817  1
  O  O56  1  0.62920171  0.83127447  0.83127447  1
  O  O57  1  0.37079829  0.16872553  0.16872553  1
  O  O58  1  0.12920171  0.66872553  0.66872553  1
  O  O59  1  0.87079829  0.33127447  0.33127447  1
  O  O60  1  0.71650117  0.86181085  0.67644474  1
  O  O61  1  0.28349883  0.32355526  0.13818915  1
  O  O62  1  0.21650117  0.82355526  0.63818915  1
  O  O63  1  0.78349883  0.36181085  0.17644474  1
  O  O64  1  0.28349883  0.13818915  0.32355526  1
  O  O65  1  0.71650117  0.67644474  0.86181085  1
  O  O66  1  0.78349883  0.17644474  0.36181085  1
  O  O67  1  0.21650117  0.63818915  0.82355526  1
  O  O68  1  0.89761752  0.86840250  0.48139697  1
  O  O69  1  0.10238248  0.51860303  0.13159750  1
  O  O70  1  0.39761752  0.01860303  0.63159750  1
  O  O71  1  0.60238248  0.36840250  0.98139697  1
  O  O72  1  0.10238248  0.13159750  0.51860303  1
  O  O73  1  0.89761752  0.48139697  0.86840250  1
  O  O74  1  0.60238248  0.98139697  0.36840250  1
  O  O75  1  0.39761752  0.63159750  0.01860303  1
  O  O76  1  0.75000000  0.79181137  0.29181137  1
  O  O77  1  0.25000000  0.70818863  0.20818863  1
  O  O78  1  0.25000000  0.20818863  0.70818863  1
  O  O79  1  0.75000000  0.29181137  0.79181137  1
  O  O80  1  0.82690589  0.66196538  0.35556171  1
  O  O81  1  0.17309411  0.64443829  0.33803462  1
  O  O82  1  0.32690589  0.14443829  0.83803462  1
  O  O83  1  0.67309411  0.16196538  0.85556171  1
  O  O84  1  0.17309411  0.33803462  0.64443829  1
  O  O85  1  0.82690589  0.35556171  0.66196538  1
  O  O86  1  0.67309411  0.85556171  0.16196538  1
  O  O87  1  0.32690589  0.83803462  0.14443829  1
  O  O88  1  0.55390914  0.78902668  0.44317003  1
  O  O89  1  0.44609086  0.55682997  0.21097332  1
  O  O90  1  0.05390914  0.05682997  0.71097332  1
  O  O91  1  0.94609086  0.28902668  0.94317003  1
  O  O92  1  0.44609086  0.21097332  0.55682997  1
  O  O93  1  0.55390914  0.44317003  0.78902668  1
  O  O94  1  0.94609086  0.94317003  0.28902668  1
  O  O95  1  0.05390914  0.71097332  0.05682997  1
