# generated using pymatgen
data_K2Ca3Si3O10
_symmetry_space_group_name_H-M   'P 1'
_cell_length_a   5.72137086
_cell_length_b   7.48623329
_cell_length_c   12.05345369
_cell_angle_alpha   85.40303641
_cell_angle_beta   80.44944833
_cell_angle_gamma   88.31946683
_symmetry_Int_Tables_number   1
_chemical_formula_structural   K2Ca3Si3O10
_chemical_formula_sum   'K4 Ca6 Si6 O20'
_cell_volume   507.40680421
_cell_formula_units_Z   2
loop_
 _symmetry_equiv_pos_site_id
 _symmetry_equiv_pos_as_xyz
  1  'x, y, z'
loop_
 _atom_site_type_symbol
 _atom_site_label
 _atom_site_symmetry_multiplicity
 _atom_site_fract_x
 _atom_site_fract_y
 _atom_site_fract_z
 _atom_site_occupancy
  K  K0  1  0.72071965  0.96027107  0.62583698  1
  K  K1  1  0.27928035  0.03972893  0.37416302  1
  K  K2  1  0.16730672  0.93873284  0.84854629  1
  K  K3  1  0.83269328  0.06126716  0.15145371  1
  Ca  Ca4  1  0.20685291  0.24444296  0.62302926  1
  Ca  Ca5  1  0.79314709  0.75555704  0.37697074  1
  Ca  Ca6  1  0.16915618  0.47018112  0.86022883  1
  Ca  Ca7  1  0.83084382  0.52981888  0.13977117  1
  Ca  Ca8  1  0.72809001  0.49577782  0.66012279  1
  Ca  Ca9  1  0.27190999  0.50422218  0.33987721  1
  Si  Si10  1  0.24911881  0.72876742  0.57833038  1
  Si  Si11  1  0.75088119  0.27123258  0.42166962  1
  Si  Si12  1  0.65809864  0.18527220  0.85009901  1
  Si  Si13  1  0.34190136  0.81472780  0.14990099  1
  Si  Si14  1  0.36379403  0.25455859  0.08919532  1
  Si  Si15  1  0.63620597  0.74544141  0.91080468  1
  O  O16  1  0.21164992  0.93263562  0.62277573  1
  O  O17  1  0.78835008  0.06736438  0.37722427  1
  O  O18  1  0.46274978  0.31117334  0.45837994  1
  O  O19  1  0.53725022  0.68882666  0.54162006  1
  O  O20  1  0.12870166  0.57001982  0.67365203  1
  O  O21  1  0.87129834  0.42998018  0.32634797  1
  O  O22  1  0.88394557  0.28456272  0.53326562  1
  O  O23  1  0.11605443  0.71543728  0.46673438  1
  O  O24  1  0.91702672  0.26165466  0.79593704  1
  O  O25  1  0.08297328  0.73834534  0.20406296  1
  O  O26  1  0.46156185  0.25008285  0.77025302  1
  O  O27  1  0.53843815  0.74991715  0.22974698  1
  O  O28  1  0.58033586  0.24934302  0.97885033  1
  O  O29  1  0.41966414  0.75065698  0.02114967  1
  O  O30  1  0.32354478  0.03809338  0.13737374  1
  O  O31  1  0.67645522  0.96190662  0.86262626  1
  O  O32  1  0.53104719  0.64576212  0.81645839  1
  O  O33  1  0.46895281  0.35423788  0.18354161  1
  O  O34  1  0.12204627  0.33345893  0.04977614  1
  O  O35  1  0.87795373  0.66654107  0.95022386  1
