# generated using pymatgen
data_K2LiB(PO4)2
_symmetry_space_group_name_H-M   'P 1'
_cell_length_a   8.46534265
_cell_length_b   8.90386593
_cell_length_c   9.99882605
_cell_angle_alpha   90.00000000
_cell_angle_beta   95.09383055
_cell_angle_gamma   90.00000000
_symmetry_Int_Tables_number   1
_chemical_formula_structural   K2LiB(PO4)2
_chemical_formula_sum   'K8 Li4 B4 P8 O32'
_cell_volume   750.67781638
_cell_formula_units_Z   4
loop_
 _symmetry_equiv_pos_site_id
 _symmetry_equiv_pos_as_xyz
  1  'x, y, z'
loop_
 _atom_site_type_symbol
 _atom_site_label
 _atom_site_symmetry_multiplicity
 _atom_site_fract_x
 _atom_site_fract_y
 _atom_site_fract_z
 _atom_site_occupancy
  K  K0  1  0.45618773  0.27542822  0.17800041  1
  K  K1  1  0.95618773  0.22457178  0.67800041  1
  K  K2  1  0.54381227  0.72457178  0.82199959  1
  K  K3  1  0.04381227  0.77542822  0.32199959  1
  K  K4  1  0.47599798  0.77657182  0.41310158  1
  K  K5  1  0.97599798  0.72342818  0.91310158  1
  K  K6  1  0.52400202  0.22342818  0.58689842  1
  K  K7  1  0.02400202  0.27657182  0.08689842  1
  Li  Li8  1  0.31138091  0.58351689  0.11973824  1
  Li  Li9  1  0.81138091  0.91648311  0.61973824  1
  Li  Li10  1  0.68861909  0.41648311  0.88026176  1
  Li  Li11  1  0.18861909  0.08351689  0.38026176  1
  B  B12  1  0.15897670  0.58643122  0.62573722  1
  B  B13  1  0.65897670  0.91356878  0.12573722  1
  B  B14  1  0.84102330  0.41356878  0.37426278  1
  B  B15  1  0.34102330  0.08643122  0.87426278  1
  P  P16  1  0.31665120  0.92281078  0.10781763  1
  P  P17  1  0.81665120  0.57718922  0.60781763  1
  P  P18  1  0.68334880  0.07718922  0.89218237  1
  P  P19  1  0.18334880  0.42281078  0.39218237  1
  P  P20  1  0.29922880  0.39504605  0.82998387  1
  P  P21  1  0.79922880  0.10495395  0.32998387  1
  P  P22  1  0.70077120  0.60495395  0.17001613  1
  P  P23  1  0.20077120  0.89504605  0.67001613  1
  O  O24  1  0.25890942  0.21962086  0.81116686  1
  O  O25  1  0.75890942  0.28037914  0.31116686  1
  O  O26  1  0.74109058  0.78037914  0.18883314  1
  O  O27  1  0.24109058  0.71962086  0.68883314  1
  O  O28  1  0.26521326  0.44354407  0.97048518  1
  O  O29  1  0.76521326  0.05645593  0.47048518  1
  O  O30  1  0.73478674  0.55645593  0.02951482  1
  O  O31  1  0.23478674  0.94354407  0.52951482  1
  O  O32  1  0.16632135  0.46157837  0.72312540  1
  O  O33  1  0.66632135  0.03842163  0.22312540  1
  O  O34  1  0.83367865  0.53842163  0.27687460  1
  O  O35  1  0.33367865  0.96157837  0.77687460  1
  O  O36  1  0.46502390  0.42927556  0.79146234  1
  O  O37  1  0.96502390  0.07072444  0.29146234  1
  O  O38  1  0.53497610  0.57072444  0.20853766  1
  O  O39  1  0.03497610  0.92927556  0.70853766  1
  O  O40  1  0.26283360  0.04786573  0.99811387  1
  O  O41  1  0.76283360  0.45213427  0.49811387  1
  O  O42  1  0.73716640  0.95213427  0.00188613  1
  O  O43  1  0.23716640  0.54786573  0.50188613  1
  O  O44  1  0.31066302  0.99384684  0.24509297  1
  O  O45  1  0.81066302  0.50615316  0.74509297  1
  O  O46  1  0.68933698  0.00615316  0.75490703  1
  O  O47  1  0.18933698  0.49384684  0.25490703  1
  O  O48  1  0.21543329  0.78228234  0.08636795  1
  O  O49  1  0.71543329  0.71771766  0.58636795  1
  O  O50  1  0.78456671  0.21771766  0.91363205  1
  O  O51  1  0.28456671  0.28228234  0.41363205  1
  O  O52  1  0.49181940  0.87443787  0.08266349  1
  O  O53  1  0.99181940  0.62556213  0.58266349  1
  O  O54  1  0.50818060  0.12556213  0.91733651  1
  O  O55  1  0.00818060  0.37443787  0.41733651  1
