# generated using pymatgen
data_Li3B11O18
_symmetry_space_group_name_H-M   'P 1'
_cell_length_a   17.99760490
_cell_length_b   7.95230126
_cell_length_c   9.77193820
_cell_angle_alpha   90.00000000
_cell_angle_beta   100.68547951
_cell_angle_gamma   90.00000000
_symmetry_Int_Tables_number   1
_chemical_formula_structural   Li3B11O18
_chemical_formula_sum   'Li12 B44 O72'
_cell_volume   1374.33133157
_cell_formula_units_Z   4
loop_
 _symmetry_equiv_pos_site_id
 _symmetry_equiv_pos_as_xyz
  1  'x, y, z'
loop_
 _atom_site_type_symbol
 _atom_site_label
 _atom_site_symmetry_multiplicity
 _atom_site_fract_x
 _atom_site_fract_y
 _atom_site_fract_z
 _atom_site_occupancy
  Li  Li0  1  0.95809762  0.81684691  0.49269633  1
  Li  Li1  1  0.04190238  0.31684691  0.00730367  1
  Li  Li2  1  0.04190238  0.18315309  0.50730367  1
  Li  Li3  1  0.95809762  0.68315309  0.99269633  1
  Li  Li4  1  0.75356095  0.57765768  0.27799632  1
  Li  Li5  1  0.24643905  0.07765768  0.22200368  1
  Li  Li6  1  0.24643905  0.42234232  0.72200368  1
  Li  Li7  1  0.75356095  0.92234232  0.77799632  1
  Li  Li8  1  0.57946932  0.94048613  0.13552609  1
  Li  Li9  1  0.42053068  0.44048613  0.36447391  1
  Li  Li10  1  0.42053068  0.05951387  0.86447391  1
  Li  Li11  1  0.57946932  0.55951387  0.63552609  1
  B  B12  1  0.99317558  0.36915702  0.24921831  1
  B  B13  1  0.00682442  0.86915702  0.25078169  1
  B  B14  1  0.00682442  0.63084298  0.75078169  1
  B  B15  1  0.99317558  0.13084298  0.74921831  1
  B  B16  1  0.90384743  0.41945622  0.40245464  1
  B  B17  1  0.09615257  0.91945622  0.09754536  1
  B  B18  1  0.09615257  0.58054378  0.59754536  1
  B  B19  1  0.90384743  0.08054378  0.90245464  1
  B  B20  1  0.80705611  0.61454657  0.00872198  1
  B  B21  1  0.19294389  0.11454657  0.49127802  1
  B  B22  1  0.19294389  0.38545343  0.99127802  1
  B  B23  1  0.80705611  0.88545343  0.50872198  1
  B  B24  1  0.71298290  0.39857852  0.99085960  1
  B  B25  1  0.28701710  0.89857852  0.50914040  1
  B  B26  1  0.28701710  0.60142148  0.00914040  1
  B  B27  1  0.71298290  0.10142148  0.49085960  1
  B  B28  1  0.62465868  0.34472688  0.15430680  1
  B  B29  1  0.37534132  0.84472688  0.34569320  1
  B  B30  1  0.37534132  0.65527312  0.84569320  1
  B  B31  1  0.62465868  0.15527312  0.65430680  1
  B  B32  1  0.51393597  0.28982368  0.25041517  1
  B  B33  1  0.48606403  0.78982368  0.24958483  1
  B  B34  1  0.48606403  0.71017632  0.74958483  1
  B  B35  1  0.51393597  0.21017632  0.75041517  1
  B  B36  1  0.30794058  0.05832305  0.96509324  1
  B  B37  1  0.69205942  0.55832305  0.53490676  1
  B  B38  1  0.69205942  0.94167695  0.03490676  1
  B  B39  1  0.30794058  0.44167695  0.46509324  1
  B  B40  1  0.18406879  0.93416403  0.92779320  1
  B  B41  1  0.81593121  0.43416403  0.57220680  1
  B  B42  1  0.81593121  0.06583597  0.07220680  1
  B  B43  1  0.18406879  0.56583597  0.42779320  1
  B  B44  1  0.91351731  0.62504035  0.21858763  1
  B  B45  1  0.08648269  0.12504035  0.28141237  1
  B  B46  1  0.08648269  0.37495965  0.78141237  1
  B  B47  1  0.91351731  0.87495965  0.71858763  1
  B  B48  1  0.41421911  0.05831453  0.18614468  1
  B  B49  1  0.58578089  0.55831453  0.31385532  1
  B  B50  1  0.58578089  0.94168547  0.81385532  1
  B  B51  1  0.41421911  0.44168547  0.68614468  1
  B  B52  1  0.24283624  0.99141561  0.72220111  1
  B  B53  1  0.75716376  0.49141561  0.77779889  1
  B  B54  1  0.75716376  0.00858439  0.27779889  1
  B  B55  1  0.24283624  0.50858439  0.22220111  1
  O  O56  1  0.95697536  0.76401269  0.29661814  1
  O  O57  1  0.04302464  0.26401269  0.20338186  1
  O  O58  1  0.04302464  0.23598731  0.70338186  1
  O  O59  1  0.95697536  0.73598731  0.79661814  1
  O  O60  1  0.96597811  0.50314732  0.16794139  1
  O  O61  1  0.03402189  0.00314732  0.33205861  1
  O  O62  1  0.03402189  0.49685268  0.83205861  1
  O  O63  1  0.96597811  0.99685268  0.66794139  1
  O  O64  1  0.87068475  0.54214475  0.31371430  1
  O  O65  1  0.12931525  0.04214475  0.18628570  1
  O  O66  1  0.12931525  0.45785525  0.68628570  1
  O  O67  1  0.87068475  0.95785525  0.81371430  1
  O  O68  1  0.96993835  0.33964563  0.37767143  1
  O  O69  1  0.03006165  0.83964563  0.12232857  1
  O  O70  1  0.03006165  0.66035437  0.62232857  1
  O  O71  1  0.96993835  0.16035437  0.87767143  1
  O  O72  1  0.86733526  0.69345460  0.09112807  1
  O  O73  1  0.13266474  0.19345460  0.40887193  1
  O  O74  1  0.13266474  0.30654540  0.90887193  1
  O  O75  1  0.86733526  0.80654540  0.59112807  1
  O  O76  1  0.75681130  0.52116966  0.07313255  1
  O  O77  1  0.24318870  0.02116966  0.42686745  1
  O  O78  1  0.24318870  0.47883034  0.92686745  1
  O  O79  1  0.75681130  0.97883034  0.57313255  1
  O  O80  1  0.66221968  0.30376061  0.04795367  1
  O  O81  1  0.33778032  0.80376061  0.45204633  1
  O  O82  1  0.33778032  0.69623939  0.95204633  1
  O  O83  1  0.66221968  0.19623939  0.54795367  1
  O  O84  1  0.63946188  0.48912621  0.22987832  1
  O  O85  1  0.36053812  0.98912621  0.27012168  1
  O  O86  1  0.36053812  0.51087379  0.77012168  1
  O  O87  1  0.63946188  0.01087379  0.72987832  1
  O  O88  1  0.75610469  0.51235153  0.48040218  1
  O  O89  1  0.24389531  0.01235153  0.01959782  1
  O  O90  1  0.24389531  0.48764847  0.51959782  1
  O  O91  1  0.75610469  0.98764847  0.98040218  1
  O  O92  1  0.56606803  0.23485604  0.17040770  1
  O  O93  1  0.43393197  0.73485604  0.32959230  1
  O  O94  1  0.43393197  0.76514396  0.82959230  1
  O  O95  1  0.56606803  0.26514396  0.67040770  1
  O  O96  1  0.52542782  0.43646594  0.32524131  1
  O  O97  1  0.47457218  0.93646594  0.17475869  1
  O  O98  1  0.47457218  0.56353406  0.67475869  1
  O  O99  1  0.52542782  0.06353406  0.82524131  1
  O  O100  1  0.44759080  0.21142729  0.25651015  1
  O  O101  1  0.55240920  0.71142729  0.24348985  1
  O  O102  1  0.55240920  0.78857271  0.74348985  1
  O  O103  1  0.44759080  0.28857271  0.75651015  1
  O  O104  1  0.37561263  0.10057381  0.04426987  1
  O  O105  1  0.62438737  0.60057381  0.45573013  1
  O  O106  1  0.62438737  0.89942619  0.95573013  1
  O  O107  1  0.37561263  0.39942619  0.54426987  1
  O  O108  1  0.30452609  0.06831408  0.82435200  1
  O  O109  1  0.69547391  0.56831408  0.67564800  1
  O  O110  1  0.69547391  0.93168592  0.17564800  1
  O  O111  1  0.30452609  0.43168592  0.32435200  1
  O  O112  1  0.27782357  0.86853804  0.64084659  1
  O  O113  1  0.72217643  0.36853804  0.85915341  1
  O  O114  1  0.72217643  0.13146196  0.35915341  1
  O  O115  1  0.27782357  0.63146196  0.14084659  1
  O  O116  1  0.20357688  0.12688987  0.63183214  1
  O  O117  1  0.79642312  0.62688987  0.86816786  1
  O  O118  1  0.79642312  0.87311013  0.36816786  1
  O  O119  1  0.20357688  0.37311013  0.13183214  1
  O  O120  1  0.18710075  0.90811797  0.79284217  1
  O  O121  1  0.81289925  0.40811797  0.70715783  1
  O  O122  1  0.81289925  0.09188203  0.20715783  1
  O  O123  1  0.18710075  0.59188203  0.29284217  1
  O  O124  1  0.12219970  0.87384088  0.97993475  1
  O  O125  1  0.87780030  0.37384088  0.52006525  1
  O  O126  1  0.87780030  0.12615912  0.02006525  1
  O  O127  1  0.12219970  0.62615912  0.47993475  1
