# generated using pymatgen
data_KB(S2O7)2
_symmetry_space_group_name_H-M   'P 1'
_cell_length_a   9.57949507
_cell_length_b   9.57949507
_cell_length_c   14.10173870
_cell_angle_alpha   92.57166658
_cell_angle_beta   92.57166658
_cell_angle_gamma   104.09153695
_symmetry_Int_Tables_number   1
_chemical_formula_structural   KB(S2O7)2
_chemical_formula_sum   'K4 B4 S16 O56'
_cell_volume   1251.78468178
_cell_formula_units_Z   4
loop_
 _symmetry_equiv_pos_site_id
 _symmetry_equiv_pos_as_xyz
  1  'x, y, z'
loop_
 _atom_site_type_symbol
 _atom_site_label
 _atom_site_symmetry_multiplicity
 _atom_site_fract_x
 _atom_site_fract_y
 _atom_site_fract_z
 _atom_site_occupancy
  K  K0  1  0.08828418  0.14880648  0.67210151  1
  K  K1  1  0.14880648  0.08828418  0.17210151  1
  K  K2  1  0.68829577  0.71844951  0.75103970  1
  K  K3  1  0.71844951  0.68829577  0.25103970  1
  B  B4  1  0.17940081  0.61307350  0.45624680  1
  B  B5  1  0.61307350  0.17940081  0.95624680  1
  B  B6  1  0.67676483  0.20521009  0.44472421  1
  B  B7  1  0.20521009  0.67676483  0.94472421  1
  S  S8  1  0.74006274  0.30773801  0.80249401  1
  S  S9  1  0.30773801  0.74006274  0.30249401  1
  S  S10  1  0.48002149  0.07495065  0.79121085  1
  S  S11  1  0.07495065  0.48002149  0.29121085  1
  S  S12  1  0.26102049  0.57825836  0.63450201  1
  S  S13  1  0.57825836  0.26102049  0.13450201  1
  S  S14  1  0.04438733  0.72969967  0.59329187  1
  S  S15  1  0.72969967  0.04438733  0.09329187  1
  S  S16  1  0.88033797  0.07058836  0.40266722  1
  S  S17  1  0.07058836  0.88033797  0.90266722  1
  S  S18  1  0.68831881  0.97531837  0.54831995  1
  S  S19  1  0.97531837  0.68831881  0.04831995  1
  S  S20  1  0.22435127  0.40219876  0.92888115  1
  S  S21  1  0.40219876  0.22435127  0.42888115  1
  S  S22  1  0.47052668  0.63221629  0.98844172  1
  S  S23  1  0.63221629  0.47052668  0.48844172  1
  O  O24  1  0.85669166  0.28161319  0.75086928  1
  O  O25  1  0.28161319  0.85669166  0.25086928  1
  O  O26  1  0.71959805  0.45008467  0.81505646  1
  O  O27  1  0.45008467  0.71959805  0.31505646  1
  O  O28  1  0.54459840  0.95481256  0.78816236  1
  O  O29  1  0.95481256  0.54459840  0.28816236  1
  O  O30  1  0.34350705  0.06551762  0.74388344  1
  O  O31  1  0.06551762  0.34350705  0.24388344  1
  O  O32  1  0.15774103  0.44503226  0.64535567  1
  O  O33  1  0.44503226  0.15774103  0.14535567  1
  O  O34  1  0.39270837  0.61755054  0.69135033  1
  O  O35  1  0.61755054  0.39270837  0.19135033  1
  O  O36  1  0.07703139  0.87913162  0.57440980  1
  O  O37  1  0.87913162  0.07703139  0.07440980  1
  O  O38  1  0.91895340  0.66524035  0.64162886  1
  O  O39  1  0.66524035  0.91895340  0.14162886  1
  O  O40  1  0.91481800  0.00181488  0.31787687  1
  O  O41  1  0.00181488  0.91481800  0.81787687  1
  O  O42  1  0.99059594  0.14480408  0.47147050  1
  O  O43  1  0.14480408  0.99059594  0.97147050  1
  O  O44  1  0.54745596  0.88195840  0.53735671  1
  O  O45  1  0.88195840  0.54745596  0.03735671  1
  O  O46  1  0.78219730  0.96824892  0.62916556  1
  O  O47  1  0.96824892  0.78219730  0.12916556  1
  O  O48  1  0.19728198  0.29623429  0.85170127  1
  O  O49  1  0.29623429  0.19728198  0.35170127  1
  O  O50  1  0.36459838  0.19508729  0.52399794  1
  O  O51  1  0.19508729  0.36459838  0.02399794  1
  O  O52  1  0.47146855  0.60371826  0.08692899  1
  O  O53  1  0.60371826  0.47146855  0.58692899  1
  O  O54  1  0.60190395  0.68980200  0.94426214  1
  O  O55  1  0.68980200  0.60190395  0.44426214  1
  O  O56  1  0.73839944  0.23255094  0.89787862  1
  O  O57  1  0.23255094  0.73839944  0.39787862  1
  O  O58  1  0.47864060  0.13749583  0.89522717  1
  O  O59  1  0.13749583  0.47864060  0.39522717  1
  O  O60  1  0.29250824  0.60078459  0.52818196  1
  O  O61  1  0.60078459  0.29250824  0.02818196  1
  O  O62  1  0.04928696  0.63266775  0.50332923  1
  O  O63  1  0.63266775  0.04928696  0.00332923  1
  O  O64  1  0.77379684  0.16338417  0.37555747  1
  O  O65  1  0.16338417  0.77379684  0.87555747  1
  O  O66  1  0.69130560  0.13592514  0.53621821  1
  O  O67  1  0.13592514  0.69130560  0.03621821  1
  O  O68  1  0.52942193  0.15942269  0.39961185  1
  O  O69  1  0.15942269  0.52942193  0.89961185  1
  O  O70  1  0.36220798  0.72395791  0.96291496  1
  O  O71  1  0.72395791  0.36220798  0.46291496  1
  O  O72  1  0.58902177  0.21168409  0.74472871  1
  O  O73  1  0.21168409  0.58902177  0.24472871  1
  O  O74  1  0.18656592  0.71248811  0.65830282  1
  O  O75  1  0.71248811  0.18656592  0.15830282  1
  O  O76  1  0.76986339  0.93708781  0.45193647  1
  O  O77  1  0.93708781  0.76986339  0.95193647  1
  O  O78  1  0.39904192  0.48034757  0.92453834  1
  O  O79  1  0.48034757  0.39904192  0.42453834  1
