# generated using pymatgen
data_Li6B4O9
_symmetry_space_group_name_H-M   'P 1'
_cell_length_a   3.39381465
_cell_length_b   9.27072914
_cell_length_c   23.65045789
_cell_angle_alpha   90.00000000
_cell_angle_beta   90.00000000
_cell_angle_gamma   92.48630785
_symmetry_Int_Tables_number   1
_chemical_formula_structural   Li6B4O9
_chemical_formula_sum   'Li24 B16 O36'
_cell_volume   743.41708104
_cell_formula_units_Z   4
loop_
 _symmetry_equiv_pos_site_id
 _symmetry_equiv_pos_as_xyz
  1  'x, y, z'
loop_
 _atom_site_type_symbol
 _atom_site_label
 _atom_site_symmetry_multiplicity
 _atom_site_fract_x
 _atom_site_fract_y
 _atom_site_fract_z
 _atom_site_occupancy
  Li  Li0  1  0.19123697  0.82115981  0.88136236  1
  Li  Li1  1  0.69123697  0.32115981  0.61863764  1
  Li  Li2  1  0.80876303  0.17884019  0.11863764  1
  Li  Li3  1  0.30876303  0.67884019  0.38136236  1
  Li  Li4  1  0.31893695  0.45868011  0.05749078  1
  Li  Li5  1  0.81893695  0.95868011  0.44250922  1
  Li  Li6  1  0.68106305  0.54131989  0.94250922  1
  Li  Li7  1  0.18106305  0.04131989  0.55749078  1
  Li  Li8  1  0.25904880  0.01038248  0.04181652  1
  Li  Li9  1  0.75904880  0.51038248  0.45818348  1
  Li  Li10  1  0.74095120  0.98961752  0.95818348  1
  Li  Li11  1  0.24095120  0.48961752  0.54181652  1
  Li  Li12  1  0.17892964  0.52120928  0.85663457  1
  Li  Li13  1  0.67892964  0.02120928  0.64336543  1
  Li  Li14  1  0.82107036  0.47879072  0.14336543  1
  Li  Li15  1  0.32107036  0.97879072  0.35663457  1
  Li  Li16  1  0.66797279  0.35093308  0.79575193  1
  Li  Li17  1  0.16797279  0.85093308  0.70424807  1
  Li  Li18  1  0.33202721  0.64906692  0.20424807  1
  Li  Li19  1  0.83202721  0.14906692  0.29575193  1
  Li  Li20  1  0.68339976  0.80272177  0.79373639  1
  Li  Li21  1  0.18339976  0.30272177  0.70626361  1
  Li  Li22  1  0.31660024  0.19727823  0.20626361  1
  Li  Li23  1  0.81660024  0.69727823  0.29373639  1
  B  B24  1  0.75754010  0.26228346  0.02281144  1
  B  B25  1  0.25754010  0.76228346  0.47718856  1
  B  B26  1  0.24245990  0.73771654  0.97718856  1
  B  B27  1  0.74245990  0.23771654  0.52281144  1
  B  B28  1  0.67481603  0.29668952  0.91354595  1
  B  B29  1  0.17481603  0.79668952  0.58645405  1
  B  B30  1  0.32518397  0.70331048  0.08645405  1
  B  B31  1  0.82518397  0.20331048  0.41354595  1
  B  B32  1  0.69439668  0.06475292  0.85196285  1
  B  B33  1  0.19439668  0.56475292  0.64803715  1
  B  B34  1  0.30560332  0.93524708  0.14803715  1
  B  B35  1  0.80560332  0.43524708  0.35196285  1
  B  B36  1  0.67295162  0.08294403  0.74325408  1
  B  B37  1  0.17295162  0.58294403  0.75674592  1
  B  B38  1  0.32704838  0.91705597  0.25674592  1
  B  B39  1  0.82704838  0.41705597  0.24325408  1
  O  O40  1  0.77603043  0.11730910  0.02622772  1
  O  O41  1  0.27603043  0.61730910  0.47377228  1
  O  O42  1  0.22396957  0.88269090  0.97377228  1
  O  O43  1  0.72396957  0.38269090  0.52622772  1
  O  O44  1  0.80908877  0.35424985  0.06824914  1
  O  O45  1  0.30908877  0.85424985  0.43175086  1
  O  O46  1  0.19091123  0.64575015  0.93175086  1
  O  O47  1  0.69091123  0.14575015  0.56824914  1
  O  O48  1  0.66557594  0.33620120  0.97108076  1
  O  O49  1  0.16557594  0.83620120  0.52891924  1
  O  O50  1  0.33442406  0.66379880  0.02891924  1
  O  O51  1  0.83442406  0.16379880  0.47108076  1
  O  O52  1  0.66253621  0.40522201  0.87585051  1
  O  O53  1  0.16253621  0.90522201  0.62414949  1
  O  O54  1  0.33746379  0.59477799  0.12414949  1
  O  O55  1  0.83746379  0.09477799  0.37585051  1
  O  O56  1  0.70278214  0.15040191  0.90157942  1
  O  O57  1  0.20278214  0.65040191  0.59842058  1
  O  O58  1  0.29721786  0.84959809  0.09842058  1
  O  O59  1  0.79721786  0.34959809  0.40157942  1
  O  O60  1  0.66924865  0.13771605  0.80060838  1
  O  O61  1  0.16924865  0.63771605  0.69939162  1
  O  O62  1  0.33075135  0.86228395  0.19939162  1
  O  O63  1  0.83075135  0.36228395  0.30060838  1
  O  O64  1  0.70914276  0.92195577  0.85993861  1
  O  O65  1  0.20914276  0.42195577  0.64006139  1
  O  O66  1  0.29085724  0.07804423  0.14006139  1
  O  O67  1  0.79085724  0.57804423  0.35993861  1
  O  O68  1  0.66848734  0.18784779  0.70243742  1
  O  O69  1  0.16848734  0.68784779  0.79756258  1
  O  O70  1  0.33151266  0.81215221  0.29756258  1
  O  O71  1  0.83151266  0.31215221  0.20243742  1
  O  O72  1  0.68042880  0.93946704  0.73167718  1
  O  O73  1  0.18042880  0.43946704  0.76832282  1
  O  O74  1  0.31957120  0.06053296  0.26832282  1
  O  O75  1  0.81957120  0.56053296  0.23167718  1
