# generated using pymatgen
data_CaEu2O3
_symmetry_space_group_name_H-M   'P 1'
_cell_length_a   6.00234246
_cell_length_b   6.00234246
_cell_length_c   5.99483706
_cell_angle_alpha   90.00000000
_cell_angle_beta   90.00000000
_cell_angle_gamma   120.04980871
_symmetry_Int_Tables_number   1
_chemical_formula_structural   CaEu2O3
_chemical_formula_sum   'Ca2 Eu4 O6'
_cell_volume   186.95253653
_cell_formula_units_Z   2
loop_
 _symmetry_equiv_pos_site_id
 _symmetry_equiv_pos_as_xyz
  1  'x, y, z'
loop_
 _atom_site_type_symbol
 _atom_site_label
 _atom_site_symmetry_multiplicity
 _atom_site_fract_x
 _atom_site_fract_y
 _atom_site_fract_z
 _atom_site_occupancy
  Eu  Eu0  1  0.50045526  0.83342260  0.28179651  1
  Eu  Eu1  1  0.16657740  0.49954474  0.78179651  1
  Eu  Eu2  1  0.49954474  0.16657740  0.78179651  1
  Eu  Eu3  1  0.83342260  0.50045526  0.28179651  1
  Ca  Ca4  1  0.83551351  0.83551351  0.78130504  1
  Ca  Ca5  1  0.16448649  0.16448649  0.28130504  1
  O  O6  1  0.16144271  0.84040187  0.53134822  1
  O  O7  1  0.15959813  0.83855729  0.03134822  1
  O  O8  1  0.50148012  0.50148012  0.53240549  1
  O  O9  1  0.49851988  0.49851988  0.03240549  1
  O  O10  1  0.83855729  0.15959813  0.03134822  1
  O  O11  1  0.84040187  0.16144271  0.53134822  1
