# generated using pymatgen
data_LiCa3Si2N5
_symmetry_space_group_name_H-M   'P 1'
_cell_length_a   5.18045844
_cell_length_b   10.44880937
_cell_length_c   10.58027525
_cell_angle_alpha   89.71020414
_cell_angle_beta   75.82899215
_cell_angle_gamma   88.81618520
_symmetry_Int_Tables_number   1
_chemical_formula_structural   LiCa3Si2N5
_chemical_formula_sum   'Li4 Ca12 Si8 N20'
_cell_volume   555.15996473
_cell_formula_units_Z   4
loop_
 _symmetry_equiv_pos_site_id
 _symmetry_equiv_pos_as_xyz
  1  'x, y, z'
loop_
 _atom_site_type_symbol
 _atom_site_label
 _atom_site_symmetry_multiplicity
 _atom_site_fract_x
 _atom_site_fract_y
 _atom_site_fract_z
 _atom_site_occupancy
  Li  Li0  1  0.84516362  0.25000000  0.30967277  1
  Li  Li1  1  0.15483638  0.75000000  0.69032723  1
  Li  Li2  1  0.37231179  0.25000000  0.25537642  1
  Li  Li3  1  0.62768821  0.75000000  0.74462358  1
  Ca  Ca4  1  0.96869230  0.14528153  0.56974049  1
  Ca  Ca5  1  0.46156721  0.35471847  0.56974049  1
  Ca  Ca6  1  0.03130770  0.85471847  0.43025951  1
  Ca  Ca7  1  0.53843279  0.64528153  0.43025951  1
  Ca  Ca8  1  0.83674482  0.35525785  0.81969176  1
  Ca  Ca9  1  0.34356342  0.14474215  0.81969176  1
  Ca  Ca10  1  0.16325518  0.64474215  0.18030824  1
  Ca  Ca11  1  0.65643658  0.85525785  0.18030824  1
  Ca  Ca12  1  0.23005155  0.36805894  0.03787776  1
  Ca  Ca13  1  0.73207068  0.13194106  0.03787776  1
  Ca  Ca14  1  0.76994845  0.63194106  0.96212224  1
  Ca  Ca15  1  0.26792932  0.86805894  0.96212224  1
  Si  Si16  1  0.90158175  0.96223896  0.79036045  1
  Si  Si17  1  0.30805780  0.53776104  0.79036045  1
  Si  Si18  1  0.09841825  0.03776104  0.20963955  1
  Si  Si19  1  0.69194220  0.46223896  0.20963955  1
  Si  Si20  1  0.49375406  0.04746501  0.39313385  1
  Si  Si21  1  0.11311209  0.45253499  0.39313385  1
  Si  Si22  1  0.50624594  0.95253499  0.60686615  1
  Si  Si23  1  0.88688791  0.54746501  0.60686615  1
  N  N24  1  0.95555215  0.38365803  0.54815696  1
  N  N25  1  0.49629090  0.11634197  0.54815696  1
  N  N26  1  0.04444785  0.61634197  0.45184304  1
  N  N27  1  0.50370910  0.88365803  0.45184304  1
  N  N28  1  0.25479855  0.92345992  0.74389416  1
  N  N29  1  0.00130728  0.57654008  0.74389416  1
  N  N30  1  0.74520145  0.07654008  0.25610584  1
  N  N31  1  0.99869272  0.42345992  0.25610584  1
  N  N32  1  0.23331767  0.12261914  0.06646619  1
  N  N33  1  0.70021614  0.37738086  0.06646619  1
  N  N34  1  0.76668233  0.87738086  0.93353381  1
  N  N35  1  0.29978386  0.62261914  0.93353381  1
  N  N36  1  0.86144384  0.12996275  0.80420590  1
  N  N37  1  0.33435027  0.37003725  0.80420590  1
  N  N38  1  0.13855616  0.87003725  0.19579410  1
  N  N39  1  0.66564973  0.62996275  0.19579410  1
  N  N40  1  0.19474144  0.08714955  0.35309210  1
  N  N41  1  0.45216646  0.41285045  0.35309210  1
  N  N42  1  0.80525856  0.91285045  0.64690790  1
  N  N43  1  0.54783354  0.58714955  0.64690790  1
