# generated using pymatgen
data_K3La(PO4)2
_symmetry_space_group_name_H-M   'P 1'
_cell_length_a   7.61213698
_cell_length_b   5.74103462
_cell_length_c   9.73823155
_cell_angle_alpha   90.00000000
_cell_angle_beta   91.23663950
_cell_angle_gamma   90.00000000
_symmetry_Int_Tables_number   1
_chemical_formula_structural   K3La(PO4)2
_chemical_formula_sum   'K6 La2 P4 O16'
_cell_volume   425.47661261
_cell_formula_units_Z   2
loop_
 _symmetry_equiv_pos_site_id
 _symmetry_equiv_pos_as_xyz
  1  'x, y, z'
loop_
 _atom_site_type_symbol
 _atom_site_label
 _atom_site_symmetry_multiplicity
 _atom_site_fract_x
 _atom_site_fract_y
 _atom_site_fract_z
 _atom_site_occupancy
  K  K0  1  0.79580971  0.25000000  0.91567117  1
  K  K1  1  0.20419029  0.75000000  0.08432883  1
  K  K2  1  0.35828367  0.25000000  0.59452407  1
  K  K3  1  0.64171633  0.75000000  0.40547593  1
  K  K4  1  0.50773801  0.25000000  0.19026131  1
  K  K5  1  0.49226199  0.75000000  0.80973869  1
  La  La6  1  0.00698340  0.25000000  0.29185066  1
  La  La7  1  0.99301660  0.75000000  0.70814934  1
  P  P8  1  0.80064813  0.25000000  0.57313210  1
  P  P9  1  0.19935187  0.75000000  0.42686790  1
  P  P10  1  0.76434138  0.75000000  0.08515876  1
  P  P11  1  0.23565862  0.25000000  0.91484124  1
  O  O12  1  0.00375004  0.25000000  0.55645460  1
  O  O13  1  0.99624996  0.75000000  0.44354540  1
  O  O14  1  0.71602928  0.25000000  0.42546937  1
  O  O15  1  0.28397072  0.75000000  0.57453063  1
  O  O16  1  0.74356596  0.47202230  0.65296605  1
  O  O17  1  0.25643404  0.97202230  0.34703395  1
  O  O18  1  0.25643404  0.52797770  0.34703395  1
  O  O19  1  0.74356596  0.02797770  0.65296605  1
  O  O20  1  0.84366242  0.52825518  0.15711797  1
  O  O21  1  0.15633758  0.02825518  0.84288203  1
  O  O22  1  0.15633758  0.47174482  0.84288203  1
  O  O23  1  0.84366242  0.97174482  0.15711797  1
  O  O24  1  0.81797337  0.75000000  0.93123704  1
  O  O25  1  0.18202663  0.25000000  0.06876296  1
  O  O26  1  0.56338654  0.75000000  0.09948477  1
  O  O27  1  0.43661346  0.25000000  0.90051523  1
