# generated using pymatgen
data_Li2B3PO8
_symmetry_space_group_name_H-M   'P 1'
_cell_length_a   8.78569660
_cell_length_b   10.84229195
_cell_length_c   13.07686818
_cell_angle_alpha   90.71543705
_cell_angle_beta   90.58862537
_cell_angle_gamma   90.07424040
_symmetry_Int_Tables_number   1
_chemical_formula_structural   Li2B3PO8
_chemical_formula_sum   'Li16 B24 P8 O64'
_cell_volume   1245.50027290
_cell_formula_units_Z   8
loop_
 _symmetry_equiv_pos_site_id
 _symmetry_equiv_pos_as_xyz
  1  'x, y, z'
loop_
 _atom_site_type_symbol
 _atom_site_label
 _atom_site_symmetry_multiplicity
 _atom_site_fract_x
 _atom_site_fract_y
 _atom_site_fract_z
 _atom_site_occupancy
  Li  Li0  1  0.87998622  0.65475540  0.28562535  1
  Li  Li1  1  0.12001378  0.34524460  0.71437465  1
  Li  Li2  1  0.86492503  0.22765727  0.73647563  1
  Li  Li3  1  0.13507497  0.77234273  0.26352437  1
  Li  Li4  1  0.78215542  0.72232161  0.96117188  1
  Li  Li5  1  0.21784458  0.27767839  0.03882812  1
  Li  Li6  1  0.74470801  0.45610483  0.67097727  1
  Li  Li7  1  0.25529199  0.54389517  0.32902273  1
  Li  Li8  1  0.74016384  0.94037521  0.17267839  1
  Li  Li9  1  0.25983616  0.05962479  0.82732161  1
  Li  Li10  1  0.63665442  0.45794715  0.99050277  1
  Li  Li11  1  0.36334558  0.54205285  0.00949723  1
  Li  Li12  1  0.56437694  0.95823349  0.58554480  1
  Li  Li13  1  0.43562306  0.04176651  0.41445520  1
  Li  Li14  1  0.23720065  0.83022721  0.60388187  1
  Li  Li15  1  0.76279935  0.16977279  0.39611813  1
  B  B16  1  0.95160217  0.67322991  0.60630025  1
  B  B17  1  0.04839783  0.32677009  0.39369975  1
  B  B18  1  0.88100581  0.88966167  0.57403216  1
  B  B19  1  0.11899419  0.11033833  0.42596784  1
  B  B20  1  0.80966461  0.98848568  0.85497700  1
  B  B21  1  0.19033539  0.01151432  0.14502300  1
  B  B22  1  0.79952912  0.44524865  0.38646852  1
  B  B23  1  0.20047088  0.55475135  0.61353148  1
  B  B24  1  0.69867944  0.73950434  0.64793876  1
  B  B25  1  0.30132056  0.26049566  0.35206124  1
  B  B26  1  0.60641470  0.60501146  0.35248724  1
  B  B27  1  0.39358530  0.39498854  0.64751276  1
  B  B28  1  0.55351081  0.91384912  0.87875455  1
  B  B29  1  0.44648919  0.08615088  0.12124545  1
  B  B30  1  0.45607117  0.61791446  0.66020480  1
  B  B31  1  0.54392883  0.38208554  0.33979520  1
  B  B32  1  0.40938989  0.88496040  0.20749309  1
  B  B33  1  0.59061011  0.11503960  0.79250691  1
  B  B34  1  0.31002227  0.80365922  0.92301443  1
  B  B35  1  0.68997773  0.19634078  0.07698557  1
  B  B36  1  0.09254765  0.65934384  0.94307758  1
  B  B37  1  0.90745235  0.34065616  0.05692242  1
  B  B38  1  0.05304189  0.87977568  0.89912362  1
  B  B39  1  0.94695811  0.12022432  0.10087638  1
  P  P40  1  0.92199732  0.47073726  0.87257361  1
  P  P41  1  0.07800268  0.52926274  0.12742639  1
  P  P42  1  0.90156837  0.93422306  0.36334620  1
  P  P43  1  0.09843163  0.06577694  0.63665380  1
  P  P44  1  0.40864260  0.79209406  0.40686441  1
  P  P45  1  0.59135740  0.20790594  0.59313559  1
  P  P46  1  0.40817808  0.30781148  0.85656558  1
  P  P47  1  0.59182192  0.69218852  0.14343442  1
  O  O48  1  0.99652733  0.79012352  0.58644353  1
  O  O49  1  0.00347267  0.20987648  0.41355647  1
  O  O50  1  0.99648143  0.76494992  0.91058313  1
  O  O51  1  0.00351857  0.23505008  0.08941687  1
  O  O52  1  0.96418753  0.97970920  0.87394988  1
  O  O53  1  0.03581247  0.02029080  0.12605012  1
  O  O54  1  0.95740312  0.36590869  0.95204827  1
  O  O55  1  0.04259688  0.63409131  0.04795173  1
  O  O56  1  0.95149479  0.42489079  0.39966592  1
  O  O57  1  0.04850521  0.57510921  0.60033408  1
  O  O58  1  0.93755595  0.00737503  0.61160443  1
  O  O59  1  0.06244405  0.99262497  0.38839557  1
  O  O60  1  0.93239690  0.81990690  0.29889544  1
  O  O61  1  0.06760310  0.18009310  0.70110456  1
  O  O62  1  0.93096664  0.44459562  0.12870694  1
  O  O63  1  0.06903336  0.55540438  0.87129306  1
  O  O64  1  0.91504001  0.40677341  0.76745018  1
  O  O65  1  0.08495999  0.59322659  0.23254982  1
  O  O66  1  0.82702818  0.89778773  0.46779969  1
  O  O67  1  0.17297182  0.10221227  0.53220031  1
  O  O68  1  0.80225097  0.64328012  0.63508684  1
  O  O69  1  0.19774903  0.35671988  0.36491316  1
  O  O70  1  0.78202245  0.54467547  0.90253920  1
  O  O71  1  0.21797755  0.45532453  0.09746080  1
  O  O72  1  0.75483790  0.09209780  0.81018530  1
  O  O73  1  0.24516210  0.90790220  0.18981470  1
  O  O74  1  0.75143120  0.56328333  0.39808696  1
  O  O75  1  0.24856880  0.43671667  0.60191304  1
  O  O76  1  0.74027507  0.85867947  0.63287015  1
  O  O77  1  0.25972493  0.14132053  0.36712985  1
  O  O78  1  0.73353088  0.28158676  0.61991851  1
  O  O79  1  0.26646912  0.71841324  0.38008149  1
  O  O80  1  0.71183898  0.77712690  0.09960206  1
  O  O81  1  0.28816102  0.22287310  0.90039794  1
  O  O82  1  0.71097818  0.89441707  0.88521245  1
  O  O83  1  0.28902182  0.10558293  0.11478755  1
  O  O84  1  0.65600893  0.65215085  0.25221367  1
  O  O85  1  0.34399107  0.34784915  0.74778633  1
  O  O86  1  0.56278618  0.23769503  0.83497537  1
  O  O87  1  0.43721382  0.76230497  0.16502463  1
  O  O88  1  0.55080860  0.71738134  0.67654378  1
  O  O89  1  0.44919140  0.28261866  0.32345622  1
  O  O90  1  0.54756524  0.70207759  0.41966027  1
  O  O91  1  0.45243476  0.29792241  0.58033973  1
  O  O92  1  0.50502254  0.49873697  0.65953096  1
  O  O93  1  0.49497746  0.50126303  0.34046904  1
  O  O94  1  0.50496212  0.98112256  0.16152111  1
  O  O95  1  0.49503788  0.01887744  0.83847889  1
  O  O96  1  0.46469027  0.82044595  0.91552562  1
  O  O97  1  0.53530973  0.17955405  0.08447438  1
  O  O98  1  0.44596422  0.88976876  0.31993294  1
  O  O99  1  0.55403578  0.11023124  0.68006706  1
  O  O100  1  0.44804841  0.41966350  0.92107645  1
  O  O101  1  0.55195159  0.58033650  0.07892355  1
  O  O102  1  0.40255803  0.87370984  0.50334969  1
  O  O103  1  0.59744197  0.12629016  0.49665031  1
  O  O104  1  0.30215148  0.64899912  0.64240299  1
  O  O105  1  0.69784852  0.35100088  0.35759701  1
  O  O106  1  0.25651629  0.68884536  0.94176551  1
  O  O107  1  0.74348371  0.31115464  0.05823449  1
  O  O108  1  0.20973154  0.90334704  0.91014817  1
  O  O109  1  0.79026846  0.09665296  0.08985183  1
  O  O110  1  0.20446716  0.97504726  0.68996965  1
  O  O111  1  0.79553284  0.02495274  0.31003035  1
