# generated using pymatgen
data_Mn(NbS2)3
_symmetry_space_group_name_H-M   'P 1'
_cell_length_a   5.83838859
_cell_length_b   5.83838858
_cell_length_c   12.41509197
_cell_angle_alpha   90.00000000
_cell_angle_beta   90.00000000
_cell_angle_gamma   119.99999999
_symmetry_Int_Tables_number   1
_chemical_formula_structural   Mn(NbS2)3
_chemical_formula_sum   'Mn2 Nb6 S12'
_cell_volume   366.49374498
_cell_formula_units_Z   2
loop_
 _symmetry_equiv_pos_site_id
 _symmetry_equiv_pos_as_xyz
  1  'x, y, z'
loop_
 _atom_site_type_symbol
 _atom_site_label
 _atom_site_symmetry_multiplicity
 _atom_site_fract_x
 _atom_site_fract_y
 _atom_site_fract_z
 _atom_site_occupancy
  S  S0  1  0.33254083  0.33100399  0.12637807  1
  S  S1  1  0.66899601  0.00153684  0.12637807  1
  S  S2  1  0.99846316  0.66745917  0.12637807  1
  S  S3  1  0.00153684  0.33254083  0.62637807  1
  S  S4  1  0.66745917  0.99846316  0.87362193  1
  S  S5  1  0.66745917  0.66899601  0.62637807  1
  S  S6  1  0.33100399  0.99846316  0.62637807  1
  S  S7  1  0.66899601  0.66745917  0.37362193  1
  S  S8  1  0.33254083  0.00153684  0.37362193  1
  S  S9  1  0.33100399  0.33254083  0.87362193  1
  S  S10  1  0.00153684  0.66899601  0.87362193  1
  S  S11  1  0.99846316  0.33100399  0.37362193  1
  Mn  Mn12  1  0.66666667  0.33333333  0.75000000  1
  Mn  Mn13  1  0.33333333  0.66666667  0.25000000  1
  Nb  Nb14  1  0.33333333  0.66666667  0.50119578  1
  Nb  Nb15  1  0.66666667  0.33333333  0.00119578  1
  Nb  Nb16  1  0.66666667  0.33333333  0.49880422  1
  Nb  Nb17  1  0.33333333  0.66666667  0.99880422  1
  Nb  Nb18  1  0.00000000  0.00000000  0.50000000  1
  Nb  Nb19  1  0.00000000  0.00000000  0.00000000  1
