# generated using pymatgen
data_KMg6P7O24
_symmetry_space_group_name_H-M   'P 1'
_cell_length_a   5.32663185
_cell_length_b   6.45144799
_cell_length_c   26.69390044
_cell_angle_alpha   90.00000000
_cell_angle_beta   90.00000000
_cell_angle_gamma   107.35983909
_symmetry_Int_Tables_number   1
_chemical_formula_structural   KMg6P7O24
_chemical_formula_sum   'K2 Mg12 P14 O48'
_cell_volume   875.53793143
_cell_formula_units_Z   2
loop_
 _symmetry_equiv_pos_site_id
 _symmetry_equiv_pos_as_xyz
  1  'x, y, z'
loop_
 _atom_site_type_symbol
 _atom_site_label
 _atom_site_symmetry_multiplicity
 _atom_site_fract_x
 _atom_site_fract_y
 _atom_site_fract_z
 _atom_site_occupancy
  K  K0  1  0.73942173  0.62469129  0.25000000  1
  K  K1  1  0.26057827  0.37530871  0.75000000  1
  Mg  Mg2  1  0.80474958  0.90702753  0.09620813  1
  Mg  Mg3  1  0.19525042  0.09297247  0.59620813  1
  Mg  Mg4  1  0.19525042  0.09297247  0.90379187  1
  Mg  Mg5  1  0.80474958  0.90702753  0.40379187  1
  Mg  Mg6  1  0.20537937  0.68829873  0.04905844  1
  Mg  Mg7  1  0.79462063  0.31170127  0.54905844  1
  Mg  Mg8  1  0.79462063  0.31170127  0.95094156  1
  Mg  Mg9  1  0.20537937  0.68829873  0.45094156  1
  Mg  Mg10  1  0.13658587  0.26678025  0.18276309  1
  Mg  Mg11  1  0.86341413  0.73321975  0.68276309  1
  Mg  Mg12  1  0.86341413  0.73321975  0.81723691  1
  Mg  Mg13  1  0.13658587  0.26678025  0.31723691  1
  P  P14  1  0.69794283  0.37245788  0.10946650  1
  P  P15  1  0.30205717  0.62754212  0.60946650  1
  P  P16  1  0.30205717  0.62754212  0.89053350  1
  P  P17  1  0.69794283  0.37245788  0.39053350  1
  P  P18  1  0.29839927  0.20343620  0.02487059  1
  P  P19  1  0.70160073  0.79656380  0.52487059  1
  P  P20  1  0.70160073  0.79656380  0.97512941  1
  P  P21  1  0.29839927  0.20343620  0.47512941  1
  P  P22  1  0.26494219  0.79848931  0.16735501  1
  P  P23  1  0.73505781  0.20151069  0.66735501  1
  P  P24  1  0.73505781  0.20151069  0.83264499  1
  P  P25  1  0.26494219  0.79848931  0.33264499  1
  P  P26  1  0.55697445  0.09006090  0.25000000  1
  P  P27  1  0.44302555  0.90993910  0.75000000  1
  O  O28  1  0.07427938  0.93625847  0.16595171  1
  O  O29  1  0.92572062  0.06374153  0.66595171  1
  O  O30  1  0.92572062  0.06374153  0.83404829  1
  O  O31  1  0.07427938  0.93625847  0.33404829  1
  O  O32  1  0.49035004  0.36950760  0.14795675  1
  O  O33  1  0.50964996  0.63049240  0.64795675  1
  O  O34  1  0.50964996  0.63049240  0.85204325  1
  O  O35  1  0.49035004  0.36950760  0.35204325  1
  O  O36  1  0.87117583  0.60239748  0.09519974  1
  O  O37  1  0.12882417  0.39760252  0.59519974  1
  O  O38  1  0.12882417  0.39760252  0.90480026  1
  O  O39  1  0.87117583  0.60239748  0.40480026  1
  O  O40  1  0.40726174  0.17493321  0.97282677  1
  O  O41  1  0.59273826  0.82506679  0.47282677  1
  O  O42  1  0.59273826  0.82506679  0.02717323  1
  O  O43  1  0.40726174  0.17493321  0.52717323  1
  O  O44  1  0.41049181  0.79227248  0.11818673  1
  O  O45  1  0.58950819  0.20772752  0.61818673  1
  O  O46  1  0.58950819  0.20772752  0.88181327  1
  O  O47  1  0.41049181  0.79227248  0.38181327  1
  O  O48  1  0.15107543  0.58236837  0.19323568  1
  O  O49  1  0.84892457  0.41763163  0.69323568  1
  O  O50  1  0.84892457  0.41763163  0.80676432  1
  O  O51  1  0.15107543  0.58236837  0.30676432  1
  O  O52  1  0.35836185  0.21751807  0.25000000  1
  O  O53  1  0.64163815  0.78248193  0.75000000  1
  O  O54  1  0.56633187  0.27421993  0.05698650  1
  O  O55  1  0.43366813  0.72578007  0.55698650  1
  O  O56  1  0.43366813  0.72578007  0.94301350  1
  O  O57  1  0.56633187  0.27421993  0.44301350  1
  O  O58  1  0.51418782  0.93240889  0.20323740  1
  O  O59  1  0.48581218  0.06759111  0.70323740  1
  O  O60  1  0.48581218  0.06759111  0.79676260  1
  O  O61  1  0.51418782  0.93240889  0.29676260  1
  O  O62  1  0.16190626  0.37998914  0.02594641  1
  O  O63  1  0.83809374  0.62001086  0.52594641  1
  O  O64  1  0.83809374  0.62001086  0.97405359  1
  O  O65  1  0.16190626  0.37998914  0.47405359  1
  O  O66  1  0.12998697  0.98768491  0.04786119  1
  O  O67  1  0.87001303  0.01231509  0.54786119  1
  O  O68  1  0.87001303  0.01231509  0.95213881  1
  O  O69  1  0.12998697  0.98768491  0.45213881  1
  O  O70  1  0.84734865  0.21392360  0.25000000  1
  O  O71  1  0.15265135  0.78607640  0.75000000  1
  O  O72  1  0.86582184  0.22281769  0.12354529  1
  O  O73  1  0.13417816  0.77718231  0.62354529  1
  O  O74  1  0.13417816  0.77718231  0.87645471  1
  O  O75  1  0.86582184  0.22281769  0.37645471  1
