# generated using pymatgen
data_K5B(SO4)4
_symmetry_space_group_name_H-M   'P 1'
_cell_length_a   10.10268090
_cell_length_b   10.10268090
_cell_length_c   16.52966340
_cell_angle_alpha   90.00000000
_cell_angle_beta   90.00000000
_cell_angle_gamma   90.00000000
_symmetry_Int_Tables_number   1
_chemical_formula_structural   K5B(SO4)4
_chemical_formula_sum   'K20 B4 S16 O64'
_cell_volume   1687.08623260
_cell_formula_units_Z   4
loop_
 _symmetry_equiv_pos_site_id
 _symmetry_equiv_pos_as_xyz
  1  'x, y, z'
loop_
 _atom_site_type_symbol
 _atom_site_label
 _atom_site_symmetry_multiplicity
 _atom_site_fract_x
 _atom_site_fract_y
 _atom_site_fract_z
 _atom_site_occupancy
  K  K0  1  0.04659470  0.24742599  0.00427136  1
  K  K1  1  0.95340530  0.75257401  0.50427136  1
  K  K2  1  0.24742599  0.95340530  0.75427136  1
  K  K3  1  0.75257401  0.04659470  0.25427136  1
  K  K4  1  0.67477279  0.14672144  0.83299217  1
  K  K5  1  0.32522721  0.85327856  0.33299217  1
  K  K6  1  0.14672144  0.32522721  0.58299217  1
  K  K7  1  0.85327856  0.67477279  0.08299217  1
  K  K8  1  0.34603990  0.41557292  0.79973618  1
  K  K9  1  0.65396010  0.58442708  0.29973618  1
  K  K10  1  0.41557292  0.65396010  0.54973618  1
  K  K11  1  0.58442708  0.34603990  0.04973618  1
  K  K12  1  0.90489450  0.82698215  0.85419797  1
  K  K13  1  0.09510550  0.17301785  0.35419797  1
  K  K14  1  0.82698215  0.09510550  0.60419797  1
  K  K15  1  0.17301785  0.90489450  0.10419797  1
  K  K16  1  0.50461398  0.75643801  0.89868304  1
  K  K17  1  0.49538602  0.24356199  0.39868304  1
  K  K18  1  0.75643801  0.49538602  0.64868304  1
  K  K19  1  0.24356199  0.50461398  0.14868304  1
  B  B20  1  0.99338772  0.48527786  0.83052153  1
  B  B21  1  0.00661228  0.51472214  0.33052153  1
  B  B22  1  0.48527786  0.00661228  0.58052153  1
  B  B23  1  0.51472214  0.99338772  0.08052153  1
  S  S24  1  0.01403148  0.22362709  0.79025172  1
  S  S25  1  0.98596852  0.77637291  0.29025172  1
  S  S26  1  0.22362709  0.98596852  0.54025172  1
  S  S27  1  0.77637291  0.01403148  0.04025172  1
  S  S28  1  0.73019409  0.51101485  0.86552915  1
  S  S29  1  0.26980591  0.48898515  0.36552915  1
  S  S30  1  0.51101485  0.26980591  0.61552915  1
  S  S31  1  0.48898515  0.73019409  0.11552915  1
  S  S32  1  0.15706185  0.59968497  0.94699338  1
  S  S33  1  0.84293815  0.40031503  0.44699338  1
  S  S34  1  0.59968497  0.84293815  0.69699338  1
  S  S35  1  0.40031503  0.15706185  0.19699338  1
  S  S36  1  0.38075952  0.09984639  0.94584583  1
  S  S37  1  0.61924048  0.90015361  0.44584583  1
  S  S38  1  0.09984639  0.61924048  0.69584583  1
  S  S39  1  0.90015361  0.38075952  0.19584583  1
  O  O40  1  0.01094595  0.34395362  0.85350489  1
  O  O41  1  0.98905405  0.65604638  0.35350489  1
  O  O42  1  0.34395362  0.98905405  0.60350489  1
  O  O43  1  0.65604638  0.01094595  0.10350489  1
  O  O44  1  0.91517182  0.25126910  0.72722159  1
  O  O45  1  0.08482818  0.74873090  0.22722159  1
  O  O46  1  0.25126910  0.08482818  0.47722159  1
  O  O47  1  0.74873090  0.91517182  0.97722159  1
  O  O48  1  0.97866358  0.10881537  0.84070332  1
  O  O49  1  0.02133642  0.89118463  0.34070332  1
  O  O50  1  0.10881537  0.02133642  0.59070332  1
  O  O51  1  0.89118463  0.97866358  0.09070332  1
  O  O52  1  0.14951830  0.21689026  0.75845518  1
  O  O53  1  0.85048170  0.78310974  0.25845518  1
  O  O54  1  0.21689026  0.85048170  0.50845518  1
  O  O55  1  0.78310974  0.14951830  0.00845518  1
  O  O56  1  0.85550383  0.51714599  0.80580404  1
  O  O57  1  0.14449617  0.48285401  0.30580404  1
  O  O58  1  0.51714599  0.14449617  0.55580404  1
  O  O59  1  0.48285401  0.85550383  0.05580404  1
  O  O60  1  0.61812323  0.52167888  0.80922546  1
  O  O61  1  0.38187677  0.47832112  0.30922546  1
  O  O62  1  0.52167888  0.38187677  0.55922546  1
  O  O63  1  0.47832112  0.61812323  0.05922546  1
  O  O64  1  0.73436592  0.38481923  0.90923520  1
  O  O65  1  0.26563408  0.61518077  0.40923520  1
  O  O66  1  0.38481923  0.26563408  0.65923520  1
  O  O67  1  0.61518077  0.73436592  0.15923520  1
  O  O68  1  0.74098735  0.62571264  0.92009486  1
  O  O69  1  0.25901265  0.37428736  0.42009486  1
  O  O70  1  0.62571264  0.25901265  0.67009486  1
  O  O71  1  0.37428736  0.74098735  0.17009486  1
  O  O72  1  0.02050373  0.57004043  0.90145282  1
  O  O73  1  0.97949627  0.42995957  0.40145282  1
  O  O74  1  0.57004043  0.97949627  0.65145282  1
  O  O75  1  0.42995957  0.02050373  0.15145282  1
  O  O76  1  0.24672921  0.66181131  0.88844357  1
  O  O77  1  0.75327079  0.33818869  0.38844357  1
  O  O78  1  0.66181131  0.75327079  0.63844357  1
  O  O79  1  0.33818869  0.24672921  0.13844357  1
  O  O80  1  0.11210990  0.69050997  0.01108255  1
  O  O81  1  0.88789010  0.30949003  0.51108255  1
  O  O82  1  0.69050997  0.88789010  0.76108255  1
  O  O83  1  0.30949003  0.11210990  0.26108255  1
  O  O84  1  0.20712569  0.47303206  0.97760266  1
  O  O85  1  0.79287431  0.52696794  0.47760266  1
  O  O86  1  0.47303206  0.79287431  0.72760266  1
  O  O87  1  0.52696794  0.20712569  0.22760266  1
  O  O88  1  0.25260507  0.06534876  0.98167615  1
  O  O89  1  0.74739493  0.93465124  0.48167615  1
  O  O90  1  0.06534876  0.74739493  0.73167615  1
  O  O91  1  0.93465124  0.25260507  0.23167615  1
  O  O92  1  0.49299905  0.08482906  0.01254585  1
  O  O93  1  0.50700095  0.91517094  0.51254585  1
  O  O94  1  0.08482906  0.50700095  0.76254585  1
  O  O95  1  0.91517094  0.49299905  0.26254585  1
  O  O96  1  0.39527216  0.23935730  0.92304365  1
  O  O97  1  0.60472784  0.76064270  0.42304365  1
  O  O98  1  0.23935730  0.60472784  0.67304365  1
  O  O99  1  0.76064270  0.39527216  0.17304365  1
  O  O100  1  0.41866335  0.00981472  0.87963588  1
  O  O101  1  0.58133665  0.99018528  0.37963588  1
  O  O102  1  0.00981472  0.58133665  0.62963588  1
  O  O103  1  0.99018528  0.41866335  0.12963588  1
