# generated using pymatgen
data_MgS2O7
_symmetry_space_group_name_H-M   'P 1'
_cell_length_a   4.95462076
_cell_length_b   7.07912847
_cell_length_c   8.38392120
_cell_angle_alpha   92.69635702
_cell_angle_beta   94.48301986
_cell_angle_gamma   105.74444827
_symmetry_Int_Tables_number   1
_chemical_formula_structural   MgS2O7
_chemical_formula_sum   'Mg2 S4 O14'
_cell_volume   281.44763558
_cell_formula_units_Z   2
loop_
 _symmetry_equiv_pos_site_id
 _symmetry_equiv_pos_as_xyz
  1  'x, y, z'
loop_
 _atom_site_type_symbol
 _atom_site_label
 _atom_site_symmetry_multiplicity
 _atom_site_fract_x
 _atom_site_fract_y
 _atom_site_fract_z
 _atom_site_occupancy
  Mg  Mg0  1  -0.00000000  0.50000000  -0.00000000  1
  Mg  Mg1  1  0.50000000  0.00000000  0.50000000  1
  S  S2  1  0.50175409  0.64393956  0.76814262  1
  S  S3  1  0.49824591  0.35606044  0.23185738  1
  S  S4  1  0.13035613  0.25139170  0.68793573  1
  S  S5  1  0.86964387  0.74860830  0.31206427  1
  O  O6  1  0.73217109  0.56323353  0.81785913  1
  O  O7  1  0.26782891  0.43676647  0.18214087  1
  O  O8  1  0.33608756  0.67744629  0.89715715  1
  O  O9  1  0.66391244  0.32255371  0.10284285  1
  O  O10  1  0.58145735  0.80693792  0.66765312  1
  O  O11  1  0.41854265  0.19306208  0.33234688  1
  O  O12  1  0.28539920  0.47600318  0.63762097  1
  O  O13  1  0.71460080  0.52399682  0.36237903  1
  O  O14  1  0.89466217  0.19250267  0.56543525  1
  O  O15  1  0.10533783  0.80749733  0.43456475  1
  O  O16  1  0.33795649  0.14168051  0.67602723  1
  O  O17  1  0.66204351  0.85831949  0.32397277  1
  O  O18  1  0.05532428  0.27268345  0.85082361  1
  O  O19  1  0.94467572  0.72731655  0.14917639  1
