# generated using pymatgen
data_Sr3Nb4O13
_symmetry_space_group_name_H-M   'P 1'
_cell_length_a   18.57485129
_cell_length_b   18.57485129
_cell_length_c   18.57485129
_cell_angle_alpha   167.67129608
_cell_angle_beta   167.67129608
_cell_angle_gamma   17.46939166
_symmetry_Int_Tables_number   1
_chemical_formula_structural   Sr3Nb4O13
_chemical_formula_sum   'Sr3 Nb4 O13'
_cell_volume   292.16147450
_cell_formula_units_Z   1
loop_
 _symmetry_equiv_pos_site_id
 _symmetry_equiv_pos_as_xyz
  1  'x, y, z'
loop_
 _atom_site_type_symbol
 _atom_site_label
 _atom_site_symmetry_multiplicity
 _atom_site_fract_x
 _atom_site_fract_y
 _atom_site_fract_z
 _atom_site_occupancy
  Sr  Sr0  1  0.36981428  0.36981428  0.00000000  1
  Sr  Sr1  1  0.50000000  0.50000000  0.00000000  1
  Sr  Sr2  1  0.63018572  0.63018572  0.00000000  1
  Nb  Nb3  1  0.05852754  0.05852754  0.00000000  1
  Nb  Nb4  1  0.18820944  0.18820944  0.00000000  1
  Nb  Nb5  1  0.81179056  0.81179056  0.00000000  1
  Nb  Nb6  1  0.94147246  0.94147246  0.00000000  1
  O  O7  1  0.00000000  0.00000000  0.00000000  1
  O  O8  1  0.10976317  0.10976317  0.00000000  1
  O  O9  1  0.55292335  0.05292335  0.50000000  1
  O  O10  1  0.23524290  0.23524290  0.00000000  1
  O  O11  1  0.67169997  0.17169997  0.50000000  1
  O  O12  1  0.94707665  0.44707665  0.50000000  1
  O  O13  1  0.82830003  0.32830003  0.50000000  1
  O  O14  1  0.76475710  0.76475710  0.00000000  1
  O  O15  1  0.89023683  0.89023683  0.00000000  1
  O  O16  1  0.17169997  0.67169997  0.50000000  1
  O  O17  1  0.32830003  0.82830003  0.50000000  1
  O  O18  1  0.44707665  0.94707665  0.50000000  1
  O  O19  1  0.05292335  0.55292335  0.50000000  1
