# generated using pymatgen
data_LiMg3P3O11
_symmetry_space_group_name_H-M   'P 1'
_cell_length_a   9.15723056
_cell_length_b   10.72919222
_cell_length_c   8.40362220
_cell_angle_alpha   90.00000000
_cell_angle_beta   90.00000000
_cell_angle_gamma   90.00000000
_symmetry_Int_Tables_number   1
_chemical_formula_structural   LiMg3P3O11
_chemical_formula_sum   'Li4 Mg12 P12 O44'
_cell_volume   825.65324982
_cell_formula_units_Z   4
loop_
 _symmetry_equiv_pos_site_id
 _symmetry_equiv_pos_as_xyz
  1  'x, y, z'
loop_
 _atom_site_type_symbol
 _atom_site_label
 _atom_site_symmetry_multiplicity
 _atom_site_fract_x
 _atom_site_fract_y
 _atom_site_fract_z
 _atom_site_occupancy
  Li  Li0  1  0.81275444  0.75000000  0.02525961  1
  Li  Li1  1  0.31275444  0.75000000  0.47474039  1
  Li  Li2  1  0.18724556  0.25000000  0.97474039  1
  Li  Li3  1  0.68724556  0.25000000  0.52525961  1
  Mg  Mg4  1  0.54558643  0.08997550  0.85955138  1
  Mg  Mg5  1  0.04558643  0.41002450  0.64044862  1
  Mg  Mg6  1  0.45441357  0.58997550  0.14044862  1
  Mg  Mg7  1  0.95441357  0.91002450  0.35955138  1
  Mg  Mg8  1  0.45441357  0.91002450  0.14044862  1
  Mg  Mg9  1  0.95441357  0.58997550  0.35955138  1
  Mg  Mg10  1  0.54558643  0.41002450  0.85955138  1
  Mg  Mg11  1  0.04558643  0.08997550  0.64044862  1
  Mg  Mg12  1  -0.00000000  0.00000000  -0.00000000  1
  Mg  Mg13  1  0.50000000  0.50000000  0.50000000  1
  Mg  Mg14  1  -0.00000000  0.50000000  -0.00000000  1
  Mg  Mg15  1  0.50000000  0.00000000  0.50000000  1
  P  P16  1  0.71084278  0.10906590  0.21406277  1
  P  P17  1  0.21084278  0.39093410  0.28593723  1
  P  P18  1  0.28915722  0.60906590  0.78593723  1
  P  P19  1  0.78915722  0.89093410  0.71406277  1
  P  P20  1  0.28915722  0.89093410  0.78593723  1
  P  P21  1  0.78915722  0.60906590  0.71406277  1
  P  P22  1  0.71084278  0.39093410  0.21406277  1
  P  P23  1  0.21084278  0.10906590  0.28593723  1
  P  P24  1  0.64684180  0.75000000  0.28952206  1
  P  P25  1  0.14684180  0.75000000  0.21047794  1
  P  P26  1  0.35315820  0.25000000  0.71047794  1
  P  P27  1  0.85315820  0.25000000  0.78952206  1
  O  O28  1  0.85012161  0.02997498  0.20079779  1
  O  O29  1  0.35012161  0.47002502  0.29920221  1
  O  O30  1  0.14987839  0.52997498  0.79920221  1
  O  O31  1  0.64987839  0.97002502  0.70079779  1
  O  O32  1  0.14987839  0.97002502  0.79920221  1
  O  O33  1  0.64987839  0.52997498  0.70079779  1
  O  O34  1  0.85012161  0.47002502  0.20079779  1
  O  O35  1  0.35012161  0.02997498  0.29920221  1
  O  O36  1  0.89161599  0.25000000  0.60759223  1
  O  O37  1  0.39161599  0.25000000  0.89240777  1
  O  O38  1  0.10838401  0.75000000  0.39240777  1
  O  O39  1  0.60838401  0.75000000  0.10759223  1
  O  O40  1  0.92738080  0.13248046  0.85533976  1
  O  O41  1  0.42738080  0.36751954  0.64466024  1
  O  O42  1  0.07261920  0.63248046  0.14466024  1
  O  O43  1  0.57261920  0.86751954  0.35533976  1
  O  O44  1  0.07261920  0.86751954  0.14466024  1
  O  O45  1  0.57261920  0.63248046  0.35533976  1
  O  O46  1  0.92738080  0.36751954  0.85533976  1
  O  O47  1  0.42738080  0.13248046  0.64466024  1
  O  O48  1  0.64950125  0.11512357  0.38210850  1
  O  O49  1  0.14950125  0.38487643  0.11789150  1
  O  O50  1  0.35049875  0.61512357  0.61789150  1
  O  O51  1  0.85049875  0.88487643  0.88210850  1
  O  O52  1  0.35049875  0.88487643  0.61789150  1
  O  O53  1  0.85049875  0.61512357  0.88210850  1
  O  O54  1  0.64950125  0.38487643  0.38210850  1
  O  O55  1  0.14950125  0.11512357  0.11789150  1
  O  O56  1  0.81503516  0.75000000  0.31130158  1
  O  O57  1  0.31503516  0.75000000  0.18869842  1
  O  O58  1  0.18496484  0.25000000  0.68869842  1
  O  O59  1  0.68496484  0.25000000  0.81130158  1
  O  O60  1  0.59840525  0.06361582  0.08978806  1
  O  O61  1  0.09840525  0.43638418  0.41021194  1
  O  O62  1  0.40159475  0.56361582  0.91021194  1
  O  O63  1  0.90159475  0.93638418  0.58978806  1
  O  O64  1  0.40159475  0.93638418  0.91021194  1
  O  O65  1  0.90159475  0.56361582  0.58978806  1
  O  O66  1  0.59840525  0.43638418  0.08978806  1
  O  O67  1  0.09840525  0.06361582  0.41021194  1
  O  O68  1  0.75915883  0.25000000  0.16353387  1
  O  O69  1  0.25915883  0.25000000  0.33646613  1
  O  O70  1  0.24084117  0.75000000  0.83646613  1
  O  O71  1  0.74084117  0.75000000  0.66353387  1
