# generated using pymatgen
data_LiB(S2O7)2
_symmetry_space_group_name_H-M   'P 1'
_cell_length_a   11.15555852
_cell_length_b   11.20169502
_cell_length_c   18.56885920
_cell_angle_alpha   90.00000000
_cell_angle_beta   90.00000000
_cell_angle_gamma   90.00000000
_symmetry_Int_Tables_number   1
_chemical_formula_structural   LiB(S2O7)2
_chemical_formula_sum   'Li8 B8 S32 O112'
_cell_volume   2320.38626570
_cell_formula_units_Z   8
loop_
 _symmetry_equiv_pos_site_id
 _symmetry_equiv_pos_as_xyz
  1  'x, y, z'
loop_
 _atom_site_type_symbol
 _atom_site_label
 _atom_site_symmetry_multiplicity
 _atom_site_fract_x
 _atom_site_fract_y
 _atom_site_fract_z
 _atom_site_occupancy
  Li  Li0  1  0.89373644  0.13750161  0.09380964  1
  Li  Li1  1  0.60626356  0.86249839  0.59380964  1
  Li  Li2  1  0.39373644  0.36249839  0.90619036  1
  Li  Li3  1  0.10626356  0.63750161  0.40619036  1
  Li  Li4  1  0.38023587  0.65536667  0.15365376  1
  Li  Li5  1  0.11976413  0.34463333  0.65365376  1
  Li  Li6  1  0.88023587  0.84463333  0.84634624  1
  Li  Li7  1  0.61976413  0.15536667  0.34634624  1
  B  B8  1  0.09416063  0.14576441  0.37380656  1
  B  B9  1  0.40583937  0.85423559  0.87380656  1
  B  B10  1  0.59416063  0.35423559  0.62619344  1
  B  B11  1  0.90583937  0.64576441  0.12619344  1
  B  B12  1  0.36135258  0.12063744  0.12568901  1
  B  B13  1  0.13864742  0.87936256  0.62568901  1
  B  B14  1  0.86135258  0.37936256  0.87431099  1
  B  B15  1  0.63864742  0.62063744  0.37431099  1
  S  S16  1  0.15889311  0.33720160  0.45977119  1
  S  S17  1  0.34110689  0.66279840  0.95977119  1
  S  S18  1  0.65889311  0.16279840  0.54022881  1
  S  S19  1  0.84110689  0.83720160  0.04022881  1
  S  S20  1  0.31523618  0.23024607  0.35599894  1
  S  S21  1  0.18476382  0.76975393  0.85599894  1
  S  S22  1  0.81523618  0.26975393  0.64400106  1
  S  S23  1  0.68476382  0.73024607  0.14400106  1
  S  S24  1  0.90978557  0.09230119  0.28707219  1
  S  S25  1  0.59021443  0.90769881  0.78707219  1
  S  S26  1  0.40978557  0.40769881  0.71292781  1
  S  S27  1  0.09021443  0.59230119  0.21292781  1
  S  S28  1  0.98453009  0.92794313  0.39653831  1
  S  S29  1  0.51546991  0.07205687  0.89653831  1
  S  S30  1  0.48453009  0.57205687  0.60346169  1
  S  S31  1  0.01546991  0.42794313  0.10346169  1
  S  S32  1  0.27859682  0.92399451  0.19049504  1
  S  S33  1  0.22140318  0.07600549  0.69049504  1
  S  S34  1  0.77859682  0.57600549  0.80950496  1
  S  S35  1  0.72140318  0.42399451  0.30950496  1
  S  S36  1  0.16717893  0.02889234  0.06428763  1
  S  S37  1  0.33282107  0.97110766  0.56428763  1
  S  S38  1  0.66717893  0.47110766  0.93571237  1
  S  S39  1  0.83282107  0.52889234  0.43571237  1
  S  S40  1  0.59306273  0.17353123  0.14556598  1
  S  S41  1  0.90693727  0.82646877  0.64556598  1
  S  S42  1  0.09306273  0.32646877  0.85443402  1
  S  S43  1  0.40693727  0.67353123  0.35443402  1
  S  S44  1  0.41342582  0.34791171  0.10662698  1
  S  S45  1  0.08657418  0.65208829  0.60662698  1
  S  S46  1  0.91342582  0.15208829  0.89337302  1
  S  S47  1  0.58657418  0.84791171  0.39337302  1
  O  O48  1  0.15171173  0.31454004  0.53536848  1
  O  O49  1  0.34828827  0.68545996  0.03536848  1
  O  O50  1  0.65171173  0.18545996  0.46463152  1
  O  O51  1  0.84828827  0.81454004  0.96463152  1
  O  O52  1  0.14473765  0.45570285  0.43300551  1
  O  O53  1  0.35526235  0.54429715  0.93300551  1
  O  O54  1  0.64473765  0.04429715  0.56699449  1
  O  O55  1  0.85526235  0.95570285  0.06699449  1
  O  O56  1  0.43093433  0.17773814  0.36194929  1
  O  O57  1  0.06906567  0.82226186  0.86194929  1
  O  O58  1  0.93093433  0.32226186  0.63805071  1
  O  O59  1  0.56906567  0.67773814  0.13805071  1
  O  O60  1  0.28816523  0.31954283  0.30369314  1
  O  O61  1  0.21183477  0.68045717  0.80369314  1
  O  O62  1  0.78816523  0.18045717  0.69630686  1
  O  O63  1  0.71183477  0.81954283  0.19630686  1
  O  O64  1  0.81312323  0.13508824  0.33118767  1
  O  O65  1  0.68687677  0.86491176  0.83118767  1
  O  O66  1  0.31312323  0.36491176  0.66881233  1
  O  O67  1  0.18687677  0.63508824  0.16881233  1
  O  O68  1  0.89761030  0.08524517  0.21099144  1
  O  O69  1  0.60238970  0.91475483  0.71099144  1
  O  O70  1  0.39761030  0.41475483  0.78900856  1
  O  O71  1  0.10238970  0.58524517  0.28900856  1
  O  O72  1  0.88000090  0.91706256  0.43978794  1
  O  O73  1  0.61999910  0.08293744  0.93978794  1
  O  O74  1  0.38000090  0.58293744  0.56021206  1
  O  O75  1  0.11999910  0.41706256  0.06021206  1
  O  O76  1  0.06725192  0.83111704  0.38878437  1
  O  O77  1  0.43274808  0.16888296  0.88878437  1
  O  O78  1  0.56725192  0.66888296  0.61121563  1
  O  O79  1  0.93274808  0.33111704  0.11121563  1
  O  O80  1  0.21509560  0.90072981  0.25521377  1
  O  O81  1  0.28490440  0.09927019  0.75521377  1
  O  O82  1  0.71509560  0.59927019  0.74478623  1
  O  O83  1  0.78490440  0.40072981  0.24478623  1
  O  O84  1  0.37262945  0.84626056  0.16618450  1
  O  O85  1  0.12737055  0.15373944  0.66618450  1
  O  O86  1  0.87262945  0.65373944  0.83381550  1
  O  O87  1  0.62737055  0.34626056  0.33381550  1
  O  O88  1  0.14170290  0.96813026  0.99894800  1
  O  O89  1  0.35829710  0.03186974  0.49894800  1
  O  O90  1  0.64170290  0.53186974  0.00105200  1
  O  O91  1  0.85829710  0.46813026  0.50105200  1
  O  O92  1  0.08714078  0.11705785  0.09303640  1
  O  O93  1  0.41285922  0.88294215  0.59303640  1
  O  O94  1  0.58714078  0.38294215  0.90696360  1
  O  O95  1  0.91285922  0.61705785  0.40696360  1
  O  O96  1  0.69791041  0.16441803  0.10201998  1
  O  O97  1  0.80208959  0.83558197  0.60201998  1
  O  O98  1  0.19791041  0.33558197  0.89798002  1
  O  O99  1  0.30208959  0.66441803  0.39798002  1
  O  O100  1  0.59707239  0.15011484  0.22116731  1
  O  O101  1  0.90292761  0.84988516  0.72116731  1
  O  O102  1  0.09707239  0.34988516  0.77883269  1
  O  O103  1  0.40292761  0.65011484  0.27883269  1
  O  O104  1  0.38836645  0.45810267  0.14158093  1
  O  O105  1  0.11163355  0.54189733  0.64158093  1
  O  O106  1  0.88836645  0.04189733  0.85841907  1
  O  O107  1  0.61163355  0.95810267  0.35841907  1
  O  O108  1  0.41491680  0.33765606  0.02986978  1
  O  O109  1  0.08508320  0.66234394  0.52986978  1
  O  O110  1  0.91491680  0.16234394  0.97013022  1
  O  O111  1  0.58508320  0.83765606  0.47013022  1
  O  O112  1  0.07382226  0.25468584  0.41717393  1
  O  O113  1  0.42617774  0.74531416  0.91717393  1
  O  O114  1  0.57382226  0.24531416  0.58282607  1
  O  O115  1  0.92617774  0.75468584  0.08282607  1
  O  O116  1  0.22194474  0.12797615  0.35704063  1
  O  O117  1  0.27805526  0.87202385  0.85704063  1
  O  O118  1  0.72194474  0.37202385  0.64295937  1
  O  O119  1  0.77805526  0.62797615  0.14295937  1
  O  O120  1  0.02785515  0.15813301  0.30498467  1
  O  O121  1  0.47214485  0.84186699  0.80498467  1
  O  O122  1  0.52785515  0.34186699  0.69501533  1
  O  O123  1  0.97214485  0.65813301  0.19501533  1
  O  O124  1  0.05077075  0.04436599  0.41697455  1
  O  O125  1  0.44922925  0.95563401  0.91697455  1
  O  O126  1  0.55077075  0.45563401  0.58302545  1
  O  O127  1  0.94922925  0.54436599  0.08302545  1
  O  O128  1  0.32099505  0.05624807  0.19079037  1
  O  O129  1  0.17900495  0.94375193  0.69079037  1
  O  O130  1  0.82099505  0.44375193  0.80920963  1
  O  O131  1  0.67900495  0.55624807  0.30920963  1
  O  O132  1  0.29798617  0.07635488  0.06129482  1
  O  O133  1  0.20201383  0.92364512  0.56129482  1
  O  O134  1  0.79798617  0.42364512  0.93870518  1
  O  O135  1  0.70201383  0.57635488  0.43870518  1
  O  O136  1  0.49044114  0.10317371  0.10849422  1
  O  O137  1  0.00955886  0.89682629  0.60849422  1
  O  O138  1  0.99044114  0.39682629  0.89150578  1
  O  O139  1  0.50955886  0.60317371  0.39150578  1
  O  O140  1  0.33672525  0.24804872  0.14144572  1
  O  O141  1  0.16327475  0.75195128  0.64144572  1
  O  O142  1  0.83672525  0.25195128  0.85855428  1
  O  O143  1  0.66327475  0.74804872  0.35855428  1
  O  O144  1  0.29227422  0.28809417  0.43769323  1
  O  O145  1  0.20772578  0.71190583  0.93769323  1
  O  O146  1  0.79227422  0.21190583  0.56230677  1
  O  O147  1  0.70772578  0.78809417  0.06230677  1
  O  O148  1  0.94297007  0.95592331  0.31165436  1
  O  O149  1  0.55702993  0.04407669  0.81165436  1
  O  O150  1  0.44297007  0.54407669  0.68834564  1
  O  O151  1  0.05702993  0.45592331  0.18834564  1
  O  O152  1  0.17719235  0.92331637  0.12586320  1
  O  O153  1  0.32280765  0.07668363  0.62586320  1
  O  O154  1  0.67719235  0.57668363  0.87413680  1
  O  O155  1  0.82280765  0.42331637  0.37413680  1
  O  O156  1  0.54806560  0.31324071  0.13691792  1
  O  O157  1  0.95193440  0.68675929  0.63691792  1
  O  O158  1  0.04806560  0.18675929  0.86308208  1
  O  O159  1  0.45193440  0.81324071  0.36308208  1
