# generated using pymatgen
data_Na2LiB5(PO7)2
_symmetry_space_group_name_H-M   'P 1'
_cell_length_a   8.31972721
_cell_length_b   8.45069536
_cell_length_c   9.31674213
_cell_angle_alpha   90.00000000
_cell_angle_beta   90.00000000
_cell_angle_gamma   115.79702049
_symmetry_Int_Tables_number   1
_chemical_formula_structural   Na2LiB5(PO7)2
_chemical_formula_sum   'Na4 Li2 B10 P4 O28'
_cell_volume   589.75662700
_cell_formula_units_Z   2
loop_
 _symmetry_equiv_pos_site_id
 _symmetry_equiv_pos_as_xyz
  1  'x, y, z'
loop_
 _atom_site_type_symbol
 _atom_site_label
 _atom_site_symmetry_multiplicity
 _atom_site_fract_x
 _atom_site_fract_y
 _atom_site_fract_z
 _atom_site_occupancy
  Na  Na0  1  0.39652727  0.46496742  0.75000000  1
  Na  Na1  1  0.60347273  0.53503258  0.25000000  1
  Na  Na2  1  0.16548141  0.04108522  0.75000000  1
  Na  Na3  1  0.83451859  0.95891478  0.25000000  1
  Li  Li4  1  0.98505480  0.28412548  0.75000000  1
  Li  Li5  1  0.01494520  0.71587452  0.25000000  1
  B  B6  1  0.73530219  0.45497947  0.75000000  1
  B  B7  1  0.26469781  0.54502053  0.25000000  1
  B  B8  1  0.71875866  0.90134593  0.75000000  1
  B  B9  1  0.28124134  0.09865407  0.25000000  1
  B  B10  1  0.05138088  0.65142594  0.75000000  1
  B  B11  1  0.94861912  0.34857406  0.25000000  1
  B  B12  1  0.58593571  0.11586648  0.75000000  1
  B  B13  1  0.41406429  0.88413352  0.25000000  1
  B  B14  1  0.38988987  0.80220184  0.75000000  1
  B  B15  1  0.61011013  0.19779816  0.25000000  1
  P  P16  1  0.84619246  0.72628765  0.55883449  1
  P  P17  1  0.15380754  0.27371235  0.05883449  1
  P  P18  1  0.15380754  0.27371235  0.44116551  1
  P  P19  1  0.84619246  0.72628765  0.94116551  1
  O  O20  1  0.70186947  0.54739706  0.61891604  1
  O  O21  1  0.29813053  0.45260294  0.11891604  1
  O  O22  1  0.29813053  0.45260294  0.38108396  1
  O  O23  1  0.70186947  0.54739706  0.88108396  1
  O  O24  1  0.96785034  0.24914159  0.11874179  1
  O  O25  1  0.03214966  0.75085841  0.61874179  1
  O  O26  1  0.03214966  0.75085841  0.88125821  1
  O  O27  1  0.96785034  0.24914159  0.38125821  1
  O  O28  1  0.81332447  0.88333214  0.61880520  1
  O  O29  1  0.18667553  0.11666786  0.11880520  1
  O  O30  1  0.18667553  0.11666786  0.38119480  1
  O  O31  1  0.81332447  0.88333214  0.88119480  1
  O  O32  1  0.84433037  0.73241018  0.10287695  1
  O  O33  1  0.15566963  0.26758982  0.60287695  1
  O  O34  1  0.15566963  0.26758982  0.89712305  1
  O  O35  1  0.84433037  0.73241018  0.39712305  1
  O  O36  1  0.59224469  0.27956216  0.75000000  1
  O  O37  1  0.40775531  0.72043784  0.25000000  1
  O  O38  1  0.91447297  0.47317623  0.75000000  1
  O  O39  1  0.08552703  0.52682377  0.25000000  1
  O  O40  1  0.73325764  0.08172663  0.75000000  1
  O  O41  1  0.26674236  0.91827337  0.25000000  1
  O  O42  1  0.53581327  0.76805190  0.75000000  1
  O  O43  1  0.46418673  0.23194810  0.25000000  1
  O  O44  1  0.22743193  0.66027066  0.75000000  1
  O  O45  1  0.77256807  0.33972934  0.25000000  1
  O  O46  1  0.41284432  0.97626779  0.75000000  1
  O  O47  1  0.58715568  0.02373221  0.25000000  1
