# generated using pymatgen
data_SrBe2(PO4)2
_symmetry_space_group_name_H-M   'P 1'
_cell_length_a   8.07701511
_cell_length_b   9.07905464
_cell_length_c   8.51077309
_cell_angle_alpha   90.00000000
_cell_angle_beta   90.14946274
_cell_angle_gamma   90.00000000
_symmetry_Int_Tables_number   1
_chemical_formula_structural   SrBe2(PO4)2
_chemical_formula_sum   'Sr4 Be8 P8 O32'
_cell_volume   624.10700810
_cell_formula_units_Z   4
loop_
 _symmetry_equiv_pos_site_id
 _symmetry_equiv_pos_as_xyz
  1  'x, y, z'
loop_
 _atom_site_type_symbol
 _atom_site_label
 _atom_site_symmetry_multiplicity
 _atom_site_fract_x
 _atom_site_fract_y
 _atom_site_fract_z
 _atom_site_occupancy
  Sr  Sr0  1  0.25573762  0.58735111  0.60908753  1
  Sr  Sr1  1  0.74426238  0.08735111  0.89091247  1
  Sr  Sr2  1  0.74426238  0.41264889  0.39091247  1
  Sr  Sr3  1  0.25573762  0.91264889  0.10908753  1
  Be  Be4  1  0.42864007  0.58125469  0.22644581  1
  Be  Be5  1  0.57135993  0.08125469  0.27355419  1
  Be  Be6  1  0.57135993  0.41874531  0.77355419  1
  Be  Be7  1  0.42864007  0.91874531  0.72644581  1
  Be  Be8  1  0.92631713  0.80688423  0.43655444  1
  Be  Be9  1  0.07368287  0.30688423  0.06344556  1
  Be  Be10  1  0.07368287  0.19311577  0.56344556  1
  Be  Be11  1  0.92631713  0.69311577  0.93655444  1
  P  P12  1  0.56367137  0.80446098  0.43317538  1
  P  P13  1  0.43632863  0.30446098  0.06682462  1
  P  P14  1  0.43632863  0.19553902  0.56682462  1
  P  P15  1  0.56367137  0.69553902  0.93317538  1
  P  P16  1  0.06233161  0.91427481  0.73095631  1
  P  P17  1  0.93766839  0.41427481  0.76904369  1
  P  P18  1  0.93766839  0.08572519  0.26904369  1
  P  P19  1  0.06233161  0.58572519  0.23095631  1
  O  O20  1  0.43868322  0.81806744  0.57061358  1
  O  O21  1  0.56131678  0.31806744  0.92938642  1
  O  O22  1  0.56131678  0.18193256  0.42938642  1
  O  O23  1  0.43868322  0.68193256  0.07061358  1
  O  O24  1  0.24094937  0.59289396  0.30031865  1
  O  O25  1  0.75905063  0.09289396  0.19968135  1
  O  O26  1  0.75905063  0.40710604  0.69968135  1
  O  O27  1  0.24094937  0.90710604  0.80031865  1
  O  O28  1  0.54750293  0.64294124  0.37099072  1
  O  O29  1  0.45249707  0.14294124  0.12900928  1
  O  O30  1  0.45249707  0.35705876  0.62900928  1
  O  O31  1  0.54750293  0.85705876  0.87099072  1
  O  O32  1  0.73942398  0.83592000  0.49003914  1
  O  O33  1  0.26057602  0.33592000  0.00996086  1
  O  O34  1  0.26057602  0.16408000  0.50996086  1
  O  O35  1  0.73942398  0.66408000  0.99003914  1
  O  O36  1  0.49050873  0.41303392  0.19913250  1
  O  O37  1  0.50949127  0.91303392  0.30086750  1
  O  O38  1  0.50949127  0.58696608  0.80086750  1
  O  O39  1  0.49050873  0.08696608  0.69913250  1
  O  O40  1  0.99410168  0.57266837  0.80657127  1
  O  O41  1  0.00589832  0.07266837  0.69342873  1
  O  O42  1  0.00589832  0.42733163  0.19342873  1
  O  O43  1  0.99410168  0.92733163  0.30657127  1
  O  O44  1  0.05542185  0.81273210  0.58615612  1
  O  O45  1  0.94457815  0.31273210  0.91384388  1
  O  O46  1  0.94457815  0.18726790  0.41384388  1
  O  O47  1  0.05542185  0.68726790  0.08615612  1
  O  O48  1  0.94480557  0.63831263  0.36450828  1
  O  O49  1  0.05519443  0.13831263  0.13549172  1
  O  O50  1  0.05519443  0.36168737  0.63549172  1
  O  O51  1  0.94480557  0.86168737  0.86450828  1
