# generated using pymatgen
data_Mg(NO3)2
_symmetry_space_group_name_H-M   'P 1'
_cell_length_a   10.70354802
_cell_length_b   10.70357094
_cell_length_c   14.55954100
_cell_angle_alpha   68.43191483
_cell_angle_beta   68.43179764
_cell_angle_gamma   59.99899179
_symmetry_Int_Tables_number   1
_chemical_formula_structural   Mg(NO3)2
_chemical_formula_sum   'Mg12 N24 O72'
_cell_volume   1307.94652369
_cell_formula_units_Z   12
loop_
 _symmetry_equiv_pos_site_id
 _symmetry_equiv_pos_as_xyz
  1  'x, y, z'
loop_
 _atom_site_type_symbol
 _atom_site_label
 _atom_site_symmetry_multiplicity
 _atom_site_fract_x
 _atom_site_fract_y
 _atom_site_fract_z
 _atom_site_occupancy
  Mg  Mg0  1  0.50000000  0.50000000  -0.00000000  1
  Mg  Mg1  1  -0.00000000  0.50000000  -0.00000000  1
  Mg  Mg2  1  0.50000000  0.00000000  -0.00000000  1
  Mg  Mg3  1  -0.00000000  0.00000000  -0.00000000  1
  Mg  Mg4  1  0.72804623  0.22218184  0.32616520  1
  Mg  Mg5  1  0.72352767  0.72806419  0.32616828  1
  Mg  Mg6  1  0.22222713  0.72352002  0.32616497  1
  Mg  Mg7  1  0.27195377  0.77781816  0.67383480  1
  Mg  Mg8  1  0.27647233  0.27193581  0.67383172  1
  Mg  Mg9  1  0.77777287  0.27647998  0.67383503  1
  Mg  Mg10  1  0.21242106  0.21241373  0.36272008  1
  Mg  Mg11  1  0.78757894  0.78758627  0.63727992  1
  N  N12  1  0.65158325  0.65158465  0.04521684  1
  N  N13  1  0.34841675  0.34841535  0.95478316  1
  N  N14  1  0.73446089  0.24168516  0.10758484  1
  N  N15  1  0.91624617  0.73449799  0.10757628  1
  N  N16  1  0.24169004  0.91623990  0.10758542  1
  N  N17  1  0.26553911  0.75831484  0.89241516  1
  N  N18  1  0.08375383  0.26550201  0.89242372  1
  N  N19  1  0.75830996  0.08376010  0.89241458  1
  N  N20  1  0.89508793  0.89507559  0.31472665  1
  N  N21  1  0.10491207  0.10492441  0.68527335  1
  N  N22  1  0.55397130  0.55397235  0.33806956  1
  N  N23  1  0.44602870  0.44602765  0.66193044  1
  N  N24  1  0.30109140  0.47515158  0.21876478  1
  N  N25  1  0.00496242  0.30111081  0.21876612  1
  N  N26  1  0.47516409  0.00496062  0.21876344  1
  N  N27  1  0.69890860  0.52484842  0.78123522  1
  N  N28  1  0.99503758  0.69888919  0.78123388  1
  N  N29  1  0.52483591  0.99503938  0.78123656  1
  N  N30  1  0.43235132  0.20038357  0.46768687  1
  N  N31  1  0.89959268  0.43234760  0.46769066  1
  N  N32  1  0.20038386  0.89958535  0.46767997  1
  N  N33  1  0.56764868  0.79961643  0.53231313  1
  N  N34  1  0.10040732  0.56765240  0.53230934  1
  N  N35  1  0.79961614  0.10041465  0.53232003  1
  O  O36  1  0.53627078  0.64539926  0.04616454  1
  O  O37  1  0.77213513  0.53626331  0.04617074  1
  O  O38  1  0.64539420  0.77214169  0.04616342  1
  O  O39  1  0.46372922  0.35460074  0.95383546  1
  O  O40  1  0.22786487  0.46373669  0.95382926  1
  O  O41  1  0.35460580  0.22785831  0.95383658  1
  O  O42  1  0.65819336  0.28557868  0.18849811  1
  O  O43  1  0.86770129  0.65821982  0.18850011  1
  O  O44  1  0.28560297  0.86767141  0.18849867  1
  O  O45  1  0.34180664  0.71442132  0.81150189  1
  O  O46  1  0.13229871  0.34178018  0.81149989  1
  O  O47  1  0.71439703  0.13232859  0.81150133  1
  O  O48  1  0.85592151  0.12844062  0.10749903  1
  O  O49  1  0.90812649  0.85594589  0.10748290  1
  O  O50  1  0.12843786  0.90814736  0.10749583  1
  O  O51  1  0.14407849  0.87155938  0.89250097  1
  O  O52  1  0.09187351  0.14405411  0.89251710  1
  O  O53  1  0.87156214  0.09185264  0.89250417  1
  O  O54  1  0.68956200  0.31050076  0.02636653  1
  O  O55  1  0.97352217  0.68959015  0.02635104  1
  O  O56  1  0.31054078  0.97353199  0.02635990  1
  O  O57  1  0.31043800  0.68949924  0.97363347  1
  O  O58  1  0.02647783  0.31040985  0.97364896  1
  O  O59  1  0.68945922  0.02646801  0.97364010  1
  O  O60  1  0.77522268  0.89924684  0.31451607  1
  O  O61  1  0.01099142  0.77520959  0.31452029  1
  O  O62  1  0.89925766  0.01098312  0.31451294  1
  O  O63  1  0.22477732  0.10075316  0.68548393  1
  O  O64  1  0.98900858  0.22479041  0.68547971  1
  O  O65  1  0.10074234  0.98901688  0.68548706  1
  O  O66  1  0.55374796  0.43612328  0.33814284  1
  O  O67  1  0.67197066  0.55374347  0.33817079  1
  O  O68  1  0.43610193  0.67196710  0.33817592  1
  O  O69  1  0.44625204  0.56387672  0.66185716  1
  O  O70  1  0.32802934  0.44625653  0.66182921  1
  O  O71  1  0.56389807  0.32803290  0.66182408  1
  O  O72  1  0.30687659  0.58877911  0.22129419  1
  O  O73  1  0.88302153  0.30688340  0.22129141  1
  O  O74  1  0.58881100  0.88300411  0.22128293  1
  O  O75  1  0.69312341  0.41122089  0.77870581  1
  O  O76  1  0.11697847  0.69311660  0.77870859  1
  O  O77  1  0.41118900  0.11699589  0.77871707  1
  O  O78  1  0.23045355  0.41297280  0.29521564  1
  O  O79  1  0.06132470  0.23049411  0.29521689  1
  O  O80  1  0.41299458  0.06132330  0.29520719  1
  O  O81  1  0.76954645  0.58702720  0.70478436  1
  O  O82  1  0.93867530  0.76950589  0.70478311  1
  O  O83  1  0.58700542  0.93867670  0.70479281  1
  O  O84  1  0.36516450  0.42511688  0.13946398  1
  O  O85  1  0.07022843  0.36518805  0.13945580  1
  O  O86  1  0.42511833  0.07022310  0.13946051  1
  O  O87  1  0.63483550  0.57488312  0.86053602  1
  O  O88  1  0.92977157  0.63481195  0.86054420  1
  O  O89  1  0.57488167  0.92977690  0.86053949  1
  O  O90  1  0.53981841  0.17158399  0.39225480  1
  O  O91  1  0.89634231  0.53983816  0.39226128  1
  O  O92  1  0.17160044  0.89633418  0.39224386  1
  O  O93  1  0.46018159  0.82841601  0.60774520  1
  O  O94  1  0.10365769  0.46016184  0.60773872  1
  O  O95  1  0.82839956  0.10366582  0.60775614  1
  O  O96  1  0.31140885  0.20379029  0.47041350  1
  O  O97  1  0.01441103  0.31140653  0.47039893  1
  O  O98  1  0.20375971  0.01441809  0.47040112  1
  O  O99  1  0.68859115  0.79620971  0.52958650  1
  O  O100  1  0.98558897  0.68859347  0.52960107  1
  O  O101  1  0.79624029  0.98558191  0.52959888  1
  O  O102  1  0.44532289  0.22430088  0.54209684  1
  O  O103  1  0.78830233  0.44530658  0.54210305  1
  O  O104  1  0.22431660  0.78829885  0.54208959  1
  O  O105  1  0.55467711  0.77569912  0.45790316  1
  O  O106  1  0.21169767  0.55469342  0.45789695  1
  O  O107  1  0.77568340  0.21170115  0.45791041  1
