# generated using pymatgen
data_Na2Si(S2O7)3
_symmetry_space_group_name_H-M   'P 1'
_cell_length_a   9.75934965
_cell_length_b   13.06505746
_cell_length_c   14.77944186
_cell_angle_alpha   90.00000000
_cell_angle_beta   90.00000000
_cell_angle_gamma   90.00000000
_symmetry_Int_Tables_number   1
_chemical_formula_structural   Na2Si(S2O7)3
_chemical_formula_sum   'Na8 Si4 S24 O84'
_cell_volume   1884.47437072
_cell_formula_units_Z   4
loop_
 _symmetry_equiv_pos_site_id
 _symmetry_equiv_pos_as_xyz
  1  'x, y, z'
loop_
 _atom_site_type_symbol
 _atom_site_label
 _atom_site_symmetry_multiplicity
 _atom_site_fract_x
 _atom_site_fract_y
 _atom_site_fract_z
 _atom_site_occupancy
  Na  Na0  1  0.55762523  0.30137094  0.95970902  1
  Na  Na1  1  0.94237477  0.69862906  0.45970902  1
  Na  Na2  1  0.05762523  0.19862906  0.04029098  1
  Na  Na3  1  0.44237477  0.80137094  0.54029098  1
  Na  Na4  1  0.11253408  0.81517227  0.11459841  1
  Na  Na5  1  0.38746592  0.18482773  0.61459841  1
  Na  Na6  1  0.61253408  0.68482773  0.88540159  1
  Na  Na7  1  0.88746592  0.31517227  0.38540159  1
  Si  Si8  1  0.56364394  0.96866152  0.22481020  1
  Si  Si9  1  0.93635606  0.03133848  0.72481020  1
  Si  Si10  1  0.06364394  0.53133848  0.77518980  1
  Si  Si11  1  0.43635606  0.46866152  0.27518980  1
  S  S12  1  0.84126404  0.88351684  0.27398781  1
  S  S13  1  0.65873596  0.11648316  0.77398781  1
  S  S14  1  0.34126404  0.61648316  0.72601219  1
  S  S15  1  0.15873596  0.38351684  0.22601219  1
  S  S16  1  0.82629303  0.09629519  0.22540986  1
  S  S17  1  0.67370697  0.90370481  0.72540986  1
  S  S18  1  0.32629303  0.40370481  0.77459014  1
  S  S19  1  0.17370697  0.59629519  0.27459014  1
  S  S20  1  0.30051291  0.89653500  0.31883431  1
  S  S21  1  0.19948709  0.10346500  0.81883431  1
  S  S22  1  0.80051291  0.60346500  0.68116569  1
  S  S23  1  0.69948709  0.39653500  0.18116569  1
  S  S24  1  0.47939554  0.03113510  0.41220441  1
  S  S25  1  0.02060446  0.96886490  0.91220441  1
  S  S26  1  0.97939554  0.46886490  0.58779559  1
  S  S27  1  0.52060446  0.53113510  0.08779559  1
  S  S28  1  0.47524483  0.88787870  0.04250089  1
  S  S29  1  0.02475517  0.11212130  0.54250089  1
  S  S30  1  0.97524483  0.61212130  0.95749911  1
  S  S31  1  0.52475517  0.38787870  0.45749911  1
  S  S32  1  0.38801966  0.09117227  0.08625074  1
  S  S33  1  0.11198034  0.90882773  0.58625074  1
  S  S34  1  0.88801966  0.40882773  0.91374926  1
  S  S35  1  0.61198034  0.59117227  0.41374926  1
  O  O36  1  0.43648482  0.88358868  0.26878259  1
  O  O37  1  0.06351518  0.11641132  0.76878259  1
  O  O38  1  0.93648482  0.61641132  0.73121741  1
  O  O39  1  0.56351518  0.38358868  0.23121741  1
  O  O40  1  0.57261454  0.89512584  0.12314037  1
  O  O41  1  0.92738546  0.10487416  0.62314037  1
  O  O42  1  0.07261454  0.60487416  0.87685963  1
  O  O43  1  0.42738546  0.39512584  0.37685963  1
  O  O44  1  0.87526001  0.00432318  0.29605670  1
  O  O45  1  0.62473999  0.99567682  0.79605670  1
  O  O46  1  0.37526001  0.49567682  0.70394330  1
  O  O47  1  0.12473999  0.50432318  0.20394330  1
  O  O48  1  0.79860369  0.18039821  0.28465095  1
  O  O49  1  0.70139631  0.81960179  0.78465095  1
  O  O50  1  0.29860369  0.31960179  0.71534905  1
  O  O51  1  0.20139631  0.68039821  0.21534905  1
  O  O52  1  0.43619967  0.05180202  0.17752174  1
  O  O53  1  0.06380033  0.94819798  0.67752174  1
  O  O54  1  0.93619967  0.44819798  0.82247826  1
  O  O55  1  0.56380033  0.55180202  0.32247826  1
  O  O56  1  0.69743784  0.05033500  0.18279179  1
  O  O57  1  0.80256216  0.94966500  0.68279179  1
  O  O58  1  0.19743784  0.44966500  0.81720821  1
  O  O59  1  0.30256216  0.55033500  0.31720821  1
  O  O60  1  0.55766475  0.04743973  0.32401107  1
  O  O61  1  0.94233525  0.95256027  0.82401107  1
  O  O62  1  0.05766475  0.45256027  0.67598893  1
  O  O63  1  0.44233525  0.54743973  0.17598893  1
  O  O64  1  0.68492550  0.88269567  0.27354022  1
  O  O65  1  0.81507450  0.11730433  0.77354022  1
  O  O66  1  0.18492550  0.61730433  0.72645978  1
  O  O67  1  0.31507450  0.38269567  0.22645978  1
  O  O68  1  0.52923699  0.94335677  0.46021603  1
  O  O69  1  0.97076301  0.05664323  0.96021603  1
  O  O70  1  0.02923699  0.55664323  0.53978397  1
  O  O71  1  0.47076301  0.44335677  0.03978397  1
  O  O72  1  0.45864750  0.01033564  0.01448659  1
  O  O73  1  0.04135250  0.98966436  0.51448659  1
  O  O74  1  0.95864750  0.48966436  0.98551341  1
  O  O75  1  0.54135250  0.51033564  0.48551341  1
  O  O76  1  0.54596922  0.84617571  0.96674054  1
  O  O77  1  0.95403078  0.15382429  0.46674054  1
  O  O78  1  0.04596922  0.65382429  0.03325946  1
  O  O79  1  0.45403078  0.34617571  0.53325946  1
  O  O80  1  0.89685949  0.85769455  0.18691517  1
  O  O81  1  0.60314051  0.14230545  0.68691517  1
  O  O82  1  0.39685949  0.64230545  0.81308483  1
  O  O83  1  0.10314051  0.35769455  0.31308483  1
  O  O84  1  0.46275883  0.12677815  0.45773973  1
  O  O85  1  0.03724117  0.87322185  0.95773973  1
  O  O86  1  0.96275883  0.37322185  0.54226027  1
  O  O87  1  0.53724117  0.62677815  0.04226027  1
  O  O88  1  0.24177870  0.08051767  0.08084613  1
  O  O89  1  0.25822130  0.91948233  0.58084613  1
  O  O90  1  0.74177870  0.41948233  0.91915387  1
  O  O91  1  0.75822130  0.58051767  0.41915387  1
  O  O92  1  0.32407066  0.00626034  0.37381805  1
  O  O93  1  0.17592934  0.99373966  0.87381805  1
  O  O94  1  0.82407066  0.49373966  0.62618195  1
  O  O95  1  0.67592934  0.50626034  0.12618195  1
  O  O96  1  0.34256163  0.84982603  0.06751208  1
  O  O97  1  0.15743837  0.15017397  0.56751208  1
  O  O98  1  0.84256163  0.65017397  0.93248792  1
  O  O99  1  0.65743837  0.34982603  0.43248792  1
  O  O100  1  0.92944764  0.10634363  0.15737296  1
  O  O101  1  0.57055236  0.89365637  0.65737296  1
  O  O102  1  0.42944764  0.39365637  0.84262704  1
  O  O103  1  0.07055236  0.60634363  0.34262704  1
  O  O104  1  0.88852845  0.83168802  0.35314147  1
  O  O105  1  0.61147155  0.16831198  0.85314147  1
  O  O106  1  0.38852845  0.66831198  0.64685853  1
  O  O107  1  0.11147155  0.33168802  0.14685853  1
  O  O108  1  0.44876936  0.18709348  0.06286702  1
  O  O109  1  0.05123064  0.81290652  0.56286702  1
  O  O110  1  0.94876936  0.31290652  0.93713298  1
  O  O111  1  0.55123064  0.68709348  0.43713298  1
  O  O112  1  0.28683933  0.81770050  0.38554610  1
  O  O113  1  0.21316067  0.18229950  0.88554610  1
  O  O114  1  0.78683933  0.68229950  0.61445390  1
  O  O115  1  0.71316067  0.31770050  0.11445390  1
  O  O116  1  0.18945578  0.91906811  0.25881676  1
  O  O117  1  0.31054422  0.08093189  0.75881676  1
  O  O118  1  0.68945578  0.58093189  0.74118324  1
  O  O119  1  0.81054422  0.41906811  0.24118324  1
