# generated using pymatgen
data_Na3Zn(BO2)5
_symmetry_space_group_name_H-M   'P 1'
_cell_length_a   8.00538237
_cell_length_b   12.42697507
_cell_length_c   18.30299412
_cell_angle_alpha   90.00000000
_cell_angle_beta   90.00000000
_cell_angle_gamma   90.00000000
_symmetry_Int_Tables_number   1
_chemical_formula_structural   Na3Zn(BO2)5
_chemical_formula_sum   'Na24 Zn8 B40 O80'
_cell_volume   1820.83103773
_cell_formula_units_Z   8
loop_
 _symmetry_equiv_pos_site_id
 _symmetry_equiv_pos_as_xyz
  1  'x, y, z'
loop_
 _atom_site_type_symbol
 _atom_site_label
 _atom_site_symmetry_multiplicity
 _atom_site_fract_x
 _atom_site_fract_y
 _atom_site_fract_z
 _atom_site_occupancy
  Na  Na0  1  0.70744349  0.57336015  0.42971720  1
  Na  Na1  1  0.20744349  0.92663985  0.57028280  1
  Na  Na2  1  0.29255651  0.07336015  0.07028280  1
  Na  Na3  1  0.79255651  0.42663985  0.92971720  1
  Na  Na4  1  0.29255651  0.42663985  0.57028280  1
  Na  Na5  1  0.79255651  0.07336015  0.42971720  1
  Na  Na6  1  0.70744349  0.92663985  0.92971720  1
  Na  Na7  1  0.20744349  0.57336015  0.07028280  1
  Na  Na8  1  0.33120118  0.08226542  0.42155086  1
  Na  Na9  1  0.83120118  0.41773458  0.57844914  1
  Na  Na10  1  0.66879882  0.58226542  0.07844914  1
  Na  Na11  1  0.16879882  0.91773458  0.92155086  1
  Na  Na12  1  0.66879882  0.91773458  0.57844914  1
  Na  Na13  1  0.16879882  0.58226542  0.42155086  1
  Na  Na14  1  0.33120118  0.41773458  0.92155086  1
  Na  Na15  1  0.83120118  0.08226542  0.07844914  1
  Na  Na16  1  0.30960477  0.34681014  0.24513773  1
  Na  Na17  1  0.80960477  0.15318986  0.75486227  1
  Na  Na18  1  0.69039523  0.84681014  0.25486227  1
  Na  Na19  1  0.19039523  0.65318986  0.74513773  1
  Na  Na20  1  0.69039523  0.65318986  0.75486227  1
  Na  Na21  1  0.19039523  0.84681014  0.24513773  1
  Na  Na22  1  0.30960477  0.15318986  0.74513773  1
  Na  Na23  1  0.80960477  0.34681014  0.25486227  1
  Zn  Zn24  1  0.57581918  0.32384445  0.40278204  1
  Zn  Zn25  1  0.07581918  0.17615555  0.59721796  1
  Zn  Zn26  1  0.42418082  0.82384445  0.09721796  1
  Zn  Zn27  1  0.92418082  0.67615555  0.90278204  1
  Zn  Zn28  1  0.42418082  0.67615555  0.59721796  1
  Zn  Zn29  1  0.92418082  0.82384445  0.40278204  1
  Zn  Zn30  1  0.57581918  0.17615555  0.90278204  1
  Zn  Zn31  1  0.07581918  0.32384445  0.09721796  1
  B  B32  1  0.92064591  0.34240309  0.42434570  1
  B  B33  1  0.42064591  0.15759691  0.57565430  1
  B  B34  1  0.07935409  0.84240309  0.07565430  1
  B  B35  1  0.57935409  0.65759691  0.92434570  1
  B  B36  1  0.07935409  0.65759691  0.57565430  1
  B  B37  1  0.57935409  0.84240309  0.42434570  1
  B  B38  1  0.92064591  0.15759691  0.92434570  1
  B  B39  1  0.42064591  0.34240309  0.07565430  1
  B  B40  1  0.22660512  0.32732249  0.42665916  1
  B  B41  1  0.72660512  0.17267751  0.57334084  1
  B  B42  1  0.77339488  0.82732249  0.07334084  1
  B  B43  1  0.27339488  0.67267751  0.92665916  1
  B  B44  1  0.77339488  0.67267751  0.57334084  1
  B  B45  1  0.27339488  0.82732249  0.42665916  1
  B  B46  1  0.22660512  0.17267751  0.92665916  1
  B  B47  1  0.72660512  0.32732249  0.07334084  1
  B  B48  1  0.06296594  0.21289612  0.33637252  1
  B  B49  1  0.56296594  0.28710388  0.66362748  1
  B  B50  1  0.93703406  0.71289612  0.16362748  1
  B  B51  1  0.43703406  0.78710388  0.83637252  1
  B  B52  1  0.93703406  0.78710388  0.66362748  1
  B  B53  1  0.43703406  0.71289612  0.33637252  1
  B  B54  1  0.06296594  0.28710388  0.83637252  1
  B  B55  1  0.56296594  0.21289612  0.16362748  1
  B  B56  1  0.55488439  0.15086543  0.29657984  1
  B  B57  1  0.05488439  0.34913457  0.70342016  1
  B  B58  1  0.44511561  0.65086543  0.20342016  1
  B  B59  1  0.94511561  0.84913457  0.79657984  1
  B  B60  1  0.44511561  0.84913457  0.70342016  1
  B  B61  1  0.94511561  0.65086543  0.29657984  1
  B  B62  1  0.55488439  0.34913457  0.79657984  1
  B  B63  1  0.05488439  0.15086543  0.20342016  1
  B  B64  1  0.50935500  0.52215896  0.30145326  1
  B  B65  1  0.00935500  0.97784104  0.69854674  1
  B  B66  1  0.49064500  0.02215896  0.19854674  1
  B  B67  1  0.99064500  0.47784104  0.80145326  1
  B  B68  1  0.49064500  0.47784104  0.69854674  1
  B  B69  1  0.99064500  0.02215896  0.30145326  1
  B  B70  1  0.50935500  0.97784104  0.80145326  1
  B  B71  1  0.00935500  0.52215896  0.19854674  1
  O  O72  1  0.57380896  0.17052716  0.36871201  1
  O  O73  1  0.07380896  0.32947284  0.63128799  1
  O  O74  1  0.42619104  0.67052716  0.13128799  1
  O  O75  1  0.92619104  0.82947284  0.86871201  1
  O  O76  1  0.42619104  0.82947284  0.63128799  1
  O  O77  1  0.92619104  0.67052716  0.36871201  1
  O  O78  1  0.57380896  0.32947284  0.86871201  1
  O  O79  1  0.07380896  0.17052716  0.13128799  1
  O  O80  1  0.21879622  0.25315013  0.36983378  1
  O  O81  1  0.71879622  0.24684987  0.63016622  1
  O  O82  1  0.78120378  0.75315013  0.13016622  1
  O  O83  1  0.28120378  0.74684987  0.86983378  1
  O  O84  1  0.78120378  0.74684987  0.63016622  1
  O  O85  1  0.28120378  0.75315013  0.36983378  1
  O  O86  1  0.21879622  0.24684987  0.86983378  1
  O  O87  1  0.71879622  0.25315013  0.13016622  1
  O  O88  1  0.77848367  0.38087907  0.45445397  1
  O  O89  1  0.27848367  0.11912093  0.54554603  1
  O  O90  1  0.22151633  0.88087907  0.04554603  1
  O  O91  1  0.72151633  0.61912093  0.95445397  1
  O  O92  1  0.22151633  0.61912093  0.54554603  1
  O  O93  1  0.72151633  0.88087907  0.45445397  1
  O  O94  1  0.77848367  0.11912093  0.95445397  1
  O  O95  1  0.27848367  0.38087907  0.04554603  1
  O  O96  1  0.37096409  0.35779798  0.45768524  1
  O  O97  1  0.87096409  0.14220202  0.54231476  1
  O  O98  1  0.62903591  0.85779798  0.04231476  1
  O  O99  1  0.12903591  0.64220202  0.95768524  1
  O  O100  1  0.62903591  0.64220202  0.54231476  1
  O  O101  1  0.12903591  0.85779798  0.45768524  1
  O  O102  1  0.37096409  0.14220202  0.95768524  1
  O  O103  1  0.87096409  0.35779798  0.04231476  1
  O  O104  1  0.57413650  0.42654773  0.31885116  1
  O  O105  1  0.07413650  0.07345227  0.68114884  1
  O  O106  1  0.42586350  0.92654773  0.18114884  1
  O  O107  1  0.92586350  0.57345227  0.81885116  1
  O  O108  1  0.42586350  0.57345227  0.68114884  1
  O  O109  1  0.92586350  0.92654773  0.31885116  1
  O  O110  1  0.57413650  0.07345227  0.81885116  1
  O  O111  1  0.07413650  0.42654773  0.18114884  1
  O  O112  1  0.57369870  0.22921926  0.24320181  1
  O  O113  1  0.07369870  0.27078074  0.75679819  1
  O  O114  1  0.42630130  0.72921926  0.25679819  1
  O  O115  1  0.92630130  0.77078074  0.74320181  1
  O  O116  1  0.42630130  0.77078074  0.75679819  1
  O  O117  1  0.92630130  0.72921926  0.24320181  1
  O  O118  1  0.57369870  0.27078074  0.74320181  1
  O  O119  1  0.07369870  0.22921926  0.25679819  1
  O  O120  1  0.45761363  0.59697969  0.35385766  1
  O  O121  1  0.95761363  0.90302031  0.64614234  1
  O  O122  1  0.54238637  0.09697969  0.14614234  1
  O  O123  1  0.04238637  0.40302031  0.85385766  1
  O  O124  1  0.54238637  0.40302031  0.64614234  1
  O  O125  1  0.04238637  0.09697969  0.35385766  1
  O  O126  1  0.45761363  0.90302031  0.85385766  1
  O  O127  1  0.95761363  0.59697969  0.14614234  1
  O  O128  1  0.49017354  0.54649145  0.22623753  1
  O  O129  1  0.99017354  0.95350855  0.77376247  1
  O  O130  1  0.50982646  0.04649145  0.27376247  1
  O  O131  1  0.00982646  0.45350855  0.72623753  1
  O  O132  1  0.50982646  0.45350855  0.77376247  1
  O  O133  1  0.00982646  0.04649145  0.22623753  1
  O  O134  1  0.49017354  0.95350855  0.72623753  1
  O  O135  1  0.99017354  0.54649145  0.27376247  1
  O  O136  1  0.91755379  0.27288525  0.36510191  1
  O  O137  1  0.41755379  0.22711475  0.63489809  1
  O  O138  1  0.08244621  0.77288525  0.13489809  1
  O  O139  1  0.58244621  0.72711475  0.86510191  1
  O  O140  1  0.08244621  0.72711475  0.63489809  1
  O  O141  1  0.58244621  0.77288525  0.36510191  1
  O  O142  1  0.91755379  0.22711475  0.86510191  1
  O  O143  1  0.41755379  0.27288525  0.13489809  1
  O  O144  1  0.07709783  0.37586910  0.45217197  1
  O  O145  1  0.57709783  0.12413090  0.54782803  1
  O  O146  1  0.92290217  0.87586910  0.04782803  1
  O  O147  1  0.42290217  0.62413090  0.95217197  1
  O  O148  1  0.92290217  0.62413090  0.54782803  1
  O  O149  1  0.42290217  0.87586910  0.45217197  1
  O  O150  1  0.07709783  0.12413090  0.95217197  1
  O  O151  1  0.57709783  0.37586910  0.04782803  1
