# generated using pymatgen
data_Na2Ge(S2O7)3
_symmetry_space_group_name_H-M   'P 1'
_cell_length_a   9.93818717
_cell_length_b   13.01521011
_cell_length_c   14.96375377
_cell_angle_alpha   90.00000000
_cell_angle_beta   90.00000000
_cell_angle_gamma   90.00000000
_symmetry_Int_Tables_number   1
_chemical_formula_structural   Na2Ge(S2O7)3
_chemical_formula_sum   'Na8 Ge4 S24 O84'
_cell_volume   1935.52554930
_cell_formula_units_Z   4
loop_
 _symmetry_equiv_pos_site_id
 _symmetry_equiv_pos_as_xyz
  1  'x, y, z'
loop_
 _atom_site_type_symbol
 _atom_site_label
 _atom_site_symmetry_multiplicity
 _atom_site_fract_x
 _atom_site_fract_y
 _atom_site_fract_z
 _atom_site_occupancy
  Na  Na0  1  0.55923055  0.19815095  0.95955150  1
  Na  Na1  1  0.94076945  0.80184905  0.45955150  1
  Na  Na2  1  0.05923055  0.30184905  0.04044850  1
  Na  Na3  1  0.44076945  0.69815095  0.54044850  1
  Na  Na4  1  0.88509674  0.18222740  0.38435218  1
  Na  Na5  1  0.61490326  0.81777260  0.88435218  1
  Na  Na6  1  0.38509674  0.31777260  0.61564782  1
  Na  Na7  1  0.11490326  0.68222740  0.11564782  1
  Ge  Ge8  1  0.43344607  0.03334172  0.27655847  1
  Ge  Ge9  1  0.06655393  0.96665828  0.77655847  1
  Ge  Ge10  1  0.93344607  0.46665828  0.72344153  1
  Ge  Ge11  1  0.56655393  0.53334172  0.22344153  1
  S  S12  1  0.16659178  0.90378306  0.27552676  1
  S  S13  1  0.33340822  0.09621694  0.77552676  1
  S  S14  1  0.66659178  0.59621694  0.72447324  1
  S  S15  1  0.83340822  0.40378306  0.22447324  1
  S  S16  1  0.52070788  0.96922653  0.08725456  1
  S  S17  1  0.97929212  0.03077347  0.58725456  1
  S  S18  1  0.02070788  0.53077347  0.91274544  1
  S  S19  1  0.47929212  0.46922653  0.41274544  1
  S  S20  1  0.15265344  0.11840713  0.22623347  1
  S  S21  1  0.34734656  0.88159287  0.72623347  1
  S  S22  1  0.65265344  0.38159287  0.77376653  1
  S  S23  1  0.84734656  0.61840713  0.27376653  1
  S  S24  1  0.69881800  0.10551890  0.17998267  1
  S  S25  1  0.80118200  0.89448110  0.67998267  1
  S  S26  1  0.19881800  0.39448110  0.82001733  1
  S  S27  1  0.30118200  0.60551890  0.32001733  1
  S  S28  1  0.52800524  0.11409179  0.46082775  1
  S  S29  1  0.97199476  0.88590821  0.96082775  1
  S  S30  1  0.02800524  0.38590821  0.53917225  1
  S  S31  1  0.47199476  0.61409179  0.03917225  1
  S  S32  1  0.61523282  0.90891356  0.41690224  1
  S  S33  1  0.88476718  0.09108644  0.91690224  1
  S  S34  1  0.11523282  0.59108644  0.58309776  1
  S  S35  1  0.38476718  0.40891356  0.08309776  1
  O  O36  1  0.56578452  0.12443950  0.22894062  1
  O  O37  1  0.93421548  0.87556050  0.72894062  1
  O  O38  1  0.06578452  0.37556050  0.77105938  1
  O  O39  1  0.43421548  0.62443950  0.27105938  1
  O  O40  1  0.30638482  0.12548815  0.22539222  1
  O  O41  1  0.19361518  0.87451185  0.72539222  1
  O  O42  1  0.80638482  0.37451185  0.77460778  1
  O  O43  1  0.69361518  0.62548815  0.27460778  1
  O  O44  1  0.29234481  0.94686445  0.32125836  1
  O  O45  1  0.20765519  0.05313555  0.82125836  1
  O  O46  1  0.79234481  0.55313555  0.67874164  1
  O  O47  1  0.70765519  0.44686445  0.17874164  1
  O  O48  1  0.47206288  0.05844847  0.04121405  1
  O  O49  1  0.02793712  0.94155153  0.54121405  1
  O  O50  1  0.97206288  0.44155153  0.95878595  1
  O  O51  1  0.52793712  0.55844847  0.45878595  1
  O  O52  1  0.56833524  0.94423348  0.32529070  1
  O  O53  1  0.93166476  0.05576652  0.82529070  1
  O  O54  1  0.06833524  0.55576652  0.67470930  1
  O  O55  1  0.43166476  0.44423348  0.17470930  1
  O  O56  1  0.12605431  0.99638021  0.20379387  1
  O  O57  1  0.37394569  0.00361979  0.70379387  1
  O  O58  1  0.62605431  0.50361979  0.79620613  1
  O  O59  1  0.87394569  0.49638021  0.29620613  1
  O  O60  1  0.44033508  0.94785761  0.17241703  1
  O  O61  1  0.05966492  0.05214239  0.67241703  1
  O  O62  1  0.94033508  0.55214239  0.82758297  1
  O  O63  1  0.55966492  0.44785761  0.32758297  1
  O  O64  1  0.75837718  0.92149808  0.42337189  1
  O  O65  1  0.74162282  0.07850192  0.92337189  1
  O  O66  1  0.25837718  0.57850192  0.57662811  1
  O  O67  1  0.24162282  0.42149808  0.07662811  1
  O  O68  1  0.42525959  0.11100432  0.38453207  1
  O  O69  1  0.07474041  0.88899568  0.88453207  1
  O  O70  1  0.92525959  0.38899568  0.61546793  1
  O  O71  1  0.57474041  0.61100432  0.11546793  1
  O  O72  1  0.19375156  0.81849284  0.21787337  1
  O  O73  1  0.30624844  0.18150716  0.71787337  1
  O  O74  1  0.69375156  0.68150716  0.78212663  1
  O  O75  1  0.80624844  0.31849284  0.28212663  1
  O  O76  1  0.10139675  0.16946227  0.14877384  1
  O  O77  1  0.39860325  0.83053773  0.64877384  1
  O  O78  1  0.60139675  0.33053773  0.85122616  1
  O  O79  1  0.89860325  0.66946227  0.35122616  1
  O  O80  1  0.06043289  0.89571846  0.33966237  1
  O  O81  1  0.43956711  0.10428154  0.83966237  1
  O  O82  1  0.56043289  0.60428154  0.66033763  1
  O  O83  1  0.93956711  0.39571846  0.16033763  1
  O  O84  1  0.46577807  0.15586064  0.53882145  1
  O  O85  1  0.03422193  0.84413936  0.03882145  1
  O  O86  1  0.96577807  0.34413936  0.46117855  1
  O  O87  1  0.53422193  0.65586064  0.96117855  1
  O  O88  1  0.09729519  0.14162665  0.31251126  1
  O  O89  1  0.40270481  0.85837335  0.81251126  1
  O  O90  1  0.59729519  0.35837335  0.68748874  1
  O  O91  1  0.90270481  0.64162665  0.18748874  1
  O  O92  1  0.54023663  0.87527786  0.03930513  1
  O  O93  1  0.95976337  0.12472214  0.53930513  1
  O  O94  1  0.04023663  0.62472214  0.96069487  1
  O  O95  1  0.45976337  0.37527786  0.46069487  1
  O  O96  1  0.54269053  0.99051348  0.48629626  1
  O  O97  1  0.95730947  0.00948652  0.98629626  1
  O  O98  1  0.04269053  0.50948652  0.51370374  1
  O  O99  1  0.45730947  0.49051348  0.01370374  1
  O  O100  1  0.80737645  0.08174565  0.23927849  1
  O  O101  1  0.69262355  0.91825435  0.73927849  1
  O  O102  1  0.30737645  0.41825435  0.76072151  1
  O  O103  1  0.19262355  0.58174565  0.26072151  1
  O  O104  1  0.65725214  0.15053410  0.43274539  1
  O  O105  1  0.84274786  0.84946590  0.93274539  1
  O  O106  1  0.15725214  0.34946590  0.56725461  1
  O  O107  1  0.34274786  0.65053410  0.06725461  1
  O  O108  1  0.71661841  0.18239361  0.11237426  1
  O  O109  1  0.78338159  0.81760639  0.61237426  1
  O  O110  1  0.21661841  0.31760639  0.88762574  1
  O  O111  1  0.28338159  0.68239361  0.38762574  1
  O  O112  1  0.55814173  0.81223010  0.44239593  1
  O  O113  1  0.94185827  0.18776990  0.94239593  1
  O  O114  1  0.05814173  0.68776990  0.55760407  1
  O  O115  1  0.44185827  0.31223010  0.05760407  1
  O  O116  1  0.67138354  0.99425147  0.12791008  1
  O  O117  1  0.82861646  0.00574853  0.62791008  1
  O  O118  1  0.17138354  0.50574853  0.87208992  1
  O  O119  1  0.32861646  0.49425147  0.37208992  1
