# generated using pymatgen
data_LiB(SO4)2
_symmetry_space_group_name_H-M   'P 1'
_cell_length_a   7.79267133
_cell_length_b   8.58042499
_cell_length_c   9.55410248
_cell_angle_alpha   90.00000000
_cell_angle_beta   90.00000000
_cell_angle_gamma   92.32454642
_symmetry_Int_Tables_number   1
_chemical_formula_structural   LiB(SO4)2
_chemical_formula_sum   'Li4 B4 S8 O32'
_cell_volume   638.30394767
_cell_formula_units_Z   4
loop_
 _symmetry_equiv_pos_site_id
 _symmetry_equiv_pos_as_xyz
  1  'x, y, z'
loop_
 _atom_site_type_symbol
 _atom_site_label
 _atom_site_symmetry_multiplicity
 _atom_site_fract_x
 _atom_site_fract_y
 _atom_site_fract_z
 _atom_site_occupancy
  Li  Li0  1  0.76241287  0.46585507  0.87639139  1
  Li  Li1  1  0.76241287  0.96585507  0.12360861  1
  Li  Li2  1  0.27808601  0.13112179  0.33182915  1
  Li  Li3  1  0.27808601  0.63112179  0.66817085  1
  B  B4  1  0.78144513  0.98262201  0.60236087  1
  B  B5  1  0.78144513  0.48262201  0.39763913  1
  B  B6  1  0.26675028  0.60304401  0.14662094  1
  B  B7  1  0.26675028  0.10304401  0.85337906  1
  S  S8  1  0.42772489  0.98595110  0.62374298  1
  S  S9  1  0.42772489  0.48595110  0.37625702  1
  S  S10  1  0.87910783  0.67871455  0.61203761  1
  S  S11  1  0.87910783  0.17871455  0.38796239  1
  S  S12  1  0.35428981  0.40262530  0.94157026  1
  S  S13  1  0.35428981  0.90262530  0.05842974  1
  S  S14  1  0.91562323  0.62113204  0.16180763  1
  S  S15  1  0.91562323  0.12113204  0.83819237  1
  O  O16  1  0.42542863  0.82825044  0.67670867  1
  O  O17  1  0.42542863  0.32825044  0.32329133  1
  O  O18  1  0.31274255  0.01898706  0.51065272  1
  O  O19  1  0.31274255  0.51898706  0.48934728  1
  O  O20  1  0.76587050  0.59554493  0.70836168  1
  O  O21  1  0.76587050  0.09554493  0.29163832  1
  O  O22  1  0.04880349  0.72406830  0.66106162  1
  O  O23  1  0.04880349  0.22406830  0.33893838  1
  O  O24  1  0.53494114  0.43565259  0.96588695  1
  O  O25  1  0.53494114  0.93565259  0.03411305  1
  O  O26  1  0.28222048  0.46102845  0.81350577  1
  O  O27  1  0.28222048  0.96102845  0.18649423  1
  O  O28  1  0.91006588  0.57157725  0.01762416  1
  O  O29  1  0.91006588  0.07157725  0.98237584  1
  O  O30  1  0.83965626  0.76634662  0.19631634  1
  O  O31  1  0.83965626  0.26634662  0.80368366  1
  O  O32  1  0.60868948  0.03975544  0.57502807  1
  O  O33  1  0.60868948  0.53975544  0.42497193  1
  O  O34  1  0.40268591  0.10344293  0.74555250  1
  O  O35  1  0.40268591  0.60344293  0.25444750  1
  O  O36  1  0.78662815  0.82025974  0.55307290  1
  O  O37  1  0.78662815  0.32025974  0.44692710  1
  O  O38  1  0.90427914  0.58285018  0.47758020  1
  O  O39  1  0.90427914  0.08285018  0.52241980  1
  O  O40  1  0.31518292  0.72563928  0.04363759  1
  O  O41  1  0.31518292  0.22563928  0.95636241  1
  O  O42  1  0.24924873  0.45435251  0.06961227  1
  O  O43  1  0.24924873  0.95435251  0.93038773  1
  O  O44  1  0.82904220  0.98713904  0.75200563  1
  O  O45  1  0.82904220  0.48713904  0.24799437  1
  O  O46  1  0.10221449  0.62910935  0.21759019  1
  O  O47  1  0.10221449  0.12910935  0.78240981  1
