# generated using pymatgen
data_SrLiAl3N4
_symmetry_space_group_name_H-M   'P 1'
_cell_length_a   5.88490804
_cell_length_b   7.53077078
_cell_length_c   9.99846730
_cell_angle_alpha   83.58023483
_cell_angle_beta   76.82025761
_cell_angle_gamma   79.54867340
_symmetry_Int_Tables_number   1
_chemical_formula_structural   SrLiAl3N4
_chemical_formula_sum   'Sr4 Li4 Al12 N16'
_cell_volume   423.13139924
_cell_formula_units_Z   4
loop_
 _symmetry_equiv_pos_site_id
 _symmetry_equiv_pos_as_xyz
  1  'x, y, z'
loop_
 _atom_site_type_symbol
 _atom_site_label
 _atom_site_symmetry_multiplicity
 _atom_site_fract_x
 _atom_site_fract_y
 _atom_site_fract_z
 _atom_site_occupancy
  Sr  Sr0  1  0.99751444  0.86530266  0.87370025  1
  Sr  Sr1  1  0.00248556  0.13469734  0.12629975  1
  Sr  Sr2  1  0.97624511  0.61646788  0.62832293  1
  Sr  Sr3  1  0.02375489  0.38353212  0.37167707  1
  Li  Li4  1  0.53265076  0.67446753  0.88748625  1
  Li  Li5  1  0.46734924  0.32553247  0.11251375  1
  Li  Li6  1  0.79057075  0.82006891  0.35586059  1
  Li  Li7  1  0.20942925  0.17993109  0.64413941  1
  Al  Al8  1  0.44796258  0.04570822  0.87656466  1
  Al  Al9  1  0.55203742  0.95429178  0.12343534  1
  Al  Al10  1  0.82442314  0.05900683  0.60227801  1
  Al  Al11  1  0.17557686  0.94099317  0.39772199  1
  Al  Al12  1  0.83187759  0.29154254  0.85211967  1
  Al  Al13  1  0.16812241  0.70845746  0.14788033  1
  Al  Al14  1  0.17886860  0.44277186  0.89995400  1
  Al  Al15  1  0.82113140  0.55722814  0.10004600  1
  Al  Al16  1  0.53087857  0.43822800  0.62461495  1
  Al  Al17  1  0.46912143  0.56177200  0.37538505  1
  Al  Al18  1  0.43577313  0.79627702  0.63297277  1
  Al  Al19  1  0.56422687  0.20372298  0.36702723  1
  N  N20  1  0.65116987  0.13189802  0.97105246  1
  N  N21  1  0.34883013  0.86810198  0.02894754  1
  N  N22  1  0.62625577  0.64486169  0.49608991  1
  N  N23  1  0.37374423  0.35513831  0.50391009  1
  N  N24  1  0.61371168  0.91631253  0.72020963  1
  N  N25  1  0.38628832  0.08368747  0.27979037  1
  N  N26  1  0.84920671  0.06914651  0.40774340  1
  N  N27  1  0.15079329  0.93085349  0.59225660  1
  N  N28  1  0.16919049  0.20467462  0.85603432  1
  N  N29  1  0.83080951  0.79532538  0.14396568  1
  N  N30  1  0.83803253  0.52258561  0.91156587  1
  N  N31  1  0.16196747  0.47741439  0.08843413  1
  N  N32  1  0.80197986  0.29056077  0.66733783  1
  N  N33  1  0.19802014  0.70943923  0.33266217  1
  N  N34  1  0.34085455  0.59028407  0.76105684  1
  N  N35  1  0.65914545  0.40971593  0.23894316  1
