# generated using pymatgen
data_Rb5GaO4
_symmetry_space_group_name_H-M   'P 1'
_cell_length_a   7.07078706
_cell_length_b   21.62031485
_cell_length_c   12.10172013
_cell_angle_alpha   90.00000000
_cell_angle_beta   90.00000000
_cell_angle_gamma   90.00000000
_symmetry_Int_Tables_number   1
_chemical_formula_structural   Rb5GaO4
_chemical_formula_sum   'Rb40 Ga8 O32'
_cell_volume   1850.02193476
_cell_formula_units_Z   8
loop_
 _symmetry_equiv_pos_site_id
 _symmetry_equiv_pos_as_xyz
  1  'x, y, z'
loop_
 _atom_site_type_symbol
 _atom_site_label
 _atom_site_symmetry_multiplicity
 _atom_site_fract_x
 _atom_site_fract_y
 _atom_site_fract_z
 _atom_site_occupancy
  Rb  Rb0  1  0.56695886  0.36802590  0.29592744  1
  Rb  Rb1  1  0.06695886  0.13197410  0.70407256  1
  Rb  Rb2  1  0.43304114  0.86802590  0.20407256  1
  Rb  Rb3  1  0.93304114  0.63197410  0.79592744  1
  Rb  Rb4  1  0.43304114  0.63197410  0.70407256  1
  Rb  Rb5  1  0.93304114  0.86802590  0.29592744  1
  Rb  Rb6  1  0.56695886  0.13197410  0.79592744  1
  Rb  Rb7  1  0.06695886  0.36802590  0.20407256  1
  Rb  Rb8  1  0.57184851  0.00288781  0.36408551  1
  Rb  Rb9  1  0.07184851  0.49711219  0.63591449  1
  Rb  Rb10  1  0.42815149  0.50288781  0.13591449  1
  Rb  Rb11  1  0.92815149  0.99711219  0.86408551  1
  Rb  Rb12  1  0.42815149  0.99711219  0.63591449  1
  Rb  Rb13  1  0.92815149  0.50288781  0.36408551  1
  Rb  Rb14  1  0.57184851  0.49711219  0.86408551  1
  Rb  Rb15  1  0.07184851  0.00288781  0.13591449  1
  Rb  Rb16  1  0.57922029  0.06616087  0.06843652  1
  Rb  Rb17  1  0.07922029  0.43383913  0.93156348  1
  Rb  Rb18  1  0.42077971  0.56616087  0.43156348  1
  Rb  Rb19  1  0.92077971  0.93383913  0.56843652  1
  Rb  Rb20  1  0.42077971  0.93383913  0.93156348  1
  Rb  Rb21  1  0.92077971  0.56616087  0.06843652  1
  Rb  Rb22  1  0.57922029  0.43383913  0.56843652  1
  Rb  Rb23  1  0.07922029  0.06616087  0.43156348  1
  Rb  Rb24  1  0.88616637  0.25366104  0.41700125  1
  Rb  Rb25  1  0.38616637  0.24633896  0.58299875  1
  Rb  Rb26  1  0.11383363  0.75366104  0.08299875  1
  Rb  Rb27  1  0.61383363  0.74633896  0.91700125  1
  Rb  Rb28  1  0.11383363  0.74633896  0.58299875  1
  Rb  Rb29  1  0.61383363  0.75366104  0.41700125  1
  Rb  Rb30  1  0.88616637  0.24633896  0.91700125  1
  Rb  Rb31  1  0.38616637  0.25366104  0.08299875  1
  Rb  Rb32  1  0.89193319  0.17608058  0.17221572  1
  Rb  Rb33  1  0.39193319  0.32391942  0.82778428  1
  Rb  Rb34  1  0.10806681  0.67608058  0.32778428  1
  Rb  Rb35  1  0.60806681  0.82391942  0.67221572  1
  Rb  Rb36  1  0.10806681  0.82391942  0.82778428  1
  Rb  Rb37  1  0.60806681  0.67608058  0.17221572  1
  Rb  Rb38  1  0.89193319  0.32391942  0.67221572  1
  Rb  Rb39  1  0.39193319  0.17608058  0.32778428  1
  Ga  Ga40  1  0.67626831  0.12495999  0.53089734  1
  Ga  Ga41  1  0.17626831  0.37504001  0.46910266  1
  Ga  Ga42  1  0.32373169  0.62495999  0.96910266  1
  Ga  Ga43  1  0.82373169  0.87504001  0.03089734  1
  Ga  Ga44  1  0.32373169  0.87504001  0.46910266  1
  Ga  Ga45  1  0.82373169  0.62495999  0.53089734  1
  Ga  Ga46  1  0.67626831  0.37504001  0.03089734  1
  Ga  Ga47  1  0.17626831  0.12495999  0.96910266  1
  O  O48  1  0.74731937  0.13074424  0.37740706  1
  O  O49  1  0.24731937  0.36925576  0.62259294  1
  O  O50  1  0.25268063  0.63074424  0.12259294  1
  O  O51  1  0.75268063  0.86925576  0.87740706  1
  O  O52  1  0.25268063  0.86925576  0.62259294  1
  O  O53  1  0.75268063  0.63074424  0.37740706  1
  O  O54  1  0.74731937  0.36925576  0.87740706  1
  O  O55  1  0.24731937  0.13074424  0.12259294  1
  O  O56  1  0.75527980  0.30157055  0.10895906  1
  O  O57  1  0.25527980  0.19842945  0.89104094  1
  O  O58  1  0.24472020  0.80157055  0.39104094  1
  O  O59  1  0.74472020  0.69842945  0.60895906  1
  O  O60  1  0.24472020  0.69842945  0.89104094  1
  O  O61  1  0.74472020  0.80157055  0.10895906  1
  O  O62  1  0.75527980  0.19842945  0.60895906  1
  O  O63  1  0.25527980  0.30157055  0.39104094  1
  O  O64  1  0.78939664  0.44631902  0.09723561  1
  O  O65  1  0.28939664  0.05368098  0.90276439  1
  O  O66  1  0.21060336  0.94631902  0.40276439  1
  O  O67  1  0.71060336  0.55368098  0.59723561  1
  O  O68  1  0.21060336  0.55368098  0.90276439  1
  O  O69  1  0.71060336  0.94631902  0.09723561  1
  O  O70  1  0.78939664  0.05368098  0.59723561  1
  O  O71  1  0.28939664  0.44631902  0.40276439  1
  O  O72  1  0.90595589  0.38412461  0.46162787  1
  O  O73  1  0.40595589  0.11587539  0.53837213  1
  O  O74  1  0.09404411  0.88412461  0.03837213  1
  O  O75  1  0.59404411  0.61587539  0.96162787  1
  O  O76  1  0.09404411  0.61587539  0.53837213  1
  O  O77  1  0.59404411  0.88412461  0.46162787  1
  O  O78  1  0.90595589  0.11587539  0.96162787  1
  O  O79  1  0.40595589  0.38412461  0.03837213  1
