# generated using pymatgen
data_Rb5Li6(BO2)11
_symmetry_space_group_name_H-M   'P 1'
_cell_length_a   6.91087208
_cell_length_b   6.91087208
_cell_length_c   13.90918776
_cell_angle_alpha   75.49352253
_cell_angle_beta   75.49352253
_cell_angle_gamma   62.92486597
_symmetry_Int_Tables_number   1
_chemical_formula_structural   Rb5Li6(BO2)11
_chemical_formula_sum   'Rb5 Li6 B11 O22'
_cell_volume   565.42403397
_cell_formula_units_Z   1
loop_
 _symmetry_equiv_pos_site_id
 _symmetry_equiv_pos_as_xyz
  1  'x, y, z'
loop_
 _atom_site_type_symbol
 _atom_site_label
 _atom_site_symmetry_multiplicity
 _atom_site_fract_x
 _atom_site_fract_y
 _atom_site_fract_z
 _atom_site_occupancy
  Rb  Rb0  1  0.95079428  0.69611043  0.78705273  1
  Rb  Rb1  1  0.30388957  0.04920572  0.21294727  1
  Rb  Rb2  1  0.53162811  0.87423267  0.58831567  1
  Rb  Rb3  1  0.12576733  0.46837189  0.41168433  1
  Rb  Rb4  1  0.97936004  0.02063996  -0.00000000  1
  Li  Li5  1  0.42526140  0.41418510  0.59553068  1
  Li  Li6  1  0.58581490  0.57473860  0.40446932  1
  Li  Li7  1  0.43048824  0.11588416  0.76799344  1
  Li  Li8  1  0.88411584  0.56951176  0.23200656  1
  Li  Li9  1  0.08790104  0.49767675  0.04584142  1
  Li  Li10  1  0.50232325  0.91209896  0.95415858  1
  B  B11  1  0.44875839  0.64581161  0.83583928  1
  B  B12  1  0.35418839  0.55124161  0.16416072  1
  B  B13  1  0.84251922  0.16895838  0.59062187  1
  B  B14  1  0.83104162  0.15748078  0.40937813  1
  B  B15  1  0.68487561  0.28879526  0.76512385  1
  B  B16  1  0.71120474  0.31512439  0.23487615  1
  B  B17  1  0.04596646  0.26697781  0.68395969  1
  B  B18  1  0.73302219  0.95403354  0.31604031  1
  B  B19  1  0.12954604  0.87045396  0.50000000  1
  B  B20  1  0.39839922  0.31013932  0.92530291  1
  B  B21  1  0.68986068  0.60160078  0.07469709  1
  O  O22  1  0.43604200  0.84190328  0.84086221  1
  O  O23  1  0.15809672  0.56395800  0.15913779  1
  O  O24  1  0.57503694  0.18829056  0.85822970  1
  O  O25  1  0.81170944  0.42496306  0.14177030  1
  O  O26  1  0.22245271  0.30238179  0.68353886  1
  O  O27  1  0.69761821  0.77754729  0.31646114  1
  O  O28  1  0.33318394  0.53979867  0.91430991  1
  O  O29  1  0.46020133  0.66681606  0.08569009  1
  O  O30  1  0.56640008  0.53428214  0.75444645  1
  O  O31  1  0.46571786  0.43359992  0.24555355  1
  O  O32  1  0.31702099  0.68297901  0.50000000  1
  O  O33  1  0.98776999  0.27293009  0.59347510  1
  O  O34  1  0.72706991  0.01223001  0.40652490  1
  O  O35  1  0.98203668  0.92834545  0.58931340  1
  O  O36  1  0.07165455  0.01796332  0.41068660  1
  O  O37  1  0.91346358  0.22581907  0.77450632  1
  O  O38  1  0.77418093  0.08653642  0.22549368  1
  O  O39  1  0.66927436  0.20424744  0.68114453  1
  O  O40  1  0.79575256  0.33072564  0.31885547  1
  O  O41  1  0.73105619  0.26894381  0.50000000  1
  O  O42  1  0.29046541  0.21099094  0.99814837  1
  O  O43  1  0.78900906  0.70953459  0.00185163  1
