# generated using pymatgen
data_Rb3Zn(BO2)5
_symmetry_space_group_name_H-M   'P 1'
_cell_length_a   10.65567616
_cell_length_b   9.54307005
_cell_length_c   11.84933944
_cell_angle_alpha   90.00000000
_cell_angle_beta   105.48633438
_cell_angle_gamma   90.00000000
_symmetry_Int_Tables_number   1
_chemical_formula_structural   Rb3Zn(BO2)5
_chemical_formula_sum   'Rb12 Zn4 B20 O40'
_cell_volume   1161.18788185
_cell_formula_units_Z   4
loop_
 _symmetry_equiv_pos_site_id
 _symmetry_equiv_pos_as_xyz
  1  'x, y, z'
loop_
 _atom_site_type_symbol
 _atom_site_label
 _atom_site_symmetry_multiplicity
 _atom_site_fract_x
 _atom_site_fract_y
 _atom_site_fract_z
 _atom_site_occupancy
  Rb  Rb0  1  0.50807344  0.56760860  0.20518994  1
  Rb  Rb1  1  0.00807344  0.93239140  0.70518994  1
  Rb  Rb2  1  0.49192656  0.43239140  0.79481006  1
  Rb  Rb3  1  0.99192656  0.06760860  0.29481006  1
  Rb  Rb4  1  0.94484931  0.66790821  0.39162324  1
  Rb  Rb5  1  0.44484931  0.83209179  0.89162324  1
  Rb  Rb6  1  0.05515069  0.33209179  0.60837676  1
  Rb  Rb7  1  0.55515069  0.16790821  0.10837676  1
  Rb  Rb8  1  0.15937206  0.40774256  0.15768629  1
  Rb  Rb9  1  0.65937206  0.09225744  0.65768629  1
  Rb  Rb10  1  0.84062794  0.59225744  0.84231371  1
  Rb  Rb11  1  0.34062794  0.90774256  0.34231371  1
  Zn  Zn12  1  0.75354402  0.30503573  0.43218528  1
  Zn  Zn13  1  0.25354402  0.19496427  0.93218528  1
  Zn  Zn14  1  0.24645598  0.69496427  0.56781472  1
  Zn  Zn15  1  0.74645598  0.80503573  0.06781472  1
  B  B16  1  0.65090436  0.88319086  0.26993903  1
  B  B17  1  0.15090436  0.61680914  0.76993903  1
  B  B18  1  0.34909564  0.11680914  0.73006097  1
  B  B19  1  0.84909564  0.38319086  0.23006097  1
  B  B20  1  0.47254304  0.30708440  0.39268996  1
  B  B21  1  0.97254304  0.19291560  0.89268996  1
  B  B22  1  0.52745696  0.69291560  0.60731004  1
  B  B23  1  0.02745696  0.80708440  0.10731004  1
  B  B24  1  0.77671095  0.00253667  0.44889360  1
  B  B25  1  0.27671095  0.49746333  0.94889360  1
  B  B26  1  0.22328905  0.99746333  0.55110640  1
  B  B27  1  0.72328905  0.50253667  0.05110640  1
  B  B28  1  0.69750179  0.54136445  0.56060259  1
  B  B29  1  0.19750179  0.95863555  0.06060259  1
  B  B30  1  0.30249821  0.45863555  0.43939741  1
  B  B31  1  0.80249821  0.04136445  0.93939741  1
  B  B32  1  0.65295039  0.78145835  0.46865257  1
  B  B33  1  0.15295039  0.71854165  0.96865257  1
  B  B34  1  0.34704961  0.21854165  0.53134743  1
  B  B35  1  0.84704961  0.28145835  0.03134743  1
  O  O36  1  0.75892429  0.41631792  0.57508229  1
  O  O37  1  0.25892429  0.08368208  0.07508229  1
  O  O38  1  0.24107571  0.58368208  0.42491771  1
  O  O39  1  0.74107571  0.91631792  0.92491771  1
  O  O40  1  0.57005879  0.29859668  0.33950621  1
  O  O41  1  0.07005879  0.20140332  0.83950621  1
  O  O42  1  0.42994121  0.70140332  0.66049379  1
  O  O43  1  0.92994121  0.79859668  0.16049379  1
  O  O44  1  0.25394939  0.60930429  0.01572786  1
  O  O45  1  0.75394939  0.89069571  0.51572786  1
  O  O46  1  0.74605061  0.39069571  0.98427214  1
  O  O47  1  0.24605061  0.10930429  0.48427214  1
  O  O48  1  0.59246976  0.80605289  0.34134795  1
  O  O49  1  0.09246976  0.69394711  0.84134795  1
  O  O50  1  0.40753024  0.19394711  0.65865205  1
  O  O51  1  0.90753024  0.30605289  0.15865205  1
  O  O52  1  0.38611138  0.42383751  0.36718505  1
  O  O53  1  0.88611138  0.07616249  0.86718505  1
  O  O54  1  0.61388862  0.57616249  0.63281495  1
  O  O55  1  0.11388862  0.92383751  0.13281495  1
  O  O56  1  0.83387667  0.12120813  0.49971822  1
  O  O57  1  0.33387667  0.37879187  -0.00028178  1
  O  O58  1  0.16612333  0.87879187  0.50028178  1
  O  O59  1  0.66612333  0.62120813  0.00028178  1
  O  O60  1  0.95009284  0.29352742  0.96945395  1
  O  O61  1  0.45009284  0.20647258  0.46945395  1
  O  O62  1  0.04990716  0.70647258  0.03054605  1
  O  O63  1  0.54990716  0.79352742  0.53054605  1
  O  O64  1  0.75790486  0.48670309  0.17468337  1
  O  O65  1  0.25790486  0.01329691  0.67468337  1
  O  O66  1  0.24209514  0.51329691  0.82531663  1
  O  O67  1  0.74209514  0.98670309  0.32531663  1
  O  O68  1  0.88102319  0.36659655  0.34713044  1
  O  O69  1  0.38102319  0.13340345  0.84713044  1
  O  O70  1  0.11897681  0.63340345  0.65286956  1
  O  O71  1  0.61897681  0.86659655  0.15286956  1
  O  O72  1  0.71405232  0.64196016  0.48157473  1
  O  O73  1  0.21405232  0.85803984  0.98157473  1
  O  O74  1  0.28594768  0.35803984  0.51842527  1
  O  O75  1  0.78594768  0.14196016  0.01842527  1
