# generated using pymatgen
data_Rb2Ca2(SiO3)3
_symmetry_space_group_name_H-M   'P 1'
_cell_length_a   6.66633967
_cell_length_b   7.48037239
_cell_length_c   10.71623139
_cell_angle_alpha   90.00000000
_cell_angle_beta   93.79899818
_cell_angle_gamma   90.00000000
_symmetry_Int_Tables_number   1
_chemical_formula_structural   Rb2Ca2(SiO3)3
_chemical_formula_sum   'Rb4 Ca4 Si6 O18'
_cell_volume   533.20889145
_cell_formula_units_Z   2
loop_
 _symmetry_equiv_pos_site_id
 _symmetry_equiv_pos_as_xyz
  1  'x, y, z'
loop_
 _atom_site_type_symbol
 _atom_site_label
 _atom_site_symmetry_multiplicity
 _atom_site_fract_x
 _atom_site_fract_y
 _atom_site_fract_z
 _atom_site_occupancy
  Rb  Rb0  1  0.78808256  0.40842266  0.22730479  1
  Rb  Rb1  1  0.28808256  0.59157734  0.72730479  1
  Rb  Rb2  1  0.27444883  0.65876400  0.09865435  1
  Rb  Rb3  1  0.77444883  0.34123600  0.59865435  1
  Ca  Ca4  1  0.54132165  0.83392423  0.41415790  1
  Ca  Ca5  1  0.04132165  0.16607577  0.91415790  1
  Ca  Ca6  1  0.80390425  0.93480319  0.14528983  1
  Ca  Ca7  1  0.30390425  0.06519681  0.64528983  1
  Si  Si8  1  0.79259202  0.58434098  0.90710967  1
  Si  Si9  1  0.29259202  0.41565902  0.40710967  1
  Si  Si10  1  0.52259800  0.25496430  0.95072596  1
  Si  Si11  1  0.02259800  0.74503570  0.45072596  1
  Si  Si12  1  0.31027266  0.13792485  0.18371182  1
  Si  Si13  1  0.81027266  0.86207515  0.68371182  1
  O  O14  1  0.86713189  0.82570352  0.34309675  1
  O  O15  1  0.36713189  0.17429648  0.84309675  1
  O  O16  1  0.57852899  0.46420978  0.91019240  1
  O  O17  1  0.07852899  0.53579022  0.41019240  1
  O  O18  1  0.97582513  0.45944926  0.86616516  1
  O  O19  1  0.47582513  0.54055074  0.36616516  1
  O  O20  1  0.12184242  0.03489373  0.11173243  1
  O  O21  1  0.62184242  0.96510627  0.61173243  1
  O  O22  1  0.22545837  0.85414953  0.49112086  1
  O  O23  1  0.72545837  0.14585047  0.99112086  1
  O  O24  1  0.83072380  0.67998632  0.04187075  1
  O  O25  1  0.33072380  0.32001368  0.54187075  1
  O  O26  1  0.49356140  0.00724838  0.23386727  1
  O  O27  1  0.99356140  0.99275162  0.73386727  1
  O  O28  1  0.39307969  0.28562200  0.07943674  1
  O  O29  1  0.89307969  0.71437800  0.57943674  1
  O  O30  1  0.72528833  0.73177842  0.79412331  1
  O  O31  1  0.22528833  0.26822158  0.29412331  1
