# generated using pymatgen
data_SrMgB2O5
_symmetry_space_group_name_H-M   'P 1'
_cell_length_a   6.60742348
_cell_length_b   5.37648928
_cell_length_c   12.13988108
_cell_angle_alpha   90.00000000
_cell_angle_beta   102.62965283
_cell_angle_gamma   90.00000000
_symmetry_Int_Tables_number   1
_chemical_formula_structural   SrMgB2O5
_chemical_formula_sum   'Sr4 Mg4 B8 O20'
_cell_volume   420.83110654
_cell_formula_units_Z   4
loop_
 _symmetry_equiv_pos_site_id
 _symmetry_equiv_pos_as_xyz
  1  'x, y, z'
loop_
 _atom_site_type_symbol
 _atom_site_label
 _atom_site_symmetry_multiplicity
 _atom_site_fract_x
 _atom_site_fract_y
 _atom_site_fract_z
 _atom_site_occupancy
  Sr  Sr0  1  0.18353386  0.39041855  0.68986886  1
  Sr  Sr1  1  0.81646614  0.89041855  0.81013114  1
  Sr  Sr2  1  0.81646614  0.60958145  0.31013114  1
  Sr  Sr3  1  0.18353386  0.10958145  0.18986886  1
  Mg  Mg4  1  0.65334012  0.41450909  0.60583334  1
  Mg  Mg5  1  0.34665988  0.91450909  0.89416666  1
  Mg  Mg6  1  0.34665988  0.58549091  0.39416666  1
  Mg  Mg7  1  0.65334012  0.08549091  0.10583334  1
  B  B8  1  0.64433422  0.36669417  0.88295467  1
  B  B9  1  0.35566578  0.86669417  0.61704533  1
  B  B10  1  0.35566578  0.63330583  0.11704533  1
  B  B11  1  0.64433422  0.13330583  0.38295467  1
  B  B12  1  0.81609520  0.90932474  0.56772221  1
  B  B13  1  0.18390480  0.40932474  0.93227779  1
  B  B14  1  0.18390480  0.09067526  0.43227779  1
  B  B15  1  0.81609520  0.59067526  0.06772221  1
  O  O16  1  0.39832224  0.64943916  0.56660647  1
  O  O17  1  0.60167776  0.14943916  0.93339353  1
  O  O18  1  0.60167776  0.35056084  0.43339353  1
  O  O19  1  0.39832224  0.85056084  0.06660647  1
  O  O20  1  0.62307166  0.39735266  0.77015435  1
  O  O21  1  0.37692834  0.89735266  0.72984565  1
  O  O22  1  0.37692834  0.60264734  0.22984565  1
  O  O23  1  0.62307166  0.10264734  0.27015435  1
  O  O24  1  0.84707332  0.12150743  0.63095276  1
  O  O25  1  0.15292668  0.62150743  0.86904724  1
  O  O26  1  0.15292668  0.87849257  0.36904724  1
  O  O27  1  0.84707332  0.37849257  0.13095276  1
  O  O28  1  0.28265600  0.08119738  0.54905965  1
  O  O29  1  0.71734400  0.58119738  0.95094035  1
  O  O30  1  0.71734400  0.91880262  0.45094035  1
  O  O31  1  0.28265600  0.41880262  0.04905965  1
  O  O32  1  0.87021674  0.68106902  0.61540665  1
  O  O33  1  0.12978326  0.18106902  0.88459335  1
  O  O34  1  0.12978326  0.31893098  0.38459335  1
  O  O35  1  0.87021674  0.81893098  0.11540665  1
