# generated using pymatgen
data_Sr2Si(S2O7)4
_symmetry_space_group_name_H-M   'P 1'
_cell_length_a   7.14614112
_cell_length_b   13.16920690
_cell_length_c   12.50069129
_cell_angle_alpha   90.00000000
_cell_angle_beta   97.07856511
_cell_angle_gamma   90.00000000
_symmetry_Int_Tables_number   1
_chemical_formula_structural   Sr2Si(S2O7)4
_chemical_formula_sum   'Sr4 Si2 S16 O56'
_cell_volume   1167.46108962
_cell_formula_units_Z   2
loop_
 _symmetry_equiv_pos_site_id
 _symmetry_equiv_pos_as_xyz
  1  'x, y, z'
loop_
 _atom_site_type_symbol
 _atom_site_label
 _atom_site_symmetry_multiplicity
 _atom_site_fract_x
 _atom_site_fract_y
 _atom_site_fract_z
 _atom_site_occupancy
  Sr  Sr0  1  0.79972369  0.63513864  0.15908717  1
  Sr  Sr1  1  0.29972369  0.86486136  0.65908717  1
  Sr  Sr2  1  0.20027631  0.36486136  0.84091283  1
  Sr  Sr3  1  0.70027631  0.13513864  0.34091283  1
  Si  Si4  1  0.50000000  0.50000000  0.50000000  1
  Si  Si5  1  -0.00000000  0.00000000  0.00000000  1
  S  S6  1  0.28801680  0.52920041  0.10699869  1
  S  S7  1  0.78801680  0.97079959  0.60699869  1
  S  S8  1  0.71198320  0.47079959  0.89300131  1
  S  S9  1  0.21198320  0.02920041  0.39300131  1
  S  S10  1  0.53325559  0.41664698  0.27457081  1
  S  S11  1  0.03325559  0.08335302  0.77457081  1
  S  S12  1  0.46674441  0.58335302  0.72542919  1
  S  S13  1  0.96674441  0.91664698  0.22542919  1
  S  S14  1  0.53559542  0.71496429  0.41186879  1
  S  S15  1  0.03559542  0.78503571  0.91186879  1
  S  S16  1  0.46440458  0.28503571  0.58813121  1
  S  S17  1  0.96440458  0.21496429  0.08813121  1
  S  S18  1  0.16607343  0.64474250  0.44178632  1
  S  S19  1  0.66607343  0.85525750  0.94178632  1
  S  S20  1  0.83392657  0.35525750  0.55821368  1
  S  S21  1  0.33392657  0.14474250  0.05821368  1
  O  O22  1  0.43839598  0.47462788  0.35948135  1
  O  O23  1  0.93839598  0.02537212  0.85948135  1
  O  O24  1  0.56160402  0.52537212  0.64051865  1
  O  O25  1  0.06160402  0.97462788  0.14051865  1
  O  O26  1  0.43633601  0.60383555  0.12900754  1
  O  O27  1  0.93633601  0.89616445  0.62900754  1
  O  O28  1  0.56366399  0.39616445  0.87099246  1
  O  O29  1  0.06366399  0.10383555  0.37099246  1
  O  O30  1  0.60548858  0.61836081  0.47032451  1
  O  O31  1  0.10548858  0.88163919  0.97032451  1
  O  O32  1  0.39451142  0.38163919  0.52967549  1
  O  O33  1  0.89451142  0.11836081  0.02967549  1
  O  O34  1  0.37605836  0.41856088  0.17461592  1
  O  O35  1  0.87605836  0.08143912  0.67461592  1
  O  O36  1  0.62394164  0.58143912  0.82538408  1
  O  O37  1  0.12394164  0.91856088  0.32538408  1
  O  O38  1  0.11992631  0.54859246  0.15720700  1
  O  O39  1  0.61992631  0.95140754  0.65720700  1
  O  O40  1  0.88007369  0.45140754  0.84279300  1
  O  O41  1  0.38007369  0.04859246  0.34279300  1
  O  O42  1  0.55186892  0.31046975  0.30105491  1
  O  O43  1  0.05186892  0.18953025  0.80105491  1
  O  O44  1  0.44813108  0.68953025  0.69894509  1
  O  O45  1  0.94813108  0.81046975  0.19894509  1
  O  O46  1  0.70048778  0.46906535  0.25087034  1
  O  O47  1  0.20048778  0.03093465  0.75087034  1
  O  O48  1  0.29951222  0.53093465  0.74912966  1
  O  O49  1  0.79951222  0.96906535  0.24912966  1
  O  O50  1  0.52735070  0.79709933  0.48619934  1
  O  O51  1  0.02735070  0.70290067  0.98619934  1
  O  O52  1  0.47264930  0.20290067  0.51380066  1
  O  O53  1  0.97264930  0.29709933  0.01380066  1
  O  O54  1  0.62622580  0.73024729  0.31721898  1
  O  O55  1  0.12622580  0.76975271  0.81721898  1
  O  O56  1  0.37377420  0.26975271  0.68278102  1
  O  O57  1  0.87377420  0.23024729  0.18278102  1
  O  O58  1  0.25920620  0.48879169  0.99890624  1
  O  O59  1  0.75920620  0.01120831  0.49890624  1
  O  O60  1  0.74079380  0.51120831  0.00109376  1
  O  O61  1  0.24079380  0.98879169  0.50109376  1
  O  O62  1  0.31654508  0.68581277  0.36181564  1
  O  O63  1  0.81654508  0.81418723  0.86181564  1
  O  O64  1  0.68345492  0.31418723  0.63818436  1
  O  O65  1  0.18345492  0.18581277  0.13818436  1
  O  O66  1  0.27068102  0.55569088  0.49998391  1
  O  O67  1  0.77068102  0.94430912  -0.00001609  1
  O  O68  1  0.72931898  0.44430912  0.50001609  1
  O  O69  1  0.22931898  0.05569088  0.00001609  1
  O  O70  1  0.00902383  0.61168379  0.36829381  1
  O  O71  1  0.50902383  0.88831621  0.86829381  1
  O  O72  1  0.99097617  0.38831621  0.63170619  1
  O  O73  1  0.49097617  0.11168379  0.13170619  1
  O  O74  1  0.13667098  0.72338143  0.51763770  1
  O  O75  1  0.63667098  0.77661857  0.01763770  1
  O  O76  1  0.86332902  0.27661857  0.48236230  1
  O  O77  1  0.36332902  0.22338143  0.98236230  1
