# generated using pymatgen
data_SrMgP3N5O2
_symmetry_space_group_name_H-M   'P 1'
_cell_length_a   7.02225099
_cell_length_b   6.66258809
_cell_length_c   14.14207060
_cell_angle_alpha   90.00000000
_cell_angle_beta   118.70996324
_cell_angle_gamma   90.00000000
_symmetry_Int_Tables_number   1
_chemical_formula_structural   SrMgP3N5O2
_chemical_formula_sum   'Sr4 Mg4 P12 N20 O8'
_cell_volume   580.31383808
_cell_formula_units_Z   4
loop_
 _symmetry_equiv_pos_site_id
 _symmetry_equiv_pos_as_xyz
  1  'x, y, z'
loop_
 _atom_site_type_symbol
 _atom_site_label
 _atom_site_symmetry_multiplicity
 _atom_site_fract_x
 _atom_site_fract_y
 _atom_site_fract_z
 _atom_site_occupancy
  Sr  Sr0  1  0.48337638  0.25475523  0.60902849  1
  Sr  Sr1  1  0.51662362  0.75475523  0.89097151  1
  Sr  Sr2  1  0.51662362  0.74524477  0.39097151  1
  Sr  Sr3  1  0.48337638  0.24524477  0.10902849  1
  Mg  Mg4  1  0.01993854  0.49393579  0.88475760  1
  Mg  Mg5  1  0.98006146  0.99393579  0.61524240  1
  Mg  Mg6  1  0.98006146  0.50606421  0.11524240  1
  Mg  Mg7  1  0.01993854  0.00606421  0.38475760  1
  P  P8  1  0.06274821  0.98388323  0.88063110  1
  P  P9  1  0.93725179  0.48388323  0.61936890  1
  P  P10  1  0.93725179  0.01611677  0.11936890  1
  P  P11  1  0.06274821  0.51611677  0.38063110  1
  P  P12  1  0.25970850  0.72396176  0.58863322  1
  P  P13  1  0.74029150  0.22396176  0.91136678  1
  P  P14  1  0.74029150  0.27603824  0.41136678  1
  P  P15  1  0.25970850  0.77603824  0.08863322  1
  P  P16  1  0.27471273  0.24220564  0.79064139  1
  P  P17  1  0.72528727  0.74220564  0.70935861  1
  P  P18  1  0.72528727  0.75779436  0.20935861  1
  P  P19  1  0.27471273  0.25779436  0.29064139  1
  N  N20  1  0.05679856  0.68936723  0.61279601  1
  N  N21  1  0.94320144  0.18936723  0.88720399  1
  N  N22  1  0.94320144  0.31063277  0.38720399  1
  N  N23  1  0.05679856  0.81063277  0.11279601  1
  N  N24  1  0.10652423  0.29430509  0.66291370  1
  N  N25  1  0.89347577  0.79430509  0.83708630  1
  N  N26  1  0.89347577  0.70569491  0.33708630  1
  N  N27  1  0.10652423  0.20569491  0.16291370  1
  N  N28  1  0.17811277  0.02549696  0.80543461  1
  N  N29  1  0.82188723  0.52549696  0.69456539  1
  N  N30  1  0.82188723  0.97450304  0.19456539  1
  N  N31  1  0.17811277  0.47450304  0.30543461  1
  N  N32  1  0.51208421  0.20185100  0.79974133  1
  N  N33  1  0.48791579  0.70185100  0.70025867  1
  N  N34  1  0.48791579  0.79814900  0.20025867  1
  N  N35  1  0.51208421  0.29814900  0.29974133  1
  N  N36  1  0.73204237  0.42099213  0.50192783  1
  N  N37  1  0.26795763  0.92099213  0.99807217  1
  N  N38  1  0.26795763  0.57900787  0.49807217  1
  N  N39  1  0.73204237  0.07900787  0.00192783  1
  O  O40  1  0.22072199  0.94944460  0.54943018  1
  O  O41  1  0.77927801  0.44944460  0.95056982  1
  O  O42  1  0.77927801  0.05055540  0.45056982  1
  O  O43  1  0.22072199  0.55055540  0.04943018  1
  O  O44  1  0.28616428  0.41190234  0.86968569  1
  O  O45  1  0.71383572  0.91190234  0.63031431  1
  O  O46  1  0.71383572  0.58809766  0.13031431  1
  O  O47  1  0.28616428  0.08809766  0.36968569  1
