# generated using pymatgen
data_Sr3BeB6O13
_symmetry_space_group_name_H-M   'P 1'
_cell_length_a   12.91145038
_cell_length_b   10.13451513
_cell_length_c   8.14213929
_cell_angle_alpha   90.00000000
_cell_angle_beta   90.00000000
_cell_angle_gamma   90.00000000
_symmetry_Int_Tables_number   1
_chemical_formula_structural   Sr3BeB6O13
_chemical_formula_sum   'Sr12 Be4 B24 O52'
_cell_volume   1065.40942316
_cell_formula_units_Z   4
loop_
 _symmetry_equiv_pos_site_id
 _symmetry_equiv_pos_as_xyz
  1  'x, y, z'
loop_
 _atom_site_type_symbol
 _atom_site_label
 _atom_site_symmetry_multiplicity
 _atom_site_fract_x
 _atom_site_fract_y
 _atom_site_fract_z
 _atom_site_occupancy
  Sr  Sr0  1  0.99134573  0.49800928  0.76640717  1
  Sr  Sr1  1  0.49134573  0.00199072  0.73359283  1
  Sr  Sr2  1  0.00865427  0.99800928  0.23359283  1
  Sr  Sr3  1  0.50865427  0.50199072  0.26640717  1
  Sr  Sr4  1  0.00865427  0.50199072  0.23359283  1
  Sr  Sr5  1  0.50865427  0.99800928  0.26640717  1
  Sr  Sr6  1  0.99134573  0.00199072  0.76640717  1
  Sr  Sr7  1  0.49134573  0.49800928  0.73359283  1
  Sr  Sr8  1  0.76209076  0.75000000  0.59370497  1
  Sr  Sr9  1  0.26209076  0.75000000  0.90629503  1
  Sr  Sr10  1  0.23790924  0.25000000  0.40629503  1
  Sr  Sr11  1  0.73790924  0.25000000  0.09370497  1
  Be  Be12  1  0.15957737  0.25000000  0.79265908  1
  Be  Be13  1  0.65957737  0.25000000  0.70734092  1
  Be  Be14  1  0.84042263  0.75000000  0.20734092  1
  Be  Be15  1  0.34042263  0.75000000  0.29265908  1
  B  B16  1  0.31151315  0.12513202  0.97331381  1
  B  B17  1  0.81151315  0.37486798  0.52668619  1
  B  B18  1  0.68848685  0.62513202  0.02668619  1
  B  B19  1  0.18848685  0.87486798  0.47331381  1
  B  B20  1  0.68848685  0.87486798  0.02668619  1
  B  B21  1  0.18848685  0.62513202  0.47331381  1
  B  B22  1  0.31151315  0.37486798  0.97331381  1
  B  B23  1  0.81151315  0.12513202  0.52668619  1
  B  B24  1  0.76285541  0.51930378  0.28598542  1
  B  B25  1  0.26285541  0.98069622  0.21401458  1
  B  B26  1  0.23714459  0.01930378  0.71401458  1
  B  B27  1  0.73714459  0.48069622  0.78598542  1
  B  B28  1  0.23714459  0.48069622  0.71401458  1
  B  B29  1  0.73714459  0.01930378  0.78598542  1
  B  B30  1  0.76285541  0.98069622  0.28598542  1
  B  B31  1  0.26285541  0.51930378  0.21401458  1
  B  B32  1  0.96032915  0.25000000  0.97424036  1
  B  B33  1  0.46032915  0.25000000  0.52575964  1
  B  B34  1  0.03967085  0.75000000  0.02575964  1
  B  B35  1  0.53967085  0.75000000  0.47424036  1
  B  B36  1  0.02959682  0.75000000  0.56371635  1
  B  B37  1  0.52959682  0.75000000  0.93628365  1
  B  B38  1  0.97040318  0.25000000  0.43628365  1
  B  B39  1  0.47040318  0.25000000  0.06371635  1
  O  O40  1  0.75468595  0.40327700  0.37374149  1
  O  O41  1  0.25468595  0.09672300  0.12625851  1
  O  O42  1  0.24531405  0.90327700  0.62625851  1
  O  O43  1  0.74531405  0.59672300  0.87374149  1
  O  O44  1  0.24531405  0.59672300  0.62625851  1
  O  O45  1  0.74531405  0.90327700  0.87374149  1
  O  O46  1  0.75468595  0.09672300  0.37374149  1
  O  O47  1  0.25468595  0.40327700  0.12625851  1
  O  O48  1  0.94876651  0.75000000  0.66644352  1
  O  O49  1  0.44876651  0.75000000  0.83355648  1
  O  O50  1  0.05123349  0.25000000  0.33355648  1
  O  O51  1  0.55123349  0.25000000  0.16644352  1
  O  O52  1  0.27168706  0.25000000  0.90494623  1
  O  O53  1  0.77168706  0.25000000  0.59505377  1
  O  O54  1  0.72831294  0.75000000  0.09505377  1
  O  O55  1  0.22831294  0.75000000  0.40494623  1
  O  O56  1  0.80180867  0.48159993  0.64880096  1
  O  O57  1  0.30180867  0.01840007  0.85119904  1
  O  O58  1  0.19819133  0.98159993  0.35119904  1
  O  O59  1  0.69819133  0.51840007  0.14880096  1
  O  O60  1  0.19819133  0.51840007  0.35119904  1
  O  O61  1  0.69819133  0.98159993  0.14880096  1
  O  O62  1  0.80180867  0.01840007  0.64880096  1
  O  O63  1  0.30180867  0.48159993  0.85119904  1
  O  O64  1  0.17057609  0.38157240  0.67753622  1
  O  O65  1  0.67057609  0.11842760  0.82246378  1
  O  O66  1  0.82942391  0.88157240  0.32246378  1
  O  O67  1  0.32942391  0.61842760  0.17753622  1
  O  O68  1  0.82942391  0.61842760  0.32246378  1
  O  O69  1  0.32942391  0.88157240  0.17753622  1
  O  O70  1  0.17057609  0.11842760  0.67753622  1
  O  O71  1  0.67057609  0.38157240  0.82246378  1
  O  O72  1  0.04640667  0.25000000  0.87063473  1
  O  O73  1  0.54640667  0.25000000  0.62936527  1
  O  O74  1  0.95359333  0.75000000  0.12936527  1
  O  O75  1  0.45359333  0.75000000  0.37063473  1
  O  O76  1  0.08469738  0.63029090  0.98205232  1
  O  O77  1  0.58469738  0.86970910  0.51794768  1
  O  O78  1  0.91530262  0.13029090  0.01794768  1
  O  O79  1  0.41530262  0.36970910  0.48205232  1
  O  O80  1  0.91530262  0.36970910  0.01794768  1
  O  O81  1  0.41530262  0.13029090  0.48205232  1
  O  O82  1  0.08469738  0.86970910  0.98205232  1
  O  O83  1  0.58469738  0.63029090  0.51794768  1
  O  O84  1  0.07546812  0.86823216  0.51084197  1
  O  O85  1  0.57546812  0.63176784  0.98915803  1
  O  O86  1  0.92453188  0.36823216  0.48915803  1
  O  O87  1  0.42453188  0.13176784  0.01084197  1
  O  O88  1  0.92453188  0.13176784  0.48915803  1
  O  O89  1  0.42453188  0.36823216  0.01084197  1
  O  O90  1  0.07546812  0.63176784  0.51084197  1
  O  O91  1  0.57546812  0.86823216  0.98915803  1
