# generated using pymatgen
data_Li3CuO2
_symmetry_space_group_name_H-M   'P 1'
_cell_length_a   6.61110967
_cell_length_b   7.87772813
_cell_length_c   5.49508140
_cell_angle_alpha   90.00000000
_cell_angle_beta   110.79569059
_cell_angle_gamma   90.00000000
_symmetry_Int_Tables_number   1
_chemical_formula_structural   Li3CuO2
_chemical_formula_sum   'Li12 Cu4 O8'
_cell_volume   267.54233883
_cell_formula_units_Z   4
loop_
 _symmetry_equiv_pos_site_id
 _symmetry_equiv_pos_as_xyz
  1  'x, y, z'
loop_
 _atom_site_type_symbol
 _atom_site_label
 _atom_site_symmetry_multiplicity
 _atom_site_fract_x
 _atom_site_fract_y
 _atom_site_fract_z
 _atom_site_occupancy
  Li  Li0  1  0.97945242  0.51356879  0.72989372  1
  Li  Li1  1  0.12064853  0.96590816  0.88220744  1
  Li  Li2  1  0.18577319  0.79825417  0.43725339  1
  Li  Li3  1  0.37935147  0.46590816  0.61779256  1
  Li  Li4  1  0.31422681  0.29825417  0.06274661  1
  Li  Li5  1  0.52054758  0.01356879  0.77010628  1
  Li  Li6  1  0.47945242  0.98643121  0.22989372  1
  Li  Li7  1  0.68577319  0.70174583  0.93725339  1
  Li  Li8  1  0.62064853  0.53409184  0.38220744  1
  Li  Li9  1  0.81422681  0.20174583  0.56274661  1
  Li  Li10  1  0.87935147  0.03409184  0.11779256  1
  Li  Li11  1  0.02054758  0.48643121  0.27010628  1
  Cu  Cu12  1  0.18293979  0.17055492  0.47266843  1
  Cu  Cu13  1  0.31706021  0.67055492  0.02733157  1
  Cu  Cu14  1  0.68293979  0.32944508  0.97266843  1
  Cu  Cu15  1  0.81706021  0.82944508  0.52733157  1
  O  O16  1  0.13888203  0.33249250  0.68081301  1
  O  O17  1  0.20190751  0.01040217  0.24566661  1
  O  O18  1  0.36111797  0.83249250  0.81918699  1
  O  O19  1  0.29809249  0.51040217  0.25433339  1
  O  O20  1  0.70190751  0.48959783  0.74566661  1
  O  O21  1  0.63888203  0.16750750  0.18081301  1
  O  O22  1  0.79809249  0.98959783  0.75433339  1
  O  O23  1  0.86111797  0.66750750  0.31918699  1
