# generated using pymatgen
data_Sr2LiBeB3O8
_symmetry_space_group_name_H-M   'P 1'
_cell_length_a   8.68380167
_cell_length_b   6.55837729
_cell_length_c   13.03300287
_cell_angle_alpha   90.00000000
_cell_angle_beta   106.65023542
_cell_angle_gamma   90.00000000
_symmetry_Int_Tables_number   1
_chemical_formula_structural   Sr2LiBeB3O8
_chemical_formula_sum   'Sr8 Li4 Be4 B12 O32'
_cell_volume   711.12968199
_cell_formula_units_Z   4
loop_
 _symmetry_equiv_pos_site_id
 _symmetry_equiv_pos_as_xyz
  1  'x, y, z'
loop_
 _atom_site_type_symbol
 _atom_site_label
 _atom_site_symmetry_multiplicity
 _atom_site_fract_x
 _atom_site_fract_y
 _atom_site_fract_z
 _atom_site_occupancy
  Sr  Sr0  1  0.35697490  0.25659923  0.92749094  1
  Sr  Sr1  1  0.64302510  0.75659923  0.57250906  1
  Sr  Sr2  1  0.64302510  0.74340077  0.07250906  1
  Sr  Sr3  1  0.35697490  0.24340077  0.42749094  1
  Sr  Sr4  1  0.96427799  0.61075411  0.84186881  1
  Sr  Sr5  1  0.03572201  0.11075411  0.65813119  1
  Sr  Sr6  1  0.03572201  0.38924589  0.15813119  1
  Sr  Sr7  1  0.96427799  0.88924589  0.34186881  1
  Li  Li8  1  0.37327579  0.73096969  0.82815945  1
  Li  Li9  1  0.62672421  0.23096969  0.67184055  1
  Li  Li10  1  0.62672421  0.26903031  0.17184055  1
  Li  Li11  1  0.37327579  0.76903031  0.32815945  1
  Be  Be12  1  0.67582227  0.93015065  0.84464412  1
  Be  Be13  1  0.32417773  0.43015065  0.65535588  1
  Be  Be14  1  0.32417773  0.06984935  0.15535588  1
  Be  Be15  1  0.67582227  0.56984935  0.34464412  1
  B  B16  1  0.73853047  0.23094856  0.98584657  1
  B  B17  1  0.26146953  0.73094856  0.51415343  1
  B  B18  1  0.26146953  0.76905144  0.01415343  1
  B  B19  1  0.73853047  0.26905144  0.48584657  1
  B  B20  1  0.93642673  0.15204632  0.88009699  1
  B  B21  1  0.06357327  0.65204632  0.61990301  1
  B  B22  1  0.06357327  0.84795368  0.11990301  1
  B  B23  1  0.93642673  0.34795368  0.38009699  1
  B  B24  1  0.40215335  0.05115440  0.70635028  1
  B  B25  1  0.59784665  0.55115440  0.79364972  1
  B  B26  1  0.59784665  0.94884560  0.29364972  1
  B  B27  1  0.40215335  0.44884560  0.20635028  1
  O  O28  1  0.88432331  0.26817168  0.95789784  1
  O  O29  1  0.11567669  0.76817168  0.54210216  1
  O  O30  1  0.11567669  0.73182832  0.04210216  1
  O  O31  1  0.88432331  0.23182832  0.45789784  1
  O  O32  1  0.63967291  0.07257389  0.93964628  1
  O  O33  1  0.36032709  0.57257389  0.56035372  1
  O  O34  1  0.36032709  0.92742611  0.06035372  1
  O  O35  1  0.63967291  0.42742611  0.43964628  1
  O  O36  1  0.70888039  0.35762165  0.06020261  1
  O  O37  1  0.29111961  0.85762165  0.43979739  1
  O  O38  1  0.29111961  0.64237835  0.93979739  1
  O  O39  1  0.70888039  0.14237835  0.56020261  1
  O  O40  1  0.85960007  0.97568621  0.83995571  1
  O  O41  1  0.14039993  0.47568621  0.66004429  1
  O  O42  1  0.14039993  0.02431379  0.16004429  1
  O  O43  1  0.85960007  0.52431379  0.33995571  1
  O  O44  1  0.05685771  0.23760284  0.84746739  1
  O  O45  1  0.94314229  0.73760284  0.65253261  1
  O  O46  1  0.94314229  0.76239716  0.15253261  1
  O  O47  1  0.05685771  0.26239716  0.34746739  1
  O  O48  1  0.55768396  0.97656426  0.72365665  1
  O  O49  1  0.44231604  0.47656426  0.77634335  1
  O  O50  1  0.44231604  0.02343574  0.27634335  1
  O  O51  1  0.55768396  0.52343574  0.22365665  1
  O  O52  1  0.65124676  0.69352614  0.87695180  1
  O  O53  1  0.34875324  0.19352614  0.62304820  1
  O  O54  1  0.34875324  0.30647386  0.12304820  1
  O  O55  1  0.65124676  0.80647386  0.37695180  1
  O  O56  1  0.30654749  0.99516620  0.76892574  1
  O  O57  1  0.69345251  0.49516620  0.73107426  1
  O  O58  1  0.69345251  0.00483380  0.23107426  1
  O  O59  1  0.30654749  0.50483380  0.26892574  1
