# generated using pymatgen
data_Sr3Ge2(B3O8)2
_symmetry_space_group_name_H-M   'P 1'
_cell_length_a   5.06346051
_cell_length_b   7.46609862
_cell_length_c   8.56458977
_cell_angle_alpha   76.71541572
_cell_angle_beta   77.15314171
_cell_angle_gamma   89.52854552
_symmetry_Int_Tables_number   1
_chemical_formula_structural   Sr3Ge2(B3O8)2
_chemical_formula_sum   'Sr3 Ge2 B6 O16'
_cell_volume   306.91259530
_cell_formula_units_Z   1
loop_
 _symmetry_equiv_pos_site_id
 _symmetry_equiv_pos_as_xyz
  1  'x, y, z'
loop_
 _atom_site_type_symbol
 _atom_site_label
 _atom_site_symmetry_multiplicity
 _atom_site_fract_x
 _atom_site_fract_y
 _atom_site_fract_z
 _atom_site_occupancy
  Sr  Sr0  1  0.90857837  0.90882099  0.74248955  1
  Sr  Sr1  1  0.09142163  0.09117901  0.25751045  1
  Sr  Sr2  1  0.00000000  0.50000000  0.50000000  1
  Ge  Ge3  1  0.30024176  0.68510520  0.05415903  1
  Ge  Ge4  1  0.69975824  0.31489480  0.94584097  1
  B  B5  1  0.54178733  0.19156083  0.53861600  1
  B  B6  1  0.45821267  0.80843917  0.46138400  1
  B  B7  1  0.54062487  0.41084317  0.25818930  1
  B  B8  1  0.45937513  0.58915683  0.74181070  1
  B  B9  1  0.73007904  0.75513200  0.19596937  1
  B  B10  1  0.26992096  0.24486800  0.80403063  1
  O  O11  1  0.37473252  0.11671233  0.69560883  1
  O  O12  1  0.62526748  0.88328767  0.30439117  1
  O  O13  1  0.81343619  0.17792038  0.51233757  1
  O  O14  1  0.18656381  0.82207962  0.48766243  1
  O  O15  1  0.41288596  0.27636968  0.41408015  1
  O  O16  1  0.58711404  0.72363032  0.58591985  1
  O  O17  1  0.29422132  0.46532370  0.19015989  1
  O  O18  1  0.70577868  0.53467630  0.80984011  1
  O  O19  1  0.73210576  0.31584357  0.14606711  1
  O  O20  1  0.26789424  0.68415643  0.85393289  1
  O  O21  1  0.67471233  0.56397190  0.29295574  1
  O  O22  1  0.32528767  0.43602810  0.70704426  1
  O  O23  1  0.02815531  0.80678864  0.14073355  1
  O  O24  1  0.97184469  0.19321136  0.85926645  1
  O  O25  1  0.61329789  0.79526167  0.04645235  1
  O  O26  1  0.38670211  0.20473833  0.95354765  1
