# generated using pymatgen
data_Rb2GeB4O9
_symmetry_space_group_name_H-M   'P 1'
_cell_length_a   6.72935488
_cell_length_b   10.06679812
_cell_length_c   13.46842047
_cell_angle_alpha   90.00000000
_cell_angle_beta   90.35513833
_cell_angle_gamma   90.00000000
_symmetry_Int_Tables_number   1
_chemical_formula_structural   Rb2GeB4O9
_chemical_formula_sum   'Rb8 Ge4 B16 O36'
_cell_volume   912.37444904
_cell_formula_units_Z   4
loop_
 _symmetry_equiv_pos_site_id
 _symmetry_equiv_pos_as_xyz
  1  'x, y, z'
loop_
 _atom_site_type_symbol
 _atom_site_label
 _atom_site_symmetry_multiplicity
 _atom_site_fract_x
 _atom_site_fract_y
 _atom_site_fract_z
 _atom_site_occupancy
  Rb  Rb0  1  0.78138454  0.37364089  0.11711667  1
  Rb  Rb1  1  0.21861546  0.87364089  0.88288333  1
  Rb  Rb2  1  0.25624727  0.65858102  0.11948009  1
  Rb  Rb3  1  0.74375273  0.15858102  0.88051991  1
  Rb  Rb4  1  0.77079545  0.15297015  0.36539608  1
  Rb  Rb5  1  0.22920455  0.65297015  0.63460392  1
  Rb  Rb6  1  0.70722383  0.43237416  0.62714520  1
  Rb  Rb7  1  0.29277617  0.93237416  0.37285480  1
  Ge  Ge8  1  0.25647138  0.14813564  0.13054864  1
  Ge  Ge9  1  0.74352862  0.64813564  0.86945136  1
  Ge  Ge10  1  0.75429818  0.65786475  0.38359643  1
  Ge  Ge11  1  0.24570182  0.15786475  0.61640357  1
  B  B12  1  0.59762368  0.98374122  0.16007929  1
  B  B13  1  0.40237632  0.48374122  0.83992071  1
  B  B14  1  0.33853821  0.32282883  0.45568521  1
  B  B15  1  0.66146179  0.82282883  0.54431479  1
  B  B16  1  0.92795831  0.98171598  0.09411910  1
  B  B17  1  0.07204169  0.48171598  0.90588090  1
  B  B18  1  0.19455570  0.32286777  0.29324459  1
  B  B19  1  0.80544430  0.82286777  0.70675541  1
  B  B20  1  0.49108342  0.46010349  0.32657622  1
  B  B21  1  0.50891658  0.96010349  0.67342378  1
  B  B22  1  0.66660046  0.84360838  0.01555379  1
  B  B23  1  0.33339954  0.34360838  0.98444621  1
  B  B24  1  0.95665496  0.96145692  0.57707792  1
  B  B25  1  0.04334504  0.46145692  0.42292208  1
  B  B26  1  0.85847444  0.84916974  0.24368110  1
  B  B27  1  0.14152556  0.34916974  0.75631890  1
  O  O28  1  0.92434166  0.75277551  0.31139673  1
  O  O29  1  0.07565834  0.25277551  0.68860327  1
  O  O30  1  0.40414211  0.24434179  0.04688229  1
  O  O31  1  0.59585789  0.74434179  0.95311771  1
  O  O32  1  0.58657591  0.74346579  0.45944416  1
  O  O33  1  0.41342409  0.24346579  0.54055584  1
  O  O34  1  0.91603224  0.56021903  0.45886076  1
  O  O35  1  0.08396776  0.06021903  0.54113924  1
  O  O36  1  0.09446715  0.05698385  0.05253306  1
  O  O37  1  0.90553285  0.55698385  0.94746694  1
  O  O38  1  0.61292518  0.56487969  0.29523907  1
  O  O39  1  0.38707482  0.06487969  0.70476093  1
  O  O40  1  0.11146479  0.24479762  0.21171534  1
  O  O41  1  0.88853521  0.74479762  0.78828466  1
  O  O42  1  0.43432648  0.06127642  0.20143509  1
  O  O43  1  0.56567352  0.56127642  0.79856491  1
  O  O44  1  0.76351789  0.06448479  0.12623357  1
  O  O45  1  0.23648211  0.56448479  0.87376643  1
  O  O46  1  0.26522026  0.24137828  0.37513341  1
  O  O47  1  0.73477974  0.74137828  0.62486659  1
  O  O48  1  0.51134655  0.40782327  0.42064337  1
  O  O49  1  0.48865345  0.90782327  0.57935663  1
  O  O50  1  0.02627867  0.41279619  0.32821615  1
  O  O51  1  0.97372133  0.91279619  0.67178385  1
  O  O52  1  0.18100724  0.41795603  0.49117259  1
  O  O53  1  0.81899276  0.91795603  0.50882741  1
  O  O54  1  0.66629724  0.89363495  0.24536914  1
  O  O55  1  0.33370276  0.39363495  0.75463086  1
  O  O56  1  0.00049840  0.89490322  0.17950877  1
  O  O57  1  -0.00049840  0.39490322  0.82049123  1
  O  O58  1  0.35766416  0.41497279  0.25714126  1
  O  O59  1  0.64233584  0.91497279  0.74285874  1
  O  O60  1  0.52548799  0.89377371  0.07878387  1
  O  O61  1  0.47451201  0.39377371  0.92121613  1
  O  O62  1  0.85979523  0.88753811  0.01248766  1
  O  O63  1  0.14020477  0.38753811  0.98751234  1
