# generated using pymatgen
data_Li2BPCO7
_symmetry_space_group_name_H-M   'P 1'
_cell_length_a   9.42849548
_cell_length_b   5.05941610
_cell_length_c   5.40887044
_cell_angle_alpha   90.00000000
_cell_angle_beta   101.91409499
_cell_angle_gamma   90.00000000
_symmetry_Int_Tables_number   1
_chemical_formula_structural   Li2BPCO7
_chemical_formula_sum   'Li4 B2 P2 C2 O14'
_cell_volume   252.45946901
_cell_formula_units_Z   2
loop_
 _symmetry_equiv_pos_site_id
 _symmetry_equiv_pos_as_xyz
  1  'x, y, z'
loop_
 _atom_site_type_symbol
 _atom_site_label
 _atom_site_symmetry_multiplicity
 _atom_site_fract_x
 _atom_site_fract_y
 _atom_site_fract_z
 _atom_site_occupancy
  Li  Li0  1  0.20496358  0.50154324  0.31119766  1
  Li  Li1  1  0.20496358  0.99845676  0.31119766  1
  Li  Li2  1  0.79503642  0.49845676  0.68880234  1
  Li  Li3  1  0.79503642  0.00154324  0.68880234  1
  B  B4  1  0.33426351  0.75000000  0.93778545  1
  B  B5  1  0.66573649  0.25000000  0.06221455  1
  P  P6  1  0.41971680  0.25000000  0.70769098  1
  P  P7  1  0.58028320  0.75000000  0.29230902  1
  C  C8  1  0.07578230  0.75000000  0.73144795  1
  C  C9  1  0.92421770  0.25000000  0.26855205  1
  O  O10  1  0.05345030  0.25000000  0.23802496  1
  O  O11  1  0.17903068  0.75000000  0.95513755  1
  O  O12  1  0.11739151  0.75000000  0.52377394  1
  O  O13  1  0.36395066  0.99753796  0.81685133  1
  O  O14  1  0.36395066  0.50246204  0.81685133  1
  O  O15  1  0.40955275  0.75000000  0.20798574  1
  O  O16  1  0.36691959  0.25000000  0.42480945  1
  O  O17  1  0.63308041  0.75000000  0.57519055  1
  O  O18  1  0.59044725  0.25000000  0.79201426  1
  O  O19  1  0.63604934  0.49753796  0.18314867  1
  O  O20  1  0.63604934  0.00246204  0.18314867  1
  O  O21  1  0.88260849  0.25000000  0.47622606  1
  O  O22  1  0.82096932  0.25000000  0.04486245  1
  O  O23  1  0.94654970  0.75000000  0.76197504  1
