# generated using pymatgen
data_NaCa(PO3)3
_symmetry_space_group_name_H-M   'P 1'
_cell_length_a   6.81058132
_cell_length_b   7.04241614
_cell_length_c   7.74133247
_cell_angle_alpha   83.53044313
_cell_angle_beta   81.29796336
_cell_angle_gamma   82.75149926
_symmetry_Int_Tables_number   1
_chemical_formula_structural   NaCa(PO3)3
_chemical_formula_sum   'Na2 Ca2 P6 O18'
_cell_volume   362.42784019
_cell_formula_units_Z   2
loop_
 _symmetry_equiv_pos_site_id
 _symmetry_equiv_pos_as_xyz
  1  'x, y, z'
loop_
 _atom_site_type_symbol
 _atom_site_label
 _atom_site_symmetry_multiplicity
 _atom_site_fract_x
 _atom_site_fract_y
 _atom_site_fract_z
 _atom_site_occupancy
  Na  Na0  1  0.46646024  0.37265036  0.33832635  1
  Na  Na1  1  0.53353976  0.62734964  0.66167365  1
  Ca  Ca2  1  0.01280354  0.72755673  0.63825060  1
  Ca  Ca3  1  0.98719646  0.27244327  0.36174940  1
  P  P4  1  0.83228637  0.79792679  0.27671248  1
  P  P5  1  0.16771363  0.20207321  0.72328752  1
  P  P6  1  0.81129008  0.33522441  0.94615308  1
  P  P7  1  0.18870992  0.66477559  0.05384692  1
  P  P8  1  0.61506492  0.11577830  0.72120253  1
  P  P9  1  0.38493508  0.88422170  0.27879747  1
  O  O10  1  0.08462886  0.04271096  0.65440308  1
  O  O11  1  0.91537114  0.95728904  0.34559692  1
  O  O12  1  0.37744002  0.13685794  0.78972530  1
  O  O13  1  0.62255998  0.86314206  0.21027470  1
  O  O14  1  0.17200370  0.38299316  0.59652108  1
  O  O15  1  0.82799630  0.61700684  0.40347892  1
  O  O16  1  0.04288194  0.24245848  0.91243812  1
  O  O17  1  0.95711806  0.75754152  0.08756188  1
  O  O18  1  0.76506249  0.34216333  0.14111101  1
  O  O19  1  0.23493751  0.65783667  0.85888899  1
  O  O20  1  0.78609480  0.51491640  0.82436097  1
  O  O21  1  0.21390520  0.48508360  0.17563903  1
  O  O22  1  0.68941867  0.17119043  0.89613580  1
  O  O23  1  0.31058133  0.82880957  0.10386420  1
  O  O24  1  0.65951813  0.26633560  0.56988430  1
  O  O25  1  0.34048187  0.73366440  0.43011570  1
  O  O26  1  0.68039418  0.90773220  0.70109734  1
  O  O27  1  0.31960582  0.09226780  0.29890266  1
