# generated using pymatgen
data_Y(NO3)3
_symmetry_space_group_name_H-M   'P 1'
_cell_length_a   11.26770295
_cell_length_b   6.22912564
_cell_length_c   9.88417847
_cell_angle_alpha   90.00000000
_cell_angle_beta   92.99709360
_cell_angle_gamma   90.00000000
_symmetry_Int_Tables_number   1
_chemical_formula_structural   Y(NO3)3
_chemical_formula_sum   'Y4 N12 O36'
_cell_volume   692.80117955
_cell_formula_units_Z   4
loop_
 _symmetry_equiv_pos_site_id
 _symmetry_equiv_pos_as_xyz
  1  'x, y, z'
loop_
 _atom_site_type_symbol
 _atom_site_label
 _atom_site_symmetry_multiplicity
 _atom_site_fract_x
 _atom_site_fract_y
 _atom_site_fract_z
 _atom_site_occupancy
  Y  Y0  1  0.73346911  0.31871640  0.71335980  1
  Y  Y1  1  0.26653089  0.81871640  0.78664020  1
  Y  Y2  1  0.26653089  0.68128360  0.28664020  1
  Y  Y3  1  0.73346911  0.18128360  0.21335980  1
  N  N4  1  0.49242631  0.61206517  0.82408333  1
  N  N5  1  0.50757369  0.11206517  0.67591667  1
  N  N6  1  0.50757369  0.38793483  0.17591667  1
  N  N7  1  0.49242631  0.88793483  0.32408333  1
  N  N8  1  0.21562020  0.26721682  0.80257777  1
  N  N9  1  0.78437980  0.76721682  0.69742223  1
  N  N10  1  0.78437980  0.73278318  0.19742223  1
  N  N11  1  0.21562020  0.23278318  0.30257777  1
  N  N12  1  0.87717221  0.28225360  0.47302240  1
  N  N13  1  0.12282779  0.78225360  0.02697760  1
  N  N14  1  0.12282779  0.71774640  0.52697760  1
  N  N15  1  0.87717221  0.21774640  0.97302240  1
  O  O16  1  0.42591668  0.57558962  0.71816669  1
  O  O17  1  0.57408332  0.07558962  0.78183331  1
  O  O18  1  0.57408332  0.42441038  0.28183331  1
  O  O19  1  0.42591668  0.92441038  0.21816669  1
  O  O20  1  0.45107914  0.73202860  0.91425681  1
  O  O21  1  0.54892086  0.23202860  0.58574319  1
  O  O22  1  0.54892086  0.26797140  0.08574319  1
  O  O23  1  0.45107914  0.76797140  0.41425681  1
  O  O24  1  0.59485679  0.53475623  0.83986500  1
  O  O25  1  0.40514321  0.03475623  0.66013500  1
  O  O26  1  0.40514321  0.46524377  0.16013500  1
  O  O27  1  0.59485679  0.96524377  0.33986500  1
  O  O28  1  0.28254000  0.17727652  0.89359926  1
  O  O29  1  0.71746000  0.67727652  0.60640074  1
  O  O30  1  0.71746000  0.82272348  0.10640074  1
  O  O31  1  0.28254000  0.32272348  0.39359926  1
  O  O32  1  0.19351686  0.46458868  0.80647400  1
  O  O33  1  0.80648314  0.96458868  0.69352600  1
  O  O34  1  0.80648314  0.53541132  0.19352600  1
  O  O35  1  0.19351686  0.03541132  0.30647400  1
  O  O36  1  0.17021937  0.15119590  0.70806970  1
  O  O37  1  0.82978063  0.65119590  0.79193030  1
  O  O38  1  0.82978063  0.84880410  0.29193030  1
  O  O39  1  0.17021937  0.34880410  0.20806970  1
  O  O40  1  0.76132529  0.26588051  0.45758314  1
  O  O41  1  0.23867471  0.76588051  0.04241686  1
  O  O42  1  0.23867471  0.73411949  0.54241686  1
  O  O43  1  0.76132529  0.23411949  0.95758314  1
  O  O44  1  0.91839280  0.33673013  0.58878074  1
  O  O45  1  0.08160720  0.83673013  0.91121926  1
  O  O46  1  0.08160720  0.66326987  0.41121926  1
  O  O47  1  0.91839280  0.16326987  0.08878074  1
  O  O48  1  0.93748857  0.24284532  0.37497339  1
  O  O49  1  0.06251143  0.74284532  0.12502661  1
  O  O50  1  0.06251143  0.75715468  0.62502661  1
  O  O51  1  0.93748857  0.25715468  0.87497339  1
