# generated using pymatgen
data_NaSr(PO3)3
_symmetry_space_group_name_H-M   'P 1'
_cell_length_a   6.90574333
_cell_length_b   7.25808161
_cell_length_c   7.84549483
_cell_angle_alpha   83.82804295
_cell_angle_beta   80.50899571
_cell_angle_gamma   82.77006199
_symmetry_Int_Tables_number   1
_chemical_formula_structural   NaSr(PO3)3
_chemical_formula_sum   'Na2 Sr2 P6 O18'
_cell_volume   383.25324694
_cell_formula_units_Z   2
loop_
 _symmetry_equiv_pos_site_id
 _symmetry_equiv_pos_as_xyz
  1  'x, y, z'
loop_
 _atom_site_type_symbol
 _atom_site_label
 _atom_site_symmetry_multiplicity
 _atom_site_fract_x
 _atom_site_fract_y
 _atom_site_fract_z
 _atom_site_occupancy
  Na  Na0  1  0.46563550  0.36866407  0.34230864  1
  Na  Na1  1  0.53436450  0.63133593  0.65769136  1
  Sr  Sr2  1  0.01124382  0.73235027  0.64313377  1
  Sr  Sr3  1  0.98875618  0.26764973  0.35686623  1
  P  P4  1  0.83403033  0.78923062  0.27164364  1
  P  P5  1  0.16596967  0.21076938  0.72835636  1
  P  P6  1  0.79865591  0.33563175  0.94328661  1
  P  P7  1  0.20134409  0.66436825  0.05671339  1
  P  P8  1  0.60287508  0.12010462  0.72477214  1
  P  P9  1  0.39712492  0.87989538  0.27522786  1
  O  O10  1  0.08798839  0.05532311  0.65755180  1
  O  O11  1  0.91201161  0.94467689  0.34244820  1
  O  O12  1  0.36853495  0.14727355  0.80129308  1
  O  O13  1  0.63146505  0.85272645  0.19870692  1
  O  O14  1  0.17876786  0.38460157  0.60291573  1
  O  O15  1  0.82123214  0.61539843  0.39708427  1
  O  O16  1  0.03168134  0.25307631  0.91216479  1
  O  O17  1  0.96831866  0.74692369  0.08783521  1
  O  O18  1  0.74913244  0.34261046  0.13591468  1
  O  O19  1  0.25086756  0.65738954  0.86408532  1
  O  O20  1  0.77184142  0.50873681  0.82312202  1
  O  O21  1  0.22815858  0.49126319  0.17687798  1
  O  O22  1  0.68745363  0.17089900  0.89272413  1
  O  O23  1  0.31254637  0.82910100  0.10727587  1
  O  O24  1  0.64680652  0.26399338  0.57404948  1
  O  O25  1  0.35319348  0.73600662  0.42595052  1
  O  O26  1  0.66261197  0.91752456  0.70394923  1
  O  O27  1  0.33738803  0.08247544  0.29605077  1
