# generated using pymatgen
data_NaLi2B(PO4)2
_symmetry_space_group_name_H-M   'P 1'
_cell_length_a   5.50286760
_cell_length_b   7.48331185
_cell_length_c   8.11016786
_cell_angle_alpha   103.38544972
_cell_angle_beta   109.46942301
_cell_angle_gamma   87.31721834
_symmetry_Int_Tables_number   1
_chemical_formula_structural   NaLi2B(PO4)2
_chemical_formula_sum   'Na2 Li4 B2 P4 O16'
_cell_volume   306.15574285
_cell_formula_units_Z   2
loop_
 _symmetry_equiv_pos_site_id
 _symmetry_equiv_pos_as_xyz
  1  'x, y, z'
loop_
 _atom_site_type_symbol
 _atom_site_label
 _atom_site_symmetry_multiplicity
 _atom_site_fract_x
 _atom_site_fract_y
 _atom_site_fract_z
 _atom_site_occupancy
  Na  Na0  1  0.25369540  0.88073762  0.74104803  1
  Na  Na1  1  0.74630460  0.11926238  0.25895197  1
  Li  Li2  1  0.30952248  0.50135154  0.85803374  1
  Li  Li3  1  0.69047752  0.49864846  0.14196626  1
  Li  Li4  1  0.85509296  0.46982338  0.59777754  1
  Li  Li5  1  0.14490704  0.53017662  0.40222246  1
  B  B6  1  0.74871028  0.04602765  0.76590288  1
  B  B7  1  0.25128972  0.95397235  0.23409712  1
  P  P8  1  0.62154149  0.77383911  0.45284455  1
  P  P9  1  0.37845851  0.22616089  0.54715545  1
  P  P10  1  0.85488403  0.75155620  0.94574795  1
  P  P11  1  0.14511597  0.24844380  0.05425205  1
  O  O12  1  0.96721525  0.17987352  0.85174705  1
  O  O13  1  0.03278475  0.82012648  0.14825295  1
  O  O14  1  0.50194798  0.86218713  0.28349392  1
  O  O15  1  0.49805202  0.13781287  0.71650608  1
  O  O16  1  0.01292587  0.66585926  0.82588253  1
  O  O17  1  0.98707413  0.33414074  0.17411747  1
  O  O18  1  0.80021587  0.62392859  0.40387438  1
  O  O19  1  0.19978413  0.37607141  0.59612562  1
  O  O20  1  0.72316937  0.93404086  0.89043556  1
  O  O21  1  0.27683063  0.06595914  0.10956444  1
  O  O22  1  0.64584353  0.62695677  0.94570672  1
  O  O23  1  0.35415647  0.37304323  0.05429328  1
  O  O24  1  0.80121235  0.93258069  0.60627059  1
  O  O25  1  0.19878765  0.06741931  0.39372941  1
  O  O26  1  0.41435866  0.71278274  0.51375073  1
  O  O27  1  0.58564134  0.28721726  0.48624927  1
