# generated using pymatgen
data_NaLaSiO4
_symmetry_space_group_name_H-M   'P 1'
_cell_length_a   21.60854071
_cell_length_b   9.48371548
_cell_length_c   5.57147588
_cell_angle_alpha   90.00000000
_cell_angle_beta   90.00000000
_cell_angle_gamma   90.00000000
_symmetry_Int_Tables_number   1
_chemical_formula_structural   NaLaSiO4
_chemical_formula_sum   'Na12 La12 Si12 O48'
_cell_volume   1141.75838480
_cell_formula_units_Z   12
loop_
 _symmetry_equiv_pos_site_id
 _symmetry_equiv_pos_as_xyz
  1  'x, y, z'
loop_
 _atom_site_type_symbol
 _atom_site_label
 _atom_site_symmetry_multiplicity
 _atom_site_fract_x
 _atom_site_fract_y
 _atom_site_fract_z
 _atom_site_occupancy
  Na  Na0  1  0.55818183  0.07031596  0.01455104  1
  Na  Na1  1  0.44181817  0.92968404  0.51455104  1
  Na  Na2  1  0.94181817  0.57031596  0.51455104  1
  Na  Na3  1  0.05818183  0.42968404  0.01455104  1
  Na  Na4  1  0.72466780  0.42375006  0.05719817  1
  Na  Na5  1  0.27533220  0.57624994  0.55719817  1
  Na  Na6  1  0.77533220  0.92375006  0.55719817  1
  Na  Na7  1  0.22466780  0.07624994  0.05719817  1
  Na  Na8  1  0.89208961  0.07256633  0.04659880  1
  Na  Na9  1  0.10791039  0.92743367  0.54659880  1
  Na  Na10  1  0.60791039  0.57256633  0.54659880  1
  Na  Na11  1  0.39208961  0.42743367  0.04659880  1
  La  La12  1  0.49996443  0.30250675  0.51095369  1
  La  La13  1  0.50003557  0.69749325  0.01095369  1
  La  La14  1  1.00003557  0.80250675  0.01095369  1
  La  La15  1  -0.00003557  0.19749325  0.51095369  1
  La  La16  1  0.66658001  0.19661853  0.56578025  1
  La  La17  1  0.33341999  0.80338147  0.06578025  1
  La  La18  1  0.83341999  0.69661853  0.06578025  1
  La  La19  1  0.16658001  0.30338147  0.56578025  1
  La  La20  1  0.83316413  0.30092749  0.55345996  1
  La  La21  1  0.16683587  0.69907251  0.05345996  1
  La  La22  1  0.66683587  0.80092749  0.05345996  1
  La  La23  1  0.33316413  0.19907251  0.55345996  1
  Si  Si24  1  0.57731469  0.41572193  0.04908613  1
  Si  Si25  1  0.42268531  0.58427807  0.54908613  1
  Si  Si26  1  0.92268531  0.91572193  0.54908613  1
  Si  Si27  1  0.07731469  0.08427807  0.04908613  1
  Si  Si28  1  0.74394200  0.08243108  0.04978928  1
  Si  Si29  1  0.25605800  0.91756892  0.54978928  1
  Si  Si30  1  0.75605800  0.58243108  0.54978928  1
  Si  Si31  1  0.24394200  0.41756892  0.04978928  1
  Si  Si32  1  0.90946358  0.41494987  0.02159170  1
  Si  Si33  1  0.09053642  0.58505013  0.52159170  1
  Si  Si34  1  0.59053642  0.91494987  0.52159170  1
  Si  Si35  1  0.40946358  0.08505013  0.02159170  1
  O  O36  1  0.50298499  0.43784716  0.11181120  1
  O  O37  1  0.49701501  0.56215284  0.61181120  1
  O  O38  1  0.99701501  0.93784716  0.61181120  1
  O  O39  1  0.00298499  0.06215284  0.11181120  1
  O  O40  1  0.94101247  0.57306735  -0.00271793  1
  O  O41  1  0.05898753  0.42693265  0.49728207  1
  O  O42  1  0.55898753  0.07306735  0.49728207  1
  O  O43  1  0.44101247  0.92693265  -0.00271793  1
  O  O44  1  0.93132246  0.31146356  0.80040537  1
  O  O45  1  0.06867754  0.68853644  0.30040537  1
  O  O46  1  0.56867754  0.81146356  0.30040537  1
  O  O47  1  0.43132246  0.18853644  0.80040537  1
  O  O48  1  0.58590976  0.30900658  0.81887276  1
  O  O49  1  0.41409024  0.69099342  0.31887276  1
  O  O50  1  0.91409024  0.80900658  0.31887276  1
  O  O51  1  0.08590976  0.19099342  0.81887276  1
  O  O52  1  0.60744615  0.34934683  0.29678845  1
  O  O53  1  0.39255385  0.65065317  0.79678845  1
  O  O54  1  0.89255385  0.84934683  0.79678845  1
  O  O55  1  0.10744615  0.15065317  0.29678845  1
  O  O56  1  0.66924197  0.06384769  0.99198576  1
  O  O57  1  0.33075803  0.93615231  0.49198576  1
  O  O58  1  0.83075803  0.56384769  0.49198576  1
  O  O59  1  0.16924197  0.43615231  0.99198576  1
  O  O60  1  0.75479032  0.19354785  0.27309277  1
  O  O61  1  0.24520968  0.80645215  0.77309277  1
  O  O62  1  0.74520968  0.69354785  0.77309277  1
  O  O63  1  0.25479032  0.30645215  0.27309277  1
  O  O64  1  0.77273878  0.92521458  0.11493743  1
  O  O65  1  0.22726122  0.07478542  0.61493743  1
  O  O66  1  0.72726122  0.42521458  0.61493743  1
  O  O67  1  0.27273878  0.57478542  0.11493743  1
  O  O68  1  0.77381984  0.14196225  0.79707721  1
  O  O69  1  0.22618016  0.85803775  0.29707721  1
  O  O70  1  0.72618016  0.64196225  0.29707721  1
  O  O71  1  0.27381984  0.35803775  0.79707721  1
  O  O72  1  0.83411018  0.43573085  0.99278289  1
  O  O73  1  0.16588982  0.56426915  0.49278289  1
  O  O74  1  0.66588982  0.93573085  0.49278289  1
  O  O75  1  0.33411018  0.06426915  0.99278289  1
  O  O76  1  0.60685407  0.57204651  0.98857499  1
  O  O77  1  0.39314593  0.42795349  0.48857499  1
  O  O78  1  0.89314593  0.07204651  0.48857499  1
  O  O79  1  0.10685407  0.92795349  0.98857499  1
  O  O80  1  0.92679396  0.34545298  0.28285007  1
  O  O81  1  0.07320604  0.65454702  0.78285007  1
  O  O82  1  0.57320604  0.84545298  0.78285007  1
  O  O83  1  0.42679396  0.15454702  0.28285007  1
