# generated using pymatgen
data_NaB(S2O7)2
_symmetry_space_group_name_H-M   'P 1'
_cell_length_a   11.24727645
_cell_length_b   8.77065049
_cell_length_c   13.07125564
_cell_angle_alpha   90.00000000
_cell_angle_beta   110.03403891
_cell_angle_gamma   90.00000000
_symmetry_Int_Tables_number   1
_chemical_formula_structural   NaB(S2O7)2
_chemical_formula_sum   'Na4 B4 S16 O56'
_cell_volume   1211.40205046
_cell_formula_units_Z   4
loop_
 _symmetry_equiv_pos_site_id
 _symmetry_equiv_pos_as_xyz
  1  'x, y, z'
loop_
 _atom_site_type_symbol
 _atom_site_label
 _atom_site_symmetry_multiplicity
 _atom_site_fract_x
 _atom_site_fract_y
 _atom_site_fract_z
 _atom_site_occupancy
  Na  Na0  1  0.70067709  0.23233091  0.57470977  1
  Na  Na1  1  0.29932291  0.73233091  0.92529023  1
  Na  Na2  1  0.29932291  0.76766909  0.42529023  1
  Na  Na3  1  0.70067709  0.26766909  0.07470977  1
  B  B4  1  0.76084251  0.72373025  0.83097677  1
  B  B5  1  0.23915749  0.22373025  0.66902323  1
  B  B6  1  0.23915749  0.27626975  0.16902323  1
  B  B7  1  0.76084251  0.77626975  0.33097677  1
  S  S8  1  0.58454814  0.88585300  0.67641193  1
  S  S9  1  0.41545186  0.38585300  0.82358807  1
  S  S10  1  0.41545186  0.11414700  0.32358807  1
  S  S11  1  0.58454814  0.61414700  0.17641193  1
  S  S12  1  0.62272068  0.90216693  0.90662340  1
  S  S13  1  0.37727932  0.40216693  0.59337660  1
  S  S14  1  0.37727932  0.09783307  0.09337660  1
  S  S15  1  0.62272068  0.59783307  0.40662340  1
  S  S16  1  0.80462770  0.42072072  0.85174768  1
  S  S17  1  0.19537230  0.92072072  0.64825232  1
  S  S18  1  0.19537230  0.57927928  0.14825232  1
  S  S19  1  0.80462770  0.07927928  0.35174768  1
  S  S20  1  0.95060172  0.62275391  0.76969020  1
  S  S21  1  0.04939828  0.12275391  0.73030980  1
  S  S22  1  0.04939828  0.37724609  0.23030980  1
  S  S23  1  0.95060172  0.87724609  0.26969020  1
  O  O24  1  0.46064497  0.85201943  0.60329545  1
  O  O25  1  0.53935503  0.35201943  0.89670455  1
  O  O26  1  0.53935503  0.14798057  0.39670455  1
  O  O27  1  0.46064497  0.64798057  0.10329545  1
  O  O28  1  0.66702789  0.98307512  0.64342006  1
  O  O29  1  0.33297211  0.48307512  0.85657994  1
  O  O30  1  0.33297211  0.01692488  0.35657994  1
  O  O31  1  0.66702789  0.51692488  0.14342006  1
  O  O32  1  0.54221997  0.78003642  0.91491468  1
  O  O33  1  0.45778003  0.28003642  0.58508532  1
  O  O34  1  0.45778003  0.21996358  0.08508532  1
  O  O35  1  0.54221997  0.71996358  0.41491468  1
  O  O36  1  0.64158640  0.03202593  0.97554601  1
  O  O37  1  0.35841360  0.53202593  0.52445399  1
  O  O38  1  0.35841360  0.96797407  0.02445399  1
  O  O39  1  0.64158640  0.46797407  0.47554601  1
  O  O40  1  0.72833351  0.36805326  0.74605098  1
  O  O41  1  0.27166649  0.86805326  0.75394902  1
  O  O42  1  0.27166649  0.63194674  0.25394902  1
  O  O43  1  0.72833351  0.13194674  0.24605098  1
  O  O44  1  0.83441545  0.32280308  0.94417913  1
  O  O45  1  0.16558455  0.82280308  0.55582087  1
  O  O46  1  0.16558455  0.67719692  0.05582087  1
  O  O47  1  0.83441545  0.17719692  0.44417913  1
  O  O48  1  0.88118559  0.58590100  0.65906604  1
  O  O49  1  0.11881441  0.08590100  0.84093396  1
  O  O50  1  0.11881441  0.41409900  0.34093396  1
  O  O51  1  0.88118559  0.91409900  0.15906604  1
  O  O52  1  0.08203367  0.65798779  0.80425788  1
  O  O53  1  0.91796633  0.15798779  0.69574212  1
  O  O54  1  0.91796633  0.34201221  0.19574212  1
  O  O55  1  0.08203367  0.84201221  0.30425788  1
  O  O56  1  0.65001344  0.73512789  0.72671303  1
  O  O57  1  0.34998656  0.23512789  0.77328697  1
  O  O58  1  0.34998656  0.26487211  0.27328697  1
  O  O59  1  0.65001344  0.76487211  0.22671303  1
  O  O60  1  0.75348471  0.84325682  0.90782713  1
  O  O61  1  0.24651529  0.34325682  0.59217287  1
  O  O62  1  0.24651529  0.15674318  0.09217287  1
  O  O63  1  0.75348471  0.65674318  0.40782713  1
  O  O64  1  0.75415226  0.57370877  0.87992106  1
  O  O65  1  0.24584774  0.07370877  0.62007894  1
  O  O66  1  0.24584774  0.42629123  0.12007894  1
  O  O67  1  0.75415226  0.92629123  0.37992106  1
  O  O68  1  0.88298674  0.74713861  0.81478794  1
  O  O69  1  0.11701326  0.24713861  0.68521206  1
  O  O70  1  0.11701326  0.25286139  0.18521206  1
  O  O71  1  0.88298674  0.75286139  0.31478794  1
  O  O72  1  0.56518955  0.97309959  0.78220676  1
  O  O73  1  0.43481045  0.47309959  0.71779324  1
  O  O74  1  0.43481045  0.02690041  0.21779324  1
  O  O75  1  0.56518955  0.52690041  0.28220676  1
  O  O76  1  0.94392029  0.47446644  0.84794031  1
  O  O77  1  0.05607971  0.97446644  0.65205969  1
  O  O78  1  0.05607971  0.52553356  0.15205969  1
  O  O79  1  0.94392029  0.02553356  0.34794031  1
