# generated using pymatgen
data_Rb4B2S4O17
_symmetry_space_group_name_H-M   'P 1'
_cell_length_a   8.19588706
_cell_length_b   10.81275330
_cell_length_c   20.77285875
_cell_angle_alpha   90.00000000
_cell_angle_beta   90.00000000
_cell_angle_gamma   90.00000000
_symmetry_Int_Tables_number   1
_chemical_formula_structural   Rb4B2S4O17
_chemical_formula_sum   'Rb16 B8 S16 O68'
_cell_volume   1840.89292055
_cell_formula_units_Z   4
loop_
 _symmetry_equiv_pos_site_id
 _symmetry_equiv_pos_as_xyz
  1  'x, y, z'
loop_
 _atom_site_type_symbol
 _atom_site_label
 _atom_site_symmetry_multiplicity
 _atom_site_fract_x
 _atom_site_fract_y
 _atom_site_fract_z
 _atom_site_occupancy
  Rb  Rb0  1  0.75000000  -0.00000000  0.96167616  1
  Rb  Rb1  1  0.75000000  0.50000000  0.53832384  1
  Rb  Rb2  1  0.25000000  -0.00000000  0.03832384  1
  Rb  Rb3  1  0.25000000  0.50000000  0.46167616  1
  Rb  Rb4  1  0.50384405  0.62356619  0.90692162  1
  Rb  Rb5  1  0.99615595  0.37643381  0.90692162  1
  Rb  Rb6  1  0.50384405  0.87643381  0.59307838  1
  Rb  Rb7  1  0.99615595  0.12356619  0.59307838  1
  Rb  Rb8  1  0.49615595  0.37643381  0.09307838  1
  Rb  Rb9  1  0.00384405  0.62356619  0.09307838  1
  Rb  Rb10  1  0.49615595  0.12356619  0.40692162  1
  Rb  Rb11  1  0.00384405  0.87643381  0.40692162  1
  Rb  Rb12  1  0.65658494  0.25000000  0.75000000  1
  Rb  Rb13  1  0.84341506  0.75000000  0.75000000  1
  Rb  Rb14  1  0.34341506  0.75000000  0.25000000  1
  Rb  Rb15  1  0.15658494  0.25000000  0.25000000  1
  B  B16  1  0.19773198  0.89786857  0.85407802  1
  B  B17  1  0.30226802  0.10213143  0.85407802  1
  B  B18  1  0.19773198  0.60213143  0.64592198  1
  B  B19  1  0.30226802  0.39786857  0.64592198  1
  B  B20  1  0.80226802  0.10213143  0.14592198  1
  B  B21  1  0.69773198  0.89786857  0.14592198  1
  B  B22  1  0.80226802  0.39786857  0.35407802  1
  B  B23  1  0.69773198  0.60213143  0.35407802  1
  S  S24  1  0.45666839  0.27628844  0.93040123  1
  S  S25  1  0.04333161  0.72371156  0.93040123  1
  S  S26  1  0.45666839  0.22371156  0.56959877  1
  S  S27  1  0.04333161  0.77628844  0.56959877  1
  S  S28  1  0.54333161  0.72371156  0.06959877  1
  S  S29  1  0.95666839  0.27628844  0.06959877  1
  S  S30  1  0.54333161  0.77628844  0.43040123  1
  S  S31  1  0.95666839  0.22371156  0.43040123  1
  S  S32  1  0.49026562  0.93361577  0.79775789  1
  S  S33  1  0.00973438  0.06638423  0.79775789  1
  S  S34  1  0.49026562  0.56638423  0.70224211  1
  S  S35  1  0.00973438  0.43361577  0.70224211  1
  S  S36  1  0.50973438  0.06638423  0.20224211  1
  S  S37  1  0.99026562  0.93361577  0.20224211  1
  S  S38  1  0.50973438  0.43361577  0.29775789  1
  S  S39  1  0.99026562  0.56638423  0.29775789  1
  O  O40  1  0.75000000  -0.00000000  0.10794908  1
  O  O41  1  0.75000000  0.50000000  0.39205092  1
  O  O42  1  0.25000000  -0.00000000  0.89205092  1
  O  O43  1  0.25000000  0.50000000  0.60794908  1
  O  O44  1  0.18465248  0.77806200  0.88457192  1
  O  O45  1  0.31534752  0.22193800  0.88457192  1
  O  O46  1  0.18465248  0.72193800  0.61542808  1
  O  O47  1  0.31534752  0.27806200  0.61542808  1
  O  O48  1  0.81534752  0.22193800  0.11542808  1
  O  O49  1  0.68465248  0.77806200  0.11542808  1
  O  O50  1  0.81534752  0.27806200  0.38457192  1
  O  O51  1  0.68465248  0.72193800  0.38457192  1
  O  O52  1  0.46234773  0.07037274  0.81967367  1
  O  O53  1  0.03765227  0.92962726  0.81967367  1
  O  O54  1  0.46234773  0.42962726  0.68032633  1
  O  O55  1  0.03765227  0.57037274  0.68032633  1
  O  O56  1  0.53765227  0.92962726  0.18032633  1
  O  O57  1  0.96234773  0.07037274  0.18032633  1
  O  O58  1  0.53765227  0.57037274  0.31967367  1
  O  O59  1  0.96234773  0.42962726  0.31967367  1
  O  O60  1  0.31934493  0.87497748  0.79752833  1
  O  O61  1  0.18065507  0.12502252  0.79752833  1
  O  O62  1  0.31934493  0.62502252  0.70247167  1
  O  O63  1  0.18065507  0.37497748  0.70247167  1
  O  O64  1  0.68065507  0.12502252  0.20247167  1
  O  O65  1  0.81934493  0.87497748  0.20247167  1
  O  O66  1  0.68065507  0.37497748  0.29752833  1
  O  O67  1  0.81934493  0.62502252  0.29752833  1
  O  O68  1  0.62212408  0.61346043  0.04263711  1
  O  O69  1  0.87787592  0.38653957  0.04263711  1
  O  O70  1  0.62212408  0.88653957  0.45736289  1
  O  O71  1  0.87787592  0.11346043  0.45736289  1
  O  O72  1  0.37787592  0.38653957  0.95736289  1
  O  O73  1  0.12212408  0.61346043  0.95736289  1
  O  O74  1  0.37787592  0.11346043  0.54263711  1
  O  O75  1  0.12212408  0.88653957  0.54263711  1
  O  O76  1  0.50855563  0.81864035  0.02080405  1
  O  O77  1  0.99144437  0.18135965  0.02080405  1
  O  O78  1  0.50855563  0.68135965  0.47919595  1
  O  O79  1  0.99144437  0.31864035  0.47919595  1
  O  O80  1  0.49144437  0.18135965  0.97919595  1
  O  O81  1  0.00855563  0.81864035  0.97919595  1
  O  O82  1  0.49144437  0.31864035  0.52080405  1
  O  O83  1  0.00855563  0.68135965  0.52080405  1
  O  O84  1  0.59678144  0.30526980  0.88924857  1
  O  O85  1  0.90321856  0.69473020  0.88924857  1
  O  O86  1  0.59678144  0.19473020  0.61075143  1
  O  O87  1  0.90321856  0.80526980  0.61075143  1
  O  O88  1  0.40321856  0.69473020  0.11075143  1
  O  O89  1  0.09678144  0.30526980  0.11075143  1
  O  O90  1  0.40321856  0.80526980  0.38924857  1
  O  O91  1  0.09678144  0.19473020  0.38924857  1
  O  O92  1  0.59561048  0.87227233  0.84416162  1
  O  O93  1  0.90438952  0.12772767  0.84416162  1
  O  O94  1  0.59561048  0.62772767  0.65583838  1
  O  O95  1  0.90438952  0.37227233  0.65583838  1
  O  O96  1  0.40438952  0.12772767  0.15583838  1
  O  O97  1  0.09561048  0.87227233  0.15583838  1
  O  O98  1  0.40438952  0.37227233  0.34416162  1
  O  O99  1  0.09561048  0.62772767  0.34416162  1
  O  O100  1  0.55192015  0.56425940  0.76754987  1
  O  O101  1  0.94807985  0.43574060  0.76754987  1
  O  O102  1  0.55192015  0.93574060  0.73245013  1
  O  O103  1  0.94807985  0.06425940  0.73245013  1
  O  O104  1  0.44807985  0.43574060  0.23245013  1
  O  O105  1  0.05192015  0.56425940  0.23245013  1
  O  O106  1  0.44807985  0.06425940  0.26754987  1
  O  O107  1  0.05192015  0.93574060  0.26754987  1
