# generated using pymatgen
data_Zr3(CuSi)4
_symmetry_space_group_name_H-M   'P 1'
_cell_length_a   3.94587789
_cell_length_b   6.41620747
_cell_length_c   7.56948624
_cell_angle_alpha   115.07603017
_cell_angle_beta   105.10826084
_cell_angle_gamma   89.99999997
_symmetry_Int_Tables_number   1
_chemical_formula_structural   Zr3(CuSi)4
_chemical_formula_sum   'Zr3 Si4 Cu4'
_cell_volume   166.23584420
_cell_formula_units_Z   1
loop_
 _symmetry_equiv_pos_site_id
 _symmetry_equiv_pos_as_xyz
  1  'x, y, z'
loop_
 _atom_site_type_symbol
 _atom_site_label
 _atom_site_symmetry_multiplicity
 _atom_site_fract_x
 _atom_site_fract_y
 _atom_site_fract_z
 _atom_site_occupancy
  Si  Si0  1  0.50000000  0.80930564  0.00000000  1
  Si  Si1  1  0.50000000  0.19069436  0.00000000  1
  Si  Si2  1  0.78399409  0.28399409  0.56798818  1
  Si  Si3  1  0.21600591  0.71600591  0.43201182  1
  Cu  Cu4  1  0.33040533  0.52234626  0.66081065  1
  Cu  Cu5  1  0.66959467  0.86153561  0.33918935  1
  Cu  Cu6  1  0.33040533  0.13846439  0.66081065  1
  Cu  Cu7  1  0.66959467  0.47765374  0.33918935  1
  Zr  Zr8  1  0.87573586  0.87573586  0.75147171  1
  Zr  Zr9  1  0.12426414  0.12426414  0.24852829  1
  Zr  Zr10  1  0.00000000  0.50000000  0.00000000  1
