# generated using pymatgen
data_Ca2BN2F
_symmetry_space_group_name_H-M   'P 1'
_cell_length_a   3.67843323
_cell_length_b   9.24138724
_cell_length_c   10.02998822
_cell_angle_alpha   90.00000000
_cell_angle_beta   90.00000000
_cell_angle_gamma   90.00000000
_symmetry_Int_Tables_number   1
_chemical_formula_structural   Ca2BN2F
_chemical_formula_sum   'Ca8 B4 N8 F4'
_cell_volume   340.95767348
_cell_formula_units_Z   4
loop_
 _symmetry_equiv_pos_site_id
 _symmetry_equiv_pos_as_xyz
  1  'x, y, z'
loop_
 _atom_site_type_symbol
 _atom_site_label
 _atom_site_symmetry_multiplicity
 _atom_site_fract_x
 _atom_site_fract_y
 _atom_site_fract_z
 _atom_site_occupancy
  B  B0  1  0.25000000  0.73531136  0.67650129  1
  B  B1  1  0.75000000  0.26468864  0.32349871  1
  B  B2  1  0.25000000  0.23531136  0.82349871  1
  B  B3  1  0.75000000  0.76468864  0.17650129  1
  N  N4  1  0.25000000  0.65354950  0.56436607  1
  N  N5  1  0.75000000  0.34645050  0.43563393  1
  N  N6  1  0.25000000  0.15354950  0.93563393  1
  N  N7  1  0.75000000  0.17917865  0.21665306  1
  N  N8  1  0.25000000  0.32082135  0.71665306  1
  N  N9  1  0.75000000  0.67917865  0.28334694  1
  N  N10  1  0.25000000  0.82082135  0.78334694  1
  N  N11  1  0.75000000  0.84645050  0.06436607  1
  F  F12  1  0.75000000  0.54068965  0.89448402  1
  F  F13  1  0.75000000  0.04068965  0.60551598  1
  F  F14  1  0.25000000  0.45931035  0.10551598  1
  F  F15  1  0.25000000  0.95931035  0.39448402  1
  Ca  Ca16  1  0.25000000  0.67649618  0.97441017  1
  Ca  Ca17  1  0.75000000  0.82350382  0.47441017  1
  Ca  Ca18  1  0.25000000  0.17649618  0.52558983  1
  Ca  Ca19  1  0.75000000  0.32350382  0.02558983  1
  Ca  Ca20  1  0.25000000  0.52712430  0.34372889  1
  Ca  Ca21  1  0.75000000  0.47287570  0.65627111  1
  Ca  Ca22  1  0.25000000  0.02712430  0.15627111  1
  Ca  Ca23  1  0.75000000  0.97287570  0.84372889  1
