# generated using pymatgen
data_SmSi3Ni
_symmetry_space_group_name_H-M   'P 1'
_cell_length_a   3.97628541
_cell_length_b   4.01434649
_cell_length_c   10.78677645
_cell_angle_alpha   90.00000000
_cell_angle_beta   100.62107911
_cell_angle_gamma   90.00000000
_symmetry_Int_Tables_number   1
_chemical_formula_structural   SmSi3Ni
_chemical_formula_sum   'Sm2 Si6 Ni2'
_cell_volume   169.23068226
_cell_formula_units_Z   2
loop_
 _symmetry_equiv_pos_site_id
 _symmetry_equiv_pos_as_xyz
  1  'x, y, z'
loop_
 _atom_site_type_symbol
 _atom_site_label
 _atom_site_symmetry_multiplicity
 _atom_site_fract_x
 _atom_site_fract_y
 _atom_site_fract_z
 _atom_site_occupancy
  Si  Si0  1  0.44440809  0.00000000  0.88881618  1
  Si  Si1  1  0.55559191  0.00000000  0.11118382  1
  Si  Si2  1  0.21761114  0.00000000  0.43522228  1
  Si  Si3  1  0.78238886  0.00000000  0.56477772  1
  Si  Si4  1  0.94437559  0.50000000  0.88875119  1
  Si  Si5  1  0.05562441  0.50000000  0.11124881  1
  Ni  Ni6  1  0.10891636  0.00000000  0.21783272  1
  Ni  Ni7  1  0.89108364  0.00000000  0.78216728  1
  Sm  Sm8  1  0.33148046  0.50000000  0.66296092  1
  Sm  Sm9  1  0.66851954  0.50000000  0.33703908  1
