# generated using pymatgen
data_YSi3Ni
_symmetry_space_group_name_H-M   'P 1'
_cell_length_a   3.94042832
_cell_length_b   3.95879692
_cell_length_c   10.70575072
_cell_angle_alpha   90.00000000
_cell_angle_beta   100.60477435
_cell_angle_gamma   90.00000000
_symmetry_Int_Tables_number   1
_chemical_formula_structural   YSi3Ni
_chemical_formula_sum   'Y2 Si6 Ni2'
_cell_volume   164.15040641
_cell_formula_units_Z   2
loop_
 _symmetry_equiv_pos_site_id
 _symmetry_equiv_pos_as_xyz
  1  'x, y, z'
loop_
 _atom_site_type_symbol
 _atom_site_label
 _atom_site_symmetry_multiplicity
 _atom_site_fract_x
 _atom_site_fract_y
 _atom_site_fract_z
 _atom_site_occupancy
  Si  Si0  1  0.44401000  0.00000000  0.88801999  1
  Si  Si1  1  0.55599000  0.00000000  0.11198001  1
  Si  Si2  1  0.21780353  0.00000000  0.43560707  1
  Si  Si3  1  0.78219647  0.00000000  0.56439293  1
  Si  Si4  1  0.94402687  0.50000000  0.88805375  1
  Si  Si5  1  0.05597313  0.50000000  0.11194625  1
  Ni  Ni6  1  0.11000404  0.00000000  0.22000808  1
  Ni  Ni7  1  0.88999596  0.00000000  0.77999192  1
  Y  Y8  1  0.33104580  0.50000000  0.66209161  1
  Y  Y9  1  0.66895420  0.50000000  0.33790839  1
