# generated using pymatgen
data_Ho(GaFe)6
_symmetry_space_group_name_H-M   'P 1'
_cell_length_a   5.17641015
_cell_length_b   6.52934654
_cell_length_c   6.67804876
_cell_angle_alpha   98.83739397
_cell_angle_beta   112.80332748
_cell_angle_gamma   66.64694562
_symmetry_Int_Tables_number   1
_chemical_formula_structural   Ho(GaFe)6
_chemical_formula_sum   'Ho1 Ga6 Fe6'
_cell_volume   191.02237182
_cell_formula_units_Z   1
loop_
 _symmetry_equiv_pos_site_id
 _symmetry_equiv_pos_as_xyz
  1  'x, y, z'
loop_
 _atom_site_type_symbol
 _atom_site_label
 _atom_site_symmetry_multiplicity
 _atom_site_fract_x
 _atom_site_fract_y
 _atom_site_fract_z
 _atom_site_occupancy
  Ho  Ho0  1  -0.00000000  0.00000000  -0.00000000  1
  Ga  Ga1  1  0.50000000  0.50000000  -0.00000000  1
  Ga  Ga2  1  -0.00000000  0.50000000  -0.00000000  1
  Ga  Ga3  1  0.64925481  0.33503115  0.63354077  1
  Ga  Ga4  1  0.35074519  0.66496885  0.36645923  1
  Ga  Ga5  1  0.01571404  0.33503115  0.36645923  1
  Ga  Ga6  1  0.98428596  0.66496885  0.63354077  1
  Fe  Fe7  1  0.70930938  0.79846666  0.21708542  1
  Fe  Fe8  1  0.29069062  0.20153334  0.78291458  1
  Fe  Fe9  1  0.49222396  0.79846666  0.78291458  1
  Fe  Fe10  1  0.50777604  0.20153334  0.21708542  1
  Fe  Fe11  1  0.50000000  0.00000000  0.50000000  1
  Fe  Fe12  1  -0.00000000  0.00000000  0.50000000  1
