# generated using pymatgen
data_LuAlO3
_symmetry_space_group_name_H-M   'P 1'
_cell_length_a   6.45878318
_cell_length_b   6.48035068
_cell_length_c   10.24609644
_cell_angle_alpha   90.00000000
_cell_angle_beta   90.00000000
_cell_angle_gamma   60.11003806
_symmetry_Int_Tables_number   1
_chemical_formula_structural   LuAlO3
_chemical_formula_sum   'Lu6 Al6 O18'
_cell_volume   371.80803440
_cell_formula_units_Z   6
loop_
 _symmetry_equiv_pos_site_id
 _symmetry_equiv_pos_as_xyz
  1  'x, y, z'
loop_
 _atom_site_type_symbol
 _atom_site_label
 _atom_site_symmetry_multiplicity
 _atom_site_fract_x
 _atom_site_fract_y
 _atom_site_fract_z
 _atom_site_occupancy
  Lu  Lu0  1  0.16857016  0.66285968  0.00000000  1
  Lu  Lu1  1  0.16857016  0.66285968  0.50000000  1
  Lu  Lu2  1  0.83142984  0.33714032  0.00000000  1
  Lu  Lu3  1  0.83142984  0.33714032  0.50000000  1
  Lu  Lu4  1  0.50000000  0.00000000  0.50000000  1
  Lu  Lu5  1  0.50000000  0.00000000  0.00000000  1
  Al  Al6  1  0.83432104  0.72192279  0.75000000  1
  Al  Al7  1  0.44375617  0.72192279  0.25000000  1
  Al  Al8  1  0.55624383  0.27807721  0.75000000  1
  Al  Al9  1  0.16567896  0.27807721  0.25000000  1
  Al  Al10  1  0.88171598  0.00000000  0.25000000  1
  Al  Al11  1  0.11828402  0.00000000  0.75000000  1
  O  O12  1  0.16266471  0.73010879  0.25000000  1
  O  O13  1  0.10722650  0.73010879  0.75000000  1
  O  O14  1  0.83363865  0.64575787  0.58598929  1
  O  O15  1  0.83363865  0.64575787  0.91401071  1
  O  O16  1  0.52060348  0.64575787  0.08598929  1
  O  O17  1  0.52060348  0.64575787  0.41401071  1
  O  O18  1  0.47939652  0.35424213  0.58598929  1
  O  O19  1  0.47939652  0.35424213  0.91401071  1
  O  O20  1  0.16636135  0.35424213  0.08598929  1
  O  O21  1  0.16636135  0.35424213  0.41401071  1
  O  O22  1  0.83733529  0.26989121  0.75000000  1
  O  O23  1  0.89277350  0.26989121  0.25000000  1
  O  O24  1  0.44196287  0.00000000  0.25000000  1
  O  O25  1  0.81452541  0.00000000  0.08102678  1
  O  O26  1  0.81452541  0.00000000  0.41897322  1
  O  O27  1  0.18547459  0.00000000  0.58102678  1
  O  O28  1  0.18547459  0.00000000  0.91897322  1
  O  O29  1  0.55803713  0.00000000  0.75000000  1
