# generated using pymatgen
data_Zn2MoN3
_symmetry_space_group_name_H-M   'P 1'
_cell_length_a   5.71099507
_cell_length_b   9.92507601
_cell_length_c   5.35650484
_cell_angle_alpha   90.00000000
_cell_angle_beta   90.00000000
_cell_angle_gamma   90.00000000
_symmetry_Int_Tables_number   1
_chemical_formula_structural   Zn2MoN3
_chemical_formula_sum   'Zn8 Mo4 N12'
_cell_volume   303.61772960
_cell_formula_units_Z   4
loop_
 _symmetry_equiv_pos_site_id
 _symmetry_equiv_pos_as_xyz
  1  'x, y, z'
loop_
 _atom_site_type_symbol
 _atom_site_label
 _atom_site_symmetry_multiplicity
 _atom_site_fract_x
 _atom_site_fract_y
 _atom_site_fract_z
 _atom_site_occupancy
  Zn  Zn0  1  0.34811865  0.83241951  0.47285179  1
  Zn  Zn1  1  0.84811865  0.66758049  0.47285179  1
  Zn  Zn2  1  0.15188135  0.66758049  0.97285179  1
  Zn  Zn3  1  0.65188135  0.83241951  0.97285179  1
  Zn  Zn4  1  0.84811865  0.33241951  0.47285179  1
  Zn  Zn5  1  0.34811865  0.16758049  0.47285179  1
  Zn  Zn6  1  0.65188135  0.16758049  0.97285179  1
  Zn  Zn7  1  0.15188135  0.33241951  0.97285179  1
  Mo  Mo8  1  0.65586082  0.50000000  0.95790337  1
  Mo  Mo9  1  0.84413918  0.00000000  0.45790337  1
  Mo  Mo10  1  0.15586082  0.00000000  0.95790337  1
  Mo  Mo11  1  0.34413918  0.50000000  0.45790337  1
  N  N12  1  0.31075331  0.84068643  0.85627455  1
  N  N13  1  0.81075331  0.65931357  0.85627455  1
  N  N14  1  0.18924669  0.65931357  0.35627455  1
  N  N15  1  0.68924669  0.84068643  0.35627455  1
  N  N16  1  0.17230271  0.00000000  0.32822294  1
  N  N17  1  0.32769729  0.50000000  0.82822294  1
  N  N18  1  0.81075331  0.34068643  0.85627455  1
  N  N19  1  0.31075331  0.15931357  0.85627455  1
  N  N20  1  0.68924669  0.15931357  0.35627455  1
  N  N21  1  0.18924669  0.34068643  0.35627455  1
  N  N22  1  0.67230271  0.50000000  0.32822294  1
  N  N23  1  0.82769729  0.00000000  0.82822294  1
