# generated using pymatgen
data_Na15Cr7N19
_symmetry_space_group_name_H-M   'P 1'
_cell_length_a   5.96587456
_cell_length_b   11.25701861
_cell_length_c   17.87258083
_cell_angle_alpha   91.00283297
_cell_angle_beta   93.56942855
_cell_angle_gamma   101.31324685
_symmetry_Int_Tables_number   1
_chemical_formula_structural   Na15Cr7N19
_chemical_formula_sum   'Na30 Cr14 N38'
_cell_volume   1174.13892044
_cell_formula_units_Z   2
loop_
 _symmetry_equiv_pos_site_id
 _symmetry_equiv_pos_as_xyz
  1  'x, y, z'
loop_
 _atom_site_type_symbol
 _atom_site_label
 _atom_site_symmetry_multiplicity
 _atom_site_fract_x
 _atom_site_fract_y
 _atom_site_fract_z
 _atom_site_occupancy
  Na  Na0  1  0.52531792  0.62199640  0.44585324  1
  Na  Na1  1  0.47468208  0.37800360  0.55414676  1
  Na  Na2  1  0.60033964  0.14144080  0.64132628  1
  Na  Na3  1  0.39966036  0.85855920  0.35867372  1
  Na  Na4  1  0.71689197  0.01725242  0.19712509  1
  Na  Na5  1  0.28310803  0.98274758  0.80287491  1
  Na  Na6  1  0.91733640  0.02773783  0.39180716  1
  Na  Na7  1  0.08266360  0.97226217  0.60819284  1
  Na  Na8  1  0.83885246  0.77663098  0.29315030  1
  Na  Na9  1  0.16114754  0.22336902  0.70684970  1
  Na  Na10  1  0.86769078  0.17037519  0.84021384  1
  Na  Na11  1  0.13230922  0.82962481  0.15978616  1
  Na  Na12  1  0.86221634  0.90370070  0.90029603  1
  Na  Na13  1  0.13778366  0.09629930  0.09970397  1
  Na  Na14  1  0.72016995  0.08405943  0.00917091  1
  Na  Na15  1  0.27983005  0.91594057  0.99082909  1
  Na  Na16  1  0.60574875  0.89674616  0.53405530  1
  Na  Na17  1  0.39425125  0.10325384  0.46594470  1
  Na  Na18  1  0.65878765  0.48857126  0.29231220  1
  Na  Na19  1  0.34121235  0.51142874  0.70768780  1
  Na  Na20  1  0.95960417  0.34444271  0.01180318  1
  Na  Na21  1  0.04039583  0.65555729  0.98819682  1
  Na  Na22  1  0.86588356  0.66617209  0.79732781  1
  Na  Na23  1  0.13411644  0.33382791  0.20267219  1
  Na  Na24  1  0.76171082  0.25810766  0.37262204  1
  Na  Na25  1  0.23828918  0.74189234  0.62737796  1
  Na  Na26  1  0.57782735  0.36695287  0.83899641  1
  Na  Na27  1  0.42217265  0.63304713  0.16100359  1
  Na  Na28  1  0.00000000  0.50000000  0.50000000  1
  Na  Na29  1  0.50000000  0.50000000  0.00000000  1
  Cr  Cr30  1  0.59818115  0.26158291  0.13117091  1
  Cr  Cr31  1  0.40181885  0.73841709  0.86882909  1
  Cr  Cr32  1  0.82116667  0.40038995  0.69031369  1
  Cr  Cr33  1  0.17883333  0.59961005  0.30968631  1
  Cr  Cr34  1  0.73539139  0.65967114  0.61256773  1
  Cr  Cr35  1  0.26460861  0.34032886  0.38743227  1
  Cr  Cr36  1  0.00097593  0.77396723  0.45656772  1
  Cr  Cr37  1  0.99902407  0.22603277  0.54343228  1
  Cr  Cr38  1  0.88853416  0.55270044  0.13951409  1
  Cr  Cr39  1  0.11146584  0.44729956  0.86048591  1
  Cr  Cr40  1  0.67280770  0.90377996  0.72194016  1
  Cr  Cr41  1  0.32719230  0.09622004  0.27805984  1
  Cr  Cr42  1  0.67980590  0.79563433  0.05180586  1
  Cr  Cr43  1  0.32019410  0.20436567  0.94819414  1
  N  N44  1  0.83061017  0.20245466  0.12423228  1
  N  N45  1  0.16938983  0.79754534  0.87576772  1
  N  N46  1  0.91341913  0.32620619  0.61457332  1
  N  N47  1  0.08658087  0.67379381  0.38542668  1
  N  N48  1  0.55741239  0.05812544  0.32240501  1
  N  N49  1  0.44258761  0.94187456  0.67759499  1
  N  N50  1  0.58228701  0.81817662  0.80327226  1
  N  N51  1  0.41771299  0.18182338  0.19672774  1
  N  N52  1  0.67199613  0.41912222  0.15557726  1
  N  N53  1  0.32800387  0.58087778  0.84442274  1
  N  N54  1  0.53819992  0.39880981  0.41434618  1
  N  N55  1  0.46180008  0.60119019  0.58565382  1
  N  N56  1  0.78195052  0.11028646  0.51703947  1
  N  N57  1  0.21804948  0.88971354  0.48296053  1
  N  N58  1  0.90448731  0.68303012  0.53494670  1
  N  N59  1  0.09551269  0.31696988  0.46505330  1
  N  N60  1  0.92377008  0.89907538  0.05084398  1
  N  N61  1  0.07622992  0.10092462  0.94915602  1
  N  N62  1  0.77338721  0.82408328  0.42022106  1
  N  N63  1  0.22661279  0.17591672  0.57977894  1
  N  N64  1  0.78031063  0.79918753  0.65928790  1
  N  N65  1  0.21968937  0.20081247  0.34071210  1
  N  N66  1  0.90164720  0.48461850  0.90639580  1
  N  N67  1  0.09835280  0.51538150  0.09360420  1
  N  N68  1  0.55668216  0.75753031  0.95778710  1
  N  N69  1  0.44331784  0.24246969  0.04221290  1
  N  N70  1  0.75646785  0.65604854  0.08919148  1
  N  N71  1  0.24353215  0.34395146  0.91080852  1
  N  N72  1  0.88762788  0.02471868  0.74242733  1
  N  N73  1  0.11237212  0.97528132  0.25757267  1
  N  N74  1  0.99462885  0.62036993  0.22800307  1
  N  N75  1  0.00537115  0.37963007  0.77199693  1
  N  N76  1  0.85159684  0.55623928  0.67366984  1
  N  N77  1  0.14840316  0.44376072  0.32633016  1
  N  N78  1  0.55150285  0.34047298  0.70564625  1
  N  N79  1  0.44849715  0.65952702  0.29435375  1
  N  N80  1  0.48995716  0.84627797  0.10428516  1
  N  N81  1  0.51004284  0.15372203  0.89571484  1
