# generated using pymatgen
data_Ca4SnN4
_symmetry_space_group_name_H-M   'P 1'
_cell_length_a   6.12262392
_cell_length_b   6.13713641
_cell_length_c   9.31884281
_cell_angle_alpha   69.89626068
_cell_angle_beta   80.81420053
_cell_angle_gamma   68.66458292
_symmetry_Int_Tables_number   1
_chemical_formula_structural   Ca4SnN4
_chemical_formula_sum   'Ca8 Sn2 N8'
_cell_volume   306.04954304
_cell_formula_units_Z   2
loop_
 _symmetry_equiv_pos_site_id
 _symmetry_equiv_pos_as_xyz
  1  'x, y, z'
loop_
 _atom_site_type_symbol
 _atom_site_label
 _atom_site_symmetry_multiplicity
 _atom_site_fract_x
 _atom_site_fract_y
 _atom_site_fract_z
 _atom_site_occupancy
  Ca  Ca0  1  0.73092079  0.61988313  0.19503071  1
  Ca  Ca1  1  0.26907921  0.38011687  0.80496929  1
  Ca  Ca2  1  0.75185378  0.24652839  0.99457893  1
  Ca  Ca3  1  0.24814622  0.75347161  0.00542107  1
  Ca  Ca4  1  0.73816222  0.47824389  0.57501058  1
  Ca  Ca5  1  0.26183778  0.52175611  0.42498942  1
  Ca  Ca6  1  0.24927516  0.94328812  0.59313456  1
  Ca  Ca7  1  0.75072484  0.05671188  0.40686544  1
  Sn  Sn8  1  0.71939576  0.84132802  0.76316149  1
  Sn  Sn9  1  0.28060424  0.15867198  0.23683851  1
  N  N10  1  0.99189344  0.69279006  0.61154095  1
  N  N11  1  0.00810656  0.30720994  0.38845905  1
  N  N12  1  0.84966788  0.86159885  0.94856697  1
  N  N13  1  0.15033212  0.13840115  0.05143303  1
  N  N14  1  0.50706117  0.61150312  0.80220744  1
  N  N15  1  0.49293883  0.38849688  0.19779256  1
  N  N16  1  0.49793150  0.81551181  0.38227194  1
  N  N17  1  0.50206850  0.18448819  0.61772806  1
