# generated using pymatgen
data_Na15Re7N19
_symmetry_space_group_name_H-M   'P 1'
_cell_length_a   6.14417351
_cell_length_b   11.92792334
_cell_length_c   18.37083204
_cell_angle_alpha   91.54003200
_cell_angle_beta   93.07785625
_cell_angle_gamma   100.85652976
_symmetry_Int_Tables_number   1
_chemical_formula_structural   Na15Re7N19
_chemical_formula_sum   'Na30 Re14 N38'
_cell_volume   1319.40351305
_cell_formula_units_Z   2
loop_
 _symmetry_equiv_pos_site_id
 _symmetry_equiv_pos_as_xyz
  1  'x, y, z'
loop_
 _atom_site_type_symbol
 _atom_site_label
 _atom_site_symmetry_multiplicity
 _atom_site_fract_x
 _atom_site_fract_y
 _atom_site_fract_z
 _atom_site_occupancy
  Na  Na0  1  0.54143906  0.62497023  0.44770190  1
  Na  Na1  1  0.45856094  0.37502977  0.55229810  1
  Na  Na2  1  0.56959761  0.14370606  0.63443867  1
  Na  Na3  1  0.43040239  0.85629394  0.36556133  1
  Na  Na4  1  0.71980844  0.01230295  0.19740373  1
  Na  Na5  1  0.28019156  0.98769705  0.80259627  1
  Na  Na6  1  0.89208977  0.02101556  0.38396583  1
  Na  Na7  1  0.10791023  0.97898444  0.61603417  1
  Na  Na8  1  0.84828761  0.77356702  0.29637581  1
  Na  Na9  1  0.15171239  0.22643298  0.70362419  1
  Na  Na10  1  0.85933508  0.16010362  0.83480525  1
  Na  Na11  1  0.14066492  0.83989638  0.16519475  1
  Na  Na12  1  0.86270738  0.90440841  0.89766002  1
  Na  Na13  1  0.13729262  0.09559159  0.10233998  1
  Na  Na14  1  0.73182936  0.08974148  0.00616345  1
  Na  Na15  1  0.26817064  0.91025852  0.99383655  1
  Na  Na16  1  0.63292723  0.91239890  0.53305181  1
  Na  Na17  1  0.36707277  0.08760110  0.46694819  1
  Na  Na18  1  0.68876299  0.48554478  0.28709597  1
  Na  Na19  1  0.31123701  0.51445522  0.71290403  1
  Na  Na20  1  0.98349833  0.35002038  0.02139936  1
  Na  Na21  1  0.01650167  0.64997962  0.97860064  1
  Na  Na22  1  0.87877944  0.68186346  0.78638006  1
  Na  Na23  1  0.12122056  0.31813654  0.21361994  1
  Na  Na24  1  0.72143490  0.25212785  0.38207255  1
  Na  Na25  1  0.27856510  0.74787215  0.61792745  1
  Na  Na26  1  0.57360538  0.36083607  0.84048655  1
  Na  Na27  1  0.42639462  0.63916393  0.15951345  1
  Na  Na28  1  0.00000000  0.50000000  0.50000000  1
  Na  Na29  1  0.50000000  0.50000000  -0.00000000  1
  Re  Re30  1  0.59638191  0.25624002  0.13121513  1
  Re  Re31  1  0.40361809  0.74375998  0.86878487  1
  Re  Re32  1  0.79944024  0.38811907  0.69106442  1
  Re  Re33  1  0.20055976  0.61188093  0.30893558  1
  Re  Re34  1  0.74097056  0.64626970  0.61685758  1
  Re  Re35  1  0.25902944  0.35373030  0.38314242  1
  Re  Re36  1  0.02298668  0.78123770  0.46266563  1
  Re  Re37  1  0.97701332  0.21876230  0.53733437  1
  Re  Re38  1  0.90094728  0.55340313  0.13071861  1
  Re  Re39  1  0.09905272  0.44659687  0.86928139  1
  Re  Re40  1  0.68802870  0.91455273  0.71952781  1
  Re  Re41  1  0.31197130  0.08544727  0.28047219  1
  Re  Re42  1  0.68742965  0.80839785  0.05676176  1
  Re  Re43  1  0.31257035  0.19160215  0.94323824  1
  N  N44  1  0.84489985  0.19905762  0.12562740  1
  N  N45  1  0.15510015  0.80094238  0.87437260  1
  N  N46  1  0.86392668  0.31500944  0.60489273  1
  N  N47  1  0.13607332  0.68499056  0.39510727  1
  N  N48  1  0.55177543  0.04212711  0.32135944  1
  N  N49  1  0.44822457  0.95787289  0.67864056  1
  N  N50  1  0.59080390  0.81007664  0.79968840  1
  N  N51  1  0.40919610  0.18992336  0.20031160  1
  N  N52  1  0.68501698  0.42004448  0.13953661  1
  N  N53  1  0.31498302  0.57995552  0.86046339  1
  N  N54  1  0.53919209  0.41387770  0.41408903  1
  N  N55  1  0.46080791  0.58612230  0.58591097  1
  N  N56  1  0.75660279  0.10644301  0.50130052  1
  N  N57  1  0.24339721  0.89355699  0.49869948  1
  N  N58  1  0.91789829  0.67615497  0.53626985  1
  N  N59  1  0.08210171  0.32384503  0.46373015  1
  N  N60  1  0.94310123  0.91170901  0.05869147  1
  N  N61  1  0.05689877  0.08829099  0.94130853  1
  N  N62  1  0.78197149  0.82852887  0.42400227  1
  N  N63  1  0.21802851  0.17147113  0.57599773  1
  N  N64  1  0.75944529  0.78385126  0.66752547  1
  N  N65  1  0.24055471  0.21614874  0.33247453  1
  N  N66  1  0.86920909  0.47073803  0.91820972  1
  N  N67  1  0.13079091  0.52926197  0.08179028  1
  N  N68  1  0.56584849  0.77035668  0.95941252  1
  N  N69  1  0.43415151  0.22964332  0.04058748  1
  N  N70  1  0.75483582  0.66713798  0.08839512  1
  N  N71  1  0.24516418  0.33286202  0.91160488  1
  N  N72  1  0.92653536  0.02820016  0.73876656  1
  N  N73  1  0.07346464  0.97179984  0.26123344  1
  N  N74  1  0.00530499  0.61231823  0.22647478  1
  N  N75  1  0.99469501  0.38768177  0.77352522  1
  N  N76  1  0.88992101  0.55273069  0.67532327  1
  N  N77  1  0.11007899  0.44726931  0.32467673  1
  N  N78  1  0.51337296  0.34865776  0.70905701  1
  N  N79  1  0.48662704  0.65134224  0.29094299  1
  N  N80  1  0.48704153  0.85576136  0.11190843  1
  N  N81  1  0.51295847  0.14423864  0.88809157  1
