# generated using pymatgen
data_Ca2MoN3
_symmetry_space_group_name_H-M   'P 1'
_cell_length_a   5.63444324
_cell_length_b   10.71896673
_cell_length_c   11.95025038
_cell_angle_alpha   90.00000000
_cell_angle_beta   94.34918199
_cell_angle_gamma   90.00000000
_symmetry_Int_Tables_number   1
_chemical_formula_structural   Ca2MoN3
_chemical_formula_sum   'Ca16 Mo8 N24'
_cell_volume   719.66194777
_cell_formula_units_Z   8
loop_
 _symmetry_equiv_pos_site_id
 _symmetry_equiv_pos_as_xyz
  1  'x, y, z'
loop_
 _atom_site_type_symbol
 _atom_site_label
 _atom_site_symmetry_multiplicity
 _atom_site_fract_x
 _atom_site_fract_y
 _atom_site_fract_z
 _atom_site_occupancy
  Ca  Ca0  1  0.22697385  0.20299636  0.85658382  1
  Ca  Ca1  1  0.77302615  0.20299636  0.64341618  1
  Ca  Ca2  1  0.27302615  0.29700364  0.14341618  1
  Ca  Ca3  1  0.72697385  0.29700364  0.35658382  1
  Ca  Ca4  1  0.27678947  0.38586542  0.58056863  1
  Ca  Ca5  1  0.72321053  0.38586542  0.91943137  1
  Ca  Ca6  1  0.22321053  0.11413458  0.41943137  1
  Ca  Ca7  1  0.77678947  0.11413458  0.08056863  1
  Ca  Ca8  1  0.72697385  0.70299636  0.85658382  1
  Ca  Ca9  1  0.27302615  0.70299636  0.64341618  1
  Ca  Ca10  1  0.77302615  0.79700364  0.14341618  1
  Ca  Ca11  1  0.22697385  0.79700364  0.35658382  1
  Ca  Ca12  1  0.77678947  0.88586542  0.58056863  1
  Ca  Ca13  1  0.22321053  0.88586542  0.91943137  1
  Ca  Ca14  1  0.72321053  0.61413458  0.41943137  1
  Ca  Ca15  1  0.27678947  0.61413458  0.08056863  1
  Mo  Mo16  1  0.27776307  0.00102113  0.66182864  1
  Mo  Mo17  1  0.72223693  0.00102113  0.83817136  1
  Mo  Mo18  1  0.22223693  0.49897887  0.33817136  1
  Mo  Mo19  1  0.77776307  0.49897887  0.16182864  1
  Mo  Mo20  1  0.77776307  0.50102113  0.66182864  1
  Mo  Mo21  1  0.22223693  0.50102113  0.83817136  1
  Mo  Mo22  1  0.72223693  0.99897887  0.33817136  1
  Mo  Mo23  1  0.27776307  0.99897887  0.16182864  1
  N  N24  1  0.00000000  0.38027276  0.75000000  1
  N  N25  1  0.50000000  0.11972724  0.25000000  1
  N  N26  1  0.33211340  0.16796670  0.62435367  1
  N  N27  1  0.66788660  0.16796670  0.87564633  1
  N  N28  1  0.16788660  0.33203330  0.37564633  1
  N  N29  1  0.83211340  0.33203330  0.12435367  1
  N  N30  1  0.21892747  0.09356177  0.03353022  1
  N  N31  1  0.78107253  0.09356177  0.46646978  1
  N  N32  1  0.28107253  0.40643823  0.96646978  1
  N  N33  1  0.71892747  0.40643823  0.53353022  1
  N  N34  1  0.00000000  0.00507417  0.75000000  1
  N  N35  1  0.50000000  0.49492583  0.25000000  1
  N  N36  1  0.50000000  0.88027276  0.75000000  1
  N  N37  1  0.00000000  0.61972724  0.25000000  1
  N  N38  1  0.83211340  0.66796670  0.62435367  1
  N  N39  1  0.16788660  0.66796670  0.87564633  1
  N  N40  1  0.66788660  0.83203330  0.37564633  1
  N  N41  1  0.33211340  0.83203330  0.12435367  1
  N  N42  1  0.71892747  0.59356177  0.03353022  1
  N  N43  1  0.28107253  0.59356177  0.46646978  1
  N  N44  1  0.78107253  0.90643823  0.96646978  1
  N  N45  1  0.21892747  0.90643823  0.53353022  1
  N  N46  1  0.50000000  0.50507417  0.75000000  1
  N  N47  1  0.00000000  0.99492583  0.25000000  1
