# generated using pymatgen
data_Ba(CoN)2
_symmetry_space_group_name_H-M   'P 1'
_cell_length_a   6.27733225
_cell_length_b   6.08807450
_cell_length_c   9.13730354
_cell_angle_alpha   89.99999611
_cell_angle_beta   43.29760021
_cell_angle_gamma   60.99242102
_symmetry_Int_Tables_number   1
_chemical_formula_structural   Ba(CoN)2
_chemical_formula_sum   'Ba2 Co4 N4'
_cell_volume   169.33546423
_cell_formula_units_Z   2
loop_
 _symmetry_equiv_pos_site_id
 _symmetry_equiv_pos_as_xyz
  1  'x, y, z'
loop_
 _atom_site_type_symbol
 _atom_site_label
 _atom_site_symmetry_multiplicity
 _atom_site_fract_x
 _atom_site_fract_y
 _atom_site_fract_z
 _atom_site_occupancy
  Ba  Ba0  1  -0.00000000  0.00000000  0.25000000  1
  Ba  Ba1  1  -0.00000000  0.00000000  0.75000000  1
  Co  Co2  1  0.73525509  0.50000000  0.63237246  1
  Co  Co3  1  0.26474491  0.50000000  0.36762754  1
  Co  Co4  1  0.26474491  0.23525509  0.86762754  1
  Co  Co5  1  0.73525509  0.76474491  0.13237246  1
  N  N6  1  0.67254322  0.50000000  0.16372839  1
  N  N7  1  0.32745678  0.50000000  0.83627161  1
  N  N8  1  0.32745678  0.17254322  0.33627161  1
  N  N9  1  0.67254322  0.82745678  0.66372839  1
