# generated using pymatgen
data_KPtN
_symmetry_space_group_name_H-M   'P 1'
_cell_length_a   10.67877104
_cell_length_b   3.73082111
_cell_length_c   5.27635737
_cell_angle_alpha   44.99807077
_cell_angle_beta   119.64500134
_cell_angle_gamma   110.47289645
_symmetry_Int_Tables_number   1
_chemical_formula_structural   KPtN
_chemical_formula_sum   'K2 Pt2 N2'
_cell_volume   129.18241032
_cell_formula_units_Z   2
loop_
 _symmetry_equiv_pos_site_id
 _symmetry_equiv_pos_as_xyz
  1  'x, y, z'
loop_
 _atom_site_type_symbol
 _atom_site_label
 _atom_site_symmetry_multiplicity
 _atom_site_fract_x
 _atom_site_fract_y
 _atom_site_fract_z
 _atom_site_occupancy
  K  K0  1  0.46567000  0.50120200  0.14093600  1
  K  K1  1  0.96567000  0.49879800  0.64213900  1
  Pt  Pt2  1  0.21566500  0.50171600  0.39037600  1
  Pt  Pt3  1  0.71566500  0.49828400  0.89209300  1
  N  N4  1  0.21566500  0.00174700  0.89035400  1
  N  N5  1  0.71566500  0.99825300  0.89210200  1
