# generated using pymatgen
data_LiCuBO3
_symmetry_space_group_name_H-M   'P 1'
_cell_length_a   8.09513717
_cell_length_b   8.09552116
_cell_length_c   3.05027662
_cell_angle_alpha   90.00000000
_cell_angle_beta   90.00000000
_cell_angle_gamma   119.99331977
_symmetry_Int_Tables_number   1
_chemical_formula_structural   LiCuBO3
_chemical_formula_sum   'Li3 Cu3 B3 O9'
_cell_volume   173.12831912
_cell_formula_units_Z   3
loop_
 _symmetry_equiv_pos_site_id
 _symmetry_equiv_pos_as_xyz
  1  'x, y, z'
loop_
 _atom_site_type_symbol
 _atom_site_label
 _atom_site_symmetry_multiplicity
 _atom_site_fract_x
 _atom_site_fract_y
 _atom_site_fract_z
 _atom_site_occupancy
  Li  Li0  1  0.27952630  0.98136408  0.50000000  1
  Li  Li1  1  0.01869326  0.29820506  0.50000000  1
  Li  Li2  1  0.70183671  0.72042085  0.50000000  1
  Cu  Cu3  1  0.38042291  0.36701156  0.00000000  1
  Cu  Cu4  1  0.63290698  0.01349673  0.00000000  1
  Cu  Cu5  1  0.98656433  0.61955549  0.00000000  1
  B  B6  1  0.33334686  0.66667003  0.50000000  1
  B  B7  1  0.00003445  0.00000641  0.00000000  1
  B  B8  1  0.66662772  0.33331453  0.50000000  1
  O  O9  1  0.11108872  0.91439674  0.00000000  1
  O  O10  1  0.13698194  0.58403249  0.50000000  1
  O  O11  1  0.08560224  0.19663926  0.00000000  1
  O  O12  1  0.44712750  0.86309953  0.50000000  1
  O  O13  1  0.41600581  0.55296043  0.50000000  1
  O  O14  1  0.46977642  0.25532136  0.50000000  1
  O  O15  1  0.80327833  0.88892252  0.00000000  1
  O  O16  1  0.78554608  0.53018313  0.50000000  1
  O  O17  1  0.74463244  0.21440179  0.50000000  1
