# generated using pymatgen
data_Ca4PdO6
_symmetry_space_group_name_H-M   'P 1'
_cell_length_a   6.60583780
_cell_length_b   6.60583781
_cell_length_c   6.60583781
_cell_angle_alpha   90.72020324
_cell_angle_beta   90.72020323
_cell_angle_gamma   90.72020322
_symmetry_Int_Tables_number   1
_chemical_formula_structural   Ca4PdO6
_chemical_formula_sum   'Ca8 Pd2 O12'
_cell_volume   288.19066341
_cell_formula_units_Z   2
loop_
 _symmetry_equiv_pos_site_id
 _symmetry_equiv_pos_as_xyz
  1  'x, y, z'
loop_
 _atom_site_type_symbol
 _atom_site_label
 _atom_site_symmetry_multiplicity
 _atom_site_fract_x
 _atom_site_fract_y
 _atom_site_fract_z
 _atom_site_occupancy
  O  O0  1  0.79784161  0.56956727  0.44681098  1
  O  O1  1  0.56956727  0.44681098  0.79784161  1
  O  O2  1  0.44681098  0.79784161  0.56956727  1
  O  O3  1  0.05318902  0.93043273  0.70215839  1
  O  O4  1  0.93043273  0.70215839  0.05318902  1
  O  O5  1  0.70215839  0.05318902  0.93043273  1
  O  O6  1  0.20215839  0.43043273  0.55318902  1
  O  O7  1  0.43043273  0.55318902  0.20215839  1
  O  O8  1  0.55318902  0.20215839  0.43043273  1
  O  O9  1  0.94681098  0.06956727  0.29784161  1
  O  O10  1  0.29784161  0.94681098  0.06956727  1
  O  O11  1  0.06956727  0.29784161  0.94681098  1
  Ca  Ca12  1  0.25000000  0.25000000  0.25000000  1
  Ca  Ca13  1  0.75000000  0.75000000  0.75000000  1
  Ca  Ca14  1  0.11542327  0.75000000  0.38457673  1
  Ca  Ca15  1  0.75000000  0.38457673  0.11542327  1
  Ca  Ca16  1  0.38457673  0.11542327  0.75000000  1
  Ca  Ca17  1  0.88457673  0.25000000  0.61542327  1
  Ca  Ca18  1  0.25000000  0.61542327  0.88457673  1
  Ca  Ca19  1  0.61542327  0.88457673  0.25000000  1
  Pd  Pd20  1  0.00000000  0.00000000  0.00000000  1
  Pd  Pd21  1  0.50000000  0.50000000  0.50000000  1
