# generated using pymatgen
data_RbMoN2
_symmetry_space_group_name_H-M   'P 1'
_cell_length_a   6.14304971
_cell_length_b   12.27672451
_cell_length_c   16.88662387
_cell_angle_alpha   90.00000000
_cell_angle_beta   90.00000000
_cell_angle_gamma   90.00000000
_symmetry_Int_Tables_number   1
_chemical_formula_structural   RbMoN2
_chemical_formula_sum   'Rb16 Mo16 N32'
_cell_volume   1273.53055781
_cell_formula_units_Z   16
loop_
 _symmetry_equiv_pos_site_id
 _symmetry_equiv_pos_as_xyz
  1  'x, y, z'
loop_
 _atom_site_type_symbol
 _atom_site_label
 _atom_site_symmetry_multiplicity
 _atom_site_fract_x
 _atom_site_fract_y
 _atom_site_fract_z
 _atom_site_occupancy
  Rb  Rb0  1  0.23946529  0.99959279  0.43491797  1
  Rb  Rb1  1  0.73946529  0.50040721  0.56508203  1
  Rb  Rb2  1  0.76053471  0.49959279  0.06508203  1
  Rb  Rb3  1  0.26053471  0.00040721  0.93491797  1
  Rb  Rb4  1  0.76053471  0.00040721  0.56508203  1
  Rb  Rb5  1  0.26053471  0.49959279  0.43491797  1
  Rb  Rb6  1  0.23946529  0.50040721  0.93491797  1
  Rb  Rb7  1  0.73946529  0.99959279  0.06508203  1
  Rb  Rb8  1  0.34850939  0.25199658  0.31025307  1
  Rb  Rb9  1  0.84850939  0.24800342  0.68974693  1
  Rb  Rb10  1  0.65149061  0.75199658  0.18974693  1
  Rb  Rb11  1  0.15149061  0.74800342  0.81025307  1
  Rb  Rb12  1  0.65149061  0.74800342  0.68974693  1
  Rb  Rb13  1  0.15149061  0.75199658  0.31025307  1
  Rb  Rb14  1  0.34850939  0.24800342  0.81025307  1
  Rb  Rb15  1  0.84850939  0.25199658  0.18974693  1
  Mo  Mo16  1  0.73434919  0.00231631  0.31395103  1
  Mo  Mo17  1  0.23434919  0.49768369  0.68604897  1
  Mo  Mo18  1  0.26565081  0.50231631  0.18604897  1
  Mo  Mo19  1  0.76565081  0.99768369  0.81395103  1
  Mo  Mo20  1  0.26565081  0.99768369  0.68604897  1
  Mo  Mo21  1  0.76565081  0.50231631  0.31395103  1
  Mo  Mo22  1  0.73434919  0.49768369  0.81395103  1
  Mo  Mo23  1  0.23434919  0.00231631  0.18604897  1
  Mo  Mo24  1  0.81394877  0.25301328  0.44130773  1
  Mo  Mo25  1  0.31394877  0.24698672  0.55869227  1
  Mo  Mo26  1  0.18605123  0.75301328  0.05869227  1
  Mo  Mo27  1  0.68605123  0.74698672  0.94130773  1
  Mo  Mo28  1  0.18605123  0.74698672  0.55869227  1
  Mo  Mo29  1  0.68605123  0.75301328  0.44130773  1
  Mo  Mo30  1  0.81394877  0.24698672  0.94130773  1
  Mo  Mo31  1  0.31394877  0.25301328  0.05869227  1
  N  N32  1  0.11442907  0.25491053  0.47234539  1
  N  N33  1  0.61442907  0.24508947  0.52765461  1
  N  N34  1  0.88557093  0.75491053  0.02765461  1
  N  N35  1  0.38557093  0.74508947  0.97234539  1
  N  N36  1  0.88557093  0.74508947  0.52765461  1
  N  N37  1  0.38557093  0.75491053  0.47234539  1
  N  N38  1  0.11442907  0.24508947  0.97234539  1
  N  N39  1  0.61442907  0.25491053  0.02765461  1
  N  N40  1  0.74635722  0.38054298  0.38286290  1
  N  N41  1  0.24635722  0.11945702  0.61713710  1
  N  N42  1  0.25364278  0.88054298  0.11713710  1
  N  N43  1  0.75364278  0.61945702  0.88286290  1
  N  N44  1  0.25364278  0.61945702  0.61713710  1
  N  N45  1  0.75364278  0.88054298  0.38286290  1
  N  N46  1  0.74635722  0.11945702  0.88286290  1
  N  N47  1  0.24635722  0.38054298  0.11713710  1
  N  N48  1  0.76512396  0.13089807  0.37533890  1
  N  N49  1  0.26512396  0.36910193  0.62466110  1
  N  N50  1  0.23487604  0.63089807  0.12466110  1
  N  N51  1  0.73487604  0.86910193  0.87533890  1
  N  N52  1  0.23487604  0.86910193  0.62466110  1
  N  N53  1  0.73487604  0.63089807  0.37533890  1
  N  N54  1  0.76512396  0.36910193  0.87533890  1
  N  N55  1  0.26512396  0.13089807  0.12466110  1
  N  N56  1  0.54112647  0.50014981  0.23700688  1
  N  N57  1  0.04112647  -0.00014981  0.76299312  1
  N  N58  1  0.45887353  0.00014981  0.26299312  1
  N  N59  1  0.95887353  0.49985019  0.73700688  1
  N  N60  1  0.45887353  0.49985019  0.76299312  1
  N  N61  1  0.95887353  0.00014981  0.23700688  1
  N  N62  1  0.54112647  -0.00014981  0.73700688  1
  N  N63  1  0.04112647  0.50014981  0.26299312  1
