# generated using pymatgen
data_K15Re7N19
_symmetry_space_group_name_H-M   'P 1'
_cell_length_a   6.82991819
_cell_length_b   12.54611860
_cell_length_c   19.32573319
_cell_angle_alpha   90.88102524
_cell_angle_beta   94.39609986
_cell_angle_gamma   99.46143156
_symmetry_Int_Tables_number   1
_chemical_formula_structural   K15Re7N19
_chemical_formula_sum   'K30 Re14 N38'
_cell_volume   1628.00979635
_cell_formula_units_Z   2
loop_
 _symmetry_equiv_pos_site_id
 _symmetry_equiv_pos_as_xyz
  1  'x, y, z'
loop_
 _atom_site_type_symbol
 _atom_site_label
 _atom_site_symmetry_multiplicity
 _atom_site_fract_x
 _atom_site_fract_y
 _atom_site_fract_z
 _atom_site_occupancy
  K  K0  1  0.52083671  0.62264609  0.43750356  1
  K  K1  1  0.47916329  0.37735391  0.56249644  1
  K  K2  1  0.61891523  0.13562162  0.65165185  1
  K  K3  1  0.38108477  0.86437838  0.34834815  1
  K  K4  1  0.72140666  0.02269581  0.19500444  1
  K  K5  1  0.27859334  0.97730419  0.80499556  1
  K  K6  1  0.93270560  0.03838275  0.38522843  1
  K  K7  1  0.06729440  0.96161725  0.61477157  1
  K  K8  1  0.77282254  0.74957001  0.27948839  1
  K  K9  1  0.22717746  0.25042999  0.72051161  1
  K  K10  1  0.86657535  0.17333019  0.83565218  1
  K  K11  1  0.13342465  0.82666981  0.16434782  1
  K  K12  1  0.86542826  0.90168576  0.90019754  1
  K  K13  1  0.13457174  0.09831424  0.09980246  1
  K  K14  1  0.71546723  0.08281333  0.00683256  1
  K  K15  1  0.28453277  0.91718667  0.99316744  1
  K  K16  1  0.60833336  0.89415088  0.53290496  1
  K  K17  1  0.39166664  0.10584912  0.46709504  1
  K  K18  1  0.60070685  0.44978117  0.27845927  1
  K  K19  1  0.39929315  0.55021883  0.72154073  1
  K  K20  1  0.97576338  0.34120230  0.01528994  1
  K  K21  1  0.02423662  0.65879770  0.98471006  1
  K  K22  1  0.91615984  0.66134062  0.78602498  1
  K  K23  1  0.08384016  0.33865938  0.21397502  1
  K  K24  1  0.74577945  0.26531395  0.38390722  1
  K  K25  1  0.25422055  0.73468605  0.61609278  1
  K  K26  1  0.60534270  0.38062985  0.84286410  1
  K  K27  1  0.39465730  0.61937015  0.15713590  1
  K  K28  1  0.00000000  0.50000000  0.50000000  1
  K  K29  1  0.50000000  0.50000000  0.00000000  1
  Re  Re30  1  0.57590833  0.27053690  0.12555812  1
  Re  Re31  1  0.42409167  0.72946310  0.87444188  1
  Re  Re32  1  0.86989041  0.40744615  0.68505929  1
  Re  Re33  1  0.13010959  0.59255385  0.31494071  1
  Re  Re34  1  0.74950010  0.65562066  0.60679587  1
  Re  Re35  1  0.25049990  0.34437934  0.39320413  1
  Re  Re36  1  0.98607287  0.78206112  0.45027072  1
  Re  Re37  1  0.01392713  0.21793888  0.54972928  1
  Re  Re38  1  0.86289289  0.54728480  0.13814350  1
  Re  Re39  1  0.13710711  0.45271520  0.86185650  1
  Re  Re40  1  0.66413095  0.87974351  0.72589807  1
  Re  Re41  1  0.33586905  0.12025649  0.27410193  1
  Re  Re42  1  0.68292824  0.79413897  0.05736948  1
  Re  Re43  1  0.31707176  0.20586103  0.94263052  1
  N  N44  1  0.79692088  0.21220022  0.12336758  1
  N  N45  1  0.20307912  0.78779978  0.87663242  1
  N  N46  1  0.94453930  0.32553473  0.61007893  1
  N  N47  1  0.05546070  0.67446527  0.38992107  1
  N  N48  1  0.54754977  0.07417993  0.31752222  1
  N  N49  1  0.45245023  0.92582007  0.68247778  1
  N  N50  1  0.58192681  0.78571994  0.80430498  1
  N  N51  1  0.41807319  0.21428006  0.19569502  1
  N  N52  1  0.65538751  0.42499269  0.13603863  1
  N  N53  1  0.34461249  0.57500731  0.86396137  1
  N  N54  1  0.50174689  0.39971490  0.42097949  1
  N  N55  1  0.49825311  0.60028510  0.57902051  1
  N  N56  1  0.80350649  0.11168832  0.52844308  1
  N  N57  1  0.19649351  0.88831168  0.47155692  1
  N  N58  1  0.89674115  0.70737769  0.53094364  1
  N  N59  1  0.10325885  0.29262231  0.46905636  1
  N  N60  1  0.91108191  0.89078151  0.05126157  1
  N  N61  1  0.08891809  0.10921849  0.94873843  1
  N  N62  1  0.77411014  0.83259343  0.41019356  1
  N  N63  1  0.22588986  0.16740657  0.58980644  1
  N  N64  1  0.75168135  0.77015505  0.67126151  1
  N  N65  1  0.24831865  0.22984495  0.32873849  1
  N  N66  1  0.93509863  0.47866244  0.90782047  1
  N  N67  1  0.06490137  0.52133756  0.09217953  1
  N  N68  1  0.57085730  0.75670819  0.96368502  1
  N  N69  1  0.42914270  0.24329181  0.03631498  1
  N  N70  1  0.75405250  0.67106235  0.10186279  1
  N  N71  1  0.24594750  0.32893765  0.89813721  1
  N  N72  1  0.86635316  0.98866160  0.75019251  1
  N  N73  1  0.13364684  0.01133840  0.24980749  1
  N  N74  1  0.94981595  0.58023599  0.23494372  1
  N  N75  1  0.05018405  0.41976401  0.76505628  1
  N  N76  1  0.89119661  0.55304405  0.64892895  1
  N  N77  1  0.10880339  0.44695595  0.35107105  1
  N  N78  1  0.62099467  0.35863374  0.70575481  1
  N  N79  1  0.37900533  0.64136626  0.29424519  1
  N  N80  1  0.50181405  0.84746205  0.10543092  1
  N  N81  1  0.49818595  0.15253795  0.89456908  1
