# generated using pymatgen
data_Ca5(OsN3)2
_symmetry_space_group_name_H-M   'P 1'
_cell_length_a   10.05515062
_cell_length_b   6.60153364
_cell_length_c   12.61305567
_cell_angle_alpha   90.00000000
_cell_angle_beta   103.25244077
_cell_angle_gamma   90.00000000
_symmetry_Int_Tables_number   1
_chemical_formula_structural   Ca5(OsN3)2
_chemical_formula_sum   'Ca20 Os8 N24'
_cell_volume   814.95094000
_cell_formula_units_Z   4
loop_
 _symmetry_equiv_pos_site_id
 _symmetry_equiv_pos_as_xyz
  1  'x, y, z'
loop_
 _atom_site_type_symbol
 _atom_site_label
 _atom_site_symmetry_multiplicity
 _atom_site_fract_x
 _atom_site_fract_y
 _atom_site_fract_z
 _atom_site_occupancy
  Ca  Ca0  1  0.50000000  0.11464780  0.75000000  1
  Ca  Ca1  1  0.50000000  0.88535220  0.25000000  1
  Ca  Ca2  1  0.56643910  0.75584163  0.00198110  1
  Ca  Ca3  1  0.43356090  0.75584163  0.49801890  1
  Ca  Ca4  1  0.43356090  0.24415837  0.99801890  1
  Ca  Ca5  1  0.56643910  0.24415837  0.50198110  1
  Ca  Ca6  1  0.15934848  0.10898496  0.71721207  1
  Ca  Ca7  1  0.84065152  0.10898496  0.78278793  1
  Ca  Ca8  1  0.84065152  0.89101504  0.28278793  1
  Ca  Ca9  1  0.15934848  0.89101504  0.21721207  1
  Ca  Ca10  1  -0.00000000  0.61464780  0.75000000  1
  Ca  Ca11  1  -0.00000000  0.38535220  0.25000000  1
  Ca  Ca12  1  0.06643910  0.25584163  0.00198110  1
  Ca  Ca13  1  0.93356090  0.25584163  0.49801890  1
  Ca  Ca14  1  0.93356090  0.74415837  0.99801890  1
  Ca  Ca15  1  0.06643910  0.74415837  0.50198110  1
  Ca  Ca16  1  0.65934848  0.60898496  0.71721207  1
  Ca  Ca17  1  0.34065152  0.60898496  0.78278793  1
  Ca  Ca18  1  0.34065152  0.39101504  0.28278793  1
  Ca  Ca19  1  0.65934848  0.39101504  0.21721207  1
  Os  Os20  1  0.76912819  0.91184306  0.55749963  1
  Os  Os21  1  0.23087181  0.91184306  0.94250037  1
  Os  Os22  1  0.23087181  0.08815694  0.44250037  1
  Os  Os23  1  0.76912819  0.08815694  0.05749963  1
  Os  Os24  1  0.26912819  0.41184306  0.55749963  1
  Os  Os25  1  0.73087181  0.41184306  0.94250037  1
  Os  Os26  1  0.73087181  0.58815694  0.44250037  1
  Os  Os27  1  0.26912819  0.58815694  0.05749963  1
  N  N28  1  0.64080082  0.96078919  0.64344927  1
  N  N29  1  0.35919918  0.96078919  0.85655073  1
  N  N30  1  0.35919918  0.03921081  0.35655073  1
  N  N31  1  0.64080082  0.03921081  0.14344927  1
  N  N32  1  0.28934334  0.00543459  0.58812661  1
  N  N33  1  0.71065666  0.00543459  0.91187339  1
  N  N34  1  0.71065666  0.99456541  0.41187339  1
  N  N35  1  0.28934334  0.99456541  0.08812661  1
  N  N36  1  0.95257430  0.95745633  0.62643401  1
  N  N37  1  0.04742570  0.95745633  0.87356599  1
  N  N38  1  0.04742570  0.04254367  0.37356599  1
  N  N39  1  0.95257430  0.04254367  0.12643401  1
  N  N40  1  0.14080082  0.46078919  0.64344927  1
  N  N41  1  0.85919918  0.46078919  0.85655073  1
  N  N42  1  0.85919918  0.53921081  0.35655073  1
  N  N43  1  0.14080082  0.53921081  0.14344927  1
  N  N44  1  0.78934334  0.50543459  0.58812661  1
  N  N45  1  0.21065666  0.50543459  0.91187339  1
  N  N46  1  0.21065666  0.49456541  0.41187339  1
  N  N47  1  0.78934334  0.49456541  0.08812661  1
  N  N48  1  0.45257430  0.45745633  0.62643401  1
  N  N49  1  0.54742570  0.45745633  0.87356599  1
  N  N50  1  0.54742570  0.54254367  0.37356599  1
  N  N51  1  0.45257430  0.54254367  0.12643401  1
