# generated using pymatgen
data_KMoN2
_symmetry_space_group_name_H-M   'P 1'
_cell_length_a   5.85108181
_cell_length_b   11.86909882
_cell_length_c   16.99468881
_cell_angle_alpha   90.00000000
_cell_angle_beta   90.00000000
_cell_angle_gamma   90.00000000
_symmetry_Int_Tables_number   1
_chemical_formula_structural   KMoN2
_chemical_formula_sum   'K16 Mo16 N32'
_cell_volume   1180.23131294
_cell_formula_units_Z   16
loop_
 _symmetry_equiv_pos_site_id
 _symmetry_equiv_pos_as_xyz
  1  'x, y, z'
loop_
 _atom_site_type_symbol
 _atom_site_label
 _atom_site_symmetry_multiplicity
 _atom_site_fract_x
 _atom_site_fract_y
 _atom_site_fract_z
 _atom_site_occupancy
  K  K0  1  0.25736742  0.00075557  0.43772825  1
  K  K1  1  0.75736742  0.49924443  0.56227175  1
  K  K2  1  0.74263258  0.50075557  0.06227175  1
  K  K3  1  0.24263258  0.99924443  0.93772825  1
  K  K4  1  0.74263258  0.99924443  0.56227175  1
  K  K5  1  0.24263258  0.50075557  0.43772825  1
  K  K6  1  0.25736742  0.49924443  0.93772825  1
  K  K7  1  0.75736742  0.00075557  0.06227175  1
  K  K8  1  0.25709715  0.25265422  0.31354168  1
  K  K9  1  0.75709715  0.24734578  0.68645832  1
  K  K10  1  0.74290285  0.75265422  0.18645832  1
  K  K11  1  0.24290285  0.74734578  0.81354168  1
  K  K12  1  0.74290285  0.74734578  0.68645832  1
  K  K13  1  0.24290285  0.75265422  0.31354168  1
  K  K14  1  0.25709715  0.24734578  0.81354168  1
  K  K15  1  0.75709715  0.25265422  0.18645832  1
  Mo  Mo16  1  0.77619829  0.00297548  0.30942899  1
  Mo  Mo17  1  0.27619829  0.49702452  0.69057101  1
  Mo  Mo18  1  0.22380171  0.50297548  0.19057101  1
  Mo  Mo19  1  0.72380171  0.99702452  0.80942899  1
  Mo  Mo20  1  0.22380171  0.99702452  0.69057101  1
  Mo  Mo21  1  0.72380171  0.50297548  0.30942899  1
  Mo  Mo22  1  0.77619829  0.49702452  0.80942899  1
  Mo  Mo23  1  0.27619829  0.00297548  0.19057101  1
  Mo  Mo24  1  0.75185871  0.25351728  0.43606667  1
  Mo  Mo25  1  0.25185871  0.24648272  0.56393333  1
  Mo  Mo26  1  0.24814129  0.75351728  0.06393333  1
  Mo  Mo27  1  0.74814129  0.74648272  0.93606667  1
  Mo  Mo28  1  0.24814129  0.74648272  0.56393333  1
  Mo  Mo29  1  0.74814129  0.75351728  0.43606667  1
  Mo  Mo30  1  0.75185871  0.24648272  0.93606667  1
  Mo  Mo31  1  0.25185871  0.25351728  0.06393333  1
  N  N32  1  0.00718411  0.29731420  0.49915942  1
  N  N33  1  0.50718411  0.20268580  0.50084058  1
  N  N34  1  0.99281589  0.79731420  0.00084058  1
  N  N35  1  0.49281589  0.70268580  0.99915942  1
  N  N36  1  0.99281589  0.70268580  0.50084058  1
  N  N37  1  0.49281589  0.79731420  0.49915942  1
  N  N38  1  0.00718411  0.20268580  0.99915942  1
  N  N39  1  0.50718411  0.29731420  0.00084058  1
  N  N40  1  0.65088931  0.37780575  0.37458296  1
  N  N41  1  0.15088931  0.12219425  0.62541704  1
  N  N42  1  0.34911069  0.87780575  0.12541704  1
  N  N43  1  0.84911069  0.62219425  0.87458296  1
  N  N44  1  0.34911069  0.62219425  0.62541704  1
  N  N45  1  0.84911069  0.87780575  0.37458296  1
  N  N46  1  0.65088931  0.12219425  0.87458296  1
  N  N47  1  0.15088931  0.37780575  0.12541704  1
  N  N48  1  0.84331388  0.13770455  0.36553392  1
  N  N49  1  0.34331388  0.36229545  0.63446608  1
  N  N50  1  0.15668612  0.63770455  0.13446608  1
  N  N51  1  0.65668612  0.86229545  0.86553392  1
  N  N52  1  0.15668612  0.86229545  0.63446608  1
  N  N53  1  0.65668612  0.63770455  0.36553392  1
  N  N54  1  0.84331388  0.36229545  0.86553392  1
  N  N55  1  0.34331388  0.13770455  0.13446608  1
  N  N56  1  0.53844622  0.49826055  0.21643480  1
  N  N57  1  0.03844622  0.00173945  0.78356520  1
  N  N58  1  0.46155378  0.99826055  0.28356520  1
  N  N59  1  0.96155378  0.50173945  0.71643480  1
  N  N60  1  0.46155378  0.50173945  0.78356520  1
  N  N61  1  0.96155378  0.99826055  0.21643480  1
  N  N62  1  0.53844622  0.00173945  0.71643480  1
  N  N63  1  0.03844622  0.49826055  0.28356520  1
