# generated using pymatgen
data_KMnN2
_symmetry_space_group_name_H-M   'P 1'
_cell_length_a   5.65612785
_cell_length_b   11.33669709
_cell_length_c   15.56476123
_cell_angle_alpha   90.00000000
_cell_angle_beta   90.00000000
_cell_angle_gamma   90.00000000
_symmetry_Int_Tables_number   1
_chemical_formula_structural   KMnN2
_chemical_formula_sum   'K16 Mn16 N32'
_cell_volume   998.04063330
_cell_formula_units_Z   16
loop_
 _symmetry_equiv_pos_site_id
 _symmetry_equiv_pos_as_xyz
  1  'x, y, z'
loop_
 _atom_site_type_symbol
 _atom_site_label
 _atom_site_symmetry_multiplicity
 _atom_site_fract_x
 _atom_site_fract_y
 _atom_site_fract_z
 _atom_site_occupancy
  K  K0  1  0.24881966  1.00009816  0.43368795  1
  K  K1  1  0.74881966  0.49990184  0.56631205  1
  K  K2  1  0.75118034  0.50009816  0.06631205  1
  K  K3  1  0.25118034  -0.00009816  0.93368795  1
  K  K4  1  0.75118034  -0.00009816  0.56631205  1
  K  K5  1  0.25118034  0.50009816  0.43368795  1
  K  K6  1  0.24881966  0.49990184  0.93368795  1
  K  K7  1  0.74881966  1.00009816  0.06631205  1
  K  K8  1  0.35080392  0.25213626  0.30843275  1
  K  K9  1  0.85080392  0.24786374  0.69156725  1
  K  K10  1  0.64919608  0.75213626  0.19156725  1
  K  K11  1  0.14919608  0.74786374  0.80843275  1
  K  K12  1  0.64919608  0.74786374  0.69156725  1
  K  K13  1  0.14919608  0.75213626  0.30843275  1
  K  K14  1  0.35080392  0.24786374  0.80843275  1
  K  K15  1  0.85080392  0.25213626  0.19156725  1
  Mn  Mn16  1  0.74885780  0.00275144  0.31442429  1
  Mn  Mn17  1  0.24885780  0.49724856  0.68557571  1
  Mn  Mn18  1  0.25114220  0.50275144  0.18557571  1
  Mn  Mn19  1  0.75114220  0.99724856  0.81442429  1
  Mn  Mn20  1  0.25114220  0.99724856  0.68557571  1
  Mn  Mn21  1  0.75114220  0.50275144  0.31442429  1
  Mn  Mn22  1  0.74885780  0.49724856  0.81442429  1
  Mn  Mn23  1  0.24885780  0.00275144  0.18557571  1
  Mn  Mn24  1  0.81502650  0.25309051  0.44016382  1
  Mn  Mn25  1  0.31502650  0.24690949  0.55983618  1
  Mn  Mn26  1  0.18497350  0.75309051  0.05983618  1
  Mn  Mn27  1  0.68497350  0.74690949  0.94016382  1
  Mn  Mn28  1  0.18497350  0.74690949  0.55983618  1
  Mn  Mn29  1  0.68497350  0.75309051  0.44016382  1
  Mn  Mn30  1  0.81502650  0.24690949  0.94016382  1
  Mn  Mn31  1  0.31502650  0.25309051  0.05983618  1
  N  N32  1  0.10805444  0.25311898  0.47571786  1
  N  N33  1  0.60805444  0.24688102  0.52428214  1
  N  N34  1  0.89194556  0.75311898  0.02428214  1
  N  N35  1  0.39194556  0.74688102  0.97571786  1
  N  N36  1  0.89194556  0.74688102  0.52428214  1
  N  N37  1  0.39194556  0.75311898  0.47571786  1
  N  N38  1  0.10805444  0.24688102  0.97571786  1
  N  N39  1  0.60805444  0.25311898  0.02428214  1
  N  N40  1  0.75794388  0.38085835  0.38218757  1
  N  N41  1  0.25794388  0.11914165  0.61781243  1
  N  N42  1  0.24205612  0.88085835  0.11781243  1
  N  N43  1  0.74205612  0.61914165  0.88218757  1
  N  N44  1  0.24205612  0.61914165  0.61781243  1
  N  N45  1  0.74205612  0.88085835  0.38218757  1
  N  N46  1  0.75794388  0.11914165  0.88218757  1
  N  N47  1  0.25794388  0.38085835  0.11781243  1
  N  N48  1  0.76674769  0.13100862  0.37512182  1
  N  N49  1  0.26674769  0.36899138  0.62487818  1
  N  N50  1  0.23325231  0.63100862  0.12487818  1
  N  N51  1  0.73325231  0.86899138  0.87512182  1
  N  N52  1  0.23325231  0.86899138  0.62487818  1
  N  N53  1  0.73325231  0.63100862  0.37512182  1
  N  N54  1  0.76674769  0.36899138  0.87512182  1
  N  N55  1  0.26674769  0.13100862  0.12487818  1
  N  N56  1  0.50655273  0.49956938  0.24712188  1
  N  N57  1  0.00655273  0.00043062  0.75287812  1
  N  N58  1  0.49344727  0.99956938  0.25287812  1
  N  N59  1  0.99344727  0.50043062  0.74712188  1
  N  N60  1  0.49344727  0.50043062  0.75287812  1
  N  N61  1  0.99344727  0.99956938  0.24712188  1
  N  N62  1  0.50655273  0.00043062  0.74712188  1
  N  N63  1  0.00655273  0.49956938  0.25287812  1
