# generated using pymatgen
data_LiSiBiO4
_symmetry_space_group_name_H-M   'P 1'
_cell_length_a   8.93433121
_cell_length_b   5.37368413
_cell_length_c   8.85239863
_cell_angle_alpha   90.00000000
_cell_angle_beta   107.64590875
_cell_angle_gamma   90.00000000
_symmetry_Int_Tables_number   1
_chemical_formula_structural   LiSiBiO4
_chemical_formula_sum   'Li4 Si4 Bi4 O16'
_cell_volume   405.00873262
_cell_formula_units_Z   4
loop_
 _symmetry_equiv_pos_site_id
 _symmetry_equiv_pos_as_xyz
  1  'x, y, z'
loop_
 _atom_site_type_symbol
 _atom_site_label
 _atom_site_symmetry_multiplicity
 _atom_site_fract_x
 _atom_site_fract_y
 _atom_site_fract_z
 _atom_site_occupancy
  Li  Li0  1  0.21696118  0.33073091  0.86766439  1
  Li  Li1  1  0.37539122  0.82621185  0.35616108  1
  Li  Li2  1  0.71696118  0.66926909  0.86766439  1
  Li  Li3  1  0.87539122  0.17378815  0.35616108  1
  Si  Si4  1  0.99376745  0.68366908  0.24896273  1
  Si  Si5  1  0.34688299  0.79234263  0.74228512  1
  Si  Si6  1  0.49376745  0.31633092  0.24896273  1
  Si  Si7  1  0.84688299  0.20765737  0.74228512  1
  Bi  Bi8  1  0.07203888  0.84218226  0.96379942  1
  Bi  Bi9  1  0.25629316  0.32233324  0.49634273  1
  Bi  Bi10  1  0.57203888  0.15781774  0.96379942  1
  Bi  Bi11  1  0.75629316  0.67766676  0.49634273  1
  O  O12  1  0.01493805  0.24229015  0.88807494  1
  O  O13  1  0.02371958  0.39035454  0.30124548  1
  O  O14  1  0.19933102  0.64683484  0.77322599  1
  O  O15  1  0.32703418  0.10327681  0.74536772  1
  O  O16  1  0.15951990  0.80900391  0.23856133  1
  O  O17  1  0.36444164  0.69495026  0.56957235  1
  O  O18  1  0.51493805  0.75770985  0.88807494  1
  O  O19  1  0.42651737  0.17694342  0.38221277  1
  O  O20  1  0.37696340  0.26795293  0.06532393  1
  O  O21  1  0.52371958  0.60964546  0.30124548  1
  O  O22  1  0.69933102  0.35316516  0.77322599  1
  O  O23  1  0.82703418  0.89672319  0.74536772  1
  O  O24  1  0.65951990  0.19099609  0.23856133  1
  O  O25  1  0.86444164  0.30504974  0.56957235  1
  O  O26  1  0.92651737  0.82305658  0.38221277  1
  O  O27  1  0.87696340  0.73204707  0.06532393  1
