# generated using pymatgen
data_Tb2Co3Si5
_symmetry_space_group_name_H-M   'P 1'
_cell_length_a   5.51334178
_cell_length_b   7.86222292
_cell_length_c   7.86222292
_cell_angle_alpha   93.47320127
_cell_angle_beta   109.17814415
_cell_angle_gamma   109.17814409
_symmetry_Int_Tables_number   1
_chemical_formula_structural   Tb2Co3Si5
_chemical_formula_sum   'Tb4 Co6 Si10'
_cell_volume   298.55379139
_cell_formula_units_Z   2
loop_
 _symmetry_equiv_pos_site_id
 _symmetry_equiv_pos_as_xyz
  1  'x, y, z'
loop_
 _atom_site_type_symbol
 _atom_site_label
 _atom_site_symmetry_multiplicity
 _atom_site_fract_x
 _atom_site_fract_y
 _atom_site_fract_z
 _atom_site_occupancy
  Si  Si0  1  0.25000000  0.77002218  0.22997782  1
  Si  Si1  1  0.75000000  0.22997782  0.77002218  1
  Si  Si2  1  0.25000000  0.51138168  0.48861832  1
  Si  Si3  1  0.75000000  0.48861832  0.51138168  1
  Si  Si4  1  0.25000000  0.21468615  0.78531385  1
  Si  Si5  1  0.75000000  0.78531385  0.21468615  1
  Si  Si6  1  0.16408094  0.06253079  0.26165905  1
  Si  Si7  1  0.66408094  0.26165905  0.06253079  1
  Si  Si8  1  0.83591906  0.93746921  0.73834095  1
  Si  Si9  1  0.33591906  0.73834095  0.93746921  1
  Co  Co10  1  0.87372584  0.53906041  0.26325282  1
  Co  Co11  1  0.75000000  0.99607902  0.00392098  1
  Co  Co12  1  0.37372584  0.26325282  0.53906041  1
  Co  Co13  1  0.12627416  0.46093959  0.73674718  1
  Co  Co14  1  0.62627416  0.73674718  0.46093959  1
  Co  Co15  1  0.25000000  0.00392098  0.99607902  1
  Tb  Tb16  1  0.23696724  0.86938600  0.59833512  1
  Tb  Tb17  1  0.26303276  0.40166488  0.13061400  1
  Tb  Tb18  1  0.76303276  0.13061400  0.40166488  1
  Tb  Tb19  1  0.73696724  0.59833512  0.86938600  1
