# generated using pymatgen
data_La2MgRhO6
_symmetry_space_group_name_H-M   'P 1'
_cell_length_a   5.59247917
_cell_length_b   5.71300180
_cell_length_c   7.93920349
_cell_angle_alpha   90.00000000
_cell_angle_beta   89.90094916
_cell_angle_gamma   90.00000000
_symmetry_Int_Tables_number   1
_chemical_formula_structural   La2MgRhO6
_chemical_formula_sum   'La4 Mg2 Rh2 O12'
_cell_volume   253.65593078
_cell_formula_units_Z   2
loop_
 _symmetry_equiv_pos_site_id
 _symmetry_equiv_pos_as_xyz
  1  'x, y, z'
loop_
 _atom_site_type_symbol
 _atom_site_label
 _atom_site_symmetry_multiplicity
 _atom_site_fract_x
 _atom_site_fract_y
 _atom_site_fract_z
 _atom_site_occupancy
  O  O0  1  0.91304494  0.52374016  0.75267960  1
  O  O1  1  0.58695506  0.02374016  0.74732040  1
  O  O2  1  0.08695506  0.47625984  0.24732040  1
  O  O3  1  0.41304494  0.97625984  0.25267960  1
  O  O4  1  0.79109366  0.79515902  0.45323072  1
  O  O5  1  0.70890634  0.29515902  0.04676928  1
  O  O6  1  0.20890634  0.20484098  0.54676928  1
  O  O7  1  0.29109366  0.70484098  0.95323072  1
  O  O8  1  0.20161647  0.21029437  0.95310243  1
  O  O9  1  0.29838353  0.71029437  0.54689757  1
  O  O10  1  0.79838353  0.78970563  0.04689757  1
  O  O11  1  0.70161647  0.28970563  0.45310243  1
  Mg  Mg12  1  0.50000000  0.00000000  0.00000000  1
  Mg  Mg13  1  0.00000000  0.50000000  0.50000000  1
  Rh  Rh14  1  0.00000000  0.50000000  0.00000000  1
  Rh  Rh15  1  0.50000000  0.00000000  0.50000000  1
  La  La16  1  0.01061795  0.95182445  0.74943474  1
  La  La17  1  0.48938205  0.45182445  0.75056526  1
  La  La18  1  0.98938205  0.04817555  0.25056526  1
  La  La19  1  0.51061795  0.54817555  0.24943474  1
