# generated using pymatgen
data_Ho2Ge2Rh
_symmetry_space_group_name_H-M   'P 1'
_cell_length_a   4.29309062
_cell_length_b   5.67161135
_cell_length_c   9.40905512
_cell_angle_alpha   81.75644294
_cell_angle_beta   76.81263797
_cell_angle_gamma   67.76094166
_symmetry_Int_Tables_number   1
_chemical_formula_structural   Ho2Ge2Rh
_chemical_formula_sum   'Ho4 Ge4 Rh2'
_cell_volume   206.05060981
_cell_formula_units_Z   2
loop_
 _symmetry_equiv_pos_site_id
 _symmetry_equiv_pos_as_xyz
  1  'x, y, z'
loop_
 _atom_site_type_symbol
 _atom_site_label
 _atom_site_symmetry_multiplicity
 _atom_site_fract_x
 _atom_site_fract_y
 _atom_site_fract_z
 _atom_site_occupancy
  Ge  Ge0  1  0.47810870  0.16000792  0.88377469  1
  Ge  Ge1  1  0.52189130  0.83999208  0.11622531  1
  Ge  Ge2  1  0.35664128  0.72870801  0.55800943  1
  Ge  Ge3  1  0.64335872  0.27129199  0.44199057  1
  Rh  Rh4  1  0.72645954  0.88986273  0.65721818  1
  Rh  Rh5  1  0.27354046  0.11013727  0.34278182  1
  Ho  Ho6  1  0.18747383  0.74097819  0.88407415  1
  Ho  Ho7  1  0.81252617  0.25902181  0.11592585  1
  Ho  Ho8  1  0.00757958  0.31498570  0.66985513  1
  Ho  Ho9  1  0.99242042  0.68501430  0.33014487  1
