# generated using pymatgen
data_Sr3CdPtO6
_symmetry_space_group_name_H-M   'P 1'
_cell_length_a   6.87165145
_cell_length_b   6.87165145
_cell_length_c   6.87165144
_cell_angle_alpha   90.23925376
_cell_angle_beta   90.23925376
_cell_angle_gamma   90.23925381
_symmetry_Int_Tables_number   1
_chemical_formula_structural   Sr3CdPtO6
_chemical_formula_sum   'Sr6 Cd2 Pt2 O12'
_cell_volume   324.46807804
_cell_formula_units_Z   2
loop_
 _symmetry_equiv_pos_site_id
 _symmetry_equiv_pos_as_xyz
  1  'x, y, z'
loop_
 _atom_site_type_symbol
 _atom_site_label
 _atom_site_symmetry_multiplicity
 _atom_site_fract_x
 _atom_site_fract_y
 _atom_site_fract_z
 _atom_site_occupancy
  O  O0  1  0.58256752  0.44867937  0.78496552  1
  O  O1  1  0.44867937  0.78496552  0.58256752  1
  O  O2  1  0.78496552  0.58256752  0.44867937  1
  O  O3  1  0.71503448  0.05132063  0.91743248  1
  O  O4  1  0.05132063  0.91743248  0.71503448  1
  O  O5  1  0.91743248  0.71503448  0.05132063  1
  O  O6  1  0.41743248  0.55132063  0.21503448  1
  O  O7  1  0.55132063  0.21503448  0.41743248  1
  O  O8  1  0.21503448  0.41743248  0.55132063  1
  O  O9  1  0.28496552  0.94867937  0.08256752  1
  O  O10  1  0.08256752  0.28496552  0.94867937  1
  O  O11  1  0.94867937  0.08256752  0.28496552  1
  Sr  Sr12  1  0.61314588  0.88685412  0.25000000  1
  Sr  Sr13  1  0.25000000  0.61314588  0.88685412  1
  Sr  Sr14  1  0.88685412  0.25000000  0.61314588  1
  Sr  Sr15  1  0.38685412  0.11314588  0.75000000  1
  Sr  Sr16  1  0.11314588  0.75000000  0.38685412  1
  Sr  Sr17  1  0.75000000  0.38685412  0.11314588  1
  Cd  Cd18  1  0.25000000  0.25000000  0.25000000  1
  Cd  Cd19  1  0.75000000  0.75000000  0.75000000  1
  Pt  Pt20  1  0.00000000  0.00000000  0.00000000  1
  Pt  Pt21  1  0.50000000  0.50000000  0.50000000  1
