# generated using pymatgen
data_Nb2Co3Si
_symmetry_space_group_name_H-M   'P 1'
_cell_length_a   4.86804110
_cell_length_b   4.86804110
_cell_length_c   7.55198198
_cell_angle_alpha   90.00000000
_cell_angle_beta   90.00000000
_cell_angle_gamma   120.00000000
_symmetry_Int_Tables_number   1
_chemical_formula_structural   Nb2Co3Si
_chemical_formula_sum   'Nb4 Co6 Si2'
_cell_volume   154.98870490
_cell_formula_units_Z   2
loop_
 _symmetry_equiv_pos_site_id
 _symmetry_equiv_pos_as_xyz
  1  'x, y, z'
loop_
 _atom_site_type_symbol
 _atom_site_label
 _atom_site_symmetry_multiplicity
 _atom_site_fract_x
 _atom_site_fract_y
 _atom_site_fract_z
 _atom_site_occupancy
  Si  Si0  1  0.00000000  0.00000000  0.50000000  1
  Si  Si1  1  0.00000000  0.00000000  0.00000000  1
  Co  Co2  1  0.16987583  0.83012417  0.75000000  1
  Co  Co3  1  0.66024834  0.83012417  0.75000000  1
  Co  Co4  1  0.83012417  0.16987583  0.25000000  1
  Co  Co5  1  0.16987583  0.33975166  0.75000000  1
  Co  Co6  1  0.83012417  0.66024834  0.25000000  1
  Co  Co7  1  0.33975166  0.16987583  0.25000000  1
  Nb  Nb8  1  0.66666667  0.33333333  0.93989477  1
  Nb  Nb9  1  0.33333333  0.66666667  0.43989477  1
  Nb  Nb10  1  0.66666667  0.33333333  0.56010523  1
  Nb  Nb11  1  0.33333333  0.66666667  0.06010523  1
