# generated using pymatgen
data_Li7Ti2P7O24
_symmetry_space_group_name_H-M   'P 1'
_cell_length_a   15.28489600
_cell_length_b   5.17231363
_cell_length_c   11.75608318
_cell_angle_alpha   90.00000000
_cell_angle_beta   97.37278960
_cell_angle_gamma   90.00000000
_symmetry_Int_Tables_number   1
_chemical_formula_structural   Li7Ti2P7O24
_chemical_formula_sum   'Li14 Ti4 P14 O48'
_cell_volume   921.73146110
_cell_formula_units_Z   2
loop_
 _symmetry_equiv_pos_site_id
 _symmetry_equiv_pos_as_xyz
  1  'x, y, z'
loop_
 _atom_site_type_symbol
 _atom_site_label
 _atom_site_symmetry_multiplicity
 _atom_site_fract_x
 _atom_site_fract_y
 _atom_site_fract_z
 _atom_site_occupancy
  Li  Li0  1  0.05789926  0.72431157  0.51792870  1
  Li  Li1  1  0.13793780  0.81813047  0.88861277  1
  Li  Li2  1  0.05789926  0.27568843  0.01792870  1
  Li  Li3  1  0.13793780  0.18186953  0.38861277  1
  Li  Li4  1  0.41085265  0.15122313  0.55146853  1
  Li  Li5  1  0.41085265  0.84877687  0.05146853  1
  Li  Li6  1  0.50000000  0.70870257  0.75000000  1
  Li  Li7  1  0.50000000  0.29129743  0.25000000  1
  Li  Li8  1  0.58914735  0.15122313  0.94853147  1
  Li  Li9  1  0.58914735  0.84877687  0.44853147  1
  Li  Li10  1  0.86206220  0.81813047  0.61138723  1
  Li  Li11  1  0.94210074  0.72431157  0.98207130  1
  Li  Li12  1  0.86206220  0.18186953  0.11138823  1
  Li  Li13  1  0.94210074  0.27568843  0.48207130  1
  Ti  Ti14  1  0.27776531  0.64570850  0.68757006  1
  Ti  Ti15  1  0.27776531  0.35429150  0.18757006  1
  Ti  Ti16  1  0.72223469  0.64570850  0.81242994  1
  Ti  Ti17  1  0.72223469  0.35429150  0.31242994  1
  P  P18  1  0.00000000  0.42724375  0.75000000  1
  P  P19  1  0.00000000  0.57275625  0.25000000  1
  P  P20  1  0.13778047  0.12634751  0.65530092  1
  P  P21  1  0.13778047  0.87365249  0.15530092  1
  P  P22  1  0.27566727  0.38363552  0.94961495  1
  P  P23  1  0.27566727  0.61636448  0.44961495  1
  P  P24  1  0.39261970  0.15575078  0.80241276  1
  P  P25  1  0.39261970  0.84424922  0.30241276  1
  P  P26  1  0.60738030  0.15575078  0.69758724  1
  P  P27  1  0.60738030  0.84424922  0.19758724  1
  P  P28  1  0.72433273  0.38363552  0.55038505  1
  P  P29  1  0.72433273  0.61636448  0.05038505  1
  P  P30  1  0.86221953  0.12634751  0.84469908  1
  P  P31  1  0.86221953  0.87365249  0.34469908  1
  O  O32  1  0.01406280  0.57113021  0.86245844  1
  O  O33  1  0.01406280  0.42886979  0.36245844  1
  O  O34  1  0.08082395  0.22747279  0.75575434  1
  O  O35  1  0.07709961  0.10155273  0.54364105  1
  O  O36  1  0.08082395  0.77252721  0.25575434  1
  O  O37  1  0.07709961  0.89844727  0.04364105  1
  O  O38  1  0.17031117  0.86801684  0.71182113  1
  O  O39  1  0.20093284  0.26195055  0.00558471  1
  O  O40  1  0.21026132  0.32039999  0.64933981  1
  O  O41  1  0.17031117  0.13198316  0.21182113  1
  O  O42  1  0.20093284  0.73804945  0.50558471  1
  O  O43  1  0.24776073  0.59655697  0.86304145  1
  O  O44  1  0.21026132  0.67960001  0.14933981  1
  O  O45  1  0.24776073  0.40344303  0.36304145  1
  O  O46  1  0.31504769  0.14073553  0.88536787  1
  O  O47  1  0.31504769  0.85926447  0.38536787  1
  O  O48  1  0.36197788  0.97473875  0.70046906  1
  O  O49  1  0.34750670  0.52701435  0.54670543  1
  O  O50  1  0.39704409  0.44212084  0.76703589  1
  O  O51  1  0.36197788  0.02526125  0.20046906  1
  O  O52  1  0.34750670  0.47298565  0.04670543  1
  O  O53  1  0.39704409  0.55787916  0.26703589  1
  O  O54  1  0.47420876  0.04990972  0.87534276  1
  O  O55  1  0.47420876  0.95009028  0.37534276  1
  O  O56  1  0.52579124  0.04990972  0.62465724  1
  O  O57  1  0.52579124  0.95009028  0.12465724  1
  O  O58  1  0.60295591  0.44212084  0.73296411  1
  O  O59  1  0.65249330  0.52701435  0.95329457  1
  O  O60  1  0.63802212  0.97473875  0.79953094  1
  O  O61  1  0.60295591  0.55787916  0.23296411  1
  O  O62  1  0.65249330  0.47298565  0.45329457  1
  O  O63  1  0.63802212  0.02526125  0.29953094  1
  O  O64  1  0.68495231  0.14073553  0.61463213  1
  O  O65  1  0.68495231  0.85926447  0.11463213  1
  O  O66  1  0.75223927  0.59655697  0.63695855  1
  O  O67  1  0.78973868  0.32039999  0.85066019  1
  O  O68  1  0.75223927  0.40344303  0.13695855  1
  O  O69  1  0.79906716  0.26195055  0.49441529  1
  O  O70  1  0.82968883  0.86801684  0.78817887  1
  O  O71  1  0.78973868  0.67960001  0.35066019  1
  O  O72  1  0.79906716  0.73804945  0.99441529  1
  O  O73  1  0.82968883  0.13198316  0.28817887  1
  O  O74  1  0.92290039  0.10155273  0.95635895  1
  O  O75  1  0.91917605  0.22747279  0.74424566  1
  O  O76  1  0.92290039  0.89844727  0.45635895  1
  O  O77  1  0.91917605  0.77252721  0.24424566  1
  O  O78  1  0.98593720  0.57113021  0.63754156  1
  O  O79  1  0.98593720  0.42886979  0.13754156  1
