# generated using pymatgen
data_Ba2PrNbO6
_symmetry_space_group_name_H-M   'P 1'
_cell_length_a   6.15465426
_cell_length_b   6.18161663
_cell_length_c   8.69229802
_cell_angle_alpha   90.39576646
_cell_angle_beta   90.00000000
_cell_angle_gamma   90.00000000
_symmetry_Int_Tables_number   1
_chemical_formula_structural   Ba2PrNbO6
_chemical_formula_sum   'Ba4 Pr2 Nb2 O12'
_cell_volume   330.69678735
_cell_formula_units_Z   2
loop_
 _symmetry_equiv_pos_site_id
 _symmetry_equiv_pos_as_xyz
  1  'x, y, z'
loop_
 _atom_site_type_symbol
 _atom_site_label
 _atom_site_symmetry_multiplicity
 _atom_site_fract_x
 _atom_site_fract_y
 _atom_site_fract_z
 _atom_site_occupancy
  O  O0  1  0.00955975  0.56507105  0.27066975  1
  O  O1  1  0.50955975  0.93492895  0.22933025  1
  O  O2  1  0.99044025  0.43492895  0.72933025  1
  O  O3  1  0.49044025  0.06507105  0.77066975  1
  O  O4  1  0.21272205  0.25240375  0.46558377  1
  O  O5  1  0.71272205  0.24759625  0.03441623  1
  O  O6  1  0.78727795  0.74759625  0.53441623  1
  O  O7  1  0.28727795  0.75240375  0.96558377  1
  O  O8  1  0.75142515  0.79066546  0.96437648  1
  O  O9  1  0.25142515  0.70933454  0.53562352  1
  O  O10  1  0.24857485  0.20933454  0.03562352  1
  O  O11  1  0.74857485  0.29066546  0.46437648  1
  Nb  Nb12  1  0.50000000  0.00000000  0.00000000  1
  Nb  Nb13  1  0.00000000  0.50000000  0.50000000  1
  Ba  Ba14  1  0.48487212  0.49445428  0.25112620  1
  Ba  Ba15  1  0.01512788  0.99445428  0.75112620  1
  Ba  Ba16  1  0.98487212  0.00554572  0.24887380  1
  Ba  Ba17  1  0.51512788  0.50554572  0.74887380  1
  Pr  Pr18  1  0.50000000  0.00000000  0.50000000  1
  Pr  Pr19  1  0.00000000  0.50000000  0.00000000  1
