# generated using pymatgen
data_KEuPSe4
_symmetry_space_group_name_H-M   'P 1'
_cell_length_a   6.95595877
_cell_length_b   7.00099447
_cell_length_c   9.25682271
_cell_angle_alpha   90.00000000
_cell_angle_beta   107.02944166
_cell_angle_gamma   90.00000000
_symmetry_Int_Tables_number   1
_chemical_formula_structural   KEuPSe4
_chemical_formula_sum   'K2 Eu2 P2 Se8'
_cell_volume   431.02921251
_cell_formula_units_Z   2
loop_
 _symmetry_equiv_pos_site_id
 _symmetry_equiv_pos_as_xyz
  1  'x, y, z'
loop_
 _atom_site_type_symbol
 _atom_site_label
 _atom_site_symmetry_multiplicity
 _atom_site_fract_x
 _atom_site_fract_y
 _atom_site_fract_z
 _atom_site_occupancy
  P  P0  1  0.70529937  0.75000000  0.31253641  1
  P  P1  1  0.29470063  0.25000000  0.68746359  1
  K  K2  1  0.24623259  0.75000000  0.93749714  1
  K  K3  1  0.75376741  0.25000000  0.06250286  1
  Se  Se4  1  0.90345962  0.75000000  0.16267752  1
  Se  Se5  1  0.12002639  0.25000000  0.44335604  1
  Se  Se6  1  0.49894233  0.00282759  0.26937877  1
  Se  Se7  1  0.50105767  0.50282759  0.73062123  1
  Se  Se8  1  0.50105767  0.99717241  0.73062123  1
  Se  Se9  1  0.49894233  0.49717241  0.26937877  1
  Se  Se10  1  0.87997361  0.75000000  0.55664396  1
  Se  Se11  1  0.09654038  0.25000000  0.83732248  1
  Eu  Eu12  1  0.26771389  0.75000000  0.45094835  1
  Eu  Eu13  1  0.73228611  0.25000000  0.54905165  1
