# generated using pymatgen
data_K2UTe3
_symmetry_space_group_name_H-M   'P 1'
_cell_length_a   8.07988528
_cell_length_b   8.08409781
_cell_length_c   8.67535976
_cell_angle_alpha   80.94061175
_cell_angle_beta   71.63432854
_cell_angle_gamma   60.01723595
_symmetry_Int_Tables_number   1
_chemical_formula_structural   K2UTe3
_chemical_formula_sum   'K4 U2 Te6'
_cell_volume   465.82867775
_cell_formula_units_Z   2
loop_
 _symmetry_equiv_pos_site_id
 _symmetry_equiv_pos_as_xyz
  1  'x, y, z'
loop_
 _atom_site_type_symbol
 _atom_site_label
 _atom_site_symmetry_multiplicity
 _atom_site_fract_x
 _atom_site_fract_y
 _atom_site_fract_z
 _atom_site_occupancy
  K  K0  1  0.65474225  0.69051551  0.50000000  1
  K  K1  1  0.34525775  0.30948449  0.50000000  1
  K  K2  1  0.00000000  0.00000000  0.50000000  1
  K  K3  1  0.50000000  0.00000000  0.00000000  1
  Te  Te4  1  0.20091038  0.00000000  0.79003148  1
  Te  Te5  1  0.57286788  0.37203202  0.78671070  1
  Te  Te6  1  0.94489990  0.62796798  0.78671070  1
  Te  Te7  1  0.42713212  0.62796798  0.21328930  1
  Te  Te8  1  0.05510010  0.37203202  0.21328930  1
  Te  Te9  1  0.79908962  0.00000000  0.20996852  1
  U  U10  1  0.83201639  0.33596721  0.00000000  1
  U  U11  1  0.16798361  0.66403279  0.00000000  1
