# generated using pymatgen
data_Nb5(NiP)4
_symmetry_space_group_name_H-M   'P 1'
_cell_length_a   3.53382507
_cell_length_b   7.28516532
_cell_length_c   7.28516532
_cell_angle_alpha   86.62771177
_cell_angle_beta   75.96375324
_cell_angle_gamma   75.96375325
_symmetry_Int_Tables_number   1
_chemical_formula_structural   Nb5(NiP)4
_chemical_formula_sum   'Nb5 Ni4 P4'
_cell_volume   176.52040666
_cell_formula_units_Z   1
loop_
 _symmetry_equiv_pos_site_id
 _symmetry_equiv_pos_as_xyz
  1  'x, y, z'
loop_
 _atom_site_type_symbol
 _atom_site_label
 _atom_site_symmetry_multiplicity
 _atom_site_fract_x
 _atom_site_fract_y
 _atom_site_fract_z
 _atom_site_occupancy
  P  P0  1  0.55555239  0.20418101  0.68471421  1
  P  P1  1  0.24026660  0.31528579  0.20418101  1
  P  P2  1  0.75973340  0.68471421  0.79581899  1
  P  P3  1  0.44444761  0.79581899  0.31528579  1
  Ni  Ni4  1  0.91488164  0.69491406  0.47532267  1
  Ni  Ni5  1  0.08511836  0.30508594  0.52467733  1
  Ni  Ni6  1  0.60979570  0.47532267  0.30508594  1
  Ni  Ni7  1  0.39020430  0.52467733  0.69491406  1
  Nb  Nb8  1  0.80527177  0.06382148  0.32563497  1
  Nb  Nb9  1  0.13090675  0.67436503  0.06382148  1
  Nb  Nb10  1  0.86909325  0.32563497  0.93617852  1
  Nb  Nb11  1  0.19472823  0.93617852  0.67436503  1
  Nb  Nb12  1  0.50000000  0.00000000  0.00000000  1
