# generated using pymatgen
data_NaEr(SO4)2
_symmetry_space_group_name_H-M   'P 1'
_cell_length_a   4.74491347
_cell_length_b   6.89431789
_cell_length_c   9.87401868
_cell_angle_alpha   90.00000000
_cell_angle_beta   97.23749579
_cell_angle_gamma   90.00000000
_symmetry_Int_Tables_number   1
_chemical_formula_structural   NaEr(SO4)2
_chemical_formula_sum   'Na2 Er2 S4 O16'
_cell_volume   320.43462043
_cell_formula_units_Z   2
loop_
 _symmetry_equiv_pos_site_id
 _symmetry_equiv_pos_as_xyz
  1  'x, y, z'
loop_
 _atom_site_type_symbol
 _atom_site_label
 _atom_site_symmetry_multiplicity
 _atom_site_fract_x
 _atom_site_fract_y
 _atom_site_fract_z
 _atom_site_occupancy
  O  O0  1  0.16479364  0.75000000  0.45289899  1
  O  O1  1  0.83520636  0.25000000  0.54710101  1
  O  O2  1  0.12997145  0.25000000  0.36546332  1
  O  O3  1  0.87002855  0.75000000  0.63453668  1
  O  O4  1  0.73749322  0.42365782  0.85383169  1
  O  O5  1  0.26250678  0.92365782  0.14616831  1
  O  O6  1  0.26250678  0.57634218  0.14616831  1
  O  O7  1  0.73749322  0.07634218  0.85383169  1
  O  O8  1  0.16913742  0.25000000  0.94479737  1
  O  O9  1  0.83086258  0.75000000  0.05520263  1
  O  O10  1  0.22555046  0.75000000  0.92733627  1
  O  O11  1  0.77444954  0.25000000  0.07266373  1
  O  O12  1  0.32594089  0.92059556  0.66851960  1
  O  O13  1  0.67405911  0.42059556  0.33148040  1
  O  O14  1  0.67405911  0.07940444  0.33148040  1
  O  O15  1  0.32594089  0.57940444  0.66851960  1
  Na  Na16  1  0.62179457  0.75000000  0.35940467  1
  Na  Na17  1  0.37820543  0.25000000  0.64059533  1
  S  S18  1  0.14680503  0.75000000  0.07053788  1
  S  S19  1  0.85319497  0.25000000  0.92946212  1
  S  S20  1  0.83162511  0.25000000  0.39915704  1
  S  S21  1  0.16837489  0.75000000  0.60084296  1
  Er  Er22  1  0.34913448  0.25000000  0.17588688  1
  Er  Er23  1  0.65086552  0.75000000  0.82411312  1
