# generated using pymatgen
data_LiNb(PO3)4
_symmetry_space_group_name_H-M   'P 1'
_cell_length_a   5.41934488
_cell_length_b   10.51927608
_cell_length_c   10.51927608
_cell_angle_alpha   70.17423539
_cell_angle_beta   99.00956160
_cell_angle_gamma   99.00956160
_symmetry_Int_Tables_number   1
_chemical_formula_structural   LiNb(PO3)4
_chemical_formula_sum   'Li2 Nb2 P8 O24'
_cell_volume   553.70753219
_cell_formula_units_Z   2
loop_
 _symmetry_equiv_pos_site_id
 _symmetry_equiv_pos_as_xyz
  1  'x, y, z'
loop_
 _atom_site_type_symbol
 _atom_site_label
 _atom_site_symmetry_multiplicity
 _atom_site_fract_x
 _atom_site_fract_y
 _atom_site_fract_z
 _atom_site_occupancy
  Li  Li0  1  0.39164404  0.43759957  0.43759957  1
  Li  Li1  1  0.60835596  0.56240043  0.56240043  1
  Nb  Nb2  1  0.00000000  0.50000000  0.00000000  1
  Nb  Nb3  1  0.00000000  0.00000000  0.50000000  1
  P  P4  1  0.17811779  0.36789195  0.77989741  1
  P  P5  1  0.17811779  0.77989741  0.36789195  1
  P  P6  1  0.53697055  0.93920213  0.70045290  1
  P  P7  1  0.53697055  0.70045290  0.93920213  1
  P  P8  1  0.46302945  0.06079787  0.29954710  1
  P  P9  1  0.46302945  0.29954710  0.06079787  1
  P  P10  1  0.82188221  0.22010259  0.63210805  1
  P  P11  1  0.82188221  0.63210805  0.22010259  1
  O  O12  1  0.00000000  0.23309265  0.76690735  1
  O  O13  1  0.00000000  0.76690735  0.23309265  1
  O  O14  1  0.25340872  0.67755512  0.92371746  1
  O  O15  1  0.25340872  0.92371746  0.67755512  1
  O  O16  1  0.98461189  0.17991317  0.54950290  1
  O  O17  1  0.98461189  0.54950290  0.17991317  1
  O  O18  1  0.31852454  0.43434861  0.65960328  1
  O  O19  1  0.31852454  0.65960328  0.43434861  1
  O  O20  1  0.36881643  0.90995124  0.29672537  1
  O  O21  1  0.36881643  0.29672537  0.90995124  1
  O  O22  1  0.61956119  0.85721828  0.85721828  1
  O  O23  1  0.32718168  0.10253628  0.39038754  1
  O  O24  1  0.32718168  0.39038754  0.10253628  1
  O  O25  1  0.67281832  0.60961246  0.89746372  1
  O  O26  1  0.67281832  0.89746372  0.60961246  1
  O  O27  1  0.38043881  0.14278172  0.14278172  1
  O  O28  1  0.63118357  0.09004876  0.70327463  1
  O  O29  1  0.63118357  0.70327463  0.09004876  1
  O  O30  1  0.68147546  0.34039672  0.56565139  1
  O  O31  1  0.68147546  0.56565139  0.34039672  1
  O  O32  1  0.01538811  0.45049710  0.82008683  1
  O  O33  1  0.01538811  0.82008683  0.45049710  1
  O  O34  1  0.74659128  0.07628254  0.32244488  1
  O  O35  1  0.74659128  0.32244488  0.07628254  1
