# generated using pymatgen
data_CeAsRh
_symmetry_space_group_name_H-M   'P 1'
_cell_length_a   4.39910512
_cell_length_b   7.32620791
_cell_length_c   7.56948905
_cell_angle_alpha   90.00000000
_cell_angle_beta   90.00000000
_cell_angle_gamma   90.00000000
_symmetry_Int_Tables_number   1
_chemical_formula_structural   CeAsRh
_chemical_formula_sum   'Ce4 As4 Rh4'
_cell_volume   243.95523628
_cell_formula_units_Z   4
loop_
 _symmetry_equiv_pos_site_id
 _symmetry_equiv_pos_as_xyz
  1  'x, y, z'
loop_
 _atom_site_type_symbol
 _atom_site_label
 _atom_site_symmetry_multiplicity
 _atom_site_fract_x
 _atom_site_fract_y
 _atom_site_fract_z
 _atom_site_occupancy
  As  As0  1  0.25000000  0.41011833  0.71763311  1
  As  As1  1  0.75000000  0.58988167  0.28236689  1
  As  As2  1  0.75000000  0.91011833  0.78236689  1
  As  As3  1  0.25000000  0.08988167  0.21763311  1
  Rh  Rh4  1  0.25000000  0.43077367  0.25080435  1
  Rh  Rh5  1  0.75000000  0.56922633  0.74919565  1
  Rh  Rh6  1  0.75000000  0.93077367  0.24919565  1
  Rh  Rh7  1  0.25000000  0.06922633  0.75080435  1
  Ce  Ce8  1  0.25000000  0.77118908  0.50872407  1
  Ce  Ce9  1  0.75000000  0.22881092  0.49127593  1
  Ce  Ce10  1  0.75000000  0.27118908  0.99127593  1
  Ce  Ce11  1  0.25000000  0.72881092  0.00872407  1
