# generated using pymatgen
data_RbAg3Se2
_symmetry_space_group_name_H-M   'P 1'
_cell_length_a   4.45969842
_cell_length_b   8.71032850
_cell_length_c   9.10507532
_cell_angle_alpha   112.99338437
_cell_angle_beta   90.00000000
_cell_angle_gamma   104.83288272
_symmetry_Int_Tables_number   1
_chemical_formula_structural   RbAg3Se2
_chemical_formula_sum   'Rb2 Ag6 Se4'
_cell_volume   312.74652390
_cell_formula_units_Z   2
loop_
 _symmetry_equiv_pos_site_id
 _symmetry_equiv_pos_as_xyz
  1  'x, y, z'
loop_
 _atom_site_type_symbol
 _atom_site_label
 _atom_site_symmetry_multiplicity
 _atom_site_fract_x
 _atom_site_fract_y
 _atom_site_fract_z
 _atom_site_occupancy
  Se  Se0  1  0.48132157  0.96264314  0.78136335  1
  Se  Se1  1  0.19788196  0.39576391  0.69579287  1
  Se  Se2  1  0.80211804  0.60423609  0.30420713  1
  Se  Se3  1  0.51867843  0.03735686  0.21863665  1
  Rb  Rb4  1  0.86388745  0.72777490  0.95088250  1
  Rb  Rb5  1  0.13611255  0.27222510  0.04911750  1
  Ag  Ag6  1  0.31215880  0.62431760  0.56464839  1
  Ag  Ag7  1  0.94245213  0.88490425  0.59761069  1
  Ag  Ag8  1  0.68784120  0.37568240  0.43535161  1
  Ag  Ag9  1  0.40845962  0.81691923  0.35731320  1
  Ag  Ag10  1  0.59154038  0.18308077  0.64268680  1
  Ag  Ag11  1  0.05754787  0.11509575  0.40238931  1
