# generated using pymatgen
data_NaSr3SbO6
_symmetry_space_group_name_H-M   'P 1'
_cell_length_a   6.91926613
_cell_length_b   6.91926613
_cell_length_c   6.91926613
_cell_angle_alpha   91.18726401
_cell_angle_beta   91.18726400
_cell_angle_gamma   91.18726408
_symmetry_Int_Tables_number   1
_chemical_formula_structural   NaSr3SbO6
_chemical_formula_sum   'Na2 Sr6 Sb2 O12'
_cell_volume   331.05212106
_cell_formula_units_Z   2
loop_
 _symmetry_equiv_pos_site_id
 _symmetry_equiv_pos_as_xyz
  1  'x, y, z'
loop_
 _atom_site_type_symbol
 _atom_site_label
 _atom_site_symmetry_multiplicity
 _atom_site_fract_x
 _atom_site_fract_y
 _atom_site_fract_z
 _atom_site_occupancy
  O  O0  1  0.77992807  0.57295078  0.44584635  1
  O  O1  1  0.57295078  0.44584635  0.77992807  1
  O  O2  1  0.44584635  0.77992807  0.57295078  1
  O  O3  1  0.05415365  0.92704922  0.72007193  1
  O  O4  1  0.92704922  0.72007193  0.05415365  1
  O  O5  1  0.72007193  0.05415365  0.92704922  1
  O  O6  1  0.22007193  0.42704922  0.55415365  1
  O  O7  1  0.42704922  0.55415365  0.22007193  1
  O  O8  1  0.55415365  0.22007193  0.42704922  1
  O  O9  1  0.94584635  0.07295078  0.27992807  1
  O  O10  1  0.27992807  0.94584635  0.07295078  1
  O  O11  1  0.07295078  0.27992807  0.94584635  1
  Na  Na12  1  0.25000000  0.25000000  0.25000000  1
  Na  Na13  1  0.75000000  0.75000000  0.75000000  1
  Sr  Sr14  1  0.25000000  0.59966318  0.90033682  1
  Sr  Sr15  1  0.59966318  0.90033682  0.25000000  1
  Sr  Sr16  1  0.09966318  0.75000000  0.40033682  1
  Sr  Sr17  1  0.75000000  0.40033682  0.09966318  1
  Sr  Sr18  1  0.40033682  0.09966318  0.75000000  1
  Sr  Sr19  1  0.90033682  0.25000000  0.59966318  1
  Sb  Sb20  1  0.00000000  0.00000000  0.00000000  1
  Sb  Sb21  1  0.50000000  0.50000000  0.50000000  1
