# generated using pymatgen
data_CsAg5Se3
_symmetry_space_group_name_H-M   'P 1'
_cell_length_a   4.47240889
_cell_length_b   14.34091047
_cell_length_c   14.34091047
_cell_angle_alpha   90.00000000
_cell_angle_beta   90.00000000
_cell_angle_gamma   90.00000000
_symmetry_Int_Tables_number   1
_chemical_formula_structural   CsAg5Se3
_chemical_formula_sum   'Cs4 Ag20 Se12'
_cell_volume   919.80327404
_cell_formula_units_Z   4
loop_
 _symmetry_equiv_pos_site_id
 _symmetry_equiv_pos_as_xyz
  1  'x, y, z'
loop_
 _atom_site_type_symbol
 _atom_site_label
 _atom_site_symmetry_multiplicity
 _atom_site_fract_x
 _atom_site_fract_y
 _atom_site_fract_z
 _atom_site_occupancy
  Se  Se0  1  0.00000000  0.89953005  0.89953005  1
  Se  Se1  1  0.50000000  0.60046995  0.39953005  1
  Se  Se2  1  0.50000000  0.39953005  0.60046995  1
  Se  Se3  1  0.00000000  0.10046995  0.10046995  1
  Se  Se4  1  0.50000000  0.16932025  0.38260093  1
  Se  Se5  1  0.00000000  0.11739907  0.66932025  1
  Se  Se6  1  0.00000000  0.88260093  0.33067975  1
  Se  Se7  1  0.50000000  0.83067975  0.61739907  1
  Se  Se8  1  0.00000000  0.66932025  0.11739907  1
  Se  Se9  1  0.00000000  0.33067975  0.88260093  1
  Se  Se10  1  0.50000000  0.38260093  0.16932025  1
  Se  Se11  1  0.50000000  0.61739907  0.83067975  1
  Ag  Ag12  1  0.50000000  0.17470912  0.17470912  1
  Ag  Ag13  1  0.00000000  0.32529088  0.67470912  1
  Ag  Ag14  1  0.00000000  0.67470912  0.32529088  1
  Ag  Ag15  1  0.50000000  0.82529088  0.82529088  1
  Ag  Ag16  1  0.00000000  0.10821220  0.48321038  1
  Ag  Ag17  1  0.50000000  0.01678962  0.60821220  1
  Ag  Ag18  1  0.50000000  0.98321038  0.39178780  1
  Ag  Ag19  1  0.00000000  0.89178780  0.51678962  1
  Ag  Ag20  1  0.50000000  0.60821220  0.01678962  1
  Ag  Ag21  1  0.50000000  0.39178780  0.98321038  1
  Ag  Ag22  1  0.00000000  0.48321038  0.10821220  1
  Ag  Ag23  1  0.00000000  0.51678962  0.89178780  1
  Ag  Ag24  1  0.00000000  0.07551837  0.28224085  1
  Ag  Ag25  1  0.50000000  0.21775915  0.57551837  1
  Ag  Ag26  1  0.50000000  0.78224085  0.42448163  1
  Ag  Ag27  1  0.00000000  0.92448163  0.71775915  1
  Ag  Ag28  1  0.50000000  0.57551837  0.21775915  1
  Ag  Ag29  1  0.50000000  0.42448163  0.78224085  1
  Ag  Ag30  1  0.00000000  0.28224085  0.07551837  1
  Ag  Ag31  1  0.00000000  0.71775915  0.92448163  1
  Cs  Cs32  1  0.00000000  0.61474518  0.61474518  1
  Cs  Cs33  1  0.50000000  0.88525482  0.11474518  1
  Cs  Cs34  1  0.50000000  0.11474518  0.88525482  1
  Cs  Cs35  1  0.00000000  0.38525482  0.38525482  1
