# generated using pymatgen
data_NdCuS2
_symmetry_space_group_name_H-M   'P 1'
_cell_length_a   6.51150994
_cell_length_b   6.88912744
_cell_length_c   7.20356974
_cell_angle_alpha   90.00000000
_cell_angle_beta   90.00000000
_cell_angle_gamma   97.54384136
_symmetry_Int_Tables_number   1
_chemical_formula_structural   NdCuS2
_chemical_formula_sum   'Nd4 Cu4 S8'
_cell_volume   320.34531668
_cell_formula_units_Z   4
loop_
 _symmetry_equiv_pos_site_id
 _symmetry_equiv_pos_as_xyz
  1  'x, y, z'
loop_
 _atom_site_type_symbol
 _atom_site_label
 _atom_site_symmetry_multiplicity
 _atom_site_fract_x
 _atom_site_fract_y
 _atom_site_fract_z
 _atom_site_occupancy
  S  S0  1  0.91520466  0.00127107  0.72603997  1
  S  S1  1  0.08479534  0.49872893  0.22603997  1
  S  S2  1  0.08479534  0.99872893  0.27396003  1
  S  S3  1  0.91520466  0.50127107  0.77396003  1
  S  S4  1  0.58976961  0.77763868  0.11425307  1
  S  S5  1  0.58976961  0.27763868  0.38574693  1
  S  S6  1  0.41023039  0.22236132  0.88574693  1
  S  S7  1  0.41023039  0.72236132  0.61425307  1
  Cu  Cu8  1  0.57433556  0.04885792  0.66385237  1
  Cu  Cu9  1  0.42566444  0.95114208  0.33614763  1
  Cu  Cu10  1  0.42566444  0.45114208  0.16385237  1
  Cu  Cu11  1  0.57433556  0.54885792  0.83614763  1
  Nd  Nd12  1  0.19090104  0.79979255  0.94987665  1
  Nd  Nd13  1  0.80909896  0.70020745  0.44987665  1
  Nd  Nd14  1  0.80909896  0.20020745  0.05012335  1
  Nd  Nd15  1  0.19090104  0.29979255  0.55012335  1
