# generated using pymatgen
data_LiSn2P5O16
_symmetry_space_group_name_H-M   'P 1'
_cell_length_a   7.36983633
_cell_length_b   10.34726731
_cell_length_c   10.69644411
_cell_angle_alpha   90.00000000
_cell_angle_beta   110.42650231
_cell_angle_gamma   90.00000000
_symmetry_Int_Tables_number   1
_chemical_formula_structural   LiSn2P5O16
_chemical_formula_sum   'Li2 Sn4 P10 O32'
_cell_volume   764.39607591
_cell_formula_units_Z   2
loop_
 _symmetry_equiv_pos_site_id
 _symmetry_equiv_pos_as_xyz
  1  'x, y, z'
loop_
 _atom_site_type_symbol
 _atom_site_label
 _atom_site_symmetry_multiplicity
 _atom_site_fract_x
 _atom_site_fract_y
 _atom_site_fract_z
 _atom_site_occupancy
  Li  Li0  1  0.23070488  0.80924134  0.19250419  1
  Li  Li1  1  0.73070488  0.19075866  0.69250419  1
  Sn  Sn2  1  0.14643574  0.12766073  0.49959207  1
  Sn  Sn3  1  0.21722725  0.37028491  0.13466252  1
  Sn  Sn4  1  0.71722725  0.62971509  0.63466252  1
  Sn  Sn5  1  0.64643574  0.87233927  0.99959207  1
  P  P6  1  0.00995386  0.85794458  0.62953375  1
  P  P7  1  0.99013500  0.46754500  0.49762995  1
  P  P8  1  0.31943115  0.28832567  0.87913979  1
  P  P9  1  0.42618120  0.87135040  0.66338547  1
  P  P10  1  0.36620610  0.41295904  0.46552265  1
  P  P11  1  0.86620610  0.58704096  0.96552265  1
  P  P12  1  0.50995386  0.14205542  0.12953375  1
  P  P13  1  0.49013500  0.53245500  0.99762995  1
  P  P14  1  0.81943115  0.71167433  0.37913979  1
  P  P15  1  0.92618120  0.12864960  0.16338547  1
  O  O16  1  0.15688310  0.29950294  0.93760549  1
  O  O17  1  0.23534276  0.84635570  0.70794865  1
  O  O18  1  0.07037522  0.05945551  0.28218626  1
  O  O19  1  0.27247940  0.22885003  0.74547466  1
  O  O20  1  0.21999781  0.47741073  0.53117211  1
  O  O21  1  0.40867168  0.43016197  0.87483659  1
  O  O22  1  0.41761928  0.66537825  0.95671470  1
  O  O23  1  0.49512973  0.21318666  0.99015678  1
  O  O24  1  0.06203665  0.52766651  0.04699834  1
  O  O25  1  0.36131990  0.94983747  0.53529289  1
  O  O26  1  0.38485149  0.26781616  0.48609444  1
  O  O27  1  0.28754686  0.45815409  0.31842754  1
  O  O28  1  0.57037522  0.94054449  0.78218626  1
  O  O29  1  0.48508866  0.72984434  0.64538075  1
  O  O30  1  0.41271973  0.22432208  0.20711449  1
  O  O31  1  0.56203665  0.47233349  0.54699834  1
  O  O32  1  0.88485149  0.73218384  0.98609444  1
  O  O33  1  0.45735908  0.47044909  0.11783386  1
  O  O34  1  0.78754686  0.54184591  0.81842754  1
  O  O35  1  0.65688310  0.70049706  0.43760549  1
  O  O36  1  0.43799847  0.00573705  0.10671507  1
  O  O37  1  0.91271973  0.77567792  0.70711449  1
  O  O38  1  0.73534276  0.15364430  0.20794865  1
  O  O39  1  0.95735908  0.52955091  0.61783386  1
  O  O40  1  0.77247940  0.77114997  0.24547466  1
  O  O41  1  0.71999781  0.52258927  0.03117211  1
  O  O42  1  0.93799847  0.99426295  0.60671507  1
  O  O43  1  0.90867168  0.56983803  0.37483659  1
  O  O44  1  0.91761928  0.33462175  0.45671470  1
  O  O45  1  0.99512973  0.78681334  0.49015678  1
  O  O46  1  0.86131990  0.05016253  0.03529289  1
  O  O47  1  0.98508866  0.27015566  0.14538075  1
