# generated using pymatgen
data_RbAg3Te2
_symmetry_space_group_name_H-M   'P 1'
_cell_length_a   4.65652893
_cell_length_b   9.19404238
_cell_length_c   9.37912879
_cell_angle_alpha   112.06677987
_cell_angle_beta   90.00000000
_cell_angle_gamma   104.66909750
_symmetry_Int_Tables_number   1
_chemical_formula_structural   RbAg3Te2
_chemical_formula_sum   'Rb2 Ag6 Te4'
_cell_volume   357.96560623
_cell_formula_units_Z   2
loop_
 _symmetry_equiv_pos_site_id
 _symmetry_equiv_pos_as_xyz
  1  'x, y, z'
loop_
 _atom_site_type_symbol
 _atom_site_label
 _atom_site_symmetry_multiplicity
 _atom_site_fract_x
 _atom_site_fract_y
 _atom_site_fract_z
 _atom_site_occupancy
  Rb  Rb0  1  0.13558178  0.27116355  0.04952006  1
  Rb  Rb1  1  0.86441822  0.72883645  0.95047994  1
  Ag  Ag2  1  0.93777899  0.87555799  0.59107308  1
  Ag  Ag3  1  0.58715799  0.17431599  0.62603578  1
  Ag  Ag4  1  0.06222101  0.12444201  0.40892692  1
  Ag  Ag5  1  0.30912609  0.61825219  0.54579891  1
  Ag  Ag6  1  0.41284201  0.82568401  0.37396422  1
  Ag  Ag7  1  0.69087391  0.38174781  0.45420109  1
  Te  Te8  1  0.20040970  0.40081940  0.69719639  1
  Te  Te9  1  0.47975541  0.95951081  0.77577468  1
  Te  Te10  1  0.52024459  0.04048919  0.22422532  1
  Te  Te11  1  0.79959030  0.59918060  0.30280361  1
