# generated using pymatgen
data_LiZr2(PO4)3
_symmetry_space_group_name_H-M   'P 1'
_cell_length_a   8.95742799
_cell_length_b   9.08005333
_cell_length_c   12.60165828
_cell_angle_alpha   90.00000000
_cell_angle_beta   90.68530700
_cell_angle_gamma   90.00000000
_symmetry_Int_Tables_number   1
_chemical_formula_structural   LiZr2(PO4)3
_chemical_formula_sum   'Li4 Zr8 P12 O48'
_cell_volume   1024.86900128
_cell_formula_units_Z   4
loop_
 _symmetry_equiv_pos_site_id
 _symmetry_equiv_pos_as_xyz
  1  'x, y, z'
loop_
 _atom_site_type_symbol
 _atom_site_label
 _atom_site_symmetry_multiplicity
 _atom_site_fract_x
 _atom_site_fract_y
 _atom_site_fract_z
 _atom_site_occupancy
  Li  Li0  1  0.28941221  0.22415700  0.32105415  1
  Li  Li1  1  0.21058779  0.72415700  0.17894585  1
  Li  Li2  1  0.71058779  0.77584300  0.67894585  1
  Li  Li3  1  0.78941221  0.27584300  0.82105415  1
  O  O4  1  0.37152468  0.78549720  0.66661988  1
  O  O5  1  0.37652642  0.64857327  0.93638422  1
  O  O6  1  0.12347358  0.14857327  0.56361578  1
  O  O7  1  0.62347358  0.35142673  0.06361578  1
  O  O8  1  0.87652642  0.85142673  0.43638422  1
  O  O9  1  0.32208355  0.52226400  0.72630626  1
  O  O10  1  0.17791645  0.02226400  0.77369374  1
  O  O11  1  0.67791645  0.47773600  0.27369374  1
  O  O12  1  0.44469907  0.10293605  0.64581806  1
  O  O13  1  0.94469907  0.39706395  0.14581806  1
  O  O14  1  0.55530093  0.89706395  0.35418194  1
  O  O15  1  0.43144514  0.33534418  0.91353339  1
  O  O16  1  0.06855486  0.83534418  0.58646661  1
  O  O17  1  0.56855486  0.66465582  0.08646661  1
  O  O18  1  0.93144514  0.16465582  0.41353339  1
  O  O19  1  0.12847532  0.28549720  0.83338012  1
  O  O20  1  0.82208355  0.97773600  0.22630626  1
  O  O21  1  0.05530093  0.60293605  0.85418194  1
  O  O22  1  0.87152468  0.71450280  0.16661988  1
  O  O23  1  0.62847532  0.21450280  0.33338012  1
  O  O24  1  0.65007121  0.42104285  0.46743772  1
  O  O25  1  0.84992879  0.92104285  0.03256228  1
  O  O26  1  0.34992879  0.57895715  0.53256228  1
  O  O27  1  0.15007121  0.07895715  0.96743772  1
  O  O28  1  0.67987878  0.25226599  0.67839633  1
  O  O29  1  0.82012122  0.75226599  0.82160367  1
  O  O30  1  0.32012122  0.74773401  0.32160367  1
  O  O31  1  0.17987878  0.24773401  0.17839633  1
  O  O32  1  0.94636380  0.36041926  0.55643015  1
  O  O33  1  0.55363620  0.86041926  0.94356985  1
  O  O34  1  0.17550609  0.44479443  0.03618994  1
  O  O35  1  0.44636380  0.13958074  0.05643015  1
  O  O36  1  0.57393869  0.59746763  0.65530804  1
  O  O37  1  0.92606131  0.09746763  0.84469196  1
  O  O38  1  0.42606131  0.40253237  0.34469196  1
  O  O39  1  0.07393869  0.90253237  0.15530804  1
  O  O40  1  0.82750363  0.48124060  0.77257300  1
  O  O41  1  0.67249637  0.98124060  0.72742700  1
  O  O42  1  0.17249637  0.51875940  0.22742700  1
  O  O43  1  0.32750363  0.01875940  0.27257300  1
  O  O44  1  0.84886354  0.66470181  0.58026432  1
  O  O45  1  0.65113646  0.16470181  0.91973568  1
  O  O46  1  0.15113646  0.33529819  0.41973568  1
  O  O47  1  0.34886354  0.83529819  0.08026432  1
  O  O48  1  0.67550609  0.05520557  0.53618994  1
  O  O49  1  0.82449391  0.55520557  0.96381006  1
  O  O50  1  0.32449391  0.94479443  0.46381006  1
  O  O51  1  0.05363620  0.63958074  0.44356985  1
  P  P52  1  0.53569946  0.24986278  0.98852075  1
  P  P53  1  0.96430054  0.74986278  0.51147925  1
  P  P54  1  0.03569946  0.25013722  0.48852075  1
  P  P55  1  0.09781273  0.12136011  0.85356500  1
  P  P56  1  0.40218727  0.62136011  0.64643500  1
  P  P57  1  0.90218727  0.87863989  0.14643500  1
  P  P58  1  0.59781273  0.37863989  0.35356500  1
  P  P59  1  0.11589903  0.40176763  0.14514406  1
  P  P60  1  0.38410097  0.90176763  0.35485594  1
  P  P61  1  0.88410097  0.59823237  0.85485594  1
  P  P62  1  0.61589903  0.09823237  0.64514406  1
  P  P63  1  0.46430054  0.75013722  0.01147925  1
  Zr  Zr64  1  0.75414998  0.45489671  0.60962485  1
  Zr  Zr65  1  0.24921964  0.47488116  0.87886781  1
  Zr  Zr66  1  0.25078036  0.97488116  0.62113219  1
  Zr  Zr67  1  0.75078036  0.52511884  0.12113219  1
  Zr  Zr68  1  0.74921964  0.02511884  0.37886781  1
  Zr  Zr69  1  0.25414998  0.04510329  0.10962485  1
  Zr  Zr70  1  0.24585002  0.54510329  0.39037515  1
  Zr  Zr71  1  0.74585002  0.95489671  0.89037515  1
