# generated using pymatgen
data_SrAs
_symmetry_space_group_name_H-M   'P 1'
_cell_length_a   8.36331771
_cell_length_b   8.36331771
_cell_length_c   6.22438200
_cell_angle_alpha   90.00000000
_cell_angle_beta   90.00000000
_cell_angle_gamma   119.99999996
_symmetry_Int_Tables_number   1
_chemical_formula_structural   SrAs
_chemical_formula_sum   'Sr6 As6'
_cell_volume   377.03707764
_cell_formula_units_Z   6
loop_
 _symmetry_equiv_pos_site_id
 _symmetry_equiv_pos_as_xyz
  1  'x, y, z'
loop_
 _atom_site_type_symbol
 _atom_site_label
 _atom_site_symmetry_multiplicity
 _atom_site_fract_x
 _atom_site_fract_y
 _atom_site_fract_z
 _atom_site_occupancy
  As  As0  1  0.66666667  0.33333333  0.20914536  1
  As  As1  1  0.66666667  0.33333333  0.79085464  1
  As  As2  1  0.33333333  0.66666667  0.79085464  1
  As  As3  1  0.33333333  0.66666667  0.20914536  1
  As  As4  1  0.00000000  0.00000000  0.70391604  1
  As  As5  1  0.00000000  0.00000000  0.29608396  1
  Sr  Sr6  1  0.00000000  0.64752668  0.50000000  1
  Sr  Sr7  1  0.35247332  0.35247332  0.50000000  1
  Sr  Sr8  1  0.64752668  0.00000000  0.50000000  1
  Sr  Sr9  1  0.00000000  0.31320708  0.00000000  1
  Sr  Sr10  1  0.68679292  0.68679292  0.00000000  1
  Sr  Sr11  1  0.31320708  0.00000000  0.00000000  1
