# generated using pymatgen
data_Cs2Ti(AgS2)2
_symmetry_space_group_name_H-M   'P 1'
_cell_length_a   6.10972056
_cell_length_b   6.10972056
_cell_length_c   14.00481590
_cell_angle_alpha   90.00000000
_cell_angle_beta   90.00000000
_cell_angle_gamma   90.00000000
_symmetry_Int_Tables_number   1
_chemical_formula_structural   Cs2Ti(AgS2)2
_chemical_formula_sum   'Cs4 Ti2 Ag4 S8'
_cell_volume   522.78136571
_cell_formula_units_Z   2
loop_
 _symmetry_equiv_pos_site_id
 _symmetry_equiv_pos_as_xyz
  1  'x, y, z'
loop_
 _atom_site_type_symbol
 _atom_site_label
 _atom_site_symmetry_multiplicity
 _atom_site_fract_x
 _atom_site_fract_y
 _atom_site_fract_z
 _atom_site_occupancy
  S  S0  1  0.71349595  0.71349595  0.65114571  1
  S  S1  1  0.28650405  0.28650405  0.65114571  1
  S  S2  1  0.71349595  0.71349595  0.34885429  1
  S  S3  1  0.71349595  0.28650405  0.15114571  1
  S  S4  1  0.28650405  0.71349595  0.84885429  1
  S  S5  1  0.28650405  0.28650405  0.34885429  1
  S  S6  1  0.28650405  0.71349595  0.15114571  1
  S  S7  1  0.71349595  0.28650405  0.84885429  1
  Ti  Ti8  1  0.50000000  0.50000000  0.75000000  1
  Ti  Ti9  1  0.50000000  0.50000000  0.25000000  1
  Ag  Ag10  1  0.00000000  0.50000000  0.75000000  1
  Ag  Ag11  1  0.50000000  0.00000000  0.75000000  1
  Ag  Ag12  1  0.00000000  0.50000000  0.25000000  1
  Ag  Ag13  1  0.50000000  0.00000000  0.25000000  1
  Cs  Cs14  1  0.76463783  0.76463783  0.00000000  1
  Cs  Cs15  1  0.23536217  0.76463783  0.50000000  1
  Cs  Cs16  1  0.76463783  0.23536217  0.50000000  1
  Cs  Cs17  1  0.23536217  0.23536217  0.00000000  1
