# generated using pymatgen
data_BaCe2MnS5
_symmetry_space_group_name_H-M   'P 1'
_cell_length_a   7.86906384
_cell_length_b   7.86906384
_cell_length_c   8.79436821
_cell_angle_alpha   116.57649419
_cell_angle_beta   116.57649416
_cell_angle_gamma   90.00000003
_symmetry_Int_Tables_number   1
_chemical_formula_structural   BaCe2MnS5
_chemical_formula_sum   'Ba2 Ce4 Mn2 S10'
_cell_volume   421.70690392
_cell_formula_units_Z   2
loop_
 _symmetry_equiv_pos_site_id
 _symmetry_equiv_pos_as_xyz
  1  'x, y, z'
loop_
 _atom_site_type_symbol
 _atom_site_label
 _atom_site_symmetry_multiplicity
 _atom_site_fract_x
 _atom_site_fract_y
 _atom_site_fract_z
 _atom_site_occupancy
  S  S0  1  0.48271553  0.98271553  0.26740370  1
  S  S1  1  0.21531183  0.71531183  0.73259630  1
  S  S2  1  0.51728447  0.01728447  0.73259630  1
  S  S3  1  0.71531183  0.51728447  0.73259630  1
  S  S4  1  0.01728447  0.21531183  0.73259630  1
  S  S5  1  0.28468817  0.48271553  0.26740370  1
  S  S6  1  0.98271553  0.78468817  0.26740370  1
  S  S7  1  0.78468817  0.28468817  0.26740370  1
  S  S8  1  0.00000000  0.00000000  0.00000000  1
  S  S9  1  0.50000000  0.50000000  0.00000000  1
  Mn  Mn10  1  0.75000000  0.25000000  0.50000000  1
  Mn  Mn11  1  0.25000000  0.75000000  0.50000000  1
  Ba  Ba12  1  0.75000000  0.75000000  0.50000000  1
  Ba  Ba13  1  0.25000000  0.25000000  0.50000000  1
  Ce  Ce14  1  0.65866495  0.84133505  0.00000000  1
  Ce  Ce15  1  0.15866495  0.65866495  0.00000000  1
  Ce  Ce16  1  0.84133505  0.34133505  0.00000000  1
  Ce  Ce17  1  0.34133505  0.15866495  0.00000000  1
