# generated using pymatgen
data_Er2AlSi2
_symmetry_space_group_name_H-M   'P 1'
_cell_length_a   4.04620391
_cell_length_b   5.54848448
_cell_length_c   5.54848449
_cell_angle_alpha   62.16187058
_cell_angle_beta   68.61565112
_cell_angle_gamma   68.61565119
_symmetry_Int_Tables_number   1
_chemical_formula_structural   Er2AlSi2
_chemical_formula_sum   'Er2 Al1 Si2'
_cell_volume   99.66794279
_cell_formula_units_Z   1
loop_
 _symmetry_equiv_pos_site_id
 _symmetry_equiv_pos_as_xyz
  1  'x, y, z'
loop_
 _atom_site_type_symbol
 _atom_site_label
 _atom_site_symmetry_multiplicity
 _atom_site_fract_x
 _atom_site_fract_y
 _atom_site_fract_z
 _atom_site_occupancy
  Al  Al0  1  0.00000000  0.00000000  0.00000000  1
  Si  Si1  1  0.50000000  0.28971423  0.71028577  1
  Si  Si2  1  0.50000000  0.71028577  0.28971423  1
  Er  Er3  1  0.78895228  0.71104772  0.71104772  1
  Er  Er4  1  0.21104772  0.28895228  0.28895228  1
