# generated using pymatgen
data_Li2Ti3P9O28
_symmetry_space_group_name_H-M   'P 1'
_cell_length_a   7.26635697
_cell_length_b   9.59770079
_cell_length_c   9.26753271
_cell_angle_alpha   68.41940032
_cell_angle_beta   99.03965601
_cell_angle_gamma   69.68556812
_symmetry_Int_Tables_number   1
_chemical_formula_structural   Li2Ti3P9O28
_chemical_formula_sum   'Li2 Ti3 P9 O28'
_cell_volume   532.72503475
_cell_formula_units_Z   1
loop_
 _symmetry_equiv_pos_site_id
 _symmetry_equiv_pos_as_xyz
  1  'x, y, z'
loop_
 _atom_site_type_symbol
 _atom_site_label
 _atom_site_symmetry_multiplicity
 _atom_site_fract_x
 _atom_site_fract_y
 _atom_site_fract_z
 _atom_site_occupancy
  Li  Li0  1  0.45034695  0.01475566  0.99625582  1
  Li  Li1  1  0.04965305  0.48524434  0.00374418  1
  Ti  Ti2  1  0.25000000  0.25000000  0.50000000  1
  Ti  Ti3  1  0.50060522  0.50497836  0.99584938  1
  Ti  Ti4  1  0.99939478  0.99502164  0.00415062  1
  P  P5  1  0.55839416  0.30872477  0.76347928  1
  P  P6  1  0.04695490  0.81124714  0.76053091  1
  P  P7  1  0.93087773  0.33877337  0.70604911  1
  P  P8  1  0.41364770  0.84555274  0.69120469  1
  P  P9  1  0.75000000  0.75000000  0.50000000  1
  P  P10  1  0.56912227  0.16122663  0.29395089  1
  P  P11  1  0.08635230  0.65444726  0.30879531  1
  P  P12  1  0.94160584  0.19127523  0.23652072  1
  P  P13  1  0.45304510  0.68875286  0.23946909  1
  O  O14  1  0.68041174  0.13438859  0.91344907  1
  O  O15  1  0.17845265  0.63380844  0.90619023  1
  O  O16  1  0.53555904  0.70702285  0.86891734  1
  O  O17  1  0.06004426  0.18924509  0.87785316  1
  O  O18  1  0.99070971  0.94400248  0.82145539  1
  O  O19  1  0.48614990  0.44823581  0.81324544  1
  O  O20  1  0.90441394  0.50126411  0.71051759  1
  O  O21  1  0.37924692  0.01577503  0.68542170  1
  O  O22  1  0.85363949  0.82578556  0.65458021  1
  O  O23  1  0.37683760  0.31459893  0.65010544  1
  O  O24  1  0.70485405  0.34129357  0.65647167  1
  O  O25  1  0.18599046  0.84874695  0.64765457  1
  O  O26  1  0.49403882  0.81167292  0.56051909  1
  O  O27  1  0.01055872  0.30939023  0.57108077  1
  O  O28  1  0.00596218  0.68832708  0.43948091  1
  O  O29  1  0.48944128  0.19060977  0.42891923  1
  O  O30  1  0.79514595  0.15870643  0.34352833  1
  O  O31  1  0.31400954  0.65125305  0.35234543  1
  O  O32  1  0.64636051  0.67421444  0.34541979  1
  O  O33  1  0.12316240  0.18540107  0.34989456  1
  O  O34  1  0.59558606  0.99873589  0.28948241  1
  O  O35  1  0.12075308  0.48422497  0.31457830  1
  O  O36  1  0.50929029  0.55599752  0.17854461  1
  O  O37  1  0.01385010  0.05176319  0.18675456  1
  O  O38  1  0.96444096  0.79297715  0.13108266  1
  O  O39  1  0.43995574  0.31075491  0.12214684  1
  O  O40  1  0.81958826  0.36561141  0.08655093  1
  O  O41  1  0.32154735  0.86619156  0.09380977  1
