# generated using pymatgen
data_Lu2AlSi2
_symmetry_space_group_name_H-M   'P 1'
_cell_length_a   4.01519012
_cell_length_b   5.47393705
_cell_length_c   5.47393706
_cell_angle_alpha   62.70672706
_cell_angle_beta   68.48435722
_cell_angle_gamma   68.48435724
_symmetry_Int_Tables_number   1
_chemical_formula_structural   Lu2AlSi2
_chemical_formula_sum   'Lu2 Al1 Si2'
_cell_volume   96.55479670
_cell_formula_units_Z   1
loop_
 _symmetry_equiv_pos_site_id
 _symmetry_equiv_pos_as_xyz
  1  'x, y, z'
loop_
 _atom_site_type_symbol
 _atom_site_label
 _atom_site_symmetry_multiplicity
 _atom_site_fract_x
 _atom_site_fract_y
 _atom_site_fract_z
 _atom_site_occupancy
  Al  Al0  1  0.00000000  0.00000000  0.00000000  1
  Si  Si1  1  0.50000000  0.28917659  0.71082341  1
  Si  Si2  1  0.50000000  0.71082341  0.28917659  1
  Lu  Lu3  1  0.78905755  0.71094245  0.71094245  1
  Lu  Lu4  1  0.21094245  0.28905755  0.28905755  1
