# generated using pymatgen
data_Ba2LiReN4
_symmetry_space_group_name_H-M   'P 1'
_cell_length_a   6.06459666
_cell_length_b   6.59054915
_cell_length_c   7.59404177
_cell_angle_alpha   109.89053972
_cell_angle_beta   90.00000000
_cell_angle_gamma   90.00000000
_symmetry_Int_Tables_number   1
_chemical_formula_structural   Ba2LiReN4
_chemical_formula_sum   'Ba4 Li2 Re2 N8'
_cell_volume   285.41934844
_cell_formula_units_Z   2
loop_
 _symmetry_equiv_pos_site_id
 _symmetry_equiv_pos_as_xyz
  1  'x, y, z'
loop_
 _atom_site_type_symbol
 _atom_site_label
 _atom_site_symmetry_multiplicity
 _atom_site_fract_x
 _atom_site_fract_y
 _atom_site_fract_z
 _atom_site_occupancy
  Li  Li0  1  0.75000000  0.64870033  0.36950843  1
  Li  Li1  1  0.25000000  0.35129967  0.63049157  1
  N  N2  1  0.50732846  0.53190132  0.73397706  1
  N  N3  1  0.00732846  0.46809868  0.26602294  1
  N  N4  1  0.49267154  0.46809868  0.26602294  1
  N  N5  1  0.99267154  0.53190132  0.73397706  1
  N  N6  1  0.75000000  0.88179171  0.63489814  1
  N  N7  1  0.25000000  0.11820829  0.36510186  1
  N  N8  1  0.75000000  0.87467563  0.03303159  1
  N  N9  1  0.25000000  0.12532437  0.96696841  1
  Ba  Ba10  1  0.25000000  0.73409696  0.05216161  1
  Ba  Ba11  1  0.75000000  0.26590304  0.94783839  1
  Ba  Ba12  1  0.75000000  0.18915826  0.42036209  1
  Ba  Ba13  1  0.25000000  0.81084174  0.57963791  1
  Re  Re14  1  0.25000000  0.29164218  0.21440122  1
  Re  Re15  1  0.75000000  0.70835782  0.78559878  1
