# generated using pymatgen
data_Ca5P12Rh19
_symmetry_space_group_name_H-M   'P 1'
_cell_length_a   12.71013206
_cell_length_b   12.71013206
_cell_length_c   3.93527777
_cell_angle_alpha   90.00000000
_cell_angle_beta   90.00000000
_cell_angle_gamma   120.00000000
_symmetry_Int_Tables_number   1
_chemical_formula_structural   Ca5P12Rh19
_chemical_formula_sum   'Ca5 P12 Rh19'
_cell_volume   550.56189477
_cell_formula_units_Z   1
loop_
 _symmetry_equiv_pos_site_id
 _symmetry_equiv_pos_as_xyz
  1  'x, y, z'
loop_
 _atom_site_type_symbol
 _atom_site_label
 _atom_site_symmetry_multiplicity
 _atom_site_fract_x
 _atom_site_fract_y
 _atom_site_fract_z
 _atom_site_occupancy
  P  P0  1  0.48186957  0.31392476  0.50000000  1
  P  P1  1  0.81896619  0.00000000  0.00000000  1
  P  P2  1  0.18103381  0.18103381  0.00000000  1
  P  P3  1  0.00000000  0.81896619  0.00000000  1
  P  P4  1  0.36599440  0.00000000  0.00000000  1
  P  P5  1  0.68607524  0.16794481  0.50000000  1
  P  P6  1  0.83205519  0.51813043  0.50000000  1
  P  P7  1  0.51813043  0.83205519  0.50000000  1
  P  P8  1  0.16794481  0.68607524  0.50000000  1
  P  P9  1  0.31392476  0.48186957  0.50000000  1
  P  P10  1  0.00000000  0.36599440  0.00000000  1
  P  P11  1  0.63400560  0.63400560  0.00000000  1
  Ca  Ca12  1  0.00000000  0.18401843  0.50000000  1
  Ca  Ca13  1  0.81598157  0.81598157  0.50000000  1
  Ca  Ca14  1  0.18401843  0.00000000  0.50000000  1
  Ca  Ca15  1  0.66666667  0.33333333  0.00000000  1
  Ca  Ca16  1  0.33333333  0.66666667  0.00000000  1
  Rh  Rh17  1  0.80416377  0.18066292  0.00000000  1
  Rh  Rh18  1  0.37649914  0.19583623  0.00000000  1
  Rh  Rh19  1  0.64096802  0.51147088  0.50000000  1
  Rh  Rh20  1  0.87050286  0.35903198  0.50000000  1
  Rh  Rh21  1  0.35903198  0.87050286  0.50000000  1
  Rh  Rh22  1  0.51147088  0.64096802  0.50000000  1
  Rh  Rh23  1  0.12949714  0.48852912  0.50000000  1
  Rh  Rh24  1  0.81933708  0.62350086  0.00000000  1
  Rh  Rh25  1  0.62350086  0.81933708  0.00000000  1
  Rh  Rh26  1  0.18066292  0.80416377  0.00000000  1
  Rh  Rh27  1  0.19583623  0.37649914  0.00000000  1
  Rh  Rh28  1  0.00000000  0.71627614  0.50000000  1
  Rh  Rh29  1  0.28372386  0.28372386  0.50000000  1
  Rh  Rh30  1  0.71627614  0.00000000  0.50000000  1
  Rh  Rh31  1  0.00000000  0.54630184  0.00000000  1
  Rh  Rh32  1  0.45369816  0.45369816  0.00000000  1
  Rh  Rh33  1  0.54630184  0.00000000  0.00000000  1
  Rh  Rh34  1  0.00000000  0.00000000  0.00000000  1
  Rh  Rh35  1  0.48852912  0.12949714  0.50000000  1
