# generated using pymatgen
data_Tb2O3
_symmetry_space_group_name_H-M   'P 1'
_cell_length_a   9.30467476
_cell_length_b   9.30467476
_cell_length_c   9.30467476
_cell_angle_alpha   109.47122062
_cell_angle_beta   109.47122062
_cell_angle_gamma   109.47122062
_symmetry_Int_Tables_number   1
_chemical_formula_structural   Tb2O3
_chemical_formula_sum   'Tb16 O24'
_cell_volume   620.12851372
_cell_formula_units_Z   8
loop_
 _symmetry_equiv_pos_site_id
 _symmetry_equiv_pos_as_xyz
  1  'x, y, z'
loop_
 _atom_site_type_symbol
 _atom_site_label
 _atom_site_symmetry_multiplicity
 _atom_site_fract_x
 _atom_site_fract_y
 _atom_site_fract_z
 _atom_site_occupancy
  O  O0  1  0.72966065  0.26011310  0.77174528  1
  O  O1  1  0.98836782  0.95791536  0.72825472  1
  O  O2  1  0.51163218  0.23988690  0.96954754  1
  O  O3  1  0.54208464  0.53045246  0.77033935  1
  O  O4  1  0.53045246  0.77033935  0.54208464  1
  O  O5  1  0.77174528  0.72966065  0.26011310  1
  O  O6  1  0.95791536  0.72825472  0.98836782  1
  O  O7  1  0.96954754  0.51163218  0.23988690  1
  O  O8  1  0.26011310  0.77174528  0.72966065  1
  O  O9  1  0.72825472  0.98836782  0.95791536  1
  O  O10  1  0.23988690  0.96954754  0.51163218  1
  O  O11  1  0.77033935  0.54208464  0.53045246  1
  O  O12  1  0.04209157  0.27169281  0.01161189  1
  O  O13  1  0.76008091  0.03047968  0.48838811  1
  O  O14  1  0.73991909  0.22830719  0.27039877  1
  O  O15  1  0.46952032  0.22960123  0.45790843  1
  O  O16  1  0.45790843  0.46952032  0.22960123  1
  O  O17  1  0.22830719  0.27039877  0.73991909  1
  O  O18  1  0.48838811  0.76008091  0.03047968  1
  O  O19  1  0.27169281  0.01161189  0.04209157  1
  O  O20  1  0.27039877  0.73991909  0.22830719  1
  O  O21  1  0.03047968  0.48838811  0.76008091  1
  O  O22  1  0.01161189  0.04209157  0.27169281  1
  O  O23  1  0.22960123  0.45790843  0.46952032  1
  Tb  Tb24  1  0.75000000  0.78223270  0.03223270  1
  Tb  Tb25  1  0.46776730  0.25000000  0.71776730  1
  Tb  Tb26  1  0.71776730  0.46776730  0.25000000  1
  Tb  Tb27  1  0.03223270  0.75000000  0.78223270  1
  Tb  Tb28  1  0.78223270  0.03223270  0.75000000  1
  Tb  Tb29  1  0.25000000  0.71776730  0.46776730  1
  Tb  Tb30  1  0.75000000  0.28227887  0.53227887  1
  Tb  Tb31  1  0.96772113  0.25000000  0.21772113  1
  Tb  Tb32  1  0.21772113  0.96772113  0.25000000  1
  Tb  Tb33  1  0.53227887  0.75000000  0.28227887  1
  Tb  Tb34  1  0.28227887  0.53227887  0.75000000  1
  Tb  Tb35  1  0.25000000  0.21772113  0.96772113  1
  Tb  Tb36  1  0.00007633  0.50000000  0.00000000  1
  Tb  Tb37  1  0.50000000  0.00000000  0.00007633  1
  Tb  Tb38  1  0.00000000  0.00007633  0.50000000  1
  Tb  Tb39  1  0.49992367  0.49992367  0.49992367  1
