# generated using pymatgen
data_LiTiP2O7
_symmetry_space_group_name_H-M   'P 1'
_cell_length_a   7.07354825
_cell_length_b   10.36771473
_cell_length_c   8.06697969
_cell_angle_alpha   90.00000000
_cell_angle_beta   113.00280479
_cell_angle_gamma   90.00000000
_symmetry_Int_Tables_number   1
_chemical_formula_structural   LiTiP2O7
_chemical_formula_sum   'Li4 Ti4 P8 O28'
_cell_volume   544.56331408
_cell_formula_units_Z   4
loop_
 _symmetry_equiv_pos_site_id
 _symmetry_equiv_pos_as_xyz
  1  'x, y, z'
loop_
 _atom_site_type_symbol
 _atom_site_label
 _atom_site_symmetry_multiplicity
 _atom_site_fract_x
 _atom_site_fract_y
 _atom_site_fract_z
 _atom_site_occupancy
  Li  Li0  1  0.36155491  0.16516108  0.92503099  1
  Li  Li1  1  0.36155491  0.33483892  0.42503099  1
  Li  Li2  1  0.63844509  0.66516108  0.57496901  1
  Li  Li3  1  0.63844509  0.83483892  0.07496901  1
  Ti  Ti4  1  0.27221532  0.60828910  0.74796237  1
  Ti  Ti5  1  0.27221532  0.89171090  0.24796237  1
  Ti  Ti6  1  0.72778468  0.10828910  0.75203763  1
  Ti  Ti7  1  0.72778468  0.39171090  0.25203763  1
  P  P8  1  0.02174355  0.84828698  0.79155994  1
  P  P9  1  0.02174355  0.65171302  0.29155994  1
  P  P10  1  0.36439495  0.90787119  0.69559742  1
  P  P11  1  0.36439495  0.59212881  0.19559742  1
  P  P12  1  0.63560505  0.40787119  0.80440258  1
  P  P13  1  0.63560505  0.09212881  0.30440258  1
  P  P14  1  0.97825645  0.34828698  0.70844006  1
  P  P15  1  0.97825645  0.15171302  0.20844006  1
  O  O16  1  0.98849680  0.70697757  0.73059386  1
  O  O17  1  0.17337488  0.86588159  0.98771685  1
  O  O18  1  0.17814741  0.41995732  0.74698936  1
  O  O19  1  0.12735216  0.92073069  0.66987961  1
  O  O20  1  0.98849680  0.79302243  0.23059386  1
  O  O21  1  0.17337488  0.63411841  0.48771685  1
  O  O22  1  0.36730032  0.60444731  0.00894598  1
  O  O23  1  0.17814741  0.08004268  0.24698936  1
  O  O24  1  0.12735216  0.57926931  0.16987961  1
  O  O25  1  0.45307076  0.78682988  0.80970888  1
  O  O26  1  0.36730032  0.89555269  0.50894598  1
  O  O27  1  0.53315860  0.53311538  0.71043454  1
  O  O28  1  0.46684140  0.03311538  0.78956546  1
  O  O29  1  0.45307076  0.71317012  0.30970888  1
  O  O30  1  0.54692924  0.28682988  0.69029112  1
  O  O31  1  0.53315860  0.96688462  0.21043454  1
  O  O32  1  0.46684140  0.46688462  0.28956546  1
  O  O33  1  0.63269968  0.10444731  0.49105402  1
  O  O34  1  0.54692924  0.21317012  0.19029112  1
  O  O35  1  0.87264784  0.42073069  0.83012039  1
  O  O36  1  0.82185259  0.91995732  0.75301064  1
  O  O37  1  0.63269968  0.39555269  0.99105402  1
  O  O38  1  0.82662512  0.36588159  0.51228315  1
  O  O39  1  0.01150320  0.20697757  0.76940614  1
  O  O40  1  0.87264784  0.07926931  0.33012039  1
  O  O41  1  0.82185259  0.58004268  0.25301064  1
  O  O42  1  0.82662512  0.13411841  0.01228315  1
  O  O43  1  0.01150320  0.29302243  0.26940614  1
