# generated using pymatgen
data_Gd3AuO6
_symmetry_space_group_name_H-M   'P 1'
_cell_length_a   3.68637178
_cell_length_b   5.63513147
_cell_length_c   7.15540369
_cell_angle_alpha   90.29999632
_cell_angle_beta   102.53386822
_cell_angle_gamma   91.15865237
_symmetry_Int_Tables_number   1
_chemical_formula_structural   Gd3AuO6
_chemical_formula_sum   'Gd3 Au1 O6'
_cell_volume   145.06141957
_cell_formula_units_Z   1
loop_
 _symmetry_equiv_pos_site_id
 _symmetry_equiv_pos_as_xyz
  1  'x, y, z'
loop_
 _atom_site_type_symbol
 _atom_site_label
 _atom_site_symmetry_multiplicity
 _atom_site_fract_x
 _atom_site_fract_y
 _atom_site_fract_z
 _atom_site_occupancy
  O  O0  1  0.84156078  0.68947831  0.11109987  1
  O  O1  1  0.15843922  0.31052169  0.88890013  1
  O  O2  1  0.51985428  0.25638880  0.52536862  1
  O  O3  1  0.48014572  0.74361120  0.47463138  1
  O  O4  1  0.12388183  0.79602007  0.78852981  1
  O  O5  1  0.87611817  0.20397993  0.21147019  1
  Gd  Gd6  1  0.60940092  0.52905115  0.76435671  1
  Gd  Gd7  1  0.39059908  0.47094885  0.23564329  1
  Gd  Gd8  1  0.00000000  0.00000000  0.50000000  1
  Au  Au9  1  0.00000000  0.00000000  0.00000000  1
