# generated using pymatgen
data_Sm3AuO6
_symmetry_space_group_name_H-M   'P 1'
_cell_length_a   3.74591178
_cell_length_b   5.67705758
_cell_length_c   7.17281827
_cell_angle_alpha   90.59167375
_cell_angle_beta   102.67001622
_cell_angle_gamma   91.12226482
_symmetry_Int_Tables_number   1
_chemical_formula_structural   Sm3AuO6
_chemical_formula_sum   'Sm3 Au1 O6'
_cell_volume   148.77582407
_cell_formula_units_Z   1
loop_
 _symmetry_equiv_pos_site_id
 _symmetry_equiv_pos_as_xyz
  1  'x, y, z'
loop_
 _atom_site_type_symbol
 _atom_site_label
 _atom_site_symmetry_multiplicity
 _atom_site_fract_x
 _atom_site_fract_y
 _atom_site_fract_z
 _atom_site_occupancy
  O  O0  1  0.84463842  0.69460667  0.11458112  1
  O  O1  1  0.15536158  0.30539333  0.88541888  1
  O  O2  1  0.51770863  0.25602285  0.52230546  1
  O  O3  1  0.48229137  0.74397715  0.47769454  1
  O  O4  1  0.12514645  0.79342916  0.79167002  1
  O  O5  1  0.87485355  0.20657084  0.20832998  1
  Sm  Sm6  1  0.60916315  0.52915337  0.76508377  1
  Sm  Sm7  1  0.39083685  0.47084663  0.23491623  1
  Sm  Sm8  1  0.00000000  0.00000000  0.50000000  1
  Au  Au9  1  0.00000000  0.00000000  0.00000000  1
