# generated using pymatgen
data_YbSiIr
_symmetry_space_group_name_H-M   'P 1'
_cell_length_a   4.29490892
_cell_length_b   7.19020839
_cell_length_c   6.91845908
_cell_angle_alpha   90.00000000
_cell_angle_beta   90.00000000
_cell_angle_gamma   90.00000000
_symmetry_Int_Tables_number   1
_chemical_formula_structural   YbSiIr
_chemical_formula_sum   'Yb4 Si4 Ir4'
_cell_volume   213.65094225
_cell_formula_units_Z   4
loop_
 _symmetry_equiv_pos_site_id
 _symmetry_equiv_pos_as_xyz
  1  'x, y, z'
loop_
 _atom_site_type_symbol
 _atom_site_label
 _atom_site_symmetry_multiplicity
 _atom_site_fract_x
 _atom_site_fract_y
 _atom_site_fract_z
 _atom_site_occupancy
  Si  Si0  1  0.25000000  0.68952114  0.38843773  1
  Si  Si1  1  0.25000000  0.18952114  0.11156227  1
  Si  Si2  1  0.75000000  0.31047886  0.61156227  1
  Si  Si3  1  0.75000000  0.81047886  0.88843773  1
  Yb  Yb4  1  0.75000000  0.49309800  0.17264435  1
  Yb  Yb5  1  0.25000000  0.00690200  0.67264435  1
  Yb  Yb6  1  0.75000000  0.99309800  0.32735565  1
  Yb  Yb7  1  0.25000000  0.50690200  0.82735565  1
  Ir  Ir8  1  0.25000000  0.85186398  0.07341703  1
  Ir  Ir9  1  0.25000000  0.35186398  0.42658297  1
  Ir  Ir10  1  0.75000000  0.64813602  0.57341703  1
  Ir  Ir11  1  0.75000000  0.14813602  0.92658297  1
