# generated using pymatgen
data_Sr2LiReN4
_symmetry_space_group_name_H-M   'P 1'
_cell_length_a   5.91009076
_cell_length_b   6.20549267
_cell_length_c   6.94102097
_cell_angle_alpha   106.35662985
_cell_angle_beta   90.00000000
_cell_angle_gamma   90.00000000
_symmetry_Int_Tables_number   1
_chemical_formula_structural   Sr2LiReN4
_chemical_formula_sum   'Sr4 Li2 Re2 N8'
_cell_volume   244.25933098
_cell_formula_units_Z   2
loop_
 _symmetry_equiv_pos_site_id
 _symmetry_equiv_pos_as_xyz
  1  'x, y, z'
loop_
 _atom_site_type_symbol
 _atom_site_label
 _atom_site_symmetry_multiplicity
 _atom_site_fract_x
 _atom_site_fract_y
 _atom_site_fract_z
 _atom_site_occupancy
  Li  Li0  1  0.75000000  0.69349836  0.30931169  1
  Li  Li1  1  0.25000000  0.30650164  0.69068831  1
  N  N2  1  0.50478956  0.53024584  0.74837267  1
  N  N3  1  0.00478956  0.46975416  0.25162733  1
  N  N4  1  0.49521044  0.46975416  0.25162733  1
  N  N5  1  0.99521044  0.53024584  0.74837267  1
  N  N6  1  0.75000000  0.90238284  0.62831865  1
  N  N7  1  0.25000000  0.09761716  0.37168135  1
  N  N8  1  0.75000000  0.88289883  0.06368700  1
  N  N9  1  0.25000000  0.11710117  0.93631300  1
  Sr  Sr10  1  0.25000000  0.73821008  0.05566209  1
  Sr  Sr11  1  0.75000000  0.26178992  0.94433791  1
  Sr  Sr12  1  0.75000000  0.21951890  0.43143695  1
  Sr  Sr13  1  0.25000000  0.78048110  0.56856305  1
  Re  Re14  1  0.25000000  0.28193835  0.20176917  1
  Re  Re15  1  0.75000000  0.71806165  0.79823083  1
