# generated using pymatgen
data_Nd(AlGe)2
_symmetry_space_group_name_H-M   'P 1'
_cell_length_a   4.31668879
_cell_length_b   4.31668880
_cell_length_c   6.84712200
_cell_angle_alpha   90.00000000
_cell_angle_beta   90.00000000
_cell_angle_gamma   120.00000001
_symmetry_Int_Tables_number   1
_chemical_formula_structural   Nd(AlGe)2
_chemical_formula_sum   'Nd1 Al2 Ge2'
_cell_volume   110.49437702
_cell_formula_units_Z   1
loop_
 _symmetry_equiv_pos_site_id
 _symmetry_equiv_pos_as_xyz
  1  'x, y, z'
loop_
 _atom_site_type_symbol
 _atom_site_label
 _atom_site_symmetry_multiplicity
 _atom_site_fract_x
 _atom_site_fract_y
 _atom_site_fract_z
 _atom_site_occupancy
  Al  Al0  1  0.66666667  0.33333333  0.35707384  1
  Al  Al1  1  0.33333333  0.66666667  0.64292616  1
  Ge  Ge2  1  0.66666667  0.33333333  0.73312115  1
  Ge  Ge3  1  0.33333333  0.66666667  0.26687885  1
  Nd  Nd4  1  0.00000000  0.00000000  0.00000000  1
