# generated using pymatgen
data_RbSbS2
_symmetry_space_group_name_H-M   'P 1'
_cell_length_a   6.68923107
_cell_length_b   6.73209685
_cell_length_c   12.28329790
_cell_angle_alpha   99.05034209
_cell_angle_beta   100.66654083
_cell_angle_gamma   104.43217444
_symmetry_Int_Tables_number   1
_chemical_formula_structural   RbSbS2
_chemical_formula_sum   'Rb4 Sb4 S8'
_cell_volume   514.26905945
_cell_formula_units_Z   4
loop_
 _symmetry_equiv_pos_site_id
 _symmetry_equiv_pos_as_xyz
  1  'x, y, z'
loop_
 _atom_site_type_symbol
 _atom_site_label
 _atom_site_symmetry_multiplicity
 _atom_site_fract_x
 _atom_site_fract_y
 _atom_site_fract_z
 _atom_site_occupancy
  S  S0  1  0.05009157  0.26638153  0.18401035  1
  S  S1  1  0.09413391  0.60537834  0.44630987  1
  S  S2  1  0.50012417  0.23838766  0.90529383  1
  S  S3  1  0.44307664  0.23657141  0.44044781  1
  S  S4  1  0.64032349  0.62815290  0.72495586  1
  S  S5  1  0.09917279  0.20278048  0.63449768  1
  S  S6  1  0.04080838  0.66531370  0.99520734  1
  S  S7  1  0.69856806  0.63267231  0.18978184  1
  Rb  Rb8  1  0.63936474  0.75884552  0.46877894  1
  Rb  Rb9  1  0.50413502  0.11063802  0.16162377  1
  Rb  Rb10  1  0.97023083  0.15586376  0.89834712  1
  Rb  Rb11  1  0.17039102  0.71192088  0.73171357  1
  Sb  Sb12  1  0.65737373  0.61664599  0.96661113  1
  Sb  Sb13  1  0.06664453  0.23077112  0.40442146  1
  Sb  Sb14  1  0.07542255  0.64072648  0.22521939  1
  Sb  Sb15  1  0.48213856  0.24994990  0.66278005  1
