# generated using pymatgen
data_LiTiP2O7
_symmetry_space_group_name_H-M   'P 1'
_cell_length_a   6.85965646
_cell_length_b   8.17657431
_cell_length_c   9.65019053
_cell_angle_alpha   90.00000000
_cell_angle_beta   108.64724204
_cell_angle_gamma   90.00000000
_symmetry_Int_Tables_number   1
_chemical_formula_structural   LiTiP2O7
_chemical_formula_sum   'Li4 Ti4 P8 O28'
_cell_volume   512.85098839
_cell_formula_units_Z   4
loop_
 _symmetry_equiv_pos_site_id
 _symmetry_equiv_pos_as_xyz
  1  'x, y, z'
loop_
 _atom_site_type_symbol
 _atom_site_label
 _atom_site_symmetry_multiplicity
 _atom_site_fract_x
 _atom_site_fract_y
 _atom_site_fract_z
 _atom_site_occupancy
  Li  Li0  1  0.20651393  0.86863252  0.53729256  1
  Li  Li1  1  0.20651393  0.63136748  0.03729256  1
  Li  Li2  1  0.79348607  0.36863252  0.96270744  1
  Li  Li3  1  0.79348607  0.13136748  0.46270744  1
  Ti  Ti4  1  0.28529512  0.22650835  0.99383124  1
  Ti  Ti5  1  0.28529512  0.27349165  0.49383124  1
  Ti  Ti6  1  0.71470488  0.72650835  0.50616876  1
  Ti  Ti7  1  0.71470488  0.77349165  0.00616876  1
  P  P8  1  0.05589252  0.46300607  0.70639970  1
  P  P9  1  0.05589252  0.03699393  0.20639970  1
  P  P10  1  0.53459726  0.08117648  0.79372855  1
  P  P11  1  0.46540274  0.58117648  0.70627145  1
  P  P12  1  0.53459726  0.41882352  0.29372855  1
  P  P13  1  0.46540274  0.91882352  0.20627145  1
  P  P14  1  0.94410748  0.96300607  0.79360030  1
  P  P15  1  0.94410748  0.53699393  0.29360030  1
  O  O16  1  0.09132513  0.41344155  0.86653986  1
  O  O17  1  0.14236945  0.06209012  0.84960813  1
  O  O18  1  0.06558442  0.32265750  0.60398925  1
  O  O19  1  0.23188445  0.60018548  0.71155824  1
  O  O20  1  0.09132513  0.08655845  0.36653986  1
  O  O21  1  0.14236945  0.43790988  0.34960813  1
  O  O22  1  0.06558442  0.17734250  0.10398925  1
  O  O23  1  0.51320611  0.22918801  0.88555009  1
  O  O24  1  0.39141845  0.08366584  0.63331525  1
  O  O25  1  0.23188445  0.89981452  0.21155824  1
  O  O26  1  0.51892716  0.91802593  0.86290367  1
  O  O27  1  0.48107284  0.41802593  0.63709633  1
  O  O28  1  0.60858155  0.58366584  0.86668475  1
  O  O29  1  0.48679389  0.72918801  0.61444991  1
  O  O30  1  0.51320611  0.27081199  0.38555009  1
  O  O31  1  0.39141845  0.41633416  0.13331525  1
  O  O32  1  0.51892716  0.58197407  0.36290367  1
  O  O33  1  0.48107284  0.08197407  0.13709633  1
  O  O34  1  0.76811555  0.10018548  0.78844176  1
  O  O35  1  0.60858155  0.91633416  0.36668475  1
  O  O36  1  0.48679389  0.77081199  0.11444991  1
  O  O37  1  0.93441558  0.82265750  0.89601075  1
  O  O38  1  0.85763055  0.56209012  0.65039187  1
  O  O39  1  0.90867487  0.91344155  0.63346014  1
  O  O40  1  0.76811555  0.39981452  0.28844176  1
  O  O41  1  0.93441558  0.67734250  0.39601075  1
  O  O42  1  0.85763055  0.93790988  0.15039187  1
  O  O43  1  0.90867487  0.58655845  0.13346014  1
