# generated using pymatgen
data_Nb2B3
_symmetry_space_group_name_H-M   'P 1'
_cell_length_a   3.14202993
_cell_length_b   3.32754137
_cell_length_c   9.93791923
_cell_angle_alpha   99.63763400
_cell_angle_beta   90.00000000
_cell_angle_gamma   90.00000000
_symmetry_Int_Tables_number   1
_chemical_formula_structural   Nb2B3
_chemical_formula_sum   'Nb4 B6'
_cell_volume   102.43681553
_cell_formula_units_Z   2
loop_
 _symmetry_equiv_pos_site_id
 _symmetry_equiv_pos_as_xyz
  1  'x, y, z'
loop_
 _atom_site_type_symbol
 _atom_site_label
 _atom_site_symmetry_multiplicity
 _atom_site_fract_x
 _atom_site_fract_y
 _atom_site_fract_z
 _atom_site_occupancy
  Nb  Nb0  1  0.75000000  0.43115614  0.86231228  1
  Nb  Nb1  1  0.25000000  0.56884386  0.13768772  1
  Nb  Nb2  1  0.75000000  0.70260985  0.40521970  1
  Nb  Nb3  1  0.25000000  0.29739015  0.59478030  1
  B  B4  1  0.75000000  0.02298213  0.04596427  1
  B  B5  1  0.25000000  0.97701787  0.95403573  1
  B  B6  1  0.75000000  0.11573877  0.23147755  1
  B  B7  1  0.25000000  0.88426123  0.76852245  1
  B  B8  1  0.75000000  0.83482952  0.66965905  1
  B  B9  1  0.25000000  0.16517048  0.33034095  1
