# generated using pymatgen
data_Ho3Mn3Ga2Ge
_symmetry_space_group_name_H-M   'P 1'
_cell_length_a   4.02042882
_cell_length_b   7.09560909
_cell_length_c   7.08910827
_cell_angle_alpha   120.03033988
_cell_angle_beta   90.00000000
_cell_angle_gamma   90.00000000
_symmetry_Int_Tables_number   1
_chemical_formula_structural   Ho3Mn3Ga2Ge
_chemical_formula_sum   'Ho3 Mn3 Ga2 Ge1'
_cell_volume   175.08600936
_cell_formula_units_Z   1
loop_
 _symmetry_equiv_pos_site_id
 _symmetry_equiv_pos_as_xyz
  1  'x, y, z'
loop_
 _atom_site_type_symbol
 _atom_site_label
 _atom_site_symmetry_multiplicity
 _atom_site_fract_x
 _atom_site_fract_y
 _atom_site_fract_z
 _atom_site_occupancy
  Ho  Ho0  1  0.50000000  0.58752085  0.00000000  1
  Ho  Ho1  1  0.50000000  0.41226939  0.41191945  1
  Ho  Ho2  1  0.50000000  0.00034994  0.58808055  1
  Mn  Mn3  1  0.00000000  0.23028082  1.00000000  1
  Mn  Mn4  1  0.00000000  0.76943061  0.76958759  1
  Mn  Mn5  1  0.00000000  0.99984303  0.23041241  1
  Ga  Ga6  1  -0.00000000  0.33354711  0.66636242  1
  Ga  Ga7  1  -0.00000000  0.66718470  0.33363758  1
  Ge  Ge8  1  0.50000000  0.99947354  1.00000000  1
