# generated using pymatgen
data_EuSiPd
_symmetry_space_group_name_H-M   'P 1'
_cell_length_a   6.50263265
_cell_length_b   6.50263265
_cell_length_c   6.50263265
_cell_angle_alpha   90.00000000
_cell_angle_beta   90.00000000
_cell_angle_gamma   90.00000000
_symmetry_Int_Tables_number   1
_chemical_formula_structural   EuSiPd
_chemical_formula_sum   'Eu4 Si4 Pd4'
_cell_volume   274.95882356
_cell_formula_units_Z   4
loop_
 _symmetry_equiv_pos_site_id
 _symmetry_equiv_pos_as_xyz
  1  'x, y, z'
loop_
 _atom_site_type_symbol
 _atom_site_label
 _atom_site_symmetry_multiplicity
 _atom_site_fract_x
 _atom_site_fract_y
 _atom_site_fract_z
 _atom_site_occupancy
  Eu  Eu0  1  0.36927095  0.86927095  0.63072905  1
  Eu  Eu1  1  0.86927095  0.63072905  0.36927095  1
  Eu  Eu2  1  0.63072905  0.36927095  0.86927095  1
  Eu  Eu3  1  0.13072905  0.13072905  0.13072905  1
  Si  Si4  1  0.66489102  0.16489102  0.33510898  1
  Si  Si5  1  0.16489102  0.33510898  0.66489102  1
  Si  Si6  1  0.33510898  0.66489102  0.16489102  1
  Si  Si7  1  0.83510898  0.83510898  0.83510898  1
  Pd  Pd8  1  0.08303013  0.58303013  0.91696987  1
  Pd  Pd9  1  0.58303013  0.91696987  0.08303013  1
  Pd  Pd10  1  0.91696987  0.08303013  0.58303013  1
  Pd  Pd11  1  0.41696987  0.41696987  0.41696987  1
