# generated using pymatgen
data_Li2Cu3(CO3)3
_symmetry_space_group_name_H-M   'P 1'
_cell_length_a   8.10594606
_cell_length_b   8.14945480
_cell_length_c   6.18749563
_cell_angle_alpha   90.00000000
_cell_angle_beta   90.00000000
_cell_angle_gamma   119.61804229
_symmetry_Int_Tables_number   1
_chemical_formula_structural   Li2Cu3(CO3)3
_chemical_formula_sum   'Li4 Cu6 C6 O18'
_cell_volume   355.33378813
_cell_formula_units_Z   2
loop_
 _symmetry_equiv_pos_site_id
 _symmetry_equiv_pos_as_xyz
  1  'x, y, z'
loop_
 _atom_site_type_symbol
 _atom_site_label
 _atom_site_symmetry_multiplicity
 _atom_site_fract_x
 _atom_site_fract_y
 _atom_site_fract_z
 _atom_site_occupancy
  Li  Li0  1  0.03489754  0.37756726  0.00000000  1
  Li  Li1  1  0.34386886  0.96700409  0.50000000  1
  Li  Li2  1  0.62109568  0.65624197  0.00000000  1
  Li  Li3  1  0.62020064  0.65621104  0.50000000  1
  Cu  Cu4  1  0.32048214  0.29311996  0.24925698  1
  Cu  Cu5  1  0.32048214  0.29311996  0.75074302  1
  Cu  Cu6  1  0.97980462  0.67532201  0.75125845  1
  Cu  Cu7  1  0.97980462  0.67532201  0.24874155  1
  Cu  Cu8  1  0.70089266  0.03431403  0.25251256  1
  Cu  Cu9  1  0.70089266  0.03431403  0.74748744  1
  C  C10  1  0.33619781  0.66861427  0.25008867  1
  C  C11  1  0.33619781  0.66861427  0.74991133  1
  C  C12  1  0.99549958  0.99630744  0.00000000  1
  C  C13  1  0.00148650  0.99860795  0.50000000  1
  C  C14  1  0.66526495  0.33653306  0.00000000  1
  C  C15  1  0.66555004  0.33174635  0.50000000  1
  O  O16  1  0.06712004  0.88653630  0.00000000  1
  O  O17  1  0.07353571  0.88490150  0.50000000  1
  O  O18  1  0.15533547  0.55889772  0.76599707  1
  O  O19  1  0.15533547  0.55889772  0.23400293  1
  O  O20  1  0.40966881  0.84831453  0.26939006  1
  O  O21  1  0.40966881  0.84831453  0.73060994  1
  O  O22  1  0.10573581  0.18043299  0.00000000  1
  O  O23  1  0.11145694  0.17957739  0.50000000  1
  O  O24  1  0.44880741  0.59380278  0.24725266  1
  O  O25  1  0.44880741  0.59380278  0.75274734  1
  O  O26  1  0.81005250  0.92731890  0.00000000  1
  O  O27  1  0.81716748  0.92469578  0.50000000  1
  O  O28  1  0.48284406  0.25478516  0.00000000  1
  O  O29  1  0.47936754  0.24780615  0.50000000  1
  O  O30  1  0.76665943  0.52150031  0.00000000  1
  O  O31  1  0.76271124  0.51550370  0.50000000  1
  O  O32  1  0.75381128  0.23905456  0.00000000  1
  O  O33  1  0.74835034  0.23111754  0.50000000  1
