# generated using pymatgen
data_TiSiRu
_symmetry_space_group_name_H-M   'P 1'
_cell_length_a   6.49345472
_cell_length_b   7.09537217
_cell_length_c   7.38740654
_cell_angle_alpha   118.70070629
_cell_angle_beta   116.07165696
_cell_angle_gamma   90.00000002
_symmetry_Int_Tables_number   1
_chemical_formula_structural   TiSiRu
_chemical_formula_sum   'Ti6 Si6 Ru6'
_cell_volume   258.36690354
_cell_formula_units_Z   6
loop_
 _symmetry_equiv_pos_site_id
 _symmetry_equiv_pos_as_xyz
  1  'x, y, z'
loop_
 _atom_site_type_symbol
 _atom_site_label
 _atom_site_symmetry_multiplicity
 _atom_site_fract_x
 _atom_site_fract_y
 _atom_site_fract_z
 _atom_site_occupancy
  Si  Si0  1  0.53691679  0.78073109  0.06146218  1
  Si  Si1  1  0.16236376  0.17435884  0.33510256  1
  Si  Si2  1  0.16236376  0.66074373  0.33510256  1
  Si  Si3  1  0.82726119  0.33925627  0.66489744  1
  Si  Si4  1  0.47545460  0.21926891  0.93853782  1
  Si  Si5  1  0.82726119  0.82564116  0.66489744  1
  Ti  Ti6  1  0.91232298  0.24560559  0.99121117  1
  Ti  Ti7  1  0.49316421  0.97285726  0.44571452  1
  Ti  Ti8  1  0.04744970  0.02714274  0.55428548  1
  Ti  Ti9  1  0.49093945  0.44497826  0.38995652  1
  Ti  Ti10  1  0.92111181  0.75439441  0.00878883  1
  Ti  Ti11  1  0.10098292  0.55502174  0.61004348  1
  Ru  Ru12  1  0.24544312  0.50000000  0.00000000  1
  Ru  Ru13  1  0.24544312  0.00000000  0.00000000  1
  Ru  Ru14  1  0.49699205  0.83862059  0.74712340  1
  Ru  Ru15  1  0.74986865  0.59149720  0.25287660  1
  Ru  Ru16  1  0.49699205  0.40850280  0.74712340  1
  Ru  Ru17  1  0.74986865  0.16137941  0.25287660  1
