# generated using pymatgen
data_Ho4C7
_symmetry_space_group_name_H-M   'P 1'
_cell_length_a   3.68842083
_cell_length_b   12.53687438
_cell_length_c   13.69170423
_cell_angle_alpha   90.00000000
_cell_angle_beta   96.72041143
_cell_angle_gamma   90.00000000
_symmetry_Int_Tables_number   1
_chemical_formula_structural   Ho4C7
_chemical_formula_sum   'Ho16 C28'
_cell_volume   628.77160822
_cell_formula_units_Z   4
loop_
 _symmetry_equiv_pos_site_id
 _symmetry_equiv_pos_as_xyz
  1  'x, y, z'
loop_
 _atom_site_type_symbol
 _atom_site_label
 _atom_site_symmetry_multiplicity
 _atom_site_fract_x
 _atom_site_fract_y
 _atom_site_fract_z
 _atom_site_occupancy
  C  C0  1  0.25752593  0.11668190  0.05027527  1
  C  C1  1  0.24247407  0.61668190  0.44972473  1
  C  C2  1  0.74247407  0.88331810  0.94972473  1
  C  C3  1  0.75752593  0.38331810  0.55027527  1
  C  C4  1  0.83953646  0.64073528  0.67432207  1
  C  C5  1  0.66046354  0.14073528  0.82567793  1
  C  C6  1  0.16046354  0.35926472  0.32567793  1
  C  C7  1  0.33953646  0.85926472  0.17432207  1
  C  C8  1  0.30345502  0.88999556  0.54759022  1
  C  C9  1  0.19654498  0.38999556  0.95240978  1
  C  C10  1  0.69654498  0.11000444  0.45240978  1
  C  C11  1  0.80345502  0.61000444  0.04759022  1
  C  C12  1  0.13868919  0.91728411  0.72934807  1
  C  C13  1  0.36131081  0.41728411  0.77065193  1
  C  C14  1  0.86131081  0.08271589  0.27065193  1
  C  C15  1  0.63868919  0.58271589  0.22934807  1
  C  C16  1  0.22321053  0.67154996  0.84792503  1
  C  C17  1  0.27678947  0.17154996  0.65207497  1
  C  C18  1  0.77678947  0.32845004  0.15207497  1
  C  C19  1  0.72321053  0.82845004  0.34792503  1
  C  C20  1  0.22511534  0.89611554  0.63956548  1
  C  C21  1  0.27488466  0.39611554  0.86043452  1
  C  C22  1  0.77488466  0.10388446  0.36043452  1
  C  C23  1  0.72511534  0.60388446  0.13956548  1
  C  C24  1  0.05913907  0.65153506  0.75635483  1
  C  C25  1  0.44086093  0.15153506  0.74364517  1
  C  C26  1  0.94086093  0.34846494  0.24364517  1
  C  C27  1  0.55913907  0.84846494  0.25635483  1
  Ho  Ho28  1  0.19319448  0.01552574  0.89260825  1
  Ho  Ho29  1  0.30680552  0.51552574  0.60739175  1
  Ho  Ho30  1  0.80680552  0.98447426  0.10739175  1
  Ho  Ho31  1  0.69319448  0.48447426  0.39260825  1
  Ho  Ho32  1  0.74115415  0.03974425  0.61780468  1
  Ho  Ho33  1  0.75884585  0.53974425  0.88219532  1
  Ho  Ho34  1  0.25884585  0.96025575  0.38219532  1
  Ho  Ho35  1  0.24115415  0.46025575  0.11780468  1
  Ho  Ho36  1  0.65652752  0.80509253  0.78959564  1
  Ho  Ho37  1  0.84347248  0.30509253  0.71040436  1
  Ho  Ho38  1  0.34347248  0.19490747  0.21040436  1
  Ho  Ho39  1  0.15652752  0.69490747  0.28959564  1
  Ho  Ho40  1  0.27013010  0.76274438  0.00659179  1
  Ho  Ho41  1  0.22986990  0.26274438  0.49340821  1
  Ho  Ho42  1  0.72986990  0.23725562  0.99340821  1
  Ho  Ho43  1  0.77013010  0.73725562  0.50659179  1
