# generated using pymatgen
data_Li3Sn3(PO4)4
_symmetry_space_group_name_H-M   'P 1'
_cell_length_a   8.94404357
_cell_length_b   12.38892209
_cell_length_c   6.45693494
_cell_angle_alpha   90.00000000
_cell_angle_beta   103.54183344
_cell_angle_gamma   90.00000000
_symmetry_Int_Tables_number   1
_chemical_formula_structural   Li3Sn3(PO4)4
_chemical_formula_sum   'Li6 Sn6 P8 O32'
_cell_volume   695.58323231
_cell_formula_units_Z   2
loop_
 _symmetry_equiv_pos_site_id
 _symmetry_equiv_pos_as_xyz
  1  'x, y, z'
loop_
 _atom_site_type_symbol
 _atom_site_label
 _atom_site_symmetry_multiplicity
 _atom_site_fract_x
 _atom_site_fract_y
 _atom_site_fract_z
 _atom_site_occupancy
  Li  Li0  1  0.09035139  0.57744289  0.59629084  1
  Li  Li1  1  0.08346538  0.90097689  0.08952404  1
  Li  Li2  1  0.34235127  0.21254295  0.12917981  1
  Li  Li3  1  0.65764873  0.71254295  0.37082019  1
  Li  Li4  1  0.90964861  0.07744289  0.90370916  1
  Li  Li5  1  0.91653462  0.40097689  0.41047596  1
  Sn  Sn6  1  0.26461689  0.92929199  0.64753901  1
  Sn  Sn7  1  0.28233238  0.58506142  0.16196017  1
  Sn  Sn8  1  0.32213253  0.31223022  0.61429234  1
  Sn  Sn9  1  0.67786747  0.81223022  0.88570766  1
  Sn  Sn10  1  0.73538311  0.42929199  0.85246099  1
  Sn  Sn11  1  0.71766762  0.08506142  0.33803983  1
  P  P12  1  0.08825425  0.36774497  0.88934092  1
  P  P13  1  0.07959654  0.12502037  0.36785743  1
  P  P14  1  0.41567034  0.59742725  0.70133584  1
  P  P15  1  0.40199416  0.90873129  0.19596801  1
  P  P16  1  0.58432966  0.09742725  0.79866416  1
  P  P17  1  0.59800584  0.40873129  0.30403199  1
  P  P18  1  0.91174575  0.86774497  0.61065908  1
  P  P19  1  0.92040346  0.62502037  0.13214257  1
  O  O20  1  0.06961101  0.42950502  0.67867043  1
  O  O21  1  0.07450175  0.82886427  0.58151871  1
  O  O22  1  0.05122877  0.05006906  0.17687477  1
  O  O23  1  0.06912716  0.68330508  0.10410670  1
  O  O24  1  0.14184304  0.06445844  0.58782383  1
  O  O25  1  0.18817413  0.26657110  0.88076770  1
  O  O26  1  0.16471144  0.43872594  0.08590837  1
  O  O27  1  0.30652930  0.62396081  0.85140680  1
  O  O28  1  0.27971959  0.90884704  0.97091181  1
  O  O29  1  0.20466408  0.20962775  0.35030510  1
  O  O30  1  0.29005725  0.88364599  0.34904142  1
  O  O31  1  0.29144299  0.56875732  0.49497080  1
  O  O32  1  0.48370092  0.19213069  0.83291676  1
  O  O33  1  0.51383448  0.49471439  0.78520840  1
  O  O34  1  0.48379842  0.31733775  0.29557472  1
  O  O35  1  0.48616552  0.99471439  0.71479160  1
  O  O36  1  0.47082930  0.02301012  0.23859140  1
  O  O37  1  0.51629908  0.69213069  0.66708324  1
  O  O38  1  0.52917070  0.52301012  0.26140860  1
  O  O39  1  0.51620158  0.81733775  0.20442528  1
  O  O40  1  0.72028041  0.40884704  0.52908819  1
  O  O41  1  0.69347070  0.12396081  0.64859320  1
  O  O42  1  0.81182587  0.76657110  0.61923230  1
  O  O43  1  0.70855701  0.06875732  0.00502920  1
  O  O44  1  0.70994275  0.38364599  0.15095858  1
  O  O45  1  0.85815696  0.56445844  0.91217617  1
  O  O46  1  0.79533592  0.70962775  0.14969490  1
  O  O47  1  0.83528856  0.93872594  0.41409163  1
  O  O48  1  0.92549825  0.32886427  0.91848129  1
  O  O49  1  0.93038899  0.92950502  0.82132957  1
  O  O50  1  0.93087284  0.18330508  0.39589330  1
  O  O51  1  0.94877123  0.55006906  0.32312523  1
