# generated using pymatgen
data_Li3Ti2(PO4)3
_symmetry_space_group_name_H-M   'P 1'
_cell_length_a   8.59478922
_cell_length_b   8.61880103
_cell_length_c   8.61880130
_cell_angle_alpha   62.49808236
_cell_angle_beta   62.50859094
_cell_angle_gamma   62.50858992
_symmetry_Int_Tables_number   1
_chemical_formula_structural   Li3Ti2(PO4)3
_chemical_formula_sum   'Li6 Ti4 P6 O24'
_cell_volume   476.65664087
_cell_formula_units_Z   2
loop_
 _symmetry_equiv_pos_site_id
 _symmetry_equiv_pos_as_xyz
  1  'x, y, z'
loop_
 _atom_site_type_symbol
 _atom_site_label
 _atom_site_symmetry_multiplicity
 _atom_site_fract_x
 _atom_site_fract_y
 _atom_site_fract_z
 _atom_site_occupancy
  Li  Li0  1  0.02714738  0.00533574  0.99574436  1
  Li  Li1  1  0.75000000  0.15335234  0.34664766  1
  Li  Li2  1  0.47285262  0.50425564  0.49466426  1
  Li  Li3  1  0.25000000  0.84145579  0.65854421  1
  Li  Li4  1  0.66118290  0.25062949  0.83945288  1
  Li  Li5  1  0.83881710  0.66054712  0.24937051  1
  Ti  Ti6  1  0.14592741  0.14585127  0.13795606  1
  Ti  Ti7  1  0.35407259  0.36204394  0.35414873  1
  Ti  Ti8  1  0.64673943  0.64862221  0.64830775  1
  Ti  Ti9  1  0.85326057  0.85169225  0.85137779  1
  P  P10  1  0.05190964  0.75119068  0.44675410  1
  P  P11  1  0.44809036  0.05324590  0.74880932  1
  P  P12  1  0.75000000  0.44988254  0.05011746  1
  P  P13  1  0.25000000  0.54426582  0.95573418  1
  P  P14  1  0.54624189  0.95951141  0.25027067  1
  P  P15  1  0.95375811  0.24972933  0.54048859  1
  O  O16  1  0.12297469  0.29822436  0.49659210  1
  O  O17  1  0.30826136  0.50796832  0.11553851  1
  O  O18  1  0.05249518  0.91796730  0.26609183  1
  O  O19  1  0.52858459  0.11770908  0.30114425  1
  O  O20  1  0.23923908  0.59537125  0.42737717  1
  O  O21  1  0.01788636  0.80841227  0.60942974  1
  O  O22  1  0.26076092  0.07262283  0.90462875  1
  O  O23  1  0.44750482  0.23390817  0.58203270  1
  O  O24  1  0.59632899  0.42794078  0.24168891  1
  O  O25  1  0.19173864  0.38446149  0.99203168  1
  O  O26  1  0.09274445  0.73555024  0.93302739  1
  O  O27  1  0.37702531  0.00340790  0.20177564  1
  O  O28  1  0.60937526  0.01577307  0.81003061  1
  O  O29  1  0.90367101  0.25831109  0.07205922  1
  O  O30  1  0.81054190  0.60850903  0.01656533  1
  O  O31  1  0.40725555  0.56697261  0.76444976  1
  O  O32  1  0.56526152  0.76963958  0.40870296  1
  O  O33  1  0.73436224  0.93074544  0.09023639  1
  O  O34  1  0.97141541  0.19885575  0.38229092  1
  O  O35  1  0.76563776  0.40976361  0.56925456  1
  O  O36  1  0.48211364  0.89057026  0.69158773  1
  O  O37  1  0.93473848  0.09129704  0.73036042  1
  O  O38  1  0.68945810  0.48343467  0.89149097  1
  O  O39  1  0.89062474  0.68996939  0.48422693  1
