# generated using pymatgen
data_KTb2CuS4
_symmetry_space_group_name_H-M   'P 1'
_cell_length_a   3.97219289
_cell_length_b   7.07370585
_cell_length_c   13.77138471
_cell_angle_alpha   90.00000000
_cell_angle_beta   90.00000000
_cell_angle_gamma   106.30626777
_symmetry_Int_Tables_number   1
_chemical_formula_structural   KTb2CuS4
_chemical_formula_sum   'K2 Tb4 Cu2 S8'
_cell_volume   371.38484807
_cell_formula_units_Z   2
loop_
 _symmetry_equiv_pos_site_id
 _symmetry_equiv_pos_as_xyz
  1  'x, y, z'
loop_
 _atom_site_type_symbol
 _atom_site_label
 _atom_site_symmetry_multiplicity
 _atom_site_fract_x
 _atom_site_fract_y
 _atom_site_fract_z
 _atom_site_occupancy
  S  S0  1  0.00000000  0.00000000  0.50000000  1
  S  S1  1  0.00000000  0.00000000  0.00000000  1
  S  S2  1  0.26263947  0.52527894  0.11148660  1
  S  S3  1  0.73736053  0.47472106  0.88851340  1
  S  S4  1  0.43090990  0.86181980  0.75000000  1
  S  S5  1  0.26263947  0.52527894  0.38851340  1
  S  S6  1  0.56909010  0.13818020  0.25000000  1
  S  S7  1  0.73736053  0.47472106  0.61148660  1
  K  K8  1  0.89078835  0.78157671  0.25000000  1
  K  K9  1  0.10921165  0.21842329  0.75000000  1
  Cu  Cu10  1  0.83744020  0.67488040  0.75000000  1
  Cu  Cu11  1  0.16255980  0.32511960  0.25000000  1
  Tb  Tb12  1  0.36573320  0.73146641  0.93689092  1
  Tb  Tb13  1  0.63426680  0.26853359  0.43689092  1
  Tb  Tb14  1  0.36573320  0.73146641  0.56310908  1
  Tb  Tb15  1  0.63426680  0.26853359  0.06310908  1
