# generated using pymatgen
data_LiTi(PO3)4
_symmetry_space_group_name_H-M   'P 1'
_cell_length_a   7.86834233
_cell_length_b   8.64588165
_cell_length_c   9.39060697
_cell_angle_alpha   118.86620193
_cell_angle_beta   114.76815563
_cell_angle_gamma   62.93287025
_symmetry_Int_Tables_number   1
_chemical_formula_structural   LiTi(PO3)4
_chemical_formula_sum   'Li2 Ti2 P8 O24'
_cell_volume   481.64178358
_cell_formula_units_Z   2
loop_
 _symmetry_equiv_pos_site_id
 _symmetry_equiv_pos_as_xyz
  1  'x, y, z'
loop_
 _atom_site_type_symbol
 _atom_site_label
 _atom_site_symmetry_multiplicity
 _atom_site_fract_x
 _atom_site_fract_y
 _atom_site_fract_z
 _atom_site_occupancy
  Li  Li0  1  0.00000000  0.50000000  0.50000000  1
  Li  Li1  1  0.00000000  0.00000000  0.00000000  1
  Ti  Ti2  1  0.68334170  0.75000000  0.75000000  1
  Ti  Ti3  1  0.31665830  0.25000000  0.25000000  1
  P  P4  1  0.69899793  0.86603172  0.14297793  1
  P  P5  1  0.34018321  0.80519602  0.10085449  1
  P  P6  1  0.04452474  0.69480398  0.39914551  1
  P  P7  1  0.42205271  0.63396828  0.35702207  1
  P  P8  1  0.57794729  0.36603172  0.64297793  1
  P  P9  1  0.95547526  0.30519602  0.60085449  1
  P  P10  1  0.65981679  0.19480398  0.89914551  1
  P  P11  1  0.30100207  0.13396828  0.85702207  1
  O  O12  1  0.27110294  0.01200979  0.20930514  1
  O  O13  1  0.79788212  0.79532250  0.00591376  1
  O  O14  1  0.86095998  0.82364895  0.30295830  1
  O  O15  1  0.56027178  0.74412363  0.08469851  1
  O  O16  1  0.41759864  0.93151036  0.79775658  1
  O  O17  1  0.21969689  0.75587637  0.41530149  1
  O  O18  1  0.38165063  0.67635105  0.19704170  1
  O  O19  1  0.01768325  0.74579932  0.56560408  1
  O  O20  1  0.58729086  0.70467750  0.49408624  1
  O  O21  1  0.19787849  0.75420068  0.93439592  1
  O  O22  1  0.07380860  0.48799021  0.29069486  1
  O  O23  1  0.55135242  0.56848964  0.70224342  1
  O  O24  1  0.44864758  0.43151036  0.29775658  1
  O  O25  1  0.92619140  0.51200979  0.70930514  1
  O  O26  1  0.80212151  0.24579932  0.06560408  1
  O  O27  1  0.41270914  0.29532250  0.50591376  1
  O  O28  1  0.98231675  0.25420068  0.43439592  1
  O  O29  1  0.61834937  0.32364895  0.80295830  1
  O  O30  1  0.78030311  0.24412363  0.58469851  1
  O  O31  1  0.58240136  0.06848964  0.20224342  1
  O  O32  1  0.43972822  0.25587637  0.91530149  1
  O  O33  1  0.13904002  0.17635105  0.69704170  1
  O  O34  1  0.20211788  0.20467750  0.99408624  1
  O  O35  1  0.72889706  0.98799021  0.79069486  1
