# generated using pymatgen
data_Sm2(Zn2Ge)3
_symmetry_space_group_name_H-M   'P 1'
_cell_length_a   7.64938260
_cell_length_b   7.64938260
_cell_length_c   4.07600932
_cell_angle_alpha   90.00000000
_cell_angle_beta   90.00000000
_cell_angle_gamma   120.00000002
_symmetry_Int_Tables_number   1
_chemical_formula_structural   Sm2(Zn2Ge)3
_chemical_formula_sum   'Sm2 Zn6 Ge3'
_cell_volume   206.54684570
_cell_formula_units_Z   1
loop_
 _symmetry_equiv_pos_site_id
 _symmetry_equiv_pos_as_xyz
  1  'x, y, z'
loop_
 _atom_site_type_symbol
 _atom_site_label
 _atom_site_symmetry_multiplicity
 _atom_site_fract_x
 _atom_site_fract_y
 _atom_site_fract_z
 _atom_site_occupancy
  Zn  Zn0  1  0.71386858  0.00000000  0.50000000  1
  Zn  Zn1  1  0.00000000  0.71386858  0.50000000  1
  Zn  Zn2  1  0.19049352  0.00000000  0.00000000  1
  Zn  Zn3  1  0.80950648  0.80950648  0.00000000  1
  Zn  Zn4  1  0.28613142  0.28613142  0.50000000  1
  Zn  Zn5  1  0.00000000  0.19049352  0.00000000  1
  Ge  Ge6  1  0.38576133  0.00000000  0.50000000  1
  Ge  Ge7  1  0.61423867  0.61423867  0.50000000  1
  Ge  Ge8  1  0.00000000  0.38576133  0.50000000  1
  Sm  Sm9  1  0.66666667  0.33333333  0.00000000  1
  Sm  Sm10  1  0.33333333  0.66666667  0.00000000  1
