# generated using pymatgen
data_Ce2(Zn2Ge)3
_symmetry_space_group_name_H-M   'P 1'
_cell_length_a   7.67755752
_cell_length_b   7.67755752
_cell_length_c   4.09040761
_cell_angle_alpha   90.00000000
_cell_angle_beta   90.00000000
_cell_angle_gamma   120.00000000
_symmetry_Int_Tables_number   1
_chemical_formula_structural   Ce2(Zn2Ge)3
_chemical_formula_sum   'Ce2 Zn6 Ge3'
_cell_volume   208.80619382
_cell_formula_units_Z   1
loop_
 _symmetry_equiv_pos_site_id
 _symmetry_equiv_pos_as_xyz
  1  'x, y, z'
loop_
 _atom_site_type_symbol
 _atom_site_label
 _atom_site_symmetry_multiplicity
 _atom_site_fract_x
 _atom_site_fract_y
 _atom_site_fract_z
 _atom_site_occupancy
  Zn  Zn0  1  0.71866977  0.00000000  0.50000000  1
  Zn  Zn1  1  0.00000000  0.71866977  0.50000000  1
  Zn  Zn2  1  0.19036223  0.00000000  0.00000000  1
  Zn  Zn3  1  0.80963777  0.80963777  0.00000000  1
  Zn  Zn4  1  0.28133023  0.28133023  0.50000000  1
  Zn  Zn5  1  0.00000000  0.19036223  0.00000000  1
  Ge  Ge6  1  0.38871272  0.00000000  0.50000000  1
  Ge  Ge7  1  0.61128728  0.61128728  0.50000000  1
  Ge  Ge8  1  0.00000000  0.38871272  0.50000000  1
  Ce  Ce9  1  0.66666667  0.33333333  0.00000000  1
  Ce  Ce10  1  0.33333333  0.66666667  0.00000000  1
