# generated using pymatgen
data_KSmGeSe4
_symmetry_space_group_name_H-M   'P 1'
_cell_length_a   6.89853995
_cell_length_b   7.11327604
_cell_length_c   9.15959504
_cell_angle_alpha   90.00000000
_cell_angle_beta   107.67086525
_cell_angle_gamma   90.00000000
_symmetry_Int_Tables_number   1
_chemical_formula_structural   KSmGeSe4
_chemical_formula_sum   'K2 Sm2 Ge2 Se8'
_cell_volume   428.26456482
_cell_formula_units_Z   2
loop_
 _symmetry_equiv_pos_site_id
 _symmetry_equiv_pos_as_xyz
  1  'x, y, z'
loop_
 _atom_site_type_symbol
 _atom_site_label
 _atom_site_symmetry_multiplicity
 _atom_site_fract_x
 _atom_site_fract_y
 _atom_site_fract_z
 _atom_site_occupancy
  K  K0  1  0.24546029  0.29244010  0.93764189  1
  K  K1  1  0.75453971  0.79244010  0.06235811  1
  Ge  Ge2  1  0.27734765  0.76298777  0.67369626  1
  Ge  Ge3  1  0.72265235  0.26298777  0.32630374  1
  Se  Se4  1  0.46704128  0.02390764  0.27572158  1
  Se  Se5  1  0.53295872  0.52390764  0.72427842  1
  Se  Se6  1  0.51395312  0.53772603  0.29375038  1
  Se  Se7  1  0.07408093  0.75919339  0.83869913  1
  Se  Se8  1  0.92591907  0.25919339  0.16130087  1
  Se  Se9  1  0.93401231  0.19091707  0.57811232  1
  Se  Se10  1  0.06598769  0.69091707  0.42188768  1
  Se  Se11  1  0.48604688  0.03772603  0.70624962  1
  Sm  Sm12  1  0.72903069  0.79693800  0.55116012  1
  Sm  Sm13  1  0.27096931  0.29693800  0.44883988  1
