# generated using pymatgen
data_Dy2Al6Si4Pt
_symmetry_space_group_name_H-M   'P 1'
_cell_length_a   17.04877720
_cell_length_b   17.04877720
_cell_length_c   17.04877720
_cell_angle_alpha   14.05028541
_cell_angle_beta   14.05028540
_cell_angle_gamma   14.05028540
_symmetry_Int_Tables_number   1
_chemical_formula_structural   Dy2Al6Si4Pt
_chemical_formula_sum   'Dy2 Al6 Si4 Pt1'
_cell_volume   254.20449703
_cell_formula_units_Z   1
loop_
 _symmetry_equiv_pos_site_id
 _symmetry_equiv_pos_as_xyz
  1  'x, y, z'
loop_
 _atom_site_type_symbol
 _atom_site_label
 _atom_site_symmetry_multiplicity
 _atom_site_fract_x
 _atom_site_fract_y
 _atom_site_fract_z
 _atom_site_occupancy
  Al  Al0  1  0.94955897  0.94955897  0.94955897  1
  Al  Al1  1  0.05044103  0.05044103  0.05044103  1
  Al  Al2  1  0.31747302  0.31747302  0.31747302  1
  Al  Al3  1  0.81479552  0.81479552  0.81479552  1
  Al  Al4  1  0.18520448  0.18520448  0.18520448  1
  Al  Al5  1  0.68252698  0.68252698  0.68252698  1
  Si  Si6  1  0.26567488  0.26567488  0.26567488  1
  Si  Si7  1  0.13504528  0.13504528  0.13504528  1
  Si  Si8  1  0.86495472  0.86495472  0.86495472  1
  Si  Si9  1  0.73432512  0.73432512  0.73432512  1
  Dy  Dy10  1  0.56584330  0.56584330  0.56584330  1
  Dy  Dy11  1  0.43415670  0.43415670  0.43415670  1
  Pt  Pt12  1  0.00000000  0.00000000  0.00000000  1
