# generated using pymatgen
data_Ag2SeO4
_symmetry_space_group_name_H-M   'P 1'
_cell_length_a   6.45798648
_cell_length_b   6.45798649
_cell_length_c   7.07717796
_cell_angle_alpha   101.36577472
_cell_angle_beta   101.36577464
_cell_angle_gamma   124.61547521
_symmetry_Int_Tables_number   1
_chemical_formula_structural   Ag2SeO4
_chemical_formula_sum   'Ag4 Se2 O8'
_cell_volume   219.98711819
_cell_formula_units_Z   2
loop_
 _symmetry_equiv_pos_site_id
 _symmetry_equiv_pos_as_xyz
  1  'x, y, z'
loop_
 _atom_site_type_symbol
 _atom_site_label
 _atom_site_symmetry_multiplicity
 _atom_site_fract_x
 _atom_site_fract_y
 _atom_site_fract_z
 _atom_site_occupancy
  O  O0  1  0.86925624  0.29645562  0.09957961  1
  O  O1  1  0.19687601  0.26967663  0.40042039  1
  O  O2  1  0.70354438  0.13074376  0.40042039  1
  O  O3  1  0.73032337  0.80312399  0.09957961  1
  O  O4  1  0.13074376  0.70354438  0.90042039  1
  O  O5  1  0.80312399  0.73032337  0.59957961  1
  O  O6  1  0.26967663  0.19687601  0.90042039  1
  O  O7  1  0.29645562  0.86925624  0.59957961  1
  Se  Se8  1  0.87500000  0.12500000  0.25000000  1
  Se  Se9  1  0.12500000  0.87500000  0.75000000  1
  Ag  Ag10  1  0.17660800  0.82339200  0.25000000  1
  Ag  Ag11  1  0.57339200  0.42660800  0.25000000  1
  Ag  Ag12  1  0.82339200  0.17660800  0.75000000  1
  Ag  Ag13  1  0.42660800  0.57339200  0.75000000  1
