# generated using pymatgen
data_Ba3(SiAs2)2
_symmetry_space_group_name_H-M   'P 1'
_cell_length_a   7.83270994
_cell_length_b   8.55465418
_cell_length_c   10.08926093
_cell_angle_alpha   107.79797806
_cell_angle_beta   105.00962499
_cell_angle_gamma   107.74185228
_symmetry_Int_Tables_number   1
_chemical_formula_structural   Ba3(SiAs2)2
_chemical_formula_sum   'Ba6 Si4 As8'
_cell_volume   564.96867586
_cell_formula_units_Z   2
loop_
 _symmetry_equiv_pos_site_id
 _symmetry_equiv_pos_as_xyz
  1  'x, y, z'
loop_
 _atom_site_type_symbol
 _atom_site_label
 _atom_site_symmetry_multiplicity
 _atom_site_fract_x
 _atom_site_fract_y
 _atom_site_fract_z
 _atom_site_occupancy
  Si  Si0  1  0.62258703  0.46601634  0.63644822  1
  Si  Si1  1  0.51386119  0.17043188  0.63644822  1
  Si  Si2  1  0.37741297  0.53398366  0.36355178  1
  Si  Si3  1  0.48613881  0.82956812  0.36355178  1
  As  As4  1  0.64901129  0.44552088  0.39644079  1
  As  As5  1  0.24742950  0.95091991  0.39644079  1
  As  As6  1  0.44267751  0.18845543  0.85467051  1
  As  As7  1  0.91199300  0.66621509  0.85467051  1
  As  As8  1  0.55732249  0.81154457  0.14532949  1
  As  As9  1  0.08800700  0.33378491  0.14532949  1
  As  As10  1  0.75257050  0.04908009  0.60355921  1
  As  As11  1  0.35098871  0.55447912  0.60355921  1
  Ba  Ba12  1  0.69220062  0.94220062  0.88440123  1
  Ba  Ba13  1  0.30779938  0.05779938  0.11559877  1
  Ba  Ba14  1  0.81458396  0.56458396  0.12916793  1
  Ba  Ba15  1  0.18541604  0.43541604  0.87083207  1
  Ba  Ba16  1  0.06031020  0.81031020  0.62062041  1
  Ba  Ba17  1  0.93968980  0.18968980  0.37937959  1
