# generated using pymatgen
data_HfTe5
_symmetry_space_group_name_H-M   'P 1'
_cell_length_a   4.03062568
_cell_length_b   8.17931046
_cell_length_c   13.83963803
_cell_angle_alpha   90.00000000
_cell_angle_beta   90.00000000
_cell_angle_gamma   104.26408390
_symmetry_Int_Tables_number   1
_chemical_formula_structural   HfTe5
_chemical_formula_sum   'Hf2 Te10'
_cell_volume   442.19519742
_cell_formula_units_Z   2
loop_
 _symmetry_equiv_pos_site_id
 _symmetry_equiv_pos_as_xyz
  1  'x, y, z'
loop_
 _atom_site_type_symbol
 _atom_site_label
 _atom_site_symmetry_multiplicity
 _atom_site_fract_x
 _atom_site_fract_y
 _atom_site_fract_z
 _atom_site_occupancy
  Te  Te0  1  0.21376736  0.42753472  0.93363198  1
  Te  Te1  1  0.78623264  0.57246528  0.06636802  1
  Te  Te2  1  0.67241482  0.34482965  0.75000000  1
  Te  Te3  1  0.32758518  0.65517035  0.25000000  1
  Te  Te4  1  0.91707089  0.83414179  0.85045245  1
  Te  Te5  1  0.08292911  0.16585821  0.14954755  1
  Te  Te6  1  0.08292911  0.16585821  0.35045245  1
  Te  Te7  1  0.91707089  0.83414179  0.64954755  1
  Te  Te8  1  0.21376736  0.42753472  0.56636802  1
  Te  Te9  1  0.78623264  0.57246528  0.43363198  1
  Hf  Hf10  1  0.68777986  0.37555972  0.25000000  1
  Hf  Hf11  1  0.31222014  0.62444028  0.75000000  1
