# generated using pymatgen
data_Sr3(SiAs2)2
_symmetry_space_group_name_H-M   'P 1'
_cell_length_a   7.45636920
_cell_length_b   8.21767062
_cell_length_c   9.68894075
_cell_angle_alpha   107.98924827
_cell_angle_beta   104.93871221
_cell_angle_gamma   107.42638088
_symmetry_Int_Tables_number   1
_chemical_formula_structural   Sr3(SiAs2)2
_chemical_formula_sum   'Sr6 Si4 As8'
_cell_volume   496.98899577
_cell_formula_units_Z   2
loop_
 _symmetry_equiv_pos_site_id
 _symmetry_equiv_pos_as_xyz
  1  'x, y, z'
loop_
 _atom_site_type_symbol
 _atom_site_label
 _atom_site_symmetry_multiplicity
 _atom_site_fract_x
 _atom_site_fract_y
 _atom_site_fract_z
 _atom_site_occupancy
  Si  Si0  1  0.62746906  0.47167087  0.64123293  1
  Si  Si1  1  0.51376387  0.16956207  0.64123293  1
  Si  Si2  1  0.37253094  0.52832913  0.35876707  1
  Si  Si3  1  0.48623613  0.83043793  0.35876707  1
  As  As4  1  0.66217082  0.44424134  0.39377938  1
  As  As5  1  0.23160856  0.94953804  0.39377938  1
  As  As6  1  0.44058248  0.18859778  0.86675988  1
  As  As7  1  0.92617740  0.67816210  0.86675988  1
  As  As8  1  0.55941752  0.81140222  0.13324012  1
  As  As9  1  0.07382260  0.32183790  0.13324012  1
  As  As10  1  0.76839144  0.05046196  0.60622062  1
  As  As11  1  0.33782918  0.55575866  0.60622062  1
  Sr  Sr12  1  0.69106765  0.94106765  0.88213530  1
  Sr  Sr13  1  0.30893235  0.05893235  0.11786470  1
  Sr  Sr14  1  0.81463855  0.56463855  0.12927709  1
  Sr  Sr15  1  0.18536145  0.43536145  0.87072291  1
  Sr  Sr16  1  0.06396864  0.81396864  0.62793728  1
  Sr  Sr17  1  0.93603136  0.18603136  0.37206272  1
