# generated using pymatgen
data_Nd2HgO4
_symmetry_space_group_name_H-M   'P 1'
_cell_length_a   3.84369114
_cell_length_b   7.27161055
_cell_length_c   9.23410515
_cell_angle_alpha   76.69014209
_cell_angle_beta   77.98752121
_cell_angle_gamma   74.67497292
_symmetry_Int_Tables_number   1
_chemical_formula_structural   Nd2HgO4
_chemical_formula_sum   'Nd4 Hg2 O8'
_cell_volume   239.22732305
_cell_formula_units_Z   2
loop_
 _symmetry_equiv_pos_site_id
 _symmetry_equiv_pos_as_xyz
  1  'x, y, z'
loop_
 _atom_site_type_symbol
 _atom_site_label
 _atom_site_symmetry_multiplicity
 _atom_site_fract_x
 _atom_site_fract_y
 _atom_site_fract_z
 _atom_site_occupancy
  O  O0  1  0.20397476  0.65008361  0.94196688  1
  O  O1  1  0.79602524  0.34991639  0.05803312  1
  O  O2  1  0.03653633  0.20583006  0.72109729  1
  O  O3  1  0.96346367  0.79416994  0.27890271  1
  O  O4  1  0.41956383  0.50704302  0.65382932  1
  O  O5  1  0.58043617  0.49295698  0.34617068  1
  O  O6  1  0.22831515  0.15389845  0.38947125  1
  O  O7  1  0.77168485  0.84610155  0.61052875  1
  Nd  Nd8  1  0.61978682  0.22021384  0.54021253  1
  Nd  Nd9  1  0.38021318  0.77978616  0.45978747  1
  Nd  Nd10  1  0.84133189  0.51890426  0.79843196  1
  Nd  Nd11  1  0.15866811  0.48109574  0.20156804  1
  Hg  Hg12  1  0.11495944  0.93145445  0.83862666  1
  Hg  Hg13  1  0.88504056  0.06854555  0.16137334  1
