# generated using pymatgen
data_LiTi(PO3)4
_symmetry_space_group_name_H-M   'P 1'
_cell_length_a   7.62334069
_cell_length_b   7.62334069
_cell_length_c   17.13718217
_cell_angle_alpha   90.00000000
_cell_angle_beta   90.00000000
_cell_angle_gamma   100.87331555
_symmetry_Int_Tables_number   1
_chemical_formula_structural   LiTi(PO3)4
_chemical_formula_sum   'Li4 Ti4 P16 O48'
_cell_volume   978.05257463
_cell_formula_units_Z   4
loop_
 _symmetry_equiv_pos_site_id
 _symmetry_equiv_pos_as_xyz
  1  'x, y, z'
loop_
 _atom_site_type_symbol
 _atom_site_label
 _atom_site_symmetry_multiplicity
 _atom_site_fract_x
 _atom_site_fract_y
 _atom_site_fract_z
 _atom_site_occupancy
  Li  Li0  1  0.19811433  0.09339956  0.38776275  1
  Li  Li1  1  0.90660044  0.80188567  0.61223725  1
  Li  Li2  1  0.80188567  0.90660044  0.88776275  1
  Li  Li3  1  0.09339956  0.19811433  0.11223725  1
  Ti  Ti4  1  0.58161189  0.97096787  0.61928491  1
  Ti  Ti5  1  0.02903213  0.41838811  0.38071509  1
  Ti  Ti6  1  0.41838811  0.02903213  0.11928491  1
  Ti  Ti7  1  0.97096787  0.58161189  0.88071509  1
  P  P8  1  0.03523667  0.75935857  0.09264375  1
  P  P9  1  0.24064143  0.96476333  0.90735625  1
  P  P10  1  0.30788687  0.78139134  0.76223210  1
  P  P11  1  0.21860866  0.69211313  0.23776790  1
  P  P12  1  0.37601047  0.62398953  0.50000000  1
  P  P13  1  0.25467425  0.33890360  0.94075736  1
  P  P14  1  0.66109640  0.74532575  0.05924264  1
  P  P15  1  0.35326158  0.35326158  0.25000000  1
  P  P16  1  0.64673842  0.64673842  0.75000000  1
  P  P17  1  0.33890360  0.25467425  0.55924264  1
  P  P18  1  0.74532575  0.66109640  0.44075736  1
  P  P19  1  0.62398953  0.37601047  0.00000000  1
  P  P20  1  0.78139134  0.30788687  0.73776790  1
  P  P21  1  0.69211313  0.21860866  0.26223210  1
  P  P22  1  0.75935857  0.03523667  0.40735625  1
  P  P23  1  0.96476333  0.24064143  0.59264375  1
  O  O24  1  0.05054409  0.85982045  0.89578802  1
  O  O25  1  0.14017955  0.94945591  0.10421198  1
  O  O26  1  0.34207315  0.95853067  0.98024938  1
  O  O27  1  0.04146933  0.65792685  0.01975062  1
  O  O28  1  0.12028240  0.67984680  0.76874274  1
  O  O29  1  0.32015320  0.87971760  0.23125726  1
  O  O30  1  0.09009617  0.63920483  0.16337576  1
  O  O31  1  0.36079517  0.90990383  0.83662424  1
  O  O32  1  0.10998264  0.63888940  0.31005319  1
  O  O33  1  0.36111060  0.89001736  0.68994681  1
  O  O34  1  0.41411777  0.79415766  0.54687574  1
  O  O35  1  0.20584234  0.58588223  0.45312426  1
  O  O36  1  0.51323347  0.80544395  0.10396678  1
  O  O37  1  0.19455605  0.48676653  0.89603322  1
  O  O38  1  0.44396594  0.64200899  0.77290530  1
  O  O39  1  0.35799101  0.55603406  0.22709470  1
  O  O40  1  0.77906478  0.83366431  0.38351149  1
  O  O41  1  0.16633569  0.22093522  0.61648851  1
  O  O42  1  0.52965576  0.61065250  0.43811079  1
  O  O43  1  0.38934750  0.47034424  0.56188921  1
  O  O44  1  0.23748953  0.30552230  0.32166525  1
  O  O45  1  0.69447770  0.76251147  0.67833475  1
  O  O46  1  0.18309124  0.29647624  0.01996017  1
  O  O47  1  0.70352376  0.81690876  0.98003983  1
  O  O48  1  0.29647624  0.18309124  0.48003983  1
  O  O49  1  0.81690876  0.70352376  0.51996017  1
  O  O50  1  0.30552230  0.23748953  0.17833475  1
  O  O51  1  0.76251147  0.69447770  0.82166525  1
  O  O52  1  0.61065250  0.52965576  0.06188921  1
  O  O53  1  0.47034424  0.38934750  0.93811079  1
  O  O54  1  0.22093522  0.16633569  0.88351149  1
  O  O55  1  0.83366431  0.77906478  0.11648851  1
  O  O56  1  0.64200899  0.44396594  0.72709470  1
  O  O57  1  0.55603406  0.35799101  0.27290530  1
  O  O58  1  0.80544395  0.51323347  0.39603322  1
  O  O59  1  0.48676653  0.19455605  0.60396678  1
  O  O60  1  0.79415766  0.41411777  0.95312426  1
  O  O61  1  0.58588223  0.20584234  0.04687574  1
  O  O62  1  0.63888940  0.10998264  0.18994681  1
  O  O63  1  0.89001736  0.36111060  0.81005319  1
  O  O64  1  0.63920483  0.09009617  0.33662424  1
  O  O65  1  0.90990383  0.36079517  0.66337576  1
  O  O66  1  0.67984680  0.12028240  0.73125726  1
  O  O67  1  0.87971760  0.32015320  0.26874274  1
  O  O68  1  0.65792685  0.04146933  0.48024938  1
  O  O69  1  0.95853067  0.34207315  0.51975062  1
  O  O70  1  0.94945591  0.14017955  0.39578802  1
  O  O71  1  0.85982045  0.05054409  0.60421198  1
