# generated using pymatgen
data_As3W2
_symmetry_space_group_name_H-M   'P 1'
_cell_length_a   3.30819833
_cell_length_b   6.94875109
_cell_length_c   8.22760142
_cell_angle_alpha   78.97329492
_cell_angle_beta   78.40206035
_cell_angle_gamma   76.22895488
_symmetry_Int_Tables_number   1
_chemical_formula_structural   As3W2
_chemical_formula_sum   'As6 W4'
_cell_volume   177.89149145
_cell_formula_units_Z   2
loop_
 _symmetry_equiv_pos_site_id
 _symmetry_equiv_pos_as_xyz
  1  'x, y, z'
loop_
 _atom_site_type_symbol
 _atom_site_label
 _atom_site_symmetry_multiplicity
 _atom_site_fract_x
 _atom_site_fract_y
 _atom_site_fract_z
 _atom_site_occupancy
  As  As0  1  0.89392065  0.58145886  0.63069984  1
  As  As1  1  0.10607935  0.41854114  0.36930016  1
  As  As2  1  0.58397025  0.14531290  0.68674659  1
  As  As3  1  0.41602975  0.85468710  0.31325341  1
  As  As4  1  0.12492722  0.79694482  0.95320075  1
  As  As5  1  0.87507278  0.20305518  0.04679925  1
  W  W6  1  0.65273070  0.56568129  0.12885731  1
  W  W7  1  0.34726930  0.43431871  0.87114269  1
  W  W8  1  0.75276378  0.12209950  0.37237293  1
  W  W9  1  0.24723622  0.87790050  0.62762707  1
