# generated using pymatgen
data_Sc2(SeO4)3
_symmetry_space_group_name_H-M   'P 1'
_cell_length_a   9.06942034
_cell_length_b   9.33662606
_cell_length_c   12.72767439
_cell_angle_alpha   90.00000000
_cell_angle_beta   90.77956881
_cell_angle_gamma   90.00000000
_symmetry_Int_Tables_number   1
_chemical_formula_structural   Sc2(SeO4)3
_chemical_formula_sum   'Sc8 Se12 O48'
_cell_volume   1077.65153458
_cell_formula_units_Z   4
loop_
 _symmetry_equiv_pos_site_id
 _symmetry_equiv_pos_as_xyz
  1  'x, y, z'
loop_
 _atom_site_type_symbol
 _atom_site_label
 _atom_site_symmetry_multiplicity
 _atom_site_fract_x
 _atom_site_fract_y
 _atom_site_fract_z
 _atom_site_occupancy
  O  O0  1  0.40607336  0.37447662  0.42357282  1
  O  O1  1  0.09392664  0.87447662  0.07642718  1
  O  O2  1  0.59392664  0.62552338  0.57642718  1
  O  O3  1  0.90607336  0.12552338  0.92357282  1
  O  O4  1  0.94050605  0.63182528  0.06645457  1
  O  O5  1  0.55949395  0.13182528  0.43354543  1
  O  O6  1  0.05949395  0.36817472  0.93354543  1
  O  O7  1  0.44050605  0.86817472  0.56645457  1
  O  O8  1  0.81974434  0.33291745  0.05702614  1
  O  O9  1  0.68025566  0.83291745  0.44297386  1
  O  O10  1  0.18025566  0.66708255  0.94297386  1
  O  O11  1  0.31974434  0.16708255  0.55702614  1
  O  O12  1  0.06976312  0.18552109  0.10276751  1
  O  O13  1  0.43023688  0.68552109  0.39723249  1
  O  O14  1  0.93023688  0.81447891  0.89723249  1
  O  O15  1  0.56976312  0.31447891  0.60276751  1
  O  O16  1  0.63914769  0.00030111  0.24111845  1
  O  O17  1  0.77826536  0.42751421  0.45475379  1
  O  O18  1  0.22173464  0.57248579  0.54524621  1
  O  O19  1  0.27826536  0.07248579  0.95475379  1
  O  O20  1  0.07037325  0.08217616  0.67824340  1
  O  O21  1  0.42962675  0.58217616  0.82175660  1
  O  O22  1  0.92962675  0.91782384  0.32175660  1
  O  O23  1  0.57037325  0.41782384  0.17824340  1
  O  O24  1  0.85920194  0.08389291  0.52486870  1
  O  O25  1  0.64079806  0.58389291  0.97513130  1
  O  O26  1  0.14079806  0.91610709  0.47513130  1
  O  O27  1  0.35920194  0.41610709  0.02486870  1
  O  O28  1  0.87339903  0.29484519  0.67195289  1
  O  O29  1  0.62660097  0.79484519  0.82804711  1
  O  O30  1  0.12660097  0.70515481  0.32804711  1
  O  O31  1  0.37339903  0.20515481  0.17195289  1
  O  O32  1  0.71560196  0.52208459  0.77499531  1
  O  O33  1  0.78439804  0.02208459  0.72500469  1
  O  O34  1  0.28439804  0.47791541  0.22500469  1
  O  O35  1  0.21560196  0.97791541  0.27499531  1
  O  O36  1  0.93413762  0.60479685  0.60589659  1
  O  O37  1  0.56586238  0.10479685  0.89410341  1
  O  O38  1  0.06586238  0.39520315  0.39410341  1
  O  O39  1  0.43413762  0.89520315  0.10589659  1
  O  O40  1  0.14952030  0.78098921  0.68274502  1
  O  O41  1  0.35047970  0.28098921  0.81725498  1
  O  O42  1  0.85047970  0.21901079  0.31725498  1
  O  O43  1  0.64952030  0.71901079  0.18274502  1
  O  O44  1  0.13914769  0.49969889  0.74111845  1
  O  O45  1  0.36085231  0.99969889  0.75888155  1
  O  O46  1  0.86085231  0.50030111  0.25888155  1
  O  O47  1  0.72173464  0.92751421  0.04524621  1
  Sc  Sc48  1  0.25271000  0.53256863  0.38528959  1
  Sc  Sc49  1  0.24729000  0.03256863  0.11471041  1
  Sc  Sc50  1  0.74729000  0.46743137  0.61471041  1
  Sc  Sc51  1  0.75271000  0.96743137  0.88528959  1
  Sc  Sc52  1  0.75110566  0.03316928  0.38373569  1
  Sc  Sc53  1  0.74889434  0.53316928  0.11626431  1
  Sc  Sc54  1  0.24889434  0.96683072  0.61626431  1
  Sc  Sc55  1  0.25110566  0.46683072  0.88373569  1
  Se  Se56  1  0.96517901  0.25236614  0.00570657  1
  Se  Se57  1  0.53482099  0.75236614  0.49429343  1
  Se  Se58  1  0.03482099  0.74763386  0.99429343  1
  Se  Se59  1  0.46517901  0.24763386  0.50570657  1
  Se  Se60  1  0.61063414  0.88485899  0.14378372  1
  Se  Se61  1  0.88936586  0.38485899  0.35621628  1
  Se  Se62  1  0.38936586  0.11514101  0.85621628  1
  Se  Se63  1  0.11063414  0.61514101  0.64378372  1
  Se  Se64  1  0.39535461  0.37991708  0.15038424  1
  Se  Se65  1  0.10464539  0.87991708  0.34961576  1
  Se  Se66  1  0.60464539  0.62008292  0.84961576  1
  Se  Se67  1  0.89535461  0.12008292  0.65038424  1
