# generated using pymatgen
data_YbCuSb
_symmetry_space_group_name_H-M   'P 1'
_cell_length_a   4.50664988
_cell_length_b   4.50664988
_cell_length_c   7.45498703
_cell_angle_alpha   90.00000000
_cell_angle_beta   90.00000000
_cell_angle_gamma   120.00000001
_symmetry_Int_Tables_number   1
_chemical_formula_structural   YbCuSb
_chemical_formula_sum   'Yb2 Cu2 Sb2'
_cell_volume   131.12489761
_cell_formula_units_Z   2
loop_
 _symmetry_equiv_pos_site_id
 _symmetry_equiv_pos_as_xyz
  1  'x, y, z'
loop_
 _atom_site_type_symbol
 _atom_site_label
 _atom_site_symmetry_multiplicity
 _atom_site_fract_x
 _atom_site_fract_y
 _atom_site_fract_z
 _atom_site_occupancy
  Cu  Cu0  1  0.66666667  0.33333333  0.55233090  1
  Cu  Cu1  1  0.33333333  0.66666667  0.05233090  1
  Sb  Sb2  1  0.33333333  0.66666667  0.46386104  1
  Sb  Sb3  1  0.66666667  0.33333333  0.96386104  1
  Yb  Yb4  1  0.00000000  0.00000000  0.73480806  1
  Yb  Yb5  1  0.00000000  0.00000000  0.23480806  1
