# generated using pymatgen
data_ErNiC2
_symmetry_space_group_name_H-M   'P 1'
_cell_length_a   3.53707352
_cell_length_b   3.74325947
_cell_length_c   3.74325947
_cell_angle_alpha   105.98377890
_cell_angle_beta   90.00000000
_cell_angle_gamma   90.00000000
_symmetry_Int_Tables_number   1
_chemical_formula_structural   ErNiC2
_chemical_formula_sum   'Er1 Ni1 C2'
_cell_volume   47.64538326
_cell_formula_units_Z   1
loop_
 _symmetry_equiv_pos_site_id
 _symmetry_equiv_pos_as_xyz
  1  'x, y, z'
loop_
 _atom_site_type_symbol
 _atom_site_label
 _atom_site_symmetry_multiplicity
 _atom_site_fract_x
 _atom_site_fract_y
 _atom_site_fract_z
 _atom_site_occupancy
  C  C0  1  0.50000000  0.45490953  0.85026303  1
  C  C1  1  0.50000000  0.14973697  0.54509047  1
  Ni  Ni2  1  0.50000000  0.61383784  0.38616216  1
  Er  Er3  1  0.00000000  0.00251566  0.99748434  1
