# generated using pymatgen
data_LiCuPO4
_symmetry_space_group_name_H-M   'P 1'
_cell_length_a   4.26697309
_cell_length_b   15.00417814
_cell_length_c   4.58328237
_cell_angle_alpha   90.00000000
_cell_angle_beta   90.00000000
_cell_angle_gamma   90.00000000
_symmetry_Int_Tables_number   1
_chemical_formula_structural   LiCuPO4
_chemical_formula_sum   'Li4 Cu4 P4 O16'
_cell_volume   293.43284886
_cell_formula_units_Z   4
loop_
 _symmetry_equiv_pos_site_id
 _symmetry_equiv_pos_as_xyz
  1  'x, y, z'
loop_
 _atom_site_type_symbol
 _atom_site_label
 _atom_site_symmetry_multiplicity
 _atom_site_fract_x
 _atom_site_fract_y
 _atom_site_fract_z
 _atom_site_occupancy
  Li  Li0  1  0.00000000  0.24705821  0.75000000  1
  Li  Li1  1  0.00000000  0.75294179  0.25000000  1
  Li  Li2  1  0.50000000  0.25294179  0.25000000  1
  Li  Li3  1  0.50000000  0.74705821  0.75000000  1
  Cu  Cu4  1  0.00000000  0.07105695  0.25000000  1
  Cu  Cu5  1  0.00000000  0.92894305  0.75000000  1
  Cu  Cu6  1  0.50000000  0.42894305  0.75000000  1
  Cu  Cu7  1  0.50000000  0.57105695  0.25000000  1
  P  P8  1  0.00000000  0.38640475  0.25000000  1
  P  P9  1  0.00000000  0.61359525  0.75000000  1
  P  P10  1  0.50000000  0.88640475  0.25000000  1
  P  P11  1  0.50000000  0.11359525  0.75000000  1
  O  O12  1  0.19013870  0.32754023  0.46709467  1
  O  O13  1  0.19013870  0.67245977  0.96709467  1
  O  O14  1  0.26574821  0.05443436  0.57798494  1
  O  O15  1  0.26574821  0.94556564  0.07798494  1
  O  O16  1  0.23425179  0.44556564  0.07798494  1
  O  O17  1  0.23425179  0.55443436  0.57798494  1
  O  O18  1  0.30986130  0.17245977  0.96709467  1
  O  O19  1  0.30986130  0.82754023  0.46709467  1
  O  O20  1  0.69013870  0.17245977  0.53290533  1
  O  O21  1  0.69013870  0.82754023  0.03290533  1
  O  O22  1  0.76574821  0.55443436  0.92201506  1
  O  O23  1  0.76574821  0.44556564  0.42201506  1
  O  O24  1  0.73425179  0.05443436  0.92201506  1
  O  O25  1  0.73425179  0.94556564  0.42201506  1
  O  O26  1  0.80986130  0.32754023  0.03290533  1
  O  O27  1  0.80986130  0.67245977  0.53290533  1
