# generated using pymatgen
data_LaSi4Ni9
_symmetry_space_group_name_H-M   'P 1'
_cell_length_a   7.85205135
_cell_length_b   7.85205135
_cell_length_c   7.97384890
_cell_angle_alpha   119.49599281
_cell_angle_beta   119.49599278
_cell_angle_gamma   90.00000000
_symmetry_Int_Tables_number   1
_chemical_formula_structural   LaSi4Ni9
_chemical_formula_sum   'La2 Si8 Ni18'
_cell_volume   352.86166173
_cell_formula_units_Z   2
loop_
 _symmetry_equiv_pos_site_id
 _symmetry_equiv_pos_as_xyz
  1  'x, y, z'
loop_
 _atom_site_type_symbol
 _atom_site_label
 _atom_site_symmetry_multiplicity
 _atom_site_fract_x
 _atom_site_fract_y
 _atom_site_fract_z
 _atom_site_occupancy
  Si  Si0  1  0.94702352  0.44702352  0.23455767  1
  Si  Si1  1  0.71246585  0.21246585  0.76544233  1
  Si  Si2  1  0.55297648  0.71246585  0.76544233  1
  Si  Si3  1  0.78753415  0.94702352  0.23455767  1
  Si  Si4  1  0.44702352  0.28753415  0.23455767  1
  Si  Si5  1  0.28753415  0.78753415  0.23455767  1
  Si  Si6  1  0.05297648  0.55297648  0.76544233  1
  Si  Si7  1  0.21246585  0.05297648  0.76544233  1
  Ni  Ni8  1  0.70429443  0.56885295  0.00000000  1
  Ni  Ni9  1  0.93114705  0.79570557  0.00000000  1
  Ni  Ni10  1  0.81570420  0.31570420  0.36959042  1
  Ni  Ni11  1  0.05388622  0.81570420  0.36959042  1
  Ni  Ni12  1  0.29570557  0.43114705  0.00000000  1
  Ni  Ni13  1  0.94611378  0.18429580  0.63040958  1
  Ni  Ni14  1  0.68429580  0.44611378  0.63040958  1
  Ni  Ni15  1  0.44611378  0.94611378  0.63040958  1
  Ni  Ni16  1  0.18429580  0.68429580  0.63040958  1
  Ni  Ni17  1  0.55388622  0.05388622  0.36959042  1
  Ni  Ni18  1  0.00000000  0.50000000  0.00000000  1
  Ni  Ni19  1  0.50000000  0.00000000  0.00000000  1
  Ni  Ni20  1  0.56885295  0.29570557  0.00000000  1
  Ni  Ni21  1  0.20429443  0.93114705  0.00000000  1
  Ni  Ni22  1  0.79570557  0.06885295  0.00000000  1
  Ni  Ni23  1  0.06885295  0.20429443  0.00000000  1
  Ni  Ni24  1  0.31570420  0.55388622  0.36959042  1
  Ni  Ni25  1  0.43114705  0.70429443  0.00000000  1
  La  La26  1  0.75000000  0.75000000  0.50000000  1
  La  La27  1  0.25000000  0.25000000  0.50000000  1
