# generated using pymatgen
data_Li4SiO4
_symmetry_space_group_name_H-M   'P 1'
_cell_length_a   5.06460719
_cell_length_b   5.07254501
_cell_length_c   7.60098054
_cell_angle_alpha   82.74489934
_cell_angle_beta   71.01188633
_cell_angle_gamma   68.36021390
_symmetry_Int_Tables_number   1
_chemical_formula_structural   Li4SiO4
_chemical_formula_sum   'Li8 Si2 O8'
_cell_volume   171.62883501
_cell_formula_units_Z   2
loop_
 _symmetry_equiv_pos_site_id
 _symmetry_equiv_pos_as_xyz
  1  'x, y, z'
loop_
 _atom_site_type_symbol
 _atom_site_label
 _atom_site_symmetry_multiplicity
 _atom_site_fract_x
 _atom_site_fract_y
 _atom_site_fract_z
 _atom_site_occupancy
  Li  Li0  1  0.76159867  0.73638883  0.00648257  1
  Li  Li1  1  0.23840133  0.26361117  0.99351743  1
  Li  Li2  1  0.51063884  0.76312950  0.44306246  1
  Li  Li3  1  0.48936116  0.23687050  0.55693754  1
  Li  Li4  1  0.07617741  0.24943489  0.40825060  1
  Li  Li5  1  0.92382259  0.75056511  0.59174940  1
  Li  Li6  1  0.61140317  0.21391427  0.19213088  1
  Li  Li7  1  0.38859683  0.78608573  0.80786912  1
  O  O8  1  0.63695579  0.01483519  0.80618918  1
  O  O9  1  0.36304421  0.98516481  0.19381082  1
  O  O10  1  0.29986530  0.51961687  0.37350389  1
  O  O11  1  0.70013470  0.48038313  0.62649611  1
  O  O12  1  0.82094446  0.96962282  0.36776840  1
  O  O13  1  0.17905554  0.03037718  0.63223160  1
  O  O14  1  0.15007966  0.66467695  0.04888735  1
  O  O15  1  0.84992034  0.33532305  0.95111265  1
  Si  Si16  1  0.84123292  0.21855908  0.76301970  1
  Si  Si17  1  0.15876708  0.78144092  0.23698030  1
