# generated using pymatgen
data_Dy2Fe2Si2C
_symmetry_space_group_name_H-M   'P 1'
_cell_length_a   3.92691638
_cell_length_b   5.63683261
_cell_length_c   5.65084330
_cell_angle_alpha   73.31639925
_cell_angle_beta   69.66778923
_cell_angle_gamma   69.61500931
_symmetry_Int_Tables_number   1
_chemical_formula_structural   Dy2Fe2Si2C
_chemical_formula_sum   'Dy2 Fe2 Si2 C1'
_cell_volume   107.96468074
_cell_formula_units_Z   1
loop_
 _symmetry_equiv_pos_site_id
 _symmetry_equiv_pos_as_xyz
  1  'x, y, z'
loop_
 _atom_site_type_symbol
 _atom_site_label
 _atom_site_symmetry_multiplicity
 _atom_site_fract_x
 _atom_site_fract_y
 _atom_site_fract_z
 _atom_site_occupancy
  C  C0  1  0.50000000  0.50000000  0.50000000  1
  Si  Si1  1  0.66216772  0.89250028  0.78316427  1
  Si  Si2  1  0.33783228  0.10749972  0.21683573  1
  Fe  Fe3  1  0.29891153  0.80664283  0.59553411  1
  Fe  Fe4  1  0.70108847  0.19335717  0.40446589  1
  Dy  Dy5  1  0.05904394  0.67553771  0.20637441  1
  Dy  Dy6  1  0.94095606  0.32446229  0.79362559  1
