# generated using pymatgen
data_PrCuSe2
_symmetry_space_group_name_H-M   'P 1'
_cell_length_a   6.78475717
_cell_length_b   7.24848887
_cell_length_c   7.55121588
_cell_angle_alpha   90.00000000
_cell_angle_beta   90.00000000
_cell_angle_gamma   96.64620261
_symmetry_Int_Tables_number   1
_chemical_formula_structural   PrCuSe2
_chemical_formula_sum   'Pr4 Cu4 Se8'
_cell_volume   368.86738497
_cell_formula_units_Z   4
loop_
 _symmetry_equiv_pos_site_id
 _symmetry_equiv_pos_as_xyz
  1  'x, y, z'
loop_
 _atom_site_type_symbol
 _atom_site_label
 _atom_site_symmetry_multiplicity
 _atom_site_fract_x
 _atom_site_fract_y
 _atom_site_fract_z
 _atom_site_occupancy
  Cu  Cu0  1  0.06842730  0.54628381  0.83932124  1
  Cu  Cu1  1  0.93157270  0.45371619  0.16067876  1
  Cu  Cu2  1  0.06842730  0.04628381  0.66067876  1
  Cu  Cu3  1  0.93157270  0.95371619  0.33932124  1
  Se  Se4  1  0.41641825  0.00203351  0.72360765  1
  Se  Se5  1  0.41641825  0.50203351  0.77639235  1
  Se  Se6  1  0.58358175  0.49796649  0.22360765  1
  Se  Se7  1  0.58358175  0.99796649  0.27639235  1
  Se  Se8  1  0.90329847  0.72164252  0.61203653  1
  Se  Se9  1  0.09670153  0.77835748  0.11203653  1
  Se  Se10  1  0.09670153  0.27835748  0.38796347  1
  Se  Se11  1  0.90329847  0.22164252  0.88796347  1
  Pr  Pr12  1  0.69296587  0.29934400  0.54612673  1
  Pr  Pr13  1  0.30703413  0.20065600  0.04612673  1
  Pr  Pr14  1  0.30703413  0.70065600  0.45387327  1
  Pr  Pr15  1  0.69296587  0.79934400  0.95387327  1
