# generated using pymatgen
data_SmCuSe2
_symmetry_space_group_name_H-M   'P 1'
_cell_length_a   6.68792834
_cell_length_b   7.17178321
_cell_length_c   7.43832560
_cell_angle_alpha   90.00000000
_cell_angle_beta   90.00000000
_cell_angle_gamma   96.31049610
_symmetry_Int_Tables_number   1
_chemical_formula_structural   SmCuSe2
_chemical_formula_sum   'Sm4 Cu4 Se8'
_cell_volume   354.61286168
_cell_formula_units_Z   4
loop_
 _symmetry_equiv_pos_site_id
 _symmetry_equiv_pos_as_xyz
  1  'x, y, z'
loop_
 _atom_site_type_symbol
 _atom_site_label
 _atom_site_symmetry_multiplicity
 _atom_site_fract_x
 _atom_site_fract_y
 _atom_site_fract_z
 _atom_site_occupancy
  Cu  Cu0  1  0.07097602  0.54547310  0.84012244  1
  Cu  Cu1  1  0.92902398  0.45452690  0.15987756  1
  Cu  Cu2  1  0.07097602  0.04547310  0.65987756  1
  Cu  Cu3  1  0.92902398  0.95452690  0.34012244  1
  Se  Se4  1  0.42300286  0.00230134  0.72383920  1
  Se  Se5  1  0.42300286  0.50230134  0.77616080  1
  Se  Se6  1  0.57699714  0.49769866  0.22383920  1
  Se  Se7  1  0.57699714  0.99769866  0.27616080  1
  Se  Se8  1  0.90121192  0.71979180  0.61205902  1
  Se  Se9  1  0.09878808  0.78020820  0.11205902  1
  Se  Se10  1  0.09878808  0.28020820  0.38794098  1
  Se  Se11  1  0.90121192  0.21979180  0.88794098  1
  Sm  Sm12  1  0.69443971  0.29910610  0.54367384  1
  Sm  Sm13  1  0.30556029  0.20089390  0.04367384  1
  Sm  Sm14  1  0.30556029  0.70089390  0.45632616  1
  Sm  Sm15  1  0.69443971  0.79910610  0.95632616  1
