# generated using pymatgen
data_Tm5(SiSb)2
_symmetry_space_group_name_H-M   'P 1'
_cell_length_a   7.74893077
_cell_length_b   7.76709896
_cell_length_c   8.40851400
_cell_angle_alpha   90.00000000
_cell_angle_beta   117.43737655
_cell_angle_gamma   90.00000000
_symmetry_Int_Tables_number   1
_chemical_formula_structural   Tm5(SiSb)2
_chemical_formula_sum   'Tm10 Si4 Sb4'
_cell_volume   449.15430498
_cell_formula_units_Z   2
loop_
 _symmetry_equiv_pos_site_id
 _symmetry_equiv_pos_as_xyz
  1  'x, y, z'
loop_
 _atom_site_type_symbol
 _atom_site_label
 _atom_site_symmetry_multiplicity
 _atom_site_fract_x
 _atom_site_fract_y
 _atom_site_fract_z
 _atom_site_occupancy
  Si  Si0  1  0.63374143  0.13286333  0.00000000  1
  Si  Si1  1  0.13374143  0.36713667  0.00000000  1
  Si  Si2  1  0.86625857  0.63286333  0.00000000  1
  Si  Si3  1  0.36625857  0.86713667  0.00000000  1
  Sb  Sb4  1  0.29429139  0.50000000  0.58858279  1
  Sb  Sb5  1  0.20570861  0.00000000  0.41141721  1
  Sb  Sb6  1  0.70570861  0.50000000  0.41141721  1
  Sb  Sb7  1  0.79429139  0.00000000  0.58858279  1
  Tm  Tm8  1  0.54030823  0.83538146  0.75054708  1
  Tm  Tm9  1  0.28976115  0.66461854  0.24945292  1
  Tm  Tm10  1  0.21023885  0.16461854  0.75054708  1
  Tm  Tm11  1  0.95969177  0.33538146  0.24945292  1
  Tm  Tm12  1  0.71023885  0.33538146  0.75054708  1
  Tm  Tm13  1  0.45969177  0.16461854  0.24945292  1
  Tm  Tm14  1  0.78976115  0.83538146  0.24945292  1
  Tm  Tm15  1  0.04030823  0.66461854  0.75054708  1
  Tm  Tm16  1  0.50000000  0.50000000  0.00000000  1
  Tm  Tm17  1  0.00000000  0.00000000  0.00000000  1
