# generated using pymatgen
data_Ti5Se4
_symmetry_space_group_name_H-M   'P 1'
_cell_length_a   3.49239176
_cell_length_b   7.10113804
_cell_length_c   7.10113804
_cell_angle_alpha   86.53328881
_cell_angle_beta   75.76475609
_cell_angle_gamma   75.76475616
_symmetry_Int_Tables_number   1
_chemical_formula_structural   Ti5Se4
_chemical_formula_sum   'Ti5 Se4'
_cell_volume   165.45890930
_cell_formula_units_Z   1
loop_
 _symmetry_equiv_pos_site_id
 _symmetry_equiv_pos_as_xyz
  1  'x, y, z'
loop_
 _atom_site_type_symbol
 _atom_site_label
 _atom_site_symmetry_multiplicity
 _atom_site_fract_x
 _atom_site_fract_y
 _atom_site_fract_z
 _atom_site_occupancy
  Ti  Ti0  1  0.00000000  0.00000000  0.00000000  1
  Ti  Ti1  1  0.30664903  0.06584443  0.32085752  1
  Ti  Ti2  1  0.62750655  0.67914248  0.06584443  1
  Ti  Ti3  1  0.37249345  0.32085752  0.93415557  1
  Ti  Ti4  1  0.69335097  0.93415557  0.67914248  1
  Se  Se5  1  0.05791704  0.21419747  0.66996845  1
  Se  Se6  1  0.72788549  0.33003155  0.21419747  1
  Se  Se7  1  0.27211451  0.66996845  0.78580253  1
  Se  Se8  1  0.94208296  0.78580253  0.33003155  1
