# generated using pymatgen
data_DySi
_symmetry_space_group_name_H-M   'P 1'
_cell_length_a   3.83479919
_cell_length_b   5.69707894
_cell_length_c   7.91658249
_cell_angle_alpha   90.00000000
_cell_angle_beta   90.00000000
_cell_angle_gamma   90.00000000
_symmetry_Int_Tables_number   1
_chemical_formula_structural   DySi
_chemical_formula_sum   'Dy4 Si4'
_cell_volume   172.95479447
_cell_formula_units_Z   4
loop_
 _symmetry_equiv_pos_site_id
 _symmetry_equiv_pos_as_xyz
  1  'x, y, z'
loop_
 _atom_site_type_symbol
 _atom_site_label
 _atom_site_symmetry_multiplicity
 _atom_site_fract_x
 _atom_site_fract_y
 _atom_site_fract_z
 _atom_site_occupancy
  Si  Si0  1  0.25000000  0.87050372  0.53787305  1
  Si  Si1  1  0.75000000  0.12949628  0.46212695  1
  Si  Si2  1  0.75000000  0.37050372  0.96212695  1
  Si  Si3  1  0.25000000  0.62949628  0.03787305  1
  Dy  Dy4  1  0.25000000  0.38536866  0.67946499  1
  Dy  Dy5  1  0.75000000  0.61463134  0.32053501  1
  Dy  Dy6  1  0.75000000  0.88536866  0.82053501  1
  Dy  Dy7  1  0.25000000  0.11463134  0.17946499  1
