# generated using pymatgen
data_LiCuPO4
_symmetry_space_group_name_H-M   'P 1'
_cell_length_a   7.98880874
_cell_length_b   5.09408311
_cell_length_c   8.58259193
_cell_angle_alpha   90.00000000
_cell_angle_beta   97.75453368
_cell_angle_gamma   90.00000000
_symmetry_Int_Tables_number   1
_chemical_formula_structural   LiCuPO4
_chemical_formula_sum   'Li4 Cu4 P4 O16'
_cell_volume   346.08017155
_cell_formula_units_Z   4
loop_
 _symmetry_equiv_pos_site_id
 _symmetry_equiv_pos_as_xyz
  1  'x, y, z'
loop_
 _atom_site_type_symbol
 _atom_site_label
 _atom_site_symmetry_multiplicity
 _atom_site_fract_x
 _atom_site_fract_y
 _atom_site_fract_z
 _atom_site_occupancy
  Li  Li0  1  0.03837418  0.55970882  0.91818892  1
  Li  Li1  1  0.55100564  0.47100323  0.69081546  1
  Li  Li2  1  0.44899436  0.97100323  0.30918454  1
  Li  Li3  1  0.96162582  0.05970882  0.08181108  1
  Cu  Cu4  1  0.18129396  0.97998997  0.59128377  1
  Cu  Cu5  1  0.40853319  0.55782624  0.09154582  1
  Cu  Cu6  1  0.59146681  0.05782624  0.90845418  1
  Cu  Cu7  1  0.81870604  0.47998997  0.40871623  1
  P  P8  1  0.21595525  0.46623086  0.39637627  1
  P  P9  1  0.27449645  0.05863504  0.95763430  1
  P  P10  1  0.72550355  0.55863504  0.04236570  1
  P  P11  1  0.78404475  0.96623086  0.60362373  1
  O  O12  1  0.02877698  0.46071115  0.32052579  1
  O  O13  1  0.24093247  0.61736795  0.55550161  1
  O  O14  1  0.22638698  0.76761168  0.97380678  1
  O  O15  1  0.13451958  0.23767733  0.99509542  1
  O  O16  1  0.28657056  0.18107615  0.42906459  1
  O  O17  1  0.33562423  0.11206047  0.79492829  1
  O  O18  1  0.32652319  0.61209406  0.28811104  1
  O  O19  1  0.44069479  0.11009105  0.07958182  1
  O  O20  1  0.55930521  0.61009105  0.92041818  1
  O  O21  1  0.67347681  0.11209406  0.71188896  1
  O  O22  1  0.66437577  0.61206047  0.20507171  1
  O  O23  1  0.71342944  0.68107615  0.57093541  1
  O  O24  1  0.86548042  0.73767733  0.00490458  1
  O  O25  1  0.77361302  0.26761168  0.02619322  1
  O  O26  1  0.75906753  0.11736795  0.44449839  1
  O  O27  1  0.97122302  0.96071115  0.67947421  1
