# generated using pymatgen
data_ErCoSn
_symmetry_space_group_name_H-M   'P 1'
_cell_length_a   4.56228859
_cell_length_b   7.18719980
_cell_length_c   7.32130376
_cell_angle_alpha   90.00000000
_cell_angle_beta   90.00000000
_cell_angle_gamma   90.00000000
_symmetry_Int_Tables_number   1
_chemical_formula_structural   ErCoSn
_chemical_formula_sum   'Er4 Co4 Sn4'
_cell_volume   240.06613337
_cell_formula_units_Z   4
loop_
 _symmetry_equiv_pos_site_id
 _symmetry_equiv_pos_as_xyz
  1  'x, y, z'
loop_
 _atom_site_type_symbol
 _atom_site_label
 _atom_site_symmetry_multiplicity
 _atom_site_fract_x
 _atom_site_fract_y
 _atom_site_fract_z
 _atom_site_occupancy
  Co  Co0  1  0.75000000  0.84084512  0.44086350  1
  Co  Co1  1  0.25000000  0.15915488  0.55913650  1
  Co  Co2  1  0.75000000  0.34084512  0.05913650  1
  Co  Co3  1  0.25000000  0.65915488  0.94086350  1
  Sn  Sn4  1  0.75000000  0.70363854  0.10722071  1
  Sn  Sn5  1  0.25000000  0.79636146  0.60722071  1
  Sn  Sn6  1  0.25000000  0.29636146  0.89277929  1
  Sn  Sn7  1  0.75000000  0.20363854  0.39277929  1
  Er  Er8  1  0.25000000  0.47835697  0.29784976  1
  Er  Er9  1  0.25000000  0.97835697  0.20215024  1
  Er  Er10  1  0.75000000  0.02164303  0.79784976  1
  Er  Er11  1  0.75000000  0.52164303  0.70215024  1
