# generated using pymatgen
data_BaAg
_symmetry_space_group_name_H-M   'P 1'
_cell_length_a   5.02148186
_cell_length_b   6.74662138
_cell_length_c   8.79466622
_cell_angle_alpha   90.00000000
_cell_angle_beta   90.00000000
_cell_angle_gamma   90.00000000
_symmetry_Int_Tables_number   1
_chemical_formula_structural   BaAg
_chemical_formula_sum   'Ba4 Ag4'
_cell_volume   297.94602651
_cell_formula_units_Z   4
loop_
 _symmetry_equiv_pos_site_id
 _symmetry_equiv_pos_as_xyz
  1  'x, y, z'
loop_
 _atom_site_type_symbol
 _atom_site_label
 _atom_site_symmetry_multiplicity
 _atom_site_fract_x
 _atom_site_fract_y
 _atom_site_fract_z
 _atom_site_occupancy
  Ag  Ag0  1  0.25000000  0.61697965  0.03381457  1
  Ag  Ag1  1  0.75000000  0.38302035  0.96618543  1
  Ag  Ag2  1  0.75000000  0.11697965  0.46618543  1
  Ag  Ag3  1  0.25000000  0.88302035  0.53381457  1
  Ba  Ba4  1  0.25000000  0.13305120  0.18080408  1
  Ba  Ba5  1  0.75000000  0.86694880  0.81919592  1
  Ba  Ba6  1  0.75000000  0.63305120  0.31919592  1
  Ba  Ba7  1  0.25000000  0.36694880  0.68080408  1
