# generated using pymatgen
data_Ho6GaCo2
_symmetry_space_group_name_H-M   'P 1'
_cell_length_a   8.22937861
_cell_length_b   8.22937862
_cell_length_c   8.22937862
_cell_angle_alpha   106.90149763
_cell_angle_beta   109.61446310
_cell_angle_gamma   111.93678749
_symmetry_Int_Tables_number   1
_chemical_formula_structural   Ho6GaCo2
_chemical_formula_sum   'Ho12 Ga2 Co4'
_cell_volume   428.19343198
_cell_formula_units_Z   2
loop_
 _symmetry_equiv_pos_site_id
 _symmetry_equiv_pos_as_xyz
  1  'x, y, z'
loop_
 _atom_site_type_symbol
 _atom_site_label
 _atom_site_symmetry_multiplicity
 _atom_site_fract_x
 _atom_site_fract_y
 _atom_site_fract_z
 _atom_site_occupancy
  Co  Co0  1  0.00000000  0.11517448  0.11517448  1
  Co  Co1  1  0.00000000  0.88482552  0.88482552  1
  Co  Co2  1  0.16367565  0.50000000  0.66367565  1
  Co  Co3  1  0.83632435  0.50000000  0.33632435  1
  Ga  Ga4  1  0.50000000  0.50000000  0.00000000  1
  Ga  Ga5  1  0.50000000  0.00000000  0.50000000  1
  Ho  Ho6  1  0.69711118  0.26128196  0.95839314  1
  Ho  Ho7  1  0.30288882  0.73871804  0.04160686  1
  Ho  Ho8  1  0.81196650  0.48551937  0.67355286  1
  Ho  Ho9  1  0.81196650  0.13841364  0.32644714  1
  Ho  Ho10  1  0.18803350  0.51448063  0.32644714  1
  Ho  Ho11  1  0.18803350  0.86158636  0.67355286  1
  Ho  Ho12  1  0.30288882  0.26128196  0.56417078  1
  Ho  Ho13  1  0.69711118  0.73871804  0.43582922  1
  Ho  Ho14  1  0.40015440  0.21941482  0.18073958  1
  Ho  Ho15  1  0.03867524  0.21941482  0.81926042  1
  Ho  Ho16  1  0.96132476  0.78058518  0.18073958  1
  Ho  Ho17  1  0.59984560  0.78058518  0.81926042  1
