# generated using pymatgen
data_La2C3
_symmetry_space_group_name_H-M   'P 1'
_cell_length_a   7.63737590
_cell_length_b   7.63737590
_cell_length_c   7.63737590
_cell_angle_alpha   109.47122065
_cell_angle_beta   109.47122066
_cell_angle_gamma   109.47122063
_symmetry_Int_Tables_number   1
_chemical_formula_structural   La2C3
_chemical_formula_sum   'La8 C12'
_cell_volume   342.93405000
_cell_formula_units_Z   4
loop_
 _symmetry_equiv_pos_site_id
 _symmetry_equiv_pos_as_xyz
  1  'x, y, z'
loop_
 _atom_site_type_symbol
 _atom_site_label
 _atom_site_symmetry_multiplicity
 _atom_site_fract_x
 _atom_site_fract_y
 _atom_site_fract_z
 _atom_site_occupancy
  C  C0  1  0.75000000  0.79960062  0.04960062  1
  C  C1  1  0.75000000  0.95039938  0.20039938  1
  C  C2  1  0.29960062  0.25000000  0.54960062  1
  C  C3  1  0.54960062  0.29960062  0.25000000  1
  C  C4  1  0.20039938  0.75000000  0.95039938  1
  C  C5  1  0.95039938  0.20039938  0.75000000  1
  C  C6  1  0.25000000  0.70039938  0.45039938  1
  C  C7  1  0.70039938  0.45039938  0.25000000  1
  C  C8  1  0.25000000  0.54960062  0.29960062  1
  C  C9  1  0.45039938  0.25000000  0.70039938  1
  C  C10  1  0.04960062  0.75000000  0.79960062  1
  C  C11  1  0.79960062  0.04960062  0.75000000  1
  La  La12  1  0.60441533  0.60441533  0.60441533  1
  La  La13  1  0.39558467  0.50000000  0.00000000  1
  La  La14  1  0.50000000  0.00000000  0.39558467  1
  La  La15  1  0.00000000  0.39558467  0.50000000  1
  La  La16  1  0.50000000  0.00000000  0.89558467  1
  La  La17  1  0.00000000  0.89558467  0.50000000  1
  La  La18  1  0.89558467  0.50000000  0.00000000  1
  La  La19  1  0.10441533  0.10441533  0.10441533  1
