# generated using pymatgen
data_Li3CuSiO4
_symmetry_space_group_name_H-M   'P 1'
_cell_length_a   9.97915635
_cell_length_b   9.97915635
_cell_length_c   9.97915635
_cell_angle_alpha   114.83263491
_cell_angle_beta   114.83263491
_cell_angle_gamma   99.21048654
_symmetry_Int_Tables_number   1
_chemical_formula_structural   Li3CuSiO4
_chemical_formula_sum   'Li24 Cu8 Si8 O32'
_cell_volume   747.08717721
_cell_formula_units_Z   8
loop_
 _symmetry_equiv_pos_site_id
 _symmetry_equiv_pos_as_xyz
  1  'x, y, z'
loop_
 _atom_site_type_symbol
 _atom_site_label
 _atom_site_symmetry_multiplicity
 _atom_site_fract_x
 _atom_site_fract_y
 _atom_site_fract_z
 _atom_site_occupancy
  Li  Li0  1  0.96577223  0.09915659  0.19125101  1
  Li  Li1  1  0.78422777  0.15084341  0.30874899  1
  Li  Li2  1  0.84915659  0.15790559  0.63338437  1
  Li  Li3  1  0.22547878  0.03422777  0.13338437  1
  Li  Li4  1  0.72417021  0.55728268  0.14005764  1
  Li  Li5  1  0.43763763  0.29974989  0.13965101  1
  Li  Li6  1  0.52452122  0.21577223  0.36661563  1
  Li  Li7  1  0.90084341  0.09209441  0.86661563  1
  Li  Li8  1  0.70025011  0.83990112  0.13788774  1
  Li  Li9  1  0.44271732  0.58277596  0.16688753  1
  Li  Li10  1  0.84209441  0.47547878  0.69125101  1
  Li  Li11  1  0.90790559  0.77452122  0.80874899  1
  Li  Li12  1  0.41588743  0.27582979  0.83311247  1
  Li  Li13  1  0.30728268  0.66722404  0.33311247  1
  Li  Li14  1  0.70201338  0.56236237  0.86211226  1
  Li  Li15  1  0.04974989  0.41009888  0.36211226  1
  Li  Li16  1  0.33277596  0.66588743  0.64005764  1
  Li  Li17  1  0.58990112  0.95201338  0.63965101  1
  Li  Li18  1  0.31236237  0.95025011  0.36034899  1
  Li  Li19  1  0.16009888  0.29798662  0.86034899  1
  Li  Li20  1  0.02582979  0.69271732  0.35994236  1
  Li  Li21  1  0.41722404  0.58411257  0.85994236  1
  Li  Li22  1  0.04798662  0.68763763  0.63788774  1
  Li  Li23  1  0.33411257  0.97417021  0.66688753  1
  Cu  Cu24  1  0.82536625  0.31671546  0.04459038  1
  Cu  Cu25  1  0.21922413  0.17463375  0.49134921  1
  Cu  Cu26  1  0.06671546  0.52212508  0.99134921  1
  Cu  Cu27  1  0.92463375  0.93328454  0.45540962  1
  Cu  Cu28  1  0.47787492  0.46922413  0.54459038  1
  Cu  Cu29  1  0.53077587  0.07536625  0.00865079  1
  Cu  Cu30  1  0.68328454  0.72787492  0.50865079  1
  Cu  Cu31  1  0.27212508  0.78077587  0.95540962  1
  Si  Si32  1  0.00515073  0.78800636  0.15106084  1
  Si  Si33  1  0.74484927  0.46199364  0.34893916  1
  Si  Si34  1  0.21199364  0.36305448  0.21714437  1
  Si  Si35  1  0.60409089  0.25515073  0.71714437  1
  Si  Si36  1  0.14590911  0.99484927  0.78285563  1
  Si  Si37  1  0.53800636  0.88694552  0.28285563  1
  Si  Si38  1  0.11305448  0.39590911  0.65106084  1
  Si  Si39  1  0.63694552  0.85409089  0.84893916  1
  O  O40  1  0.72914860  0.00495766  0.37953019  1
  O  O41  1  0.65038158  0.27085140  0.27580805  1
  O  O42  1  0.88390201  0.48983720  0.30088789  1
  O  O43  1  0.86609799  0.76016280  0.19911211  1
  O  O44  1  0.99504234  0.37457353  0.72419195  1
  O  O45  1  0.60655097  0.51398585  0.24340352  1
  O  O46  1  0.73400166  0.17129124  0.75385934  1
  O  O47  1  0.33256810  0.26985767  0.25385934  1
  O  O48  1  0.23983720  0.43894930  0.10593518  1
  O  O49  1  0.41698588  0.11609799  0.60593518  1
  O  O50  1  0.82870876  0.58256810  0.56271042  1
  O  O51  1  0.73014233  0.98400166  0.06271042  1
  O  O52  1  0.02085140  0.24504234  0.12046981  1
  O  O53  1  0.62542647  0.34961842  0.62046981  1
  O  O54  1  0.48601415  0.72941766  0.09256512  1
  O  O55  1  0.26398585  0.52058234  0.40743488  1
  O  O56  1  0.63685255  0.39344903  0.90743488  1
  O  O57  1  0.92129124  0.66743190  0.93728958  1
  O  O58  1  0.01985767  0.26599834  0.43728958  1
  O  O59  1  0.51016280  0.81105070  0.39406482  1
  O  O60  1  0.33301412  0.13390201  0.89406482  1
  O  O61  1  0.01599834  0.07870876  0.74614066  1
  O  O62  1  0.41743190  0.98014233  0.24614066  1
  O  O63  1  0.14344903  0.73601415  0.25659648  1
  O  O64  1  0.27058234  0.36314745  0.75659648  1
  O  O65  1  0.75495766  0.87542647  0.77580805  1
  O  O66  1  0.56105070  0.66698588  0.80088789  1
  O  O67  1  0.18894930  0.58301412  0.69911211  1
  O  O68  1  0.09961842  0.97914860  0.22419195  1
  O  O69  1  0.47941766  0.88685255  0.74340352  1
  O  O70  1  0.11314745  0.85655097  0.59256512  1
  O  O71  1  0.12457353  0.90038158  0.87953019  1
