# generated using pymatgen
data_ReTc
_symmetry_space_group_name_H-M   'P 1'
_cell_length_a   2.76928015
_cell_length_b   2.76929693
_cell_length_c   4.46464381
_cell_angle_alpha   89.98693078
_cell_angle_beta   90.01299178
_cell_angle_gamma   120.00160318
_symmetry_Int_Tables_number   1
_chemical_formula_structural   ReTc
_chemical_formula_sum   'Re1 Tc1'
_cell_volume   29.65151126
_cell_formula_units_Z   1
loop_
 _symmetry_equiv_pos_site_id
 _symmetry_equiv_pos_as_xyz
  1  'x, y, z'
loop_
 _atom_site_type_symbol
 _atom_site_label
 _atom_site_symmetry_multiplicity
 _atom_site_fract_x
 _atom_site_fract_y
 _atom_site_fract_z
 _atom_site_occupancy
  Re  Re0  1  0.66666029  0.33334340  0.75000242  1
  Tc  Tc1  1  0.33333971  0.66665460  0.24999958  1
