# generated using pymatgen
data_K2U3(TeO7)2
_symmetry_space_group_name_H-M   'P 1'
_cell_length_a   7.12017094
_cell_length_b   7.01207676
_cell_length_c   8.14767617
_cell_angle_alpha   102.13105663
_cell_angle_beta   106.40659178
_cell_angle_gamma   97.58858864
_symmetry_Int_Tables_number   1
_chemical_formula_structural   K2U3(TeO7)2
_chemical_formula_sum   'K2 U3 Te2 O14'
_cell_volume   373.48196344
_cell_formula_units_Z   1
loop_
 _symmetry_equiv_pos_site_id
 _symmetry_equiv_pos_as_xyz
  1  'x, y, z'
loop_
 _atom_site_type_symbol
 _atom_site_label
 _atom_site_symmetry_multiplicity
 _atom_site_fract_x
 _atom_site_fract_y
 _atom_site_fract_z
 _atom_site_occupancy
  O  O0  1  0.23611410  0.03056626  0.94503793  1
  O  O1  1  0.76388590  0.96943374  0.05496207  1
  O  O2  1  0.60546924  0.38743324  0.82902976  1
  O  O3  1  0.39453076  0.61256676  0.17097024  1
  O  O4  1  0.05183996  0.39397751  0.67914778  1
  O  O5  1  0.94816004  0.60602249  0.32085222  1
  O  O6  1  0.99608314  0.32023276  0.02392440  1
  O  O7  1  0.17963816  0.96336440  0.27491213  1
  O  O8  1  0.82036184  0.03663560  0.72508787  1
  O  O9  1  0.26429902  0.36650346  0.37424231  1
  O  O10  1  0.73570098  0.63349654  0.62575769  1
  O  O11  1  0.58988682  0.18393662  0.47624087  1
  O  O12  1  0.41011318  0.81606338  0.52375913  1
  O  O13  1  0.00391686  0.67976724  0.97607560  1
  K  K14  1  0.39687766  0.70325508  0.84434025  1
  K  K15  1  0.60312234  0.29674492  0.15565975  1
  Te  Te16  1  0.67555543  0.83676403  0.50892007  1
  Te  Te17  1  0.32444457  0.16323597  0.49107993  1
  U  U18  1  0.83482380  0.39790684  0.75963023  1
  U  U19  1  0.16517620  0.60209316  0.24036977  1
  U  U20  1  0.00000000  0.00000000  0.00000000  1
