# generated using pymatgen
data_HoNi
_symmetry_space_group_name_H-M   'P 1'
_cell_length_a   4.14759143
_cell_length_b   5.40294120
_cell_length_c   7.00546043
_cell_angle_alpha   90.00000000
_cell_angle_beta   90.00000000
_cell_angle_gamma   90.00000000
_symmetry_Int_Tables_number   1
_chemical_formula_structural   HoNi
_chemical_formula_sum   'Ho4 Ni4'
_cell_volume   156.98671215
_cell_formula_units_Z   4
loop_
 _symmetry_equiv_pos_site_id
 _symmetry_equiv_pos_as_xyz
  1  'x, y, z'
loop_
 _atom_site_type_symbol
 _atom_site_label
 _atom_site_symmetry_multiplicity
 _atom_site_fract_x
 _atom_site_fract_y
 _atom_site_fract_z
 _atom_site_occupancy
  Ni  Ni0  1  0.25000000  0.87281802  0.53726099  1
  Ni  Ni1  1  0.75000000  0.12718198  0.46273901  1
  Ni  Ni2  1  0.75000000  0.37281802  0.96273901  1
  Ni  Ni3  1  0.25000000  0.62718198  0.03726099  1
  Ho  Ho4  1  0.25000000  0.36655003  0.68014896  1
  Ho  Ho5  1  0.75000000  0.63344997  0.31985104  1
  Ho  Ho6  1  0.75000000  0.86655003  0.81985104  1
  Ho  Ho7  1  0.25000000  0.13344997  0.18014896  1
