# generated using pymatgen
data_LiCuPO4
_symmetry_space_group_name_H-M   'P 1'
_cell_length_a   5.54060342
_cell_length_b   9.30232569
_cell_length_c   6.09211194
_cell_angle_alpha   90.00000000
_cell_angle_beta   90.00000000
_cell_angle_gamma   93.23100369
_symmetry_Int_Tables_number   1
_chemical_formula_structural   LiCuPO4
_chemical_formula_sum   'Li4 Cu4 P4 O16'
_cell_volume   313.49136480
_cell_formula_units_Z   4
loop_
 _symmetry_equiv_pos_site_id
 _symmetry_equiv_pos_as_xyz
  1  'x, y, z'
loop_
 _atom_site_type_symbol
 _atom_site_label
 _atom_site_symmetry_multiplicity
 _atom_site_fract_x
 _atom_site_fract_y
 _atom_site_fract_z
 _atom_site_occupancy
  Li  Li0  1  0.15407683  0.92994458  0.63904525  1
  Li  Li1  1  0.34592317  0.57005542  0.13904525  1
  Li  Li2  1  0.65407683  0.42994458  0.86095475  1
  Li  Li3  1  0.84592317  0.07005542  0.36095475  1
  Cu  Cu4  1  0.15212358  0.35761638  0.61385588  1
  Cu  Cu5  1  0.34787642  0.14238362  0.11385588  1
  Cu  Cu6  1  0.65212358  0.85761638  0.88614412  1
  Cu  Cu7  1  0.84787642  0.64238362  0.38614412  1
  P  P8  1  0.27579613  0.63268865  0.64687104  1
  P  P9  1  0.22420387  0.86731135  0.14687104  1
  P  P10  1  0.77579613  0.13268865  0.85312896  1
  P  P11  1  0.72420387  0.36731135  0.35312896  1
  O  O12  1  0.04544923  0.72303829  0.63955058  1
  O  O13  1  0.99837361  0.76295763  0.15546885  1
  O  O14  1  0.26166691  0.53399915  0.43826554  1
  O  O15  1  0.27879249  0.51703950  0.83463841  1
  O  O16  1  0.22120751  0.98296050  0.33463841  1
  O  O17  1  0.23833309  0.96600085  0.93826554  1
  O  O18  1  0.54544923  0.22303829  0.86044942  1
  O  O19  1  0.49837361  0.26295763  0.34453115  1
  O  O20  1  0.50162639  0.73704237  0.65546885  1
  O  O21  1  0.45455077  0.77696171  0.13955058  1
  O  O22  1  0.76166691  0.03399915  0.06173446  1
  O  O23  1  0.77879249  0.01703950  0.66536159  1
  O  O24  1  0.72120751  0.48296050  0.16536159  1
  O  O25  1  0.73833309  0.46600085  0.56173446  1
  O  O26  1  0.00162639  0.23704237  0.84453115  1
  O  O27  1  0.95455077  0.27696171  0.36044942  1
