# generated using pymatgen
data_Ho2SiPd2
_symmetry_space_group_name_H-M   'P 1'
_cell_length_a   4.13659783
_cell_length_b   7.52682233
_cell_length_c   13.80300843
_cell_angle_alpha   90.00000000
_cell_angle_beta   90.00000000
_cell_angle_gamma   90.00000000
_symmetry_Int_Tables_number   1
_chemical_formula_structural   Ho2SiPd2
_chemical_formula_sum   'Ho8 Si4 Pd8'
_cell_volume   429.76269824
_cell_formula_units_Z   4
loop_
 _symmetry_equiv_pos_site_id
 _symmetry_equiv_pos_as_xyz
  1  'x, y, z'
loop_
 _atom_site_type_symbol
 _atom_site_label
 _atom_site_symmetry_multiplicity
 _atom_site_fract_x
 _atom_site_fract_y
 _atom_site_fract_z
 _atom_site_occupancy
  Ho  Ho0  1  0.50000000  0.03948467  0.37421116  1
  Ho  Ho1  1  0.50000000  0.96051533  0.62578884  1
  Ho  Ho2  1  0.00000000  0.53948467  0.12578884  1
  Ho  Ho3  1  -0.00000000  0.46051533  0.87421116  1
  Ho  Ho4  1  0.50000000  0.95049837  0.13111358  1
  Ho  Ho5  1  0.50000000  0.04950163  0.86888642  1
  Ho  Ho6  1  0.00000000  0.45049837  0.36888642  1
  Ho  Ho7  1  -0.00000000  0.54950163  0.63111358  1
  Si  Si8  1  0.50000000  0.65336628  0.47234392  1
  Si  Si9  1  0.50000000  0.34663372  0.52765608  1
  Si  Si10  1  0.00000000  0.15336628  0.02765608  1
  Si  Si11  1  0.00000000  0.84663372  0.97234392  1
  Pd  Pd12  1  0.50000000  0.67231059  0.28104934  1
  Pd  Pd13  1  0.50000000  0.32768941  0.71895066  1
  Pd  Pd14  1  -0.00000000  0.17231059  0.21895066  1
  Pd  Pd15  1  -0.00000000  0.82768941  0.78104934  1
  Pd  Pd16  1  0.50000000  0.67893234  0.98320829  1
  Pd  Pd17  1  0.50000000  0.32106766  0.01679171  1
  Pd  Pd18  1  -0.00000000  0.17893234  0.51679171  1
  Pd  Pd19  1  -0.00000000  0.82106766  0.48320829  1
