# generated using pymatgen
data_LiSm2IrO6
_symmetry_space_group_name_H-M   'P 1'
_cell_length_a   5.39348336
_cell_length_b   5.82053330
_cell_length_c   7.71308231
_cell_angle_alpha   90.00000000
_cell_angle_beta   90.70599457
_cell_angle_gamma   90.00000000
_symmetry_Int_Tables_number   1
_chemical_formula_structural   LiSm2IrO6
_chemical_formula_sum   'Li2 Sm4 Ir2 O12'
_cell_volume   242.11802187
_cell_formula_units_Z   2
loop_
 _symmetry_equiv_pos_site_id
 _symmetry_equiv_pos_as_xyz
  1  'x, y, z'
loop_
 _atom_site_type_symbol
 _atom_site_label
 _atom_site_symmetry_multiplicity
 _atom_site_fract_x
 _atom_site_fract_y
 _atom_site_fract_z
 _atom_site_occupancy
  Li  Li0  1  0.00000000  0.00000000  0.00000000  1
  Li  Li1  1  0.50000000  0.50000000  0.50000000  1
  O  O2  1  0.17557702  0.29131535  0.44320076  1
  O  O3  1  0.32442298  0.79131535  0.05679924  1
  O  O4  1  0.82442298  0.70868465  0.55679924  1
  O  O5  1  0.67557702  0.20868465  0.94320076  1
  O  O6  1  0.10749902  0.03462863  0.74621184  1
  O  O7  1  0.39250098  0.53462863  0.75378816  1
  O  O8  1  0.19595160  0.31468293  0.05166209  1
  O  O9  1  0.30404840  0.81468293  0.44833791  1
  O  O10  1  0.80404840  0.68531707  0.94833791  1
  O  O11  1  0.69595160  0.18531707  0.55166209  1
  O  O12  1  0.60749902  0.46537137  0.24621184  1
  O  O13  1  0.89250098  0.96537137  0.25378816  1
  Sm  Sm14  1  0.47932803  0.07778999  0.25212222  1
  Sm  Sm15  1  0.02067197  0.57778999  0.24787778  1
  Sm  Sm16  1  0.97932803  0.42221001  0.75212222  1
  Sm  Sm17  1  0.52067197  0.92221001  0.74787778  1
  Ir  Ir18  1  0.50000000  0.50000000  0.00000000  1
  Ir  Ir19  1  0.00000000  0.00000000  0.50000000  1
