# generated using pymatgen
data_Lu5Si3
_symmetry_space_group_name_H-M   'P 1'
_cell_length_a   8.23550278
_cell_length_b   8.23550278
_cell_length_c   6.16852503
_cell_angle_alpha   90.00000000
_cell_angle_beta   90.00000000
_cell_angle_gamma   120.00000000
_symmetry_Int_Tables_number   1
_chemical_formula_structural   Lu5Si3
_chemical_formula_sum   'Lu10 Si6'
_cell_volume   362.31990953
_cell_formula_units_Z   2
loop_
 _symmetry_equiv_pos_site_id
 _symmetry_equiv_pos_as_xyz
  1  'x, y, z'
loop_
 _atom_site_type_symbol
 _atom_site_label
 _atom_site_symmetry_multiplicity
 _atom_site_fract_x
 _atom_site_fract_y
 _atom_site_fract_z
 _atom_site_occupancy
  Si  Si0  1  0.39506606  0.00000000  0.75000000  1
  Si  Si1  1  0.39506606  0.39506606  0.25000000  1
  Si  Si2  1  0.00000000  0.60493394  0.25000000  1
  Si  Si3  1  0.00000000  0.39506606  0.75000000  1
  Si  Si4  1  0.60493394  0.60493394  0.75000000  1
  Si  Si5  1  0.60493394  0.00000000  0.25000000  1
  Lu  Lu6  1  0.66666667  0.33333333  0.00000000  1
  Lu  Lu7  1  0.33333333  0.66666667  0.50000000  1
  Lu  Lu8  1  0.33333333  0.66666667  0.00000000  1
  Lu  Lu9  1  0.66666667  0.33333333  0.50000000  1
  Lu  Lu10  1  0.75805941  0.00000000  0.75000000  1
  Lu  Lu11  1  0.75805941  0.75805941  0.25000000  1
  Lu  Lu12  1  0.00000000  0.24194059  0.25000000  1
  Lu  Lu13  1  0.00000000  0.75805941  0.75000000  1
  Lu  Lu14  1  0.24194059  0.24194059  0.75000000  1
  Lu  Lu15  1  0.24194059  0.00000000  0.25000000  1
