# generated using pymatgen
data_LiPr2IrO6
_symmetry_space_group_name_H-M   'P 1'
_cell_length_a   5.48859226
_cell_length_b   5.83676356
_cell_length_c   7.83860687
_cell_angle_alpha   90.00000000
_cell_angle_beta   90.52420654
_cell_angle_gamma   90.00000000
_symmetry_Int_Tables_number   1
_chemical_formula_structural   LiPr2IrO6
_chemical_formula_sum   'Li2 Pr4 Ir2 O12'
_cell_volume   251.10408438
_cell_formula_units_Z   2
loop_
 _symmetry_equiv_pos_site_id
 _symmetry_equiv_pos_as_xyz
  1  'x, y, z'
loop_
 _atom_site_type_symbol
 _atom_site_label
 _atom_site_symmetry_multiplicity
 _atom_site_fract_x
 _atom_site_fract_y
 _atom_site_fract_z
 _atom_site_occupancy
  Li  Li0  1  0.00000000  0.00000000  0.00000000  1
  Li  Li1  1  0.50000000  0.50000000  0.50000000  1
  O  O2  1  0.18229425  0.28706139  0.44942513  1
  O  O3  1  0.31770575  0.78706139  0.05057487  1
  O  O4  1  0.81770575  0.71293861  0.55057487  1
  O  O5  1  0.68229425  0.21293861  0.94942513  1
  O  O6  1  0.09331299  0.02664727  0.74565423  1
  O  O7  1  0.40668701  0.52664727  0.75434577  1
  O  O8  1  0.20303826  0.31075675  0.04660793  1
  O  O9  1  0.29696174  0.81075675  0.45339207  1
  O  O10  1  0.79696174  0.68924325  0.95339207  1
  O  O11  1  0.70303826  0.18924325  0.54660793  1
  O  O12  1  0.59331299  0.47335273  0.24565423  1
  O  O13  1  0.90668701  0.97335273  0.25434577  1
  Pr  Pr14  1  0.48324040  0.07026224  0.25176362  1
  Pr  Pr15  1  0.01675960  0.57026224  0.24823638  1
  Pr  Pr16  1  0.98324040  0.42973776  0.75176362  1
  Pr  Pr17  1  0.51675960  0.92973776  0.74823638  1
  Ir  Ir18  1  0.50000000  0.50000000  0.00000000  1
  Ir  Ir19  1  0.00000000  0.00000000  0.50000000  1
