# generated using pymatgen
data_LiCuPO4
_symmetry_space_group_name_H-M   'P 1'
_cell_length_a   8.57675826
_cell_length_b   7.57794985
_cell_length_c   15.12518336
_cell_angle_alpha   90.00000000
_cell_angle_beta   90.76979340
_cell_angle_gamma   90.00000000
_symmetry_Int_Tables_number   1
_chemical_formula_structural   LiCuPO4
_chemical_formula_sum   'Li12 Cu12 P12 O48'
_cell_volume   982.96113247
_cell_formula_units_Z   12
loop_
 _symmetry_equiv_pos_site_id
 _symmetry_equiv_pos_as_xyz
  1  'x, y, z'
loop_
 _atom_site_type_symbol
 _atom_site_label
 _atom_site_symmetry_multiplicity
 _atom_site_fract_x
 _atom_site_fract_y
 _atom_site_fract_z
 _atom_site_occupancy
  Li  Li0  1  0.22256847  0.97555723  0.93262677  1
  Li  Li1  1  0.23261445  0.02948170  0.58825007  1
  Li  Li2  1  0.25001033  0.90570832  0.24642222  1
  Li  Li3  1  0.24998967  0.40570832  0.25357778  1
  Li  Li4  1  0.26738555  0.52948170  0.91174993  1
  Li  Li5  1  0.27743153  0.47555723  0.56737323  1
  Li  Li6  1  0.72256847  0.52444277  0.43262677  1
  Li  Li7  1  0.73261445  0.47051830  0.08825007  1
  Li  Li8  1  0.75001033  0.59429168  0.74642222  1
  Li  Li9  1  0.74998967  0.09429168  0.75357778  1
  Li  Li10  1  0.76738555  0.97051830  0.41174993  1
  Li  Li11  1  0.77743153  0.02444277  0.06737323  1
  Cu  Cu12  1  0.05882644  0.67287032  0.40566363  1
  Cu  Cu13  1  0.08015726  0.81807006  0.75961137  1
  Cu  Cu14  1  0.09505358  0.67678396  0.07968144  1
  Cu  Cu15  1  0.40494642  0.17678396  0.42031856  1
  Cu  Cu16  1  0.41984274  0.31807006  0.74038863  1
  Cu  Cu17  1  0.44117356  0.17287032  0.09433637  1
  Cu  Cu18  1  0.55882644  0.82712968  0.90566363  1
  Cu  Cu19  1  0.58015726  0.68192994  0.25961137  1
  Cu  Cu20  1  0.59505358  0.82321604  0.57968144  1
  Cu  Cu21  1  0.90494642  0.32321604  0.92031856  1
  Cu  Cu22  1  0.91984274  0.18192994  0.24038863  1
  Cu  Cu23  1  0.94117356  0.32712968  0.59433637  1
  P  P24  1  0.05415704  0.26805678  0.40987479  1
  P  P25  1  0.08164370  0.22347844  0.77006417  1
  P  P26  1  0.10735981  0.27190126  0.07584354  1
  P  P27  1  0.39264019  0.77190126  0.42415646  1
  P  P28  1  0.41835630  0.72347844  0.72993583  1
  P  P29  1  0.44584296  0.76805678  0.09012521  1
  P  P30  1  0.55415704  0.23194322  0.90987479  1
  P  P31  1  0.58164370  0.27652156  0.27006417  1
  P  P32  1  0.60735981  0.22809874  0.57584354  1
  P  P33  1  0.89264019  0.72809874  0.92415646  1
  P  P34  1  0.91835630  0.77652156  0.22993583  1
  P  P35  1  0.94584296  0.73194322  0.59012521  1
  O  O36  1  0.04263096  0.55933400  0.60468625  1
  O  O37  1  0.04579411  0.88259868  0.63094952  1
  O  O38  1  0.06181110  0.76651432  0.95838176  1
  O  O39  1  0.08507087  0.04702498  0.82325687  1
  O  O40  1  0.08735846  0.37187483  0.84057565  1
  O  O41  1  0.07371593  0.76674137  0.28450225  1
  O  O42  1  0.08910970  0.23517304  0.50974607  1
  O  O43  1  0.10148009  0.28633106  0.17802513  1
  O  O44  1  0.17248892  0.44756199  0.03720558  1
  O  O45  1  0.21590305  0.23237888  0.70263067  1
  O  O46  1  0.21317043  0.28281130  0.36268682  1
  O  O47  1  0.22087104  0.12607215  0.04544043  1
  O  O48  1  0.27912896  0.62607215  0.45455957  1
  O  O49  1  0.28682957  0.78281130  0.13731318  1
  O  O50  1  0.28409695  0.73237888  0.79736933  1
  O  O51  1  0.32751108  0.94756199  0.46279442  1
  O  O52  1  0.39851991  0.78633106  0.32197487  1
  O  O53  1  0.41089030  0.73517304  0.99025393  1
  O  O54  1  0.41264154  0.87187483  0.65942435  1
  O  O55  1  0.42628407  0.26674137  0.21549775  1
  O  O56  1  0.41492913  0.54702498  0.67674313  1
  O  O57  1  0.43818890  0.26651432  0.54161824  1
  O  O58  1  0.45420589  0.38259868  0.86905048  1
  O  O59  1  0.45736904  0.05933400  0.89531375  1
  O  O60  1  0.54263096  0.94066600  0.10468625  1
  O  O61  1  0.54579411  0.61740132  0.13094952  1
  O  O62  1  0.56181110  0.73348568  0.45838176  1
  O  O63  1  0.58507087  0.45297502  0.32325687  1
  O  O64  1  0.57371593  0.73325863  0.78450225  1
  O  O65  1  0.58735846  0.12812517  0.34057565  1
  O  O66  1  0.58910970  0.26482696  0.00974607  1
  O  O67  1  0.60148009  0.21366894  0.67802513  1
  O  O68  1  0.67248892  0.05243801  0.53720558  1
  O  O69  1  0.71590305  0.26762112  0.20263067  1
  O  O70  1  0.71317043  0.21718870  0.86268682  1
  O  O71  1  0.72087104  0.37392785  0.54544043  1
  O  O72  1  0.77912896  0.87392785  0.95455957  1
  O  O73  1  0.78682957  0.71718870  0.63731318  1
  O  O74  1  0.78409695  0.76762112  0.29736933  1
  O  O75  1  0.82751108  0.55243801  0.96279442  1
  O  O76  1  0.89851991  0.71366894  0.82197487  1
  O  O77  1  0.91089030  0.76482696  0.49025393  1
  O  O78  1  0.92628407  0.23325863  0.71549775  1
  O  O79  1  0.91264154  0.62812517  0.15942435  1
  O  O80  1  0.91492913  0.95297502  0.17674313  1
  O  O81  1  0.93818890  0.23348568  0.04161824  1
  O  O82  1  0.95420589  0.11740132  0.36905048  1
  O  O83  1  0.95736904  0.44066600  0.39531375  1
