# generated using pymatgen
data_NaLa2IrO6
_symmetry_space_group_name_H-M   'P 1'
_cell_length_a   5.63112788
_cell_length_b   6.02085175
_cell_length_c   8.11469531
_cell_angle_alpha   90.00000000
_cell_angle_beta   90.70079740
_cell_angle_gamma   90.00000000
_symmetry_Int_Tables_number   1
_chemical_formula_structural   NaLa2IrO6
_chemical_formula_sum   'Na2 La4 Ir2 O12'
_cell_volume   275.10156105
_cell_formula_units_Z   2
loop_
 _symmetry_equiv_pos_site_id
 _symmetry_equiv_pos_as_xyz
  1  'x, y, z'
loop_
 _atom_site_type_symbol
 _atom_site_label
 _atom_site_symmetry_multiplicity
 _atom_site_fract_x
 _atom_site_fract_y
 _atom_site_fract_z
 _atom_site_occupancy
  O  O0  1  0.83633026  0.72084984  0.56466627  1
  O  O1  1  0.66366974  0.22084984  0.93533373  1
  O  O2  1  0.16366974  0.27915016  0.43533373  1
  O  O3  1  0.33633026  0.77915016  0.06466627  1
  O  O4  1  0.11395807  0.04672265  0.73243992  1
  O  O5  1  0.38604193  0.54672265  0.76756008  1
  O  O6  1  0.88604193  0.95327735  0.26756008  1
  O  O7  1  0.61395807  0.45327735  0.23243992  1
  O  O8  1  0.20645077  0.32635725  0.05119734  1
  O  O9  1  0.29354923  0.82635725  0.44880266  1
  O  O10  1  0.79354923  0.67364275  0.94880266  1
  O  O11  1  0.70645077  0.17364275  0.55119734  1
  Na  Na12  1  0.50000000  0.50000000  0.50000000  1
  Na  Na13  1  0.00000000  0.00000000  0.00000000  1
  La  La14  1  0.48218145  0.06931467  0.25348207  1
  La  La15  1  0.01781855  0.56931467  0.24651793  1
  La  La16  1  0.98218145  0.43068533  0.75348207  1
  La  La17  1  0.51781855  0.93068533  0.74651793  1
  Ir  Ir18  1  0.50000000  0.50000000  0.00000000  1
  Ir  Ir19  1  0.00000000  0.00000000  0.50000000  1
