# generated using pymatgen
data_LiNd2IrO6
_symmetry_space_group_name_H-M   'P 1'
_cell_length_a   5.45152131
_cell_length_b   5.84090683
_cell_length_c   7.78462764
_cell_angle_alpha   90.00000000
_cell_angle_beta   90.56316238
_cell_angle_gamma   90.00000000
_symmetry_Int_Tables_number   1
_chemical_formula_structural   LiNd2IrO6
_chemical_formula_sum   'Li2 Nd4 Ir2 O12'
_cell_volume   247.86480133
_cell_formula_units_Z   2
loop_
 _symmetry_equiv_pos_site_id
 _symmetry_equiv_pos_as_xyz
  1  'x, y, z'
loop_
 _atom_site_type_symbol
 _atom_site_label
 _atom_site_symmetry_multiplicity
 _atom_site_fract_x
 _atom_site_fract_y
 _atom_site_fract_z
 _atom_site_occupancy
  Li  Li0  1  0.00000000  0.00000000  0.00000000  1
  Li  Li1  1  0.50000000  0.50000000  0.50000000  1
  O  O2  1  0.17946655  0.28877048  0.44691656  1
  O  O3  1  0.32053345  0.78877048  0.05308344  1
  O  O4  1  0.82053345  0.71122952  0.55308344  1
  O  O5  1  0.67946655  0.21122952  0.94691656  1
  O  O6  1  0.09879141  0.02962414  0.74583033  1
  O  O7  1  0.40120859  0.52962414  0.75416967  1
  O  O8  1  0.20016845  0.31252070  0.04846505  1
  O  O9  1  0.29983155  0.81252070  0.45153495  1
  O  O10  1  0.79983155  0.68747930  0.95153495  1
  O  O11  1  0.70016845  0.18747930  0.54846505  1
  O  O12  1  0.59879141  0.47037586  0.24583033  1
  O  O13  1  0.90120859  0.97037586  0.25416967  1
  Nd  Nd14  1  0.48139651  0.07370623  0.25172913  1
  Nd  Nd15  1  0.01860349  0.57370623  0.24827087  1
  Nd  Nd16  1  0.98139651  0.42629377  0.75172913  1
  Nd  Nd17  1  0.51860349  0.92629377  0.74827087  1
  Ir  Ir18  1  0.50000000  0.50000000  0.00000000  1
  Ir  Ir19  1  0.00000000  0.00000000  0.50000000  1
