# generated using pymatgen
data_NaPr2IrO6
_symmetry_space_group_name_H-M   'P 1'
_cell_length_a   5.58127583
_cell_length_b   6.01083143
_cell_length_c   8.05752611
_cell_angle_alpha   90.00000000
_cell_angle_beta   90.82373735
_cell_angle_gamma   90.00000000
_symmetry_Int_Tables_number   1
_chemical_formula_structural   NaPr2IrO6
_chemical_formula_sum   'Na2 Pr4 Ir2 O12'
_cell_volume   270.28682184
_cell_formula_units_Z   2
loop_
 _symmetry_equiv_pos_site_id
 _symmetry_equiv_pos_as_xyz
  1  'x, y, z'
loop_
 _atom_site_type_symbol
 _atom_site_label
 _atom_site_symmetry_multiplicity
 _atom_site_fract_x
 _atom_site_fract_y
 _atom_site_fract_z
 _atom_site_occupancy
  O  O0  1  0.83623543  0.71900153  0.56639979  1
  O  O1  1  0.66376457  0.21900153  0.93360021  1
  O  O2  1  0.16376457  0.28099847  0.43360021  1
  O  O3  1  0.33623543  0.78099847  0.06639979  1
  O  O4  1  0.11795851  0.04735581  0.73246950  1
  O  O5  1  0.38204149  0.54735581  0.76753050  1
  O  O6  1  0.88204149  0.95264419  0.26753050  1
  O  O7  1  0.61795851  0.45264419  0.23246950  1
  O  O8  1  0.20539040  0.32520371  0.05173489  1
  O  O9  1  0.29460960  0.82520371  0.44826511  1
  O  O10  1  0.79460960  0.67479629  0.94826511  1
  O  O11  1  0.70539040  0.17479629  0.55173489  1
  Na  Na12  1  0.50000000  0.50000000  0.50000000  1
  Na  Na13  1  0.00000000  0.00000000  0.00000000  1
  Pr  Pr14  1  0.97889844  0.42692926  0.75322418  1
  Pr  Pr15  1  0.47889844  0.07307074  0.25322418  1
  Pr  Pr16  1  0.52110156  0.92692926  0.74677582  1
  Pr  Pr17  1  0.02110156  0.57307074  0.24677582  1
  Ir  Ir18  1  0.00000000  0.00000000  0.50000000  1
  Ir  Ir19  1  0.50000000  0.50000000  0.00000000  1
