# generated using pymatgen
data_LiEu2IrO6
_symmetry_space_group_name_H-M   'P 1'
_cell_length_a   5.46167769
_cell_length_b   5.82225307
_cell_length_c   7.72391891
_cell_angle_alpha   90.00000000
_cell_angle_beta   90.57084176
_cell_angle_gamma   90.00000000
_symmetry_Int_Tables_number   1
_chemical_formula_structural   LiEu2IrO6
_chemical_formula_sum   'Li2 Eu4 Ir2 O12'
_cell_volume   245.60279040
_cell_formula_units_Z   2
loop_
 _symmetry_equiv_pos_site_id
 _symmetry_equiv_pos_as_xyz
  1  'x, y, z'
loop_
 _atom_site_type_symbol
 _atom_site_label
 _atom_site_symmetry_multiplicity
 _atom_site_fract_x
 _atom_site_fract_y
 _atom_site_fract_z
 _atom_site_occupancy
  Li  Li0  1  0.00000000  0.00000000  0.00000000  1
  Li  Li1  1  0.50000000  0.50000000  0.50000000  1
  O  O2  1  0.17711190  0.28655055  0.44702769  1
  O  O3  1  0.32288810  0.78655055  0.05297231  1
  O  O4  1  0.82288810  0.71344945  0.55297231  1
  O  O5  1  0.67711190  0.21344945  0.94702769  1
  O  O6  1  0.09668013  0.03175819  0.74446719  1
  O  O7  1  0.40331987  0.53175819  0.75553281  1
  O  O8  1  0.20327335  0.31707261  0.04633488  1
  O  O9  1  0.29672665  0.81707261  0.45366512  1
  O  O10  1  0.79672665  0.68292739  0.95366512  1
  O  O11  1  0.70327335  0.18292739  0.54633488  1
  O  O12  1  0.59668013  0.46824181  0.24446719  1
  O  O13  1  0.90331987  0.96824181  0.25553281  1
  Eu  Eu14  1  0.48442120  0.07087808  0.25127915  1
  Eu  Eu15  1  0.01557880  0.57087808  0.24872085  1
  Eu  Eu16  1  0.98442120  0.42912192  0.75127915  1
  Eu  Eu17  1  0.51557880  0.92912192  0.74872085  1
  Ir  Ir18  1  0.50000000  0.50000000  0.00000000  1
  Ir  Ir19  1  0.00000000  0.00000000  0.50000000  1
