# generated using pymatgen
data_NaNd2RuO6
_symmetry_space_group_name_H-M   'P 1'
_cell_length_a   5.55287087
_cell_length_b   5.98083898
_cell_length_c   8.02015950
_cell_angle_alpha   90.00000000
_cell_angle_beta   90.98105158
_cell_angle_gamma   90.00000000
_symmetry_Int_Tables_number   1
_chemical_formula_structural   NaNd2RuO6
_chemical_formula_sum   'Na2 Nd4 Ru2 O12'
_cell_volume   266.31708132
_cell_formula_units_Z   2
loop_
 _symmetry_equiv_pos_site_id
 _symmetry_equiv_pos_as_xyz
  1  'x, y, z'
loop_
 _atom_site_type_symbol
 _atom_site_label
 _atom_site_symmetry_multiplicity
 _atom_site_fract_x
 _atom_site_fract_y
 _atom_site_fract_z
 _atom_site_occupancy
  O  O0  1  0.83587531  0.71937033  0.57173931  1
  O  O1  1  0.66412469  0.21937033  0.92826069  1
  O  O2  1  0.16412469  0.28062967  0.42826069  1
  O  O3  1  0.33587531  0.78062967  0.07173931  1
  O  O4  1  0.12318561  0.05290759  0.72998351  1
  O  O5  1  0.37681439  0.55290759  0.77001649  1
  O  O6  1  0.87681439  0.94709241  0.27001649  1
  O  O7  1  0.62318561  0.44709241  0.22998351  1
  O  O8  1  0.20771975  0.32684667  0.05248197  1
  O  O9  1  0.29228025  0.82684667  0.44751803  1
  O  O10  1  0.79228025  0.67315333  0.94751803  1
  O  O11  1  0.70771975  0.17315333  0.55248197  1
  Na  Na12  1  0.00000000  0.00000000  0.00000000  1
  Na  Na13  1  0.50000000  0.50000000  0.50000000  1
  Ru  Ru14  1  0.50000000  0.50000000  0.00000000  1
  Ru  Ru15  1  0.00000000  0.00000000  0.50000000  1
  Nd  Nd16  1  0.97820536  0.42743379  0.75412809  1
  Nd  Nd17  1  0.52179464  0.92743379  0.74587191  1
  Nd  Nd18  1  0.02179464  0.57256621  0.24587191  1
  Nd  Nd19  1  0.47820536  0.07256621  0.25412809  1
