# generated using pymatgen
data_Tm2Fe12P7
_symmetry_space_group_name_H-M   'P 1'
_cell_length_a   3.62925912
_cell_length_b   8.94251525
_cell_length_c   8.93856447
_cell_angle_alpha   119.99247606
_cell_angle_beta   90.00000000
_cell_angle_gamma   90.00000000
_symmetry_Int_Tables_number   1
_chemical_formula_structural   Tm2Fe12P7
_chemical_formula_sum   'Tm2 Fe12 P7'
_cell_volume   251.25169276
_cell_formula_units_Z   1
loop_
 _symmetry_equiv_pos_site_id
 _symmetry_equiv_pos_as_xyz
  1  'x, y, z'
loop_
 _atom_site_type_symbol
 _atom_site_label
 _atom_site_symmetry_multiplicity
 _atom_site_fract_x
 _atom_site_fract_y
 _atom_site_fract_z
 _atom_site_occupancy
  Tm  Tm0  1  -0.00000000  0.66660981  0.33321002  1
  Tm  Tm1  1  0.50000000  0.33337210  0.66678159  1
  Fe  Fe2  1  0.00000000  0.37098119  0.94372363  1
  Fe  Fe3  1  0.00000000  0.05614334  0.42741581  1
  Fe  Fe4  1  -0.00000000  0.57280743  0.62898327  1
  Fe  Fe5  1  0.00000000  0.87989608  0.72536084  1
  Fe  Fe6  1  0.00000000  0.27454109  0.15449654  1
  Fe  Fe7  1  -0.00000000  0.84551848  0.12015531  1
  Fe  Fe8  1  0.50000000  0.95071398  0.56724040  1
  Fe  Fe9  1  0.50000000  0.43295076  0.38340829  1
  Fe  Fe10  1  0.50000000  0.61653930  0.04944067  1
  Fe  Fe11  1  0.50000000  0.11824121  0.90370220  1
  Fe  Fe12  1  0.50000000  0.09665549  0.21500099  1
  Fe  Fe13  1  0.50000000  0.78512032  0.88141424  1
  P  P14  1  0.00000000  0.11405438  0.70328847  1
  P  P15  1  -0.00000000  0.29722832  0.41092393  1
  P  P16  1  -0.00000000  0.58918667  0.88632026  1
  P  P17  1  0.50000000  0.71005030  0.59805523  1
  P  P18  1  0.50000000  0.40164362  0.11178150  1
  P  P19  1  0.50000000  0.88766034  0.28953862  1
  P  P20  1  0.00000000  0.00008580  -0.00024182  1
