# generated using pymatgen
data_Ca(BeN)2
_symmetry_space_group_name_H-M   'P 1'
_cell_length_a   5.23375119
_cell_length_b   5.23375119
_cell_length_c   5.23375119
_cell_angle_alpha   97.33020153
_cell_angle_beta   115.86207638
_cell_angle_gamma   115.86207645
_symmetry_Int_Tables_number   1
_chemical_formula_structural   Ca(BeN)2
_chemical_formula_sum   'Ca2 Be4 N4'
_cell_volume   106.76659782
_cell_formula_units_Z   2
loop_
 _symmetry_equiv_pos_site_id
 _symmetry_equiv_pos_as_xyz
  1  'x, y, z'
loop_
 _atom_site_type_symbol
 _atom_site_label
 _atom_site_symmetry_multiplicity
 _atom_site_fract_x
 _atom_site_fract_y
 _atom_site_fract_z
 _atom_site_occupancy
  Be  Be0  1  0.75253403  0.12626701  0.62626701  1
  Be  Be1  1  0.50000000  0.62626701  0.87373299  1
  Be  Be2  1  0.24746597  0.87373299  0.37373299  1
  Be  Be3  1  0.50000000  0.37373299  0.12626701  1
  N  N4  1  0.50000000  0.16942047  0.33057953  1
  N  N5  1  0.83884093  0.66942047  0.16942047  1
  N  N6  1  0.16115907  0.33057953  0.83057953  1
  N  N7  1  0.50000000  0.83057953  0.66942047  1
  Ca  Ca8  1  0.00000000  0.75000000  0.75000000  1
  Ca  Ca9  1  0.00000000  0.25000000  0.25000000  1
