# generated using pymatgen
data_SmAl4Ni
_symmetry_space_group_name_H-M   'P 1'
_cell_length_a   4.10044122
_cell_length_b   6.60899807
_cell_length_c   8.10149063
_cell_angle_alpha   90.00000000
_cell_angle_beta   104.65908107
_cell_angle_gamma   90.00000000
_symmetry_Int_Tables_number   1
_chemical_formula_structural   SmAl4Ni
_chemical_formula_sum   'Sm2 Al8 Ni2'
_cell_volume   212.40224843
_cell_formula_units_Z   2
loop_
 _symmetry_equiv_pos_site_id
 _symmetry_equiv_pos_as_xyz
  1  'x, y, z'
loop_
 _atom_site_type_symbol
 _atom_site_label
 _atom_site_symmetry_multiplicity
 _atom_site_fract_x
 _atom_site_fract_y
 _atom_site_fract_z
 _atom_site_occupancy
  Al  Al0  1  0.00000000  0.50000000  0.00000000  1
  Al  Al1  1  0.00000000  0.00000000  0.00000000  1
  Al  Al2  1  0.57814526  0.75000000  0.15629053  1
  Al  Al3  1  0.42185474  0.25000000  0.84370947  1
  Al  Al4  1  0.80968537  0.05283469  0.61937073  1
  Al  Al5  1  0.19031463  0.94716531  0.38062927  1
  Al  Al6  1  0.19031463  0.55283469  0.38062927  1
  Al  Al7  1  0.80968537  0.44716531  0.61937073  1
  Ni  Ni8  1  0.72547464  0.75000000  0.45094928  1
  Ni  Ni9  1  0.27452536  0.25000000  0.54905072  1
  Sm  Sm10  1  0.38527485  0.75000000  0.77054971  1
  Sm  Sm11  1  0.61472515  0.25000000  0.22945029  1
