# generated using pymatgen
data_Rb2TaCuS4
_symmetry_space_group_name_H-M   'P 1'
_cell_length_a   5.61263147
_cell_length_b   7.46811409
_cell_length_c   12.48279418
_cell_angle_alpha   85.15391673
_cell_angle_beta   77.00801744
_cell_angle_gamma   67.92790219
_symmetry_Int_Tables_number   1
_chemical_formula_structural   Rb2TaCuS4
_chemical_formula_sum   'Rb4 Ta2 Cu2 S8'
_cell_volume   472.46745943
_cell_formula_units_Z   2
loop_
 _symmetry_equiv_pos_site_id
 _symmetry_equiv_pos_as_xyz
  1  'x, y, z'
loop_
 _atom_site_type_symbol
 _atom_site_label
 _atom_site_symmetry_multiplicity
 _atom_site_fract_x
 _atom_site_fract_y
 _atom_site_fract_z
 _atom_site_occupancy
  S  S0  1  0.09116116  0.44099668  0.14306775  1
  S  S1  1  0.17522559  0.05900332  0.35693225  1
  S  S2  1  0.82477441  0.94099668  0.64306775  1
  S  S3  1  0.90883884  0.55900332  0.85693225  1
  S  S4  1  0.23422891  0.94099668  0.85693225  1
  S  S5  1  0.53215784  0.55900332  0.64306775  1
  S  S6  1  0.46784216  0.44099668  0.35693225  1
  S  S7  1  0.76577109  0.05900332  0.14306775  1
  Cu  Cu8  1  0.12500000  0.75000000  0.75000000  1
  Cu  Cu9  1  0.87500000  0.25000000  0.25000000  1
  Rb  Rb10  1  0.80251221  0.75000000  0.39497557  1
  Rb  Rb11  1  0.44748779  0.75000000  0.10502443  1
  Rb  Rb12  1  0.19748779  0.25000000  0.60502443  1
  Rb  Rb13  1  0.55251221  0.25000000  0.89497557  1
  Ta  Ta14  1  0.62500000  0.75000000  0.75000000  1
  Ta  Ta15  1  0.37500000  0.25000000  0.25000000  1
