# generated using pymatgen
data_LiBi2(SO4)3
_symmetry_space_group_name_H-M   'P 1'
_cell_length_a   8.89284903
_cell_length_b   8.89284903
_cell_length_c   8.89284870
_cell_angle_alpha   64.27159030
_cell_angle_beta   64.27159030
_cell_angle_gamma   64.27158933
_symmetry_Int_Tables_number   1
_chemical_formula_structural   LiBi2(SO4)3
_chemical_formula_sum   'Li2 Bi4 S6 O24'
_cell_volume   543.96505632
_cell_formula_units_Z   2
loop_
 _symmetry_equiv_pos_site_id
 _symmetry_equiv_pos_as_xyz
  1  'x, y, z'
loop_
 _atom_site_type_symbol
 _atom_site_label
 _atom_site_symmetry_multiplicity
 _atom_site_fract_x
 _atom_site_fract_y
 _atom_site_fract_z
 _atom_site_occupancy
  Li  Li0  1  0.00000000  0.00000000  0.00000000  1
  Li  Li1  1  0.50000000  0.50000000  0.50000000  1
  Bi  Bi2  1  0.33330260  0.33330260  0.33330260  1
  Bi  Bi3  1  0.16669740  0.16669740  0.16669740  1
  Bi  Bi4  1  0.66669740  0.66669740  0.66669740  1
  Bi  Bi5  1  0.83330260  0.83330260  0.83330260  1
  S  S6  1  0.08429066  0.75000000  0.41570934  1
  S  S7  1  0.58429066  0.91570934  0.25000000  1
  S  S8  1  0.25000000  0.58429066  0.91570934  1
  S  S9  1  0.75000000  0.41570934  0.08429066  1
  S  S10  1  0.41570934  0.08429066  0.75000000  1
  S  S11  1  0.91570934  0.25000000  0.58429066  1
  O  O12  1  0.09498824  0.89536502  0.24648875  1
  O  O13  1  0.10463498  0.75351125  0.90501176  1
  O  O14  1  0.44852513  0.94029627  0.68529759  1
  O  O15  1  0.55970373  0.05147487  0.81470241  1
  O  O16  1  0.25351125  0.60463498  0.40501176  1
  O  O17  1  0.59498824  0.74648875  0.39536502  1
  O  O18  1  0.75351125  0.90501176  0.10463498  1
  O  O19  1  0.94852513  0.18529759  0.44029627  1
  O  O20  1  0.31470241  0.55147487  0.05970373  1
  O  O21  1  0.05970373  0.31470241  0.55147487  1
  O  O22  1  0.18529759  0.44029627  0.94852513  1
  O  O23  1  0.39536502  0.59498824  0.74648875  1
  O  O24  1  0.60463498  0.40501176  0.25351125  1
  O  O25  1  0.94029627  0.68529759  0.44852513  1
  O  O26  1  0.81470241  0.55970373  0.05147487  1
  O  O27  1  0.05147487  0.81470241  0.55970373  1
  O  O28  1  0.68529759  0.44852513  0.94029627  1
  O  O29  1  0.24648875  0.09498824  0.89536502  1
  O  O30  1  0.40501176  0.25351125  0.60463498  1
  O  O31  1  0.74648875  0.39536502  0.59498824  1
  O  O32  1  0.55147487  0.05970373  0.31470241  1
  O  O33  1  0.44029627  0.94852513  0.18529759  1
  O  O34  1  0.89536502  0.24648875  0.09498824  1
  O  O35  1  0.90501176  0.10463498  0.75351125  1
