# generated using pymatgen
data_Ba3P14
_symmetry_space_group_name_H-M   'P 1'
_cell_length_a   6.56854963
_cell_length_b   10.34788081
_cell_length_c   13.25005926
_cell_angle_alpha   90.00000000
_cell_angle_beta   90.00000000
_cell_angle_gamma   90.37313585
_symmetry_Int_Tables_number   1
_chemical_formula_structural   Ba3P14
_chemical_formula_sum   'Ba6 P28'
_cell_volume   900.59496387
_cell_formula_units_Z   2
loop_
 _symmetry_equiv_pos_site_id
 _symmetry_equiv_pos_as_xyz
  1  'x, y, z'
loop_
 _atom_site_type_symbol
 _atom_site_label
 _atom_site_symmetry_multiplicity
 _atom_site_fract_x
 _atom_site_fract_y
 _atom_site_fract_z
 _atom_site_occupancy
  P  P0  1  0.10230112  0.15174314  0.15263869  1
  P  P1  1  0.39769888  0.34825686  0.65263869  1
  P  P2  1  0.89769888  0.84825686  0.84736131  1
  P  P3  1  0.60230112  0.65174314  0.34736131  1
  P  P4  1  0.58928980  0.31301507  0.51277789  1
  P  P5  1  0.91071020  0.18698493  0.01277789  1
  P  P6  1  0.33320525  0.94616274  0.31783525  1
  P  P7  1  0.16679475  0.55383726  0.81783525  1
  P  P8  1  0.66679475  0.05383726  0.68216475  1
  P  P9  1  0.83320525  0.44616274  0.18216475  1
  P  P10  1  0.56127228  0.85684903  0.41202542  1
  P  P11  1  0.93872772  0.64315097  0.91202542  1
  P  P12  1  0.43872772  0.14315097  0.58797458  1
  P  P13  1  0.06127228  0.35684903  0.08797458  1
  P  P14  1  0.14829932  0.77300219  0.28545717  1
  P  P15  1  0.35170068  0.72699781  0.78545717  1
  P  P16  1  0.85170068  0.22699781  0.71454283  1
  P  P17  1  0.64829932  0.27300219  0.21454283  1
  P  P18  1  0.09751870  0.68618735  0.43613577  1
  P  P19  1  0.40248130  0.81381265  0.93613577  1
  P  P20  1  0.90248130  0.31381265  0.56386423  1
  P  P21  1  0.59751870  0.18618735  0.06386423  1
  P  P22  1  0.38453873  0.64426711  0.22434343  1
  P  P23  1  0.11546127  0.85573289  0.72434343  1
  P  P24  1  0.61546127  0.35573289  0.77565657  1
  P  P25  1  0.88453873  0.14426711  0.27565657  1
  P  P26  1  0.08928980  0.81301507  0.98722211  1
  P  P27  1  0.41071020  0.68698493  0.48722211  1
  Ba  Ba28  1  0.20479329  0.38757626  0.34724262  1
  Ba  Ba29  1  0.29520671  0.11242374  0.84724262  1
  Ba  Ba30  1  0.79520671  0.61242374  0.65275738  1
  Ba  Ba31  1  0.70479329  0.88757626  0.15275738  1
  Ba  Ba32  1  0.00000000  0.00000000  0.50000000  1
  Ba  Ba33  1  0.50000000  0.50000000  0.00000000  1
