# generated using pymatgen
data_Rb2TaCuSe4
_symmetry_space_group_name_H-M   'P 1'
_cell_length_a   5.80242325
_cell_length_b   7.71366829
_cell_length_c   12.93446393
_cell_angle_alpha   85.16063302
_cell_angle_beta   77.03822922
_cell_angle_gamma   67.90687461
_symmetry_Int_Tables_number   1
_chemical_formula_structural   Rb2TaCuSe4
_chemical_formula_sum   'Rb4 Ta2 Cu2 Se8'
_cell_volume   522.74456656
_cell_formula_units_Z   2
loop_
 _symmetry_equiv_pos_site_id
 _symmetry_equiv_pos_as_xyz
  1  'x, y, z'
loop_
 _atom_site_type_symbol
 _atom_site_label
 _atom_site_symmetry_multiplicity
 _atom_site_fract_x
 _atom_site_fract_y
 _atom_site_fract_z
 _atom_site_occupancy
  Cu  Cu0  1  0.12500000  0.75000000  0.75000000  1
  Cu  Cu1  1  0.87500000  0.25000000  0.25000000  1
  Se  Se2  1  0.82569790  0.94617866  0.63965050  1
  Se  Se3  1  0.91152705  0.55382134  0.86034950  1
  Se  Se4  1  0.22812344  0.94617866  0.86034950  1
  Se  Se5  1  0.53465160  0.55382134  0.63965050  1
  Se  Se6  1  0.46534840  0.44617866  0.36034950  1
  Se  Se7  1  0.77187656  0.05382134  0.13965050  1
  Se  Se8  1  0.08847295  0.44617866  0.13965050  1
  Se  Se9  1  0.17430210  0.05382134  0.36034950  1
  Rb  Rb10  1  0.80387107  0.75000000  0.39225786  1
  Rb  Rb11  1  0.44612893  0.75000000  0.10774214  1
  Rb  Rb12  1  0.19612893  0.25000000  0.60774214  1
  Rb  Rb13  1  0.55387107  0.25000000  0.89225786  1
  Ta  Ta14  1  0.62500000  0.75000000  0.75000000  1
  Ta  Ta15  1  0.37500000  0.25000000  0.25000000  1
