# generated using pymatgen
data_CsNbF6
_symmetry_space_group_name_H-M   'P 1'
_cell_length_a   5.45525662
_cell_length_b   5.45525663
_cell_length_c   5.45525663
_cell_angle_alpha   96.11116085
_cell_angle_beta   96.11116088
_cell_angle_gamma   96.11116087
_symmetry_Int_Tables_number   1
_chemical_formula_structural   CsNbF6
_chemical_formula_sum   'Cs1 Nb1 F6'
_cell_volume   159.36431114
_cell_formula_units_Z   1
loop_
 _symmetry_equiv_pos_site_id
 _symmetry_equiv_pos_as_xyz
  1  'x, y, z'
loop_
 _atom_site_type_symbol
 _atom_site_label
 _atom_site_symmetry_multiplicity
 _atom_site_fract_x
 _atom_site_fract_y
 _atom_site_fract_z
 _atom_site_occupancy
  F  F0  1  0.41887655  0.69847502  0.79075871  1
  F  F1  1  0.69847502  0.79075871  0.41887655  1
  F  F2  1  0.20924129  0.58112345  0.30152498  1
  F  F3  1  0.30152498  0.20924129  0.58112345  1
  F  F4  1  0.58112345  0.30152498  0.20924129  1
  F  F5  1  0.79075871  0.41887655  0.69847502  1
  Nb  Nb6  1  0.50000000  0.50000000  0.50000000  1
  Cs  Cs7  1  0.00000000  0.00000000  0.00000000  1
