# generated using pymatgen
data_TmSnRh
_symmetry_space_group_name_H-M   'P 1'
_cell_length_a   7.58943801
_cell_length_b   7.58943802
_cell_length_c   3.74518603
_cell_angle_alpha   90.00000000
_cell_angle_beta   90.00000000
_cell_angle_gamma   120.00000002
_symmetry_Int_Tables_number   1
_chemical_formula_structural   TmSnRh
_chemical_formula_sum   'Tm3 Sn3 Rh3'
_cell_volume   186.81995481
_cell_formula_units_Z   3
loop_
 _symmetry_equiv_pos_site_id
 _symmetry_equiv_pos_as_xyz
  1  'x, y, z'
loop_
 _atom_site_type_symbol
 _atom_site_label
 _atom_site_symmetry_multiplicity
 _atom_site_fract_x
 _atom_site_fract_y
 _atom_site_fract_z
 _atom_site_occupancy
  Rh  Rh0  1  0.66666667  0.33333333  0.50000000  1
  Rh  Rh1  1  0.33333333  0.66666667  0.50000000  1
  Rh  Rh2  1  0.00000000  0.00000000  0.00000000  1
  Sn  Sn3  1  0.26527326  0.26527326  0.50000000  1
  Sn  Sn4  1  0.00000000  0.73472674  0.50000000  1
  Sn  Sn5  1  0.73472674  0.00000000  0.50000000  1
  Tm  Tm6  1  0.00000000  0.40368178  0.00000000  1
  Tm  Tm7  1  0.59631822  0.59631822  0.00000000  1
  Tm  Tm8  1  0.40368178  0.00000000  0.00000000  1
