# generated using pymatgen
data_Sr2CaTeO6
_symmetry_space_group_name_H-M   'P 1'
_cell_length_a   5.84812914
_cell_length_b   5.93686564
_cell_length_c   8.30897636
_cell_angle_alpha   90.00000000
_cell_angle_beta   90.21248231
_cell_angle_gamma   90.00000000
_symmetry_Int_Tables_number   1
_chemical_formula_structural   Sr2CaTeO6
_chemical_formula_sum   'Sr4 Ca2 Te2 O12'
_cell_volume   288.48199379
_cell_formula_units_Z   2
loop_
 _symmetry_equiv_pos_site_id
 _symmetry_equiv_pos_as_xyz
  1  'x, y, z'
loop_
 _atom_site_type_symbol
 _atom_site_label
 _atom_site_symmetry_multiplicity
 _atom_site_fract_x
 _atom_site_fract_y
 _atom_site_fract_z
 _atom_site_occupancy
  O  O0  1  0.91960985  0.52653333  0.72772324  1
  O  O1  1  0.58039015  0.02653333  0.77227676  1
  O  O2  1  0.08039015  0.47346667  0.27227676  1
  O  O3  1  0.41960985  0.97346667  0.22772324  1
  O  O4  1  0.81298867  0.76676006  0.45348255  1
  O  O5  1  0.68701133  0.26676006  0.04651745  1
  O  O6  1  0.18701133  0.23323994  0.54651745  1
  O  O7  1  0.31298867  0.73323994  0.95348255  1
  O  O8  1  0.23313588  0.19154023  0.96084216  1
  O  O9  1  0.26686412  0.69154023  0.53915784  1
  O  O10  1  0.76686412  0.80845977  0.03915784  1
  O  O11  1  0.73313588  0.30845977  0.46084216  1
  Ca  Ca12  1  0.50000000  0.00000000  0.50000000  1
  Ca  Ca13  1  0.00000000  0.50000000  0.00000000  1
  Sr  Sr14  1  0.50916719  0.53875410  0.25056590  1
  Sr  Sr15  1  0.99083281  0.03875410  0.24943410  1
  Sr  Sr16  1  0.00916719  0.96124590  0.75056590  1
  Sr  Sr17  1  0.49083281  0.46124590  0.74943410  1
  Te  Te18  1  0.50000000  0.00000000  0.00000000  1
  Te  Te19  1  0.00000000  0.50000000  0.50000000  1
