# generated using pymatgen
data_Bi25BO39
_symmetry_space_group_name_H-M   'P 1'
_cell_length_a   9.60600464
_cell_length_b   9.31736789
_cell_length_c   14.61983268
_cell_angle_alpha   89.56784336
_cell_angle_beta   86.93945361
_cell_angle_gamma   113.52584657
_symmetry_Int_Tables_number   1
_chemical_formula_structural   Bi25BO39
_chemical_formula_sum   'Bi25 B1 O39'
_cell_volume   1197.44429885
_cell_formula_units_Z   1
loop_
 _symmetry_equiv_pos_site_id
 _symmetry_equiv_pos_as_xyz
  1  'x, y, z'
loop_
 _atom_site_type_symbol
 _atom_site_label
 _atom_site_symmetry_multiplicity
 _atom_site_fract_x
 _atom_site_fract_y
 _atom_site_fract_z
 _atom_site_occupancy
  Bi  Bi0  1  0.44359890  0.23767169  0.08439145  1
  Bi  Bi1  1  0.80867239  0.62211366  0.05958742  1
  Bi  Bi2  1  0.86452636  0.45851114  0.35881856  1
  Bi  Bi3  1  0.45946489  0.21243022  0.33554350  1
  Bi  Bi4  1  0.95479037  0.33696293  0.13287699  1
  Bi  Bi5  1  0.65645660  0.95406830  0.14267620  1
  Bi  Bi6  1  0.73020143  0.27010862  0.57172652  1
  Bi  Bi7  1  0.93870328  0.07112313  0.73238559  1
  Bi  Bi8  1  0.34251827  0.52763480  0.22356399  1
  Bi  Bi9  1  0.23074457  0.77210434  0.06441353  1
  Bi  Bi10  1  0.10689839  0.28596044  0.42836320  1
  Bi  Bi11  1  0.93732490  0.73588739  0.57500864  1
  Bi  Bi12  1  0.74702957  0.93538771  0.45512485  1
  Bi  Bi13  1  0.29848761  0.09367858  0.59738158  1
  Bi  Bi14  1  0.75780137  0.26713858  0.91605595  1
  Bi  Bi15  1  0.52606266  0.40521209  0.75141869  1
  Bi  Bi16  1  0.30930357  0.76237976  0.44389484  1
  Bi  Bi17  1  0.09524066  0.95035503  0.27920494  1
  Bi  Bi18  1  0.36130677  0.99915688  0.85099200  1
  Bi  Bi19  1  0.96848957  0.67812754  0.81518761  1
  Bi  Bi20  1  0.52825473  0.84431151  0.66837032  1
  Bi  Bi21  1  0.22369580  0.45376157  0.64952114  1
  Bi  Bi22  1  0.69409744  0.66866560  0.29057456  1
  Bi  Bi23  1  0.61666098  0.78654521  0.91014716  1
  Bi  Bi24  1  0.21434932  0.45650690  0.90349856  1
  B  B25  1  0.56154188  0.56720166  0.53179290  1
  O  O26  1  0.71450115  0.99774313  0.99695013  1
  O  O27  1  0.36368830  0.00135369  0.00604440  1
  O  O28  1  0.97159337  0.05201586  0.35253123  1
  O  O29  1  0.68219288  0.30054157  0.05323262  1
  O  O30  1  0.91715051  0.54230416  0.16635761  1
  O  O31  1  0.44520995  0.09746303  0.19953679  1
  O  O32  1  0.52372238  0.46063304  0.17439888  1
  O  O33  1  0.82490731  0.20277649  0.44836255  1
  O  O34  1  0.80369922  0.81540195  0.16057457  1
  O  O35  1  0.97674201  0.37347468  0.98927299  1
  O  O36  1  0.93481079  0.72626744  0.34528557  1
  O  O37  1  0.19914981  0.44162978  0.11341866  1
  O  O38  1  0.45915447  0.75115225  0.12650305  1
  O  O39  1  0.05021440  0.24211252  0.60835621  1
  O  O40  1  0.27981214  0.28851027  0.30732417  1
  O  O41  1  0.88270096  0.49936358  0.50108183  1
  O  O42  1  0.02498959  0.75495689  0.99281746  1
  O  O43  1  0.57997023  0.56041064  0.43790801  1
  O  O44  1  0.52571977  0.20188819  0.49973399  1
  O  O45  1  0.44118387  0.04050178  0.68853440  1
  O  O46  1  0.63339891  0.86058293  0.32588184  1
  O  O47  1  0.07091691  0.43815702  0.32254275  1
  O  O48  1  0.87910385  0.57505148  0.68656514  1
  O  O49  1  0.65929219  0.69647993  0.57863116  1
  O  O50  1  0.21968461  0.52490950  0.50092044  1
  O  O51  1  0.51071791  0.88332110  0.51638296  1
  O  O52  1  0.28719327  0.25782793  0.72863029  1
  O  O53  1  0.50333524  0.23839545  0.87265050  1
  O  O54  1  0.77182203  0.50862464  0.88806072  1
  O  O55  1  0.26757247  0.99818690  0.37936616  1
  O  O56  1  0.75332581  0.01786615  0.63700512  1
  O  O57  1  0.81069690  0.83380766  0.81377081  1
  O  O58  1  0.44652558  0.56761507  0.81084743  1
  O  O59  1  0.19971538  0.81943229  0.55963798  1
  O  O60  1  0.44969458  0.44861290  0.58692430  1
  O  O61  1  0.07940813  0.48513820  0.80198107  1
  O  O62  1  0.55978292  0.94220491  0.82484001  1
  O  O63  1  0.05236268  0.93630122  0.67755423  1
  O  O64  1  0.30301625  0.69887649  0.93956033  1
