# generated using pymatgen
data_Pr2CdNi2
_symmetry_space_group_name_H-M   'P 1'
_cell_length_a   3.87191749
_cell_length_b   7.55563771
_cell_length_c   7.55563771
_cell_angle_alpha   90.00000000
_cell_angle_beta   90.00000000
_cell_angle_gamma   90.00000000
_symmetry_Int_Tables_number   1
_chemical_formula_structural   Pr2CdNi2
_chemical_formula_sum   'Pr4 Cd2 Ni4'
_cell_volume   221.03871388
_cell_formula_units_Z   2
loop_
 _symmetry_equiv_pos_site_id
 _symmetry_equiv_pos_as_xyz
  1  'x, y, z'
loop_
 _atom_site_type_symbol
 _atom_site_label
 _atom_site_symmetry_multiplicity
 _atom_site_fract_x
 _atom_site_fract_y
 _atom_site_fract_z
 _atom_site_occupancy
  Ni  Ni0  1  0.00000000  0.11606642  0.38393358  1
  Ni  Ni1  1  0.00000000  0.38393358  0.88393358  1
  Ni  Ni2  1  0.00000000  0.61606642  0.11606642  1
  Ni  Ni3  1  0.00000000  0.88393358  0.61606642  1
  Cd  Cd4  1  0.00000000  0.00000000  0.00000000  1
  Cd  Cd5  1  0.00000000  0.50000000  0.50000000  1
  Pr  Pr6  1  0.50000000  0.82235476  0.32235476  1
  Pr  Pr7  1  0.50000000  0.67764524  0.82235476  1
  Pr  Pr8  1  0.50000000  0.32235476  0.17764524  1
  Pr  Pr9  1  0.50000000  0.17764524  0.67764524  1
