# generated using pymatgen
data_Al9Ir2
_symmetry_space_group_name_H-M   'P 1'
_cell_length_a   6.40484557
_cell_length_b   6.46291893
_cell_length_c   8.77897770
_cell_angle_alpha   90.00000000
_cell_angle_beta   94.98986092
_cell_angle_gamma   90.00000000
_symmetry_Int_Tables_number   1
_chemical_formula_structural   Al9Ir2
_chemical_formula_sum   'Al18 Ir4'
_cell_volume   362.01974617
_cell_formula_units_Z   2
loop_
 _symmetry_equiv_pos_site_id
 _symmetry_equiv_pos_as_xyz
  1  'x, y, z'
loop_
 _atom_site_type_symbol
 _atom_site_label
 _atom_site_symmetry_multiplicity
 _atom_site_fract_x
 _atom_site_fract_y
 _atom_site_fract_z
 _atom_site_occupancy
  Al  Al0  1  0.00000000  0.50000000  0.50000000  1
  Al  Al1  1  0.00000000  0.00000000  0.00000000  1
  Al  Al2  1  0.78684447  0.39615888  0.96044976  1
  Al  Al3  1  0.21315553  0.89615888  0.53955024  1
  Al  Al4  1  0.59957944  0.48015155  0.22991687  1
  Al  Al5  1  0.40042056  0.98015155  0.27008313  1
  Al  Al6  1  0.40042056  0.51984845  0.77008313  1
  Al  Al7  1  0.59957944  0.01984845  0.72991687  1
  Al  Al8  1  0.61190919  0.69463104  0.50149443  1
  Al  Al9  1  0.38809081  0.19463104  0.99850557  1
  Al  Al10  1  0.38809081  0.30536896  0.49850557  1
  Al  Al11  1  0.61190919  0.80536896  0.00149443  1
  Al  Al12  1  0.90190606  0.78458914  0.27299706  1
  Al  Al13  1  0.09809394  0.28458914  0.22700294  1
  Al  Al14  1  0.09809394  0.21541086  0.72700294  1
  Al  Al15  1  0.90190606  0.71541086  0.77299706  1
  Al  Al16  1  0.78684447  0.10384112  0.46044976  1
  Al  Al17  1  0.21315553  0.60384112  0.03955024  1
  Ir  Ir18  1  0.73581789  0.37715247  0.66843083  1
  Ir  Ir19  1  0.26418211  0.87715247  0.83156917  1
  Ir  Ir20  1  0.26418211  0.62284753  0.33156917  1
  Ir  Ir21  1  0.73581789  0.12284753  0.16843083  1
