# generated using pymatgen
data_BaSeO4
_symmetry_space_group_name_H-M   'P 1'
_cell_length_a   5.82594158
_cell_length_b   7.51058064
_cell_length_c   9.18405536
_cell_angle_alpha   90.00000000
_cell_angle_beta   90.00000000
_cell_angle_gamma   90.00000000
_symmetry_Int_Tables_number   1
_chemical_formula_structural   BaSeO4
_chemical_formula_sum   'Ba4 Se4 O16'
_cell_volume   401.85940025
_cell_formula_units_Z   4
loop_
 _symmetry_equiv_pos_site_id
 _symmetry_equiv_pos_as_xyz
  1  'x, y, z'
loop_
 _atom_site_type_symbol
 _atom_site_label
 _atom_site_symmetry_multiplicity
 _atom_site_fract_x
 _atom_site_fract_y
 _atom_site_fract_z
 _atom_site_occupancy
  O  O0  1  0.51674140  0.31479943  0.42002722  1
  O  O1  1  0.01674140  0.68520057  0.57997278  1
  O  O2  1  0.48325860  0.81479943  0.07997278  1
  O  O3  1  0.98325860  0.18520057  0.92002722  1
  O  O4  1  0.48325860  0.68520057  0.57997278  1
  O  O5  1  0.98325860  0.31479943  0.42002722  1
  O  O6  1  0.51674140  0.18520057  0.92002722  1
  O  O7  1  0.01674140  0.81479943  0.07997278  1
  O  O8  1  0.25000000  0.59257954  0.89779489  1
  O  O9  1  0.75000000  0.40742046  0.10220511  1
  O  O10  1  0.75000000  0.09257954  0.60220511  1
  O  O11  1  0.25000000  0.90742046  0.39779489  1
  O  O12  1  0.25000000  0.53552981  0.19826592  1
  O  O13  1  0.75000000  0.46447019  0.80173408  1
  O  O14  1  0.75000000  0.03552981  0.30173408  1
  O  O15  1  0.25000000  0.96447019  0.69826592  1
  Se  Se16  1  0.25000000  0.81606316  0.56261710  1
  Se  Se17  1  0.75000000  0.18393684  0.43738290  1
  Se  Se18  1  0.75000000  0.31606316  0.93738290  1
  Se  Se19  1  0.25000000  0.68393684  0.06261710  1
  Ba  Ba20  1  0.25000000  0.34238761  0.68292521  1
  Ba  Ba21  1  0.75000000  0.65761239  0.31707479  1
  Ba  Ba22  1  0.75000000  0.84238761  0.81707479  1
  Ba  Ba23  1  0.25000000  0.15761239  0.18292521  1
