# generated using pymatgen
data_Li2Sn(BO3)2
_symmetry_space_group_name_H-M   'P 1'
_cell_length_a   8.15451901
_cell_length_b   6.50745068
_cell_length_c   9.73305649
_cell_angle_alpha   90.00000000
_cell_angle_beta   66.86444099
_cell_angle_gamma   90.00000000
_symmetry_Int_Tables_number   1
_chemical_formula_structural   Li2Sn(BO3)2
_chemical_formula_sum   'Li8 Sn4 B8 O24'
_cell_volume   474.94899135
_cell_formula_units_Z   4
loop_
 _symmetry_equiv_pos_site_id
 _symmetry_equiv_pos_as_xyz
  1  'x, y, z'
loop_
 _atom_site_type_symbol
 _atom_site_label
 _atom_site_symmetry_multiplicity
 _atom_site_fract_x
 _atom_site_fract_y
 _atom_site_fract_z
 _atom_site_occupancy
  Li  Li0  1  0.10024084  0.25664664  0.49332779  1
  Li  Li1  1  0.41302347  0.75210280  0.01654579  1
  Li  Li2  1  0.25903909  0.77347305  0.54654397  1
  Li  Li3  1  0.75903909  0.72652695  0.04654397  1
  Li  Li4  1  0.41552755  0.08048962  0.85449044  1
  Li  Li5  1  0.60024084  0.24335336  0.99332779  1
  Li  Li6  1  0.91552755  0.41951038  0.35449044  1
  Li  Li7  1  0.91302347  0.74789720  0.51654579  1
  Sn  Sn8  1  0.99455066  0.04646283  0.82816308  1
  Sn  Sn9  1  0.49455066  0.45353717  0.32816308  1
  Sn  Sn10  1  0.49947445  0.54039370  0.69200492  1
  Sn  Sn11  1  0.99947445  0.95960630  0.19200492  1
  B  B12  1  0.27687845  0.15872141  0.19212781  1
  B  B13  1  0.23338255  0.64420991  0.30172523  1
  B  B14  1  0.19226206  0.67491676  0.87906577  1
  B  B15  1  0.31647847  0.16882277  0.61056098  1
  B  B16  1  0.69226206  0.82508324  0.37906577  1
  B  B17  1  0.81647847  0.33117723  0.11056098  1
  B  B18  1  0.77687845  0.34127859  0.69212781  1
  B  B19  1  0.73338255  0.85579009  0.80172523  1
  O  O20  1  0.07802521  0.70345495  0.28754743  1
  O  O21  1  0.10016574  0.19538386  0.29233764  1
  O  O22  1  0.28473085  0.02685389  0.07468344  1
  O  O23  1  0.21598533  0.53707080  0.43267758  1
  O  O24  1  0.40838554  0.67159530  0.20515304  1
  O  O25  1  0.04645965  0.80294212  0.95940502  1
  O  O26  1  0.24390473  0.05774190  0.53324281  1
  O  O27  1  0.42813162  0.23042740  0.20317683  1
  O  O28  1  0.25781554  0.67861507  0.72386178  1
  O  O29  1  0.25024538  0.15265402  0.76698653  1
  O  O30  1  0.29179938  0.56374059  0.93582347  1
  O  O31  1  0.44950641  0.31809319  0.54596467  1
  O  O32  1  0.54645965  0.69705788  0.45940502  1
  O  O33  1  0.74390473  0.44225810  0.03324281  1
  O  O34  1  0.75781554  0.82138493  0.22386178  1
  O  O35  1  0.75024538  0.34734598  0.26698653  1
  O  O36  1  0.57802521  0.79654505  0.78754743  1
  O  O37  1  0.79179938  0.93625941  0.43582347  1
  O  O38  1  0.94950641  0.18190681  0.04596467  1
  O  O39  1  0.60016574  0.30461614  0.79233764  1
  O  O40  1  0.78473085  0.47314611  0.57468344  1
  O  O41  1  0.71598533  0.96292920  0.93267758  1
  O  O42  1  0.90838554  0.82840470  0.70515304  1
  O  O43  1  0.92813162  0.26957260  0.70317683  1
