# generated using pymatgen
data_Nd2CdNi2
_symmetry_space_group_name_H-M   'P 1'
_cell_length_a   3.83894448
_cell_length_b   7.51427548
_cell_length_c   7.51427548
_cell_angle_alpha   90.00000000
_cell_angle_beta   90.00000000
_cell_angle_gamma   90.00000000
_symmetry_Int_Tables_number   1
_chemical_formula_structural   Nd2CdNi2
_chemical_formula_sum   'Nd4 Cd2 Ni4'
_cell_volume   216.76345096
_cell_formula_units_Z   2
loop_
 _symmetry_equiv_pos_site_id
 _symmetry_equiv_pos_as_xyz
  1  'x, y, z'
loop_
 _atom_site_type_symbol
 _atom_site_label
 _atom_site_symmetry_multiplicity
 _atom_site_fract_x
 _atom_site_fract_y
 _atom_site_fract_z
 _atom_site_occupancy
  Ni  Ni0  1  0.00000000  0.11653203  0.38346797  1
  Ni  Ni1  1  0.00000000  0.38346797  0.88346797  1
  Ni  Ni2  1  0.00000000  0.61653203  0.11653203  1
  Ni  Ni3  1  0.00000000  0.88346797  0.61653203  1
  Cd  Cd4  1  0.00000000  0.00000000  0.00000000  1
  Cd  Cd5  1  0.00000000  0.50000000  0.50000000  1
  Nd  Nd6  1  0.50000000  0.82270516  0.32270516  1
  Nd  Nd7  1  0.50000000  0.67729484  0.82270516  1
  Nd  Nd8  1  0.50000000  0.32270516  0.17729484  1
  Nd  Nd9  1  0.50000000  0.17729484  0.67729484  1
