# generated using pymatgen
data_LiLa2IrO6
_symmetry_space_group_name_H-M   'P 1'
_cell_length_a   5.55837143
_cell_length_b   5.79223392
_cell_length_c   7.90304712
_cell_angle_alpha   90.00000000
_cell_angle_beta   90.38368756
_cell_angle_gamma   90.00000000
_symmetry_Int_Tables_number   1
_chemical_formula_structural   LiLa2IrO6
_chemical_formula_sum   'Li2 La4 Ir2 O12'
_cell_volume   254.43595965
_cell_formula_units_Z   2
loop_
 _symmetry_equiv_pos_site_id
 _symmetry_equiv_pos_as_xyz
  1  'x, y, z'
loop_
 _atom_site_type_symbol
 _atom_site_label
 _atom_site_symmetry_multiplicity
 _atom_site_fract_x
 _atom_site_fract_y
 _atom_site_fract_z
 _atom_site_occupancy
  Li  Li0  1  0.00000000  0.00000000  0.00000000  1
  Li  Li1  1  0.50000000  0.50000000  0.50000000  1
  O  O2  1  0.18684243  0.28533938  0.45177869  1
  O  O3  1  0.31315757  0.78533938  0.04822131  1
  O  O4  1  0.81315757  0.71466062  0.54822131  1
  O  O5  1  0.68684243  0.21466062  0.95177869  1
  O  O6  1  0.08767756  0.02376706  0.74473401  1
  O  O7  1  0.41232244  0.52376706  0.75526599  1
  O  O8  1  0.20706396  0.30806016  0.04485383  1
  O  O9  1  0.29293604  0.80806016  0.45514617  1
  O  O10  1  0.79293604  0.69193984  0.95514617  1
  O  O11  1  0.70706396  0.19193984  0.54485383  1
  O  O12  1  0.58767756  0.47623294  0.24473401  1
  O  O13  1  0.91232244  0.97623294  0.25526599  1
  La  La14  1  0.48729094  0.06120842  0.25179066  1
  La  La15  1  0.01270906  0.56120842  0.24820934  1
  La  La16  1  0.98729094  0.43879158  0.75179066  1
  La  La17  1  0.51270906  0.93879158  0.74820934  1
  Ir  Ir18  1  0.50000000  0.50000000  0.00000000  1
  Ir  Ir19  1  0.00000000  0.00000000  0.50000000  1
