# generated using pymatgen
data_Hf2N2O
_symmetry_space_group_name_H-M   'P 1'
_cell_length_a   3.27158064
_cell_length_b   7.01107089
_cell_length_c   8.19391488
_cell_angle_alpha   80.18129864
_cell_angle_beta   90.00000000
_cell_angle_gamma   76.50765776
_symmetry_Int_Tables_number   1
_chemical_formula_structural   Hf2N2O
_chemical_formula_sum   'Hf6 N6 O3'
_cell_volume   179.92671746
_cell_formula_units_Z   3
loop_
 _symmetry_equiv_pos_site_id
 _symmetry_equiv_pos_as_xyz
  1  'x, y, z'
loop_
 _atom_site_type_symbol
 _atom_site_label
 _atom_site_symmetry_multiplicity
 _atom_site_fract_x
 _atom_site_fract_y
 _atom_site_fract_z
 _atom_site_occupancy
  Hf  Hf0  1  0.03041120  0.93917759  0.80019921  1
  Hf  Hf1  1  0.63844689  0.72310522  0.47399187  1
  Hf  Hf2  1  0.69535785  0.60928530  0.13342396  1
  Hf  Hf3  1  0.30556158  0.38887684  0.86845902  1
  Hf  Hf4  1  0.36420570  0.27158860  0.52002004  1
  Hf  Hf5  1  0.96465605  0.07068791  0.18677988  1
  N  N6  1  0.53584526  0.92831048  0.64867273  1
  N  N7  1  0.16979738  0.66040424  0.96483803  1
  N  N8  1  0.12158379  0.75683342  0.29076548  1
  N  N9  1  0.79541990  0.40916019  0.37903333  1
  N  N10  1  0.87453356  0.25093187  0.72702195  1
  N  N11  1  0.82703102  0.34593796  0.03653970  1
  O  O12  1  0.21453737  0.57092526  0.61936912  1
  O  O13  1  0.46536017  0.06927967  0.33850821  1
  O  O14  1  0.49725228  0.00549644  0.01237648  1
