# generated using pymatgen
data_KPrGeSe4
_symmetry_space_group_name_H-M   'P 1'
_cell_length_a   6.97772526
_cell_length_b   7.15458742
_cell_length_c   9.19580228
_cell_angle_alpha   90.00000000
_cell_angle_beta   107.60573349
_cell_angle_gamma   90.00000000
_symmetry_Int_Tables_number   1
_chemical_formula_structural   KPrGeSe4
_chemical_formula_sum   'K2 Pr2 Ge2 Se8'
_cell_volume   437.57658890
_cell_formula_units_Z   2
loop_
 _symmetry_equiv_pos_site_id
 _symmetry_equiv_pos_as_xyz
  1  'x, y, z'
loop_
 _atom_site_type_symbol
 _atom_site_label
 _atom_site_symmetry_multiplicity
 _atom_site_fract_x
 _atom_site_fract_y
 _atom_site_fract_z
 _atom_site_occupancy
  K  K0  1  0.74414385  0.50433049  0.93697837  1
  K  K1  1  0.25585615  0.00433049  0.06302163  1
  Ge  Ge2  1  0.77789330  0.03180322  0.67710724  1
  Ge  Ge3  1  0.22210670  0.53180322  0.32289276  1
  Se  Se4  1  0.98304560  0.75770928  0.71128177  1
  Se  Se5  1  0.02988520  0.27051938  0.72827938  1
  Se  Se6  1  0.42248365  0.53613624  0.15795690  1
  Se  Se7  1  0.57751635  0.03613624  0.84204310  1
  Se  Se8  1  0.57310236  0.09730663  0.42347897  1
  Se  Se9  1  0.42689764  0.59730663  0.57652103  1
  Se  Se10  1  0.97011480  0.77051938  0.27172062  1
  Se  Se11  1  0.01695440  0.25770928  0.28871823  1
  Pr  Pr12  1  0.77113928  0.49889476  0.44771078  1
  Pr  Pr13  1  0.22886072  0.99889476  0.55228922  1
