# generated using pymatgen
data_CeAl4Ge2Au
_symmetry_space_group_name_H-M   'P 1'
_cell_length_a   10.77492253
_cell_length_b   10.77492253
_cell_length_c   10.77492253
_cell_angle_alpha   22.82681387
_cell_angle_beta   22.82681386
_cell_angle_gamma   22.82681385
_symmetry_Int_Tables_number   1
_chemical_formula_structural   CeAl4Ge2Au
_chemical_formula_sum   'Ce1 Al4 Ge2 Au1'
_cell_volume   165.20451827
_cell_formula_units_Z   1
loop_
 _symmetry_equiv_pos_site_id
 _symmetry_equiv_pos_as_xyz
  1  'x, y, z'
loop_
 _atom_site_type_symbol
 _atom_site_label
 _atom_site_symmetry_multiplicity
 _atom_site_fract_x
 _atom_site_fract_y
 _atom_site_fract_z
 _atom_site_occupancy
  Al  Al0  1  0.91654557  0.91654557  0.91654557  1
  Al  Al1  1  0.69236580  0.69236580  0.69236580  1
  Al  Al2  1  0.08345443  0.08345443  0.08345443  1
  Al  Al3  1  0.30763420  0.30763420  0.30763420  1
  Ge  Ge4  1  0.77632850  0.77632850  0.77632850  1
  Ge  Ge5  1  0.22367150  0.22367150  0.22367150  1
  Ce  Ce6  1  0.50000000  0.50000000  0.50000000  1
  Au  Au7  1  0.00000000  0.00000000  0.00000000  1
