# generated using pymatgen
data_RbVSe2
_symmetry_space_group_name_H-M   'P 1'
_cell_length_a   5.77970503
_cell_length_b   7.56275033
_cell_length_c   12.95499282
_cell_angle_alpha   85.11027594
_cell_angle_beta   77.11066734
_cell_angle_gamma   67.53514798
_symmetry_Int_Tables_number   1
_chemical_formula_structural   RbVSe2
_chemical_formula_sum   'Rb4 V4 Se8'
_cell_volume   510.11131883
_cell_formula_units_Z   4
loop_
 _symmetry_equiv_pos_site_id
 _symmetry_equiv_pos_as_xyz
  1  'x, y, z'
loop_
 _atom_site_type_symbol
 _atom_site_label
 _atom_site_symmetry_multiplicity
 _atom_site_fract_x
 _atom_site_fract_y
 _atom_site_fract_z
 _atom_site_occupancy
  V  V0  1  0.12500000  0.75000000  0.75000000  1
  V  V1  1  0.87500000  0.25000000  0.25000000  1
  V  V2  1  0.62500000  0.75000000  0.75000000  1
  V  V3  1  0.37500000  0.25000000  0.25000000  1
  Se  Se4  1  0.27342020  0.05715416  0.14488924  1
  Se  Se5  1  0.97546360  0.44284584  0.35511076  1
  Se  Se6  1  0.66942564  0.05715416  0.35511076  1
  Se  Se7  1  0.58169056  0.44284584  0.14488924  1
  Se  Se8  1  0.72657980  0.94284584  0.85511076  1
  Se  Se9  1  0.02453640  0.55715416  0.64488924  1
  Se  Se10  1  0.33057436  0.94284584  0.64488924  1
  Se  Se11  1  0.41830944  0.55715416  0.85511076  1
  Rb  Rb12  1  0.94822621  0.75000000  0.10354758  1
  Rb  Rb13  1  0.30177379  0.75000000  0.39645242  1
  Rb  Rb14  1  0.05177379  0.25000000  0.89645242  1
  Rb  Rb15  1  0.69822621  0.25000000  0.60354758  1
