# generated using pymatgen
data_Gd2Mo2C3
_symmetry_space_group_name_H-M   'P 1'
_cell_length_a   3.37260815
_cell_length_b   5.78490203
_cell_length_c   6.18186076
_cell_angle_alpha   112.34482274
_cell_angle_beta   105.82991527
_cell_angle_gamma   90.00000002
_symmetry_Int_Tables_number   1
_chemical_formula_structural   Gd2Mo2C3
_chemical_formula_sum   'Gd2 Mo2 C3'
_cell_volume   106.59119924
_cell_formula_units_Z   1
loop_
 _symmetry_equiv_pos_site_id
 _symmetry_equiv_pos_as_xyz
  1  'x, y, z'
loop_
 _atom_site_type_symbol
 _atom_site_label
 _atom_site_symmetry_multiplicity
 _atom_site_fract_x
 _atom_site_fract_y
 _atom_site_fract_z
 _atom_site_occupancy
  C  C0  1  0.00000000  0.00000000  0.00000000  1
  C  C1  1  0.24952561  0.73140355  0.49905121  1
  C  C2  1  0.75047439  0.26859645  0.50094879  1
  Mo  Mo3  1  0.15820881  0.32459268  0.31641763  1
  Mo  Mo4  1  0.84179119  0.67540732  0.68358237  1
  Gd  Gd5  1  0.39120698  0.17918596  0.78241396  1
  Gd  Gd6  1  0.60879302  0.82081404  0.21758604  1
