# generated using pymatgen
data_Ba(POs)2
_symmetry_space_group_name_H-M   'P 1'
_cell_length_a   4.08390079
_cell_length_b   4.08390078
_cell_length_c   6.78850983
_cell_angle_alpha   107.50536400
_cell_angle_beta   107.50536394
_cell_angle_gamma   90.00000000
_symmetry_Int_Tables_number   1
_chemical_formula_structural   Ba(POs)2
_chemical_formula_sum   'Ba1 P2 Os2'
_cell_volume   102.46572134
_cell_formula_units_Z   1
loop_
 _symmetry_equiv_pos_site_id
 _symmetry_equiv_pos_as_xyz
  1  'x, y, z'
loop_
 _atom_site_type_symbol
 _atom_site_label
 _atom_site_symmetry_multiplicity
 _atom_site_fract_x
 _atom_site_fract_y
 _atom_site_fract_z
 _atom_site_occupancy
  P  P0  1  0.65567042  0.65567042  0.31134084  1
  P  P1  1  0.34432958  0.34432958  0.68865916  1
  Ba  Ba2  1  0.00000000  0.00000000  0.00000000  1
  Os  Os3  1  0.75000000  0.25000000  0.50000000  1
  Os  Os4  1  0.25000000  0.75000000  0.50000000  1
