# generated using pymatgen
data_NdAl4Ge2Au
_symmetry_space_group_name_H-M   'P 1'
_cell_length_a   10.79187798
_cell_length_b   10.79187798
_cell_length_c   10.79187798
_cell_angle_alpha   22.85373109
_cell_angle_beta   22.85373111
_cell_angle_gamma   22.85373110
_symmetry_Int_Tables_number   1
_chemical_formula_structural   NdAl4Ge2Au
_chemical_formula_sum   'Nd1 Al4 Ge2 Au1'
_cell_volume   166.36145709
_cell_formula_units_Z   1
loop_
 _symmetry_equiv_pos_site_id
 _symmetry_equiv_pos_as_xyz
  1  'x, y, z'
loop_
 _atom_site_type_symbol
 _atom_site_label
 _atom_site_symmetry_multiplicity
 _atom_site_fract_x
 _atom_site_fract_y
 _atom_site_fract_z
 _atom_site_occupancy
  Al  Al0  1  0.91721732  0.91721732  0.91721732  1
  Al  Al1  1  0.69187660  0.69187660  0.69187660  1
  Al  Al2  1  0.08278268  0.08278268  0.08278268  1
  Al  Al3  1  0.30812340  0.30812340  0.30812340  1
  Ge  Ge4  1  0.77555433  0.77555433  0.77555433  1
  Ge  Ge5  1  0.22444567  0.22444567  0.22444567  1
  Nd  Nd6  1  0.50000000  0.50000000  0.50000000  1
  Au  Au7  1  0.00000000  0.00000000  0.00000000  1
