# generated using pymatgen
data_Tb2(Ga3Ir)3
_symmetry_space_group_name_H-M   'P 1'
_cell_length_a   7.60309267
_cell_length_b   7.60309267
_cell_length_c   9.51633442
_cell_angle_alpha   90.00000000
_cell_angle_beta   90.00000000
_cell_angle_gamma   119.96797505
_symmetry_Int_Tables_number   1
_chemical_formula_structural   Tb2(Ga3Ir)3
_chemical_formula_sum   'Tb4 Ga18 Ir6'
_cell_volume   476.56369353
_cell_formula_units_Z   2
loop_
 _symmetry_equiv_pos_site_id
 _symmetry_equiv_pos_as_xyz
  1  'x, y, z'
loop_
 _atom_site_type_symbol
 _atom_site_label
 _atom_site_symmetry_multiplicity
 _atom_site_fract_x
 _atom_site_fract_y
 _atom_site_fract_z
 _atom_site_occupancy
  Tb  Tb0  1  0.66786517  0.99709908  0.25000000  1
  Tb  Tb1  1  0.33213483  0.00290092  0.75000000  1
  Tb  Tb2  1  0.99709908  0.66786517  0.25000000  1
  Tb  Tb3  1  0.00290092  0.33213483  0.75000000  1
  Ga  Ga4  1  0.12702248  0.12702248  0.25000000  1
  Ga  Ga5  1  0.87297752  0.87297752  0.75000000  1
  Ga  Ga6  1  0.33378861  0.99940252  0.07983282  1
  Ga  Ga7  1  0.66621139  0.00059748  0.92016718  1
  Ga  Ga8  1  0.66621139  0.00059748  0.57983282  1
  Ga  Ga9  1  0.99940252  0.33378861  0.42016718  1
  Ga  Ga10  1  0.33378861  0.99940252  0.42016718  1
  Ga  Ga11  1  0.00059748  0.66621139  0.57983282  1
  Ga  Ga12  1  0.00059748  0.66621139  0.92016718  1
  Ga  Ga13  1  0.99940252  0.33378861  0.07983282  1
  Ga  Ga14  1  0.33294364  0.33294364  0.56336272  1
  Ga  Ga15  1  0.66705636  0.66705636  0.43663728  1
  Ga  Ga16  1  0.66705636  0.66705636  0.06336272  1
  Ga  Ga17  1  0.33294364  0.33294364  0.93663728  1
  Ga  Ga18  1  0.54556069  0.33869831  0.25000000  1
  Ga  Ga19  1  0.45443931  0.66130169  0.75000000  1
  Ga  Ga20  1  0.33869831  0.54556069  0.25000000  1
  Ga  Ga21  1  0.66130169  0.45443931  0.75000000  1
  Ir  Ir22  1  0.32857301  0.67142699  0.00000000  1
  Ir  Ir23  1  0.67142699  0.32857301  0.00000000  1
  Ir  Ir24  1  0.67142699  0.32857301  0.50000000  1
  Ir  Ir25  1  0.32857301  0.67142699  0.50000000  1
  Ir  Ir26  1  0.00000000  -0.00000000  0.00000000  1
  Ir  Ir27  1  0.00000000  -0.00000000  0.50000000  1
