# generated using pymatgen
data_Sn9(O2F5)2
_symmetry_space_group_name_H-M   'P 1'
_cell_length_a   10.75027178
_cell_length_b   10.75027178
_cell_length_c   7.61292987
_cell_angle_alpha   90.00000000
_cell_angle_beta   90.00000000
_cell_angle_gamma   90.00000000
_symmetry_Int_Tables_number   1
_chemical_formula_structural   Sn9(O2F5)2
_chemical_formula_sum   'Sn18 O8 F20'
_cell_volume   879.81369307
_cell_formula_units_Z   2
loop_
 _symmetry_equiv_pos_site_id
 _symmetry_equiv_pos_as_xyz
  1  'x, y, z'
loop_
 _atom_site_type_symbol
 _atom_site_label
 _atom_site_symmetry_multiplicity
 _atom_site_fract_x
 _atom_site_fract_y
 _atom_site_fract_z
 _atom_site_occupancy
  Sn  Sn0  1  0.00747641  0.86351097  0.16651575  1
  Sn  Sn1  1  0.10245482  0.82050448  0.66307139  1
  Sn  Sn2  1  0.13648903  0.50747641  0.83348425  1
  Sn  Sn3  1  0.17949552  0.60245482  0.33692861  1
  Sn  Sn4  1  0.25000000  0.25000000  0.19269224  1
  Sn  Sn5  1  0.32050448  0.89754518  0.33692861  1
  Sn  Sn6  1  0.36351097  0.99252359  0.83348425  1
  Sn  Sn7  1  0.39754518  0.67949552  0.66307139  1
  Sn  Sn8  1  0.49252359  0.63648903  0.16651575  1
  Sn  Sn9  1  0.50747641  0.36351097  0.83348425  1
  Sn  Sn10  1  0.60245482  0.32050448  0.33692861  1
  Sn  Sn11  1  0.63648903  0.00747641  0.16651575  1
  Sn  Sn12  1  0.67949552  0.10245482  0.66307139  1
  Sn  Sn13  1  0.75000000  0.75000000  0.80730776  1
  Sn  Sn14  1  0.82050448  0.39754518  0.66307139  1
  Sn  Sn15  1  0.86351097  0.49252359  0.16651575  1
  Sn  Sn16  1  0.89754518  0.17949552  0.33692861  1
  Sn  Sn17  1  0.99252359  0.13648903  0.83348425  1
  O  O18  1  0.13107847  0.80466980  0.37223509  1
  O  O19  1  0.19533020  0.63107847  0.62776491  1
  O  O20  1  0.30466980  0.86892153  0.62776491  1
  O  O21  1  0.36892153  0.69533020  0.37223509  1
  O  O22  1  0.63107847  0.30466980  0.62776491  1
  O  O23  1  0.69533020  0.13107847  0.37223509  1
  O  O24  1  0.80466980  0.36892153  0.37223509  1
  O  O25  1  0.86892153  0.19533020  0.62776491  1
  F  F26  1  0.03544207  0.37219795  0.15698424  1
  F  F27  1  0.05865850  0.38804733  0.63894767  1
  F  F28  1  0.12780205  0.03544207  0.15698424  1
  F  F29  1  0.11195267  0.05865850  0.63894767  1
  F  F30  1  0.25000000  0.25000000  0.92581306  1
  F  F31  1  0.25000000  0.75000000  0.00000000  1
  F  F32  1  0.38804733  0.44134150  0.63894767  1
  F  F33  1  0.37219795  0.46455793  0.15698424  1
  F  F34  1  0.44134150  0.11195267  0.63894767  1
  F  F35  1  0.46455793  0.12780205  0.15698424  1
  F  F36  1  0.53544207  0.87219795  0.84301576  1
  F  F37  1  0.55865850  0.88804733  0.36105233  1
  F  F38  1  0.62780205  0.53544207  0.84301576  1
  F  F39  1  0.61195267  0.55865850  0.36105233  1
  F  F40  1  0.75000000  0.25000000  0.00000000  1
  F  F41  1  0.75000000  0.75000000  0.07418694  1
  F  F42  1  0.88804733  0.94134150  0.36105233  1
  F  F43  1  0.87219795  0.96455793  0.84301576  1
  F  F44  1  0.94134150  0.61195267  0.36105233  1
  F  F45  1  0.96455793  0.62780205  0.84301576  1
