# generated using pymatgen
data_Rb2LaBr5
_symmetry_space_group_name_H-M   'P 1'
_cell_length_a   8.85496206
_cell_length_b   9.54470807
_cell_length_c   14.30243936
_cell_angle_alpha   90.00000000
_cell_angle_beta   90.00000000
_cell_angle_gamma   90.00000000
_symmetry_Int_Tables_number   1
_chemical_formula_structural   Rb2LaBr5
_chemical_formula_sum   'Rb8 La4 Br20'
_cell_volume   1208.81396792
_cell_formula_units_Z   4
loop_
 _symmetry_equiv_pos_site_id
 _symmetry_equiv_pos_as_xyz
  1  'x, y, z'
loop_
 _atom_site_type_symbol
 _atom_site_label
 _atom_site_symmetry_multiplicity
 _atom_site_fract_x
 _atom_site_fract_y
 _atom_site_fract_z
 _atom_site_occupancy
  Rb  Rb0  1  0.55313632  0.49512210  0.67248514  1
  Rb  Rb1  1  0.44686368  0.50487790  0.32751486  1
  Rb  Rb2  1  0.05313632  0.50487790  0.82751486  1
  Rb  Rb3  1  0.44686368  0.99512210  0.32751486  1
  Rb  Rb4  1  0.94686368  0.49512210  0.17248514  1
  Rb  Rb5  1  0.55313632  0.00487790  0.67248514  1
  Rb  Rb6  1  0.94686368  0.00487790  0.17248514  1
  Rb  Rb7  1  0.05313632  0.99512210  0.82751486  1
  La  La8  1  0.57364458  0.75000000  0.99591584  1
  La  La9  1  0.42635542  0.25000000  0.00408416  1
  La  La10  1  0.07364458  0.25000000  0.50408416  1
  La  La11  1  0.92635542  0.75000000  0.49591584  1
  Br  Br12  1  0.37818580  0.75000000  0.82556395  1
  Br  Br13  1  0.62181420  0.25000000  0.17443605  1
  Br  Br14  1  0.87818580  0.25000000  0.67443605  1
  Br  Br15  1  0.12181420  0.75000000  0.32556395  1
  Br  Br16  1  0.66051195  0.45753931  0.92549694  1
  Br  Br17  1  0.33948805  0.54246069  0.07450306  1
  Br  Br18  1  0.16051195  0.54246069  0.57450306  1
  Br  Br19  1  0.33948805  0.95753931  0.07450306  1
  Br  Br20  1  0.83948805  0.45753931  0.42549694  1
  Br  Br21  1  0.66051195  0.04246069  0.92549694  1
  Br  Br22  1  0.83948805  0.04246069  0.42549694  1
  Br  Br23  1  0.16051195  0.95753931  0.57450306  1
  Br  Br24  1  0.91443245  0.75000000  0.99122532  1
  Br  Br25  1  0.08556755  0.25000000  0.00877468  1
  Br  Br26  1  0.41443245  0.25000000  0.50877468  1
  Br  Br27  1  0.58556755  0.75000000  0.49122532  1
  Br  Br28  1  0.83992237  0.75000000  0.69839211  1
  Br  Br29  1  0.16007763  0.25000000  0.30160789  1
  Br  Br30  1  0.33992237  0.25000000  0.80160789  1
  Br  Br31  1  0.66007763  0.75000000  0.19839211  1
