# generated using pymatgen
data_Li10Zn3(GeO4)4
_symmetry_space_group_name_H-M   'P 1'
_cell_length_a   11.05642464
_cell_length_b   6.49135790
_cell_length_c   5.37418950
_cell_angle_alpha   91.49985190
_cell_angle_beta   91.86255726
_cell_angle_gamma   91.97588393
_symmetry_Int_Tables_number   1
_chemical_formula_structural   Li10Zn3(GeO4)4
_chemical_formula_sum   'Li10 Zn3 Ge4 O16'
_cell_volume   385.13521505
_cell_formula_units_Z   1
loop_
 _symmetry_equiv_pos_site_id
 _symmetry_equiv_pos_as_xyz
  1  'x, y, z'
loop_
 _atom_site_type_symbol
 _atom_site_label
 _atom_site_symmetry_multiplicity
 _atom_site_fract_x
 _atom_site_fract_y
 _atom_site_fract_z
 _atom_site_occupancy
  Li  Li0  1  0.07828626  0.25714373  0.64787026  1
  Li  Li1  1  0.17485924  0.45313195  0.14660292  1
  Li  Li2  1  0.43198848  0.73585480  0.17268242  1
  Li  Li3  1  0.49021954  0.07409631  0.82365752  1
  Li  Li4  1  0.65710438  0.96505883  0.17329161  1
  Li  Li5  1  0.81445433  0.05195723  0.60968869  1
  Li  Li6  1  0.80247774  0.79827338  0.92416285  1
  Li  Li7  1  0.83090782  0.45686376  0.62511143  1
  Li  Li8  1  0.93525458  0.74272539  0.36680377  1
  Li  Li9  1  0.94494839  0.52550097  0.98901050  1
  Zn  Zn10  1  0.18026380  0.97150078  0.31983976  1
  Zn  Zn11  1  0.34449820  0.50378994  0.77496427  1
  Zn  Zn12  1  0.66531919  0.45183864  0.14832851  1
  Ge  Ge13  1  0.09262271  0.76060403  0.81115966  1
  Ge  Ge14  1  0.41771221  0.23778659  0.29246882  1
  Ge  Ge15  1  0.60007692  0.72443256  0.66012402  1
  Ge  Ge16  1  0.91883013  0.19136436  0.14802365  1
  O  O17  1  0.07079199  0.22285190  0.26715031  1
  O  O18  1  0.07969593  0.73755558  0.14723226  1
  O  O19  1  0.15135546  0.98394287  0.68367310  1
  O  O20  1  0.16524928  0.52289094  0.75079417  1
  O  O21  1  0.34786285  0.45327472  0.15506107  1
  O  O22  1  0.34409195  0.99536070  0.21186246  1
  O  O23  1  0.42605217  0.27994772  0.61731773  1
  O  O24  1  0.45417141  0.75337753  0.78285966  1
  O  O25  1  0.59971482  0.70119526  0.32775249  1
  O  O26  1  0.56254963  0.20330930  0.16314861  1
  O  O27  1  0.67650060  0.95737484  0.77267518  1
  O  O28  1  0.69527809  0.54155682  0.80562242  1
  O  O29  1  0.84618872  0.42505980  0.26635055  1
  O  O30  1  0.83823820  0.96979979  0.24655677  1
  O  O31  1  0.91757221  0.24437196  0.82303639  1
  O  O32  1  0.93489175  0.71599202  0.72068417  1
