# generated using pymatgen
data_Hg3(PO4)2
_symmetry_space_group_name_H-M   'P 1'
_cell_length_a   6.52886273
_cell_length_b   10.12748442
_cell_length_c   11.69084022
_cell_angle_alpha   90.00000000
_cell_angle_beta   90.00000000
_cell_angle_gamma   99.43600509
_symmetry_Int_Tables_number   1
_chemical_formula_structural   Hg3(PO4)2
_chemical_formula_sum   'Hg12 P8 O32'
_cell_volume   762.55019124
_cell_formula_units_Z   4
loop_
 _symmetry_equiv_pos_site_id
 _symmetry_equiv_pos_as_xyz
  1  'x, y, z'
loop_
 _atom_site_type_symbol
 _atom_site_label
 _atom_site_symmetry_multiplicity
 _atom_site_fract_x
 _atom_site_fract_y
 _atom_site_fract_z
 _atom_site_occupancy
  O  O0  1  0.90280757  0.86201806  0.56122030  1
  O  O1  1  0.59719243  0.13798194  0.06122030  1
  O  O2  1  0.09719243  0.13798194  0.43877970  1
  O  O3  1  0.40280757  0.86201806  0.93877970  1
  O  O4  1  0.30447197  0.91579323  0.56045115  1
  O  O5  1  0.19552803  0.08420677  0.06045115  1
  O  O6  1  0.69552803  0.08420677  0.43954885  1
  O  O7  1  0.80447197  0.91579323  0.93954885  1
  O  O8  1  0.13355395  0.77684428  0.71663310  1
  O  O9  1  0.36644605  0.22315572  0.21663310  1
  O  O10  1  0.86644605  0.22315572  0.28336690  1
  O  O11  1  0.63355395  0.77684428  0.78336690  1
  O  O12  1  0.08584618  0.02324580  0.70603182  1
  O  O13  1  0.41415382  0.97675420  0.20603182  1
  O  O14  1  0.91415382  0.97675420  0.29396818  1
  O  O15  1  0.58584618  0.02324580  0.79396818  1
  O  O16  1  0.81829434  0.49918849  0.18628362  1
  O  O17  1  0.68170566  0.50081151  0.68628362  1
  O  O18  1  0.18170566  0.50081151  0.81371638  1
  O  O19  1  0.31829434  0.49918849  0.31371638  1
  O  O20  1  0.25997691  0.55124826  0.52360610  1
  O  O21  1  0.24002309  0.44875174  0.02360610  1
  O  O22  1  0.74002309  0.44875174  0.47639390  1
  O  O23  1  0.75997691  0.55124826  0.97639390  1
  O  O24  1  0.51700041  0.71650320  0.40671211  1
  O  O25  1  0.98299959  0.28349680  0.90671211  1
  O  O26  1  0.48299959  0.28349680  0.59328789  1
  O  O27  1  0.01700041  0.71650320  0.09328789  1
  O  O28  1  0.14925069  0.70200674  0.36320187  1
  O  O29  1  0.35074931  0.29799326  0.86320187  1
  O  O30  1  0.85074931  0.29799326  0.63679813  1
  O  O31  1  0.64925069  0.70200674  0.13679813  1
  P  P32  1  0.09989513  0.89363599  0.63363666  1
  P  P33  1  0.40010487  0.10636401  0.13363666  1
  P  P34  1  0.90010487  0.10636401  0.36636334  1
  P  P35  1  0.59989513  0.89363599  0.86636334  1
  P  P36  1  0.81186284  0.61149111  0.09874452  1
  P  P37  1  0.68813716  0.38850889  0.59874452  1
  P  P38  1  0.18813716  0.38850889  0.90125548  1
  P  P39  1  0.31186284  0.61149111  0.40125548  1
  Hg  Hg40  1  0.92006978  0.65291633  0.82940401  1
  Hg  Hg41  1  0.57993022  0.34708367  0.32940401  1
  Hg  Hg42  1  0.07993022  0.34708367  0.17059599  1
  Hg  Hg43  1  0.42006978  0.65291633  0.67059599  1
  Hg  Hg44  1  0.33142139  0.69475483  0.09977505  1
  Hg  Hg45  1  0.16857861  0.30524517  0.59977505  1
  Hg  Hg46  1  0.66857861  0.30524517  0.90022495  1
  Hg  Hg47  1  0.83142139  0.69475483  0.40022495  1
  Hg  Hg48  1  0.17957132  0.03904528  0.88066222  1
  Hg  Hg49  1  0.32042868  0.96095472  0.38066222  1
  Hg  Hg50  1  0.82042868  0.96095472  0.11933778  1
  Hg  Hg51  1  0.67957132  0.03904528  0.61933778  1
