# generated using pymatgen
data_Li2Nb(PO4)2
_symmetry_space_group_name_H-M   'P 1'
_cell_length_a   4.91468256
_cell_length_b   4.96729819
_cell_length_c   7.72111253
_cell_angle_alpha   89.50803473
_cell_angle_beta   90.55394021
_cell_angle_gamma   120.57340488
_symmetry_Int_Tables_number   1
_chemical_formula_structural   Li2Nb(PO4)2
_chemical_formula_sum   'Li2 Nb1 P2 O8'
_cell_volume   162.27944354
_cell_formula_units_Z   1
loop_
 _symmetry_equiv_pos_site_id
 _symmetry_equiv_pos_as_xyz
  1  'x, y, z'
loop_
 _atom_site_type_symbol
 _atom_site_label
 _atom_site_symmetry_multiplicity
 _atom_site_fract_x
 _atom_site_fract_y
 _atom_site_fract_z
 _atom_site_occupancy
  Li  Li0  1  0.33322014  0.66070760  0.66685488  1
  Li  Li1  1  0.66663237  0.33924736  0.33314307  1
  Nb  Nb2  1  0.99998205  0.00002522  0.00000572  1
  P  P3  1  0.33069753  0.66428833  0.23326087  1
  P  P4  1  0.66925815  0.33571398  0.76674075  1
  O  O5  1  0.03760275  0.67591905  0.16092985  1
  O  O6  1  0.33728188  0.67005601  0.42702656  1
  O  O7  1  0.30899873  0.35484272  0.16658951  1
  O  O8  1  0.64062972  0.95023007  0.15826454  1
  O  O9  1  0.35933885  0.04973145  0.84171252  1
  O  O10  1  0.69097072  0.64512789  0.83346176  1
  O  O11  1  0.66271446  0.33005989  0.57297024  1
  O  O12  1  0.96237266  0.32404943  0.83903974  1
