# generated using pymatgen
data_La2SnS5
_symmetry_space_group_name_H-M   'P 1'
_cell_length_a   4.04407312
_cell_length_b   7.94617599
_cell_length_c   11.36764558
_cell_angle_alpha   90.00000000
_cell_angle_beta   90.00000000
_cell_angle_gamma   90.00000000
_symmetry_Int_Tables_number   1
_chemical_formula_structural   La2SnS5
_chemical_formula_sum   'La4 Sn2 S10'
_cell_volume   365.29834411
_cell_formula_units_Z   2
loop_
 _symmetry_equiv_pos_site_id
 _symmetry_equiv_pos_as_xyz
  1  'x, y, z'
loop_
 _atom_site_type_symbol
 _atom_site_label
 _atom_site_symmetry_multiplicity
 _atom_site_fract_x
 _atom_site_fract_y
 _atom_site_fract_z
 _atom_site_occupancy
  S  S0  1  0.50000000  0.68988185  0.43074146  1
  S  S1  1  0.50000000  0.31011815  0.56925854  1
  S  S2  1  0.50000000  0.18988185  0.06925854  1
  S  S3  1  0.50000000  0.81011815  0.93074146  1
  S  S4  1  0.00000000  0.85581215  0.20326190  1
  S  S5  1  0.00000000  0.14418785  0.79673810  1
  S  S6  1  0.00000000  0.50000000  0.00000000  1
  S  S7  1  0.00000000  0.00000000  0.50000000  1
  S  S8  1  0.00000000  0.64418785  0.70326190  1
  S  S9  1  0.00000000  0.35581215  0.29673810  1
  Sn  Sn10  1  0.00000000  0.50000000  0.50000000  1
  Sn  Sn11  1  0.00000000  0.00000000  0.00000000  1
  La  La12  1  0.50000000  0.57408228  0.16869089  1
  La  La13  1  0.50000000  0.42591772  0.83130911  1
  La  La14  1  0.50000000  0.07408228  0.33130911  1
  La  La15  1  0.50000000  0.92591772  0.66869089  1
