# generated using pymatgen
data_BaSnS2
_symmetry_space_group_name_H-M   'P 1'
_cell_length_a   6.18913891
_cell_length_b   6.35582843
_cell_length_c   12.51821250
_cell_angle_alpha   90.00000000
_cell_angle_beta   90.00000000
_cell_angle_gamma   94.72465241
_symmetry_Int_Tables_number   1
_chemical_formula_structural   BaSnS2
_chemical_formula_sum   'Ba4 Sn4 S8'
_cell_volume   490.75698159
_cell_formula_units_Z   4
loop_
 _symmetry_equiv_pos_site_id
 _symmetry_equiv_pos_as_xyz
  1  'x, y, z'
loop_
 _atom_site_type_symbol
 _atom_site_label
 _atom_site_symmetry_multiplicity
 _atom_site_fract_x
 _atom_site_fract_y
 _atom_site_fract_z
 _atom_site_occupancy
  S  S0  1  0.44759026  0.12730525  0.83701276  1
  S  S1  1  0.55240974  0.37269475  0.33701276  1
  S  S2  1  0.55240974  0.87269475  0.16298724  1
  S  S3  1  0.44759026  0.62730525  0.66298724  1
  S  S4  1  0.89442696  0.23839055  0.62312847  1
  S  S5  1  0.89442696  0.73839055  0.87687153  1
  S  S6  1  0.10557304  0.76160945  0.37687153  1
  S  S7  1  0.10557304  0.26160945  0.12312847  1
  Sn  Sn8  1  0.47565394  0.71945330  0.86755278  1
  Sn  Sn9  1  0.52434606  0.28054670  0.13244722  1
  Sn  Sn10  1  0.52434606  0.78054670  0.36755278  1
  Sn  Sn11  1  0.47565394  0.21945330  0.63244722  1
  Ba  Ba12  1  0.95394977  0.24216967  0.87673403  1
  Ba  Ba13  1  0.04605023  0.25783033  0.37673403  1
  Ba  Ba14  1  0.04605023  0.75783033  0.12326597  1
  Ba  Ba15  1  0.95394977  0.74216967  0.62326597  1
