# generated using pymatgen
data_NaS2
_symmetry_space_group_name_H-M   'P 1'
_cell_length_a   9.10073106
_cell_length_b   9.10073106
_cell_length_c   9.10073106
_cell_angle_alpha   97.72555143
_cell_angle_beta   115.64449366
_cell_angle_gamma   115.64449364
_symmetry_Int_Tables_number   1
_chemical_formula_structural   NaS2
_chemical_formula_sum   'Na8 S16'
_cell_volume   562.52573443
_cell_formula_units_Z   8
loop_
 _symmetry_equiv_pos_site_id
 _symmetry_equiv_pos_as_xyz
  1  'x, y, z'
loop_
 _atom_site_type_symbol
 _atom_site_label
 _atom_site_symmetry_multiplicity
 _atom_site_fract_x
 _atom_site_fract_y
 _atom_site_fract_z
 _atom_site_occupancy
  Na  Na0  1  0.00000000  0.17016183  0.17016183  1
  Na  Na1  1  0.00000000  0.82983817  0.82983817  1
  Na  Na2  1  0.50000000  0.57983817  0.07983817  1
  Na  Na3  1  0.50000000  0.92016183  0.42016183  1
  Na  Na4  1  0.52318527  0.37500000  0.39818527  1
  Na  Na5  1  0.97681473  0.60181473  0.12500000  1
  Na  Na6  1  0.02318527  0.14818527  0.62500000  1
  Na  Na7  1  0.47681473  0.87500000  0.85181473  1
  S  S8  1  0.28434486  0.54702469  0.32845603  1
  S  S9  1  0.21856866  0.67154397  0.95588883  1
  S  S10  1  0.78143134  0.73732017  0.45297531  1
  S  S11  1  0.71856866  0.70588883  0.92154397  1
  S  S12  1  0.28143134  0.20297531  0.98732017  1
  S  S13  1  0.71565514  0.04411117  0.26267983  1
  S  S14  1  0.78434486  0.07845603  0.79702469  1
  S  S15  1  0.21565514  0.01267983  0.29411117  1
  S  S16  1  0.26488594  0.51492756  0.54379841  1
  S  S17  1  0.97112914  0.45620159  0.72108753  1
  S  S18  1  0.02887086  0.74995838  0.48507244  1
  S  S19  1  0.47112914  0.47108753  0.70620159  1
  S  S20  1  0.52887086  0.23507244  0.99995838  1
  S  S21  1  0.73511406  0.27891247  0.25004162  1
  S  S22  1  0.76488594  0.29379841  0.76492756  1
  S  S23  1  0.23511406  0.00004162  0.52891247  1
