# generated using pymatgen
data_Li6Ho(BO3)3
_symmetry_space_group_name_H-M   'P 1'
_cell_length_a   6.70211272
_cell_length_b   7.24424259
_cell_length_c   16.50978236
_cell_angle_alpha   90.00000000
_cell_angle_beta   90.00000000
_cell_angle_gamma   105.34451212
_symmetry_Int_Tables_number   1
_chemical_formula_structural   Li6Ho(BO3)3
_chemical_formula_sum   'Li24 Ho4 B12 O36'
_cell_volume   773.00393537
_cell_formula_units_Z   4
loop_
 _symmetry_equiv_pos_site_id
 _symmetry_equiv_pos_as_xyz
  1  'x, y, z'
loop_
 _atom_site_type_symbol
 _atom_site_label
 _atom_site_symmetry_multiplicity
 _atom_site_fract_x
 _atom_site_fract_y
 _atom_site_fract_z
 _atom_site_occupancy
  Li  Li0  1  0.67003958  0.54614717  0.96990495  1
  Li  Li1  1  0.82996042  0.45385283  0.46990495  1
  Li  Li2  1  0.32996042  0.45385283  0.03009505  1
  Li  Li3  1  0.17003958  0.54614717  0.53009505  1
  Li  Li4  1  0.95454877  0.43734711  0.79511093  1
  Li  Li5  1  0.54545123  0.56265289  0.29511093  1
  Li  Li6  1  0.04545123  0.56265289  0.20488907  1
  Li  Li7  1  0.45454877  0.43734711  0.70488907  1
  Li  Li8  1  0.58636193  0.13671270  0.05323472  1
  Li  Li9  1  0.91363807  0.86328730  0.55323472  1
  Li  Li10  1  0.41363807  0.86328730  0.94676528  1
  Li  Li11  1  0.08636193  0.13671270  0.44676528  1
  Li  Li12  1  0.36506065  0.71523328  0.79412207  1
  Li  Li13  1  0.13493935  0.28476672  0.29412207  1
  Li  Li14  1  0.63493935  0.28476672  0.20587793  1
  Li  Li15  1  0.86506065  0.71523328  0.70587793  1
  Li  Li16  1  0.94408401  0.30628873  0.96475661  1
  Li  Li17  1  0.55591599  0.69371127  0.46475661  1
  Li  Li18  1  0.05591599  0.69371127  0.03524339  1
  Li  Li19  1  0.44408401  0.30628873  0.53524339  1
  Li  Li20  1  0.17619851  0.07157984  0.00442279  1
  Li  Li21  1  0.32380149  0.92842016  0.50442279  1
  Li  Li22  1  0.82380149  0.92842016  0.99557721  1
  Li  Li23  1  0.67619851  0.07157984  0.49557721  1
  B  B24  1  0.99866619  0.28540513  0.12113918  1
  B  B25  1  0.50133381  0.71459487  0.62113918  1
  B  B26  1  0.00133381  0.71459487  0.87886082  1
  B  B27  1  0.49866619  0.28540513  0.37886082  1
  B  B28  1  0.66161321  0.08366988  0.86400905  1
  B  B29  1  0.83838679  0.91633012  0.36400905  1
  B  B30  1  0.33838679  0.91633012  0.13599095  1
  B  B31  1  0.16161321  0.08366988  0.63599095  1
  B  B32  1  0.81013613  0.43846676  0.61558158  1
  B  B33  1  0.68986387  0.56153324  0.11558158  1
  B  B34  1  0.18986387  0.56153324  0.38441842  1
  B  B35  1  0.31013613  0.43846676  0.88441842  1
  O  O36  1  0.95652087  0.11915619  0.07440033  1
  O  O37  1  0.54347913  0.88084381  0.57440033  1
  O  O38  1  0.04347913  0.88084381  0.92559967  1
  O  O39  1  0.45652087  0.11915619  0.42559967  1
  O  O40  1  0.94168027  0.25883582  0.20265304  1
  O  O41  1  0.55831973  0.74116418  0.70265304  1
  O  O42  1  0.05831973  0.74116418  0.79734696  1
  O  O43  1  0.44168027  0.25883582  0.29734696  1
  O  O44  1  0.08614138  0.46243570  0.08871721  1
  O  O45  1  0.41385862  0.53756430  0.58871721  1
  O  O46  1  0.91385862  0.53756430  0.91128279  1
  O  O47  1  0.58614138  0.46243570  0.41128279  1
  O  O48  1  0.67586188  0.08819259  0.94641035  1
  O  O49  1  0.82413812  0.91180741  0.44641035  1
  O  O50  1  0.32413812  0.91180741  0.05358965  1
  O  O51  1  0.17586188  0.08819259  0.55358965  1
  O  O52  1  0.97154504  0.00907892  0.67442613  1
  O  O53  1  0.52845496  0.99092108  0.17442613  1
  O  O54  1  0.02845496  0.99092108  0.32557387  1
  O  O55  1  0.47154504  0.00907892  0.82557387  1
  O  O56  1  0.83433851  0.14379308  0.81413039  1
  O  O57  1  0.66566149  0.85620692  0.31413039  1
  O  O58  1  0.16566149  0.85620692  0.18586961  1
  O  O59  1  0.33433851  0.14379308  0.68586961  1
  O  O60  1  0.92252348  0.60507015  0.57910230  1
  O  O61  1  0.57747652  0.39492985  0.07910230  1
  O  O62  1  0.07747652  0.39492985  0.42089770  1
  O  O63  1  0.42252348  0.60507015  0.92089770  1
  O  O64  1  0.77044038  0.41974145  0.69839799  1
  O  O65  1  0.72955962  0.58025855  0.19839799  1
  O  O66  1  0.22955962  0.58025855  0.30160201  1
  O  O67  1  0.27044038  0.41974145  0.80160201  1
  O  O68  1  0.72846475  0.27532744  0.56899031  1
  O  O69  1  0.77153525  0.72467256  0.06899031  1
  O  O70  1  0.27153525  0.72467256  0.43100969  1
  O  O71  1  0.22846475  0.27532744  0.93100969  1
  Ho  Ho72  1  0.65283127  0.07952118  0.69001209  1
  Ho  Ho73  1  0.84716873  0.92047882  0.19001209  1
  Ho  Ho74  1  0.34716873  0.92047882  0.30998791  1
  Ho  Ho75  1  0.15283127  0.07952118  0.80998791  1
