# generated using pymatgen
data_KCr5S8
_symmetry_space_group_name_H-M   'P 1'
_cell_length_a   3.50382637
_cell_length_b   8.71748247
_cell_length_c   9.19665910
_cell_angle_alpha   105.46881773
_cell_angle_beta   100.98164533
_cell_angle_gamma   89.99999999
_symmetry_Int_Tables_number   1
_chemical_formula_structural   KCr5S8
_chemical_formula_sum   'K1 Cr5 S8'
_cell_volume   265.39102851
_cell_formula_units_Z   1
loop_
 _symmetry_equiv_pos_site_id
 _symmetry_equiv_pos_as_xyz
  1  'x, y, z'
loop_
 _atom_site_type_symbol
 _atom_site_label
 _atom_site_symmetry_multiplicity
 _atom_site_fract_x
 _atom_site_fract_y
 _atom_site_fract_z
 _atom_site_occupancy
  S  S0  1  0.23781737  0.15502955  0.47563475  1
  S  S1  1  0.76218263  0.84497045  0.52436525  1
  S  S2  1  0.17165517  0.48529357  0.34331033  1
  S  S3  1  0.82834483  0.51470643  0.65668967  1
  S  S4  1  0.08379685  0.82591501  0.16759370  1
  S  S5  1  0.91620315  0.17408499  0.83240630  1
  S  S6  1  0.42259486  0.85360605  0.84518971  1
  S  S7  1  0.57740514  0.14639395  0.15481029  1
  K  K8  1  0.50000000  0.50000000  0.00000000  1
  Cr  Cr9  1  0.70413083  0.33401760  0.40826166  1
  Cr  Cr10  1  0.34197221  0.02897549  0.68394442  1
  Cr  Cr11  1  0.65802779  0.97102451  0.31605558  1
  Cr  Cr12  1  0.00000000  0.00000000  0.00000000  1
  Cr  Cr13  1  0.29586917  0.66598240  0.59173834  1
