# generated using pymatgen
data_CsBeF3
_symmetry_space_group_name_H-M   'P 1'
_cell_length_a   4.88914324
_cell_length_b   6.13017746
_cell_length_c   12.97686155
_cell_angle_alpha   90.00000000
_cell_angle_beta   90.00000000
_cell_angle_gamma   90.00000000
_symmetry_Int_Tables_number   1
_chemical_formula_structural   CsBeF3
_chemical_formula_sum   'Cs4 Be4 F12'
_cell_volume   388.93361416
_cell_formula_units_Z   4
loop_
 _symmetry_equiv_pos_site_id
 _symmetry_equiv_pos_as_xyz
  1  'x, y, z'
loop_
 _atom_site_type_symbol
 _atom_site_label
 _atom_site_symmetry_multiplicity
 _atom_site_fract_x
 _atom_site_fract_y
 _atom_site_fract_z
 _atom_site_occupancy
  Be  Be0  1  0.80745257  0.75000000  0.17954871  1
  Be  Be1  1  0.30745257  0.75000000  0.32045129  1
  Be  Be2  1  0.19254743  0.25000000  0.82045129  1
  Be  Be3  1  0.69254743  0.25000000  0.67954871  1
  F  F4  1  0.87635552  0.25000000  0.78215967  1
  F  F5  1  0.37635552  0.25000000  0.71784033  1
  F  F6  1  0.12364448  0.75000000  0.21784033  1
  F  F7  1  0.62364448  0.75000000  0.28215967  1
  F  F8  1  0.24174574  0.04047367  0.88208989  1
  F  F9  1  0.74174574  0.45952633  0.61791011  1
  F  F10  1  0.75825426  0.54047367  0.11791011  1
  F  F11  1  0.25825426  0.95952633  0.38208989  1
  F  F12  1  0.75825426  0.95952633  0.11791011  1
  F  F13  1  0.25825426  0.54047367  0.38208989  1
  F  F14  1  0.24174574  0.45952633  0.88208989  1
  F  F15  1  0.74174574  0.04047367  0.61791011  1
  Cs  Cs16  1  0.23830165  0.75000000  0.60073438  1
  Cs  Cs17  1  0.73830165  0.75000000  0.89926562  1
  Cs  Cs18  1  0.76169835  0.25000000  0.39926562  1
  Cs  Cs19  1  0.26169835  0.25000000  0.10073438  1
