# generated using pymatgen
data_Cs3TiF7
_symmetry_space_group_name_H-M   'P 1'
_cell_length_a   6.37514242
_cell_length_b   8.63655158
_cell_length_c   8.63655158
_cell_angle_alpha   90.00000000
_cell_angle_beta   90.00000000
_cell_angle_gamma   90.00000000
_symmetry_Int_Tables_number   1
_chemical_formula_structural   Cs3TiF7
_chemical_formula_sum   'Cs6 Ti2 F14'
_cell_volume   475.52202097
_cell_formula_units_Z   2
loop_
 _symmetry_equiv_pos_site_id
 _symmetry_equiv_pos_as_xyz
  1  'x, y, z'
loop_
 _atom_site_type_symbol
 _atom_site_label
 _atom_site_symmetry_multiplicity
 _atom_site_fract_x
 _atom_site_fract_y
 _atom_site_fract_z
 _atom_site_occupancy
  F  F0  1  0.78713004  0.89154060  0.39154060  1
  F  F1  1  0.78713004  0.10845940  0.60845940  1
  F  F2  1  0.78713004  0.39154060  0.10845940  1
  F  F3  1  0.78713004  0.60845940  0.89154060  1
  F  F4  1  0.21286996  0.89154060  0.39154060  1
  F  F5  1  0.21286996  0.60845940  0.89154060  1
  F  F6  1  0.21286996  0.39154060  0.10845940  1
  F  F7  1  0.21286996  0.10845940  0.60845940  1
  F  F8  1  0.50000000  0.00000000  0.00000000  1
  F  F9  1  0.50000000  0.50000000  0.50000000  1
  F  F10  1  0.00000000  0.34485605  0.84485605  1
  F  F11  1  0.00000000  0.15514395  0.34485605  1
  F  F12  1  0.00000000  0.84485605  0.65514395  1
  F  F13  1  0.00000000  0.65514395  0.15514395  1
  Ti  Ti14  1  0.00000000  0.50000000  0.00000000  1
  Ti  Ti15  1  0.00000000  0.00000000  0.50000000  1
  Cs  Cs16  1  0.50000000  0.69366377  0.19366377  1
  Cs  Cs17  1  0.50000000  0.80633623  0.69366377  1
  Cs  Cs18  1  0.50000000  0.19366377  0.30633623  1
  Cs  Cs19  1  0.50000000  0.30633623  0.80633623  1
  Cs  Cs20  1  0.00000000  0.50000000  0.50000000  1
  Cs  Cs21  1  0.00000000  0.00000000  0.00000000  1
