# generated using pymatgen
data_Rb3TiF7
_symmetry_space_group_name_H-M   'P 1'
_cell_length_a   6.04505157
_cell_length_b   8.29405288
_cell_length_c   8.29405288
_cell_angle_alpha   90.00000000
_cell_angle_beta   90.00000000
_cell_angle_gamma   90.00000000
_symmetry_Int_Tables_number   1
_chemical_formula_structural   Rb3TiF7
_chemical_formula_sum   'Rb6 Ti2 F14'
_cell_volume   415.84703572
_cell_formula_units_Z   2
loop_
 _symmetry_equiv_pos_site_id
 _symmetry_equiv_pos_as_xyz
  1  'x, y, z'
loop_
 _atom_site_type_symbol
 _atom_site_label
 _atom_site_symmetry_multiplicity
 _atom_site_fract_x
 _atom_site_fract_y
 _atom_site_fract_z
 _atom_site_occupancy
  F  F0  1  0.77479916  0.88793450  0.38793450  1
  F  F1  1  0.77479916  0.11206550  0.61206550  1
  F  F2  1  0.77479916  0.38793450  0.11206550  1
  F  F3  1  0.77479916  0.61206550  0.88793450  1
  F  F4  1  0.22520084  0.88793450  0.38793450  1
  F  F5  1  0.22520084  0.61206550  0.88793450  1
  F  F6  1  0.22520084  0.38793450  0.11206550  1
  F  F7  1  0.22520084  0.11206550  0.61206550  1
  F  F8  1  0.50000000  0.00000000  0.00000000  1
  F  F9  1  0.50000000  0.50000000  0.50000000  1
  F  F10  1  0.00000000  0.33865693  0.83865693  1
  F  F11  1  0.00000000  0.16134307  0.33865693  1
  F  F12  1  0.00000000  0.83865693  0.66134307  1
  F  F13  1  0.00000000  0.66134307  0.16134307  1
  Ti  Ti14  1  0.00000000  0.50000000  0.00000000  1
  Ti  Ti15  1  0.00000000  0.00000000  0.50000000  1
  Rb  Rb16  1  0.50000000  0.69293073  0.19293073  1
  Rb  Rb17  1  0.50000000  0.80706927  0.69293073  1
  Rb  Rb18  1  0.50000000  0.19293073  0.30706927  1
  Rb  Rb19  1  0.50000000  0.30706927  0.80706927  1
  Rb  Rb20  1  0.00000000  0.50000000  0.50000000  1
  Rb  Rb21  1  0.00000000  0.00000000  0.00000000  1
