# generated using pymatgen
data_SnTe3O8
_symmetry_space_group_name_H-M   'P 1'
_cell_length_a   9.90689795
_cell_length_b   9.90689795
_cell_length_c   9.90689795
_cell_angle_alpha   109.47122066
_cell_angle_beta   109.47122066
_cell_angle_gamma   109.47122062
_symmetry_Int_Tables_number   1
_chemical_formula_structural   SnTe3O8
_chemical_formula_sum   'Sn4 Te12 O32'
_cell_volume   748.49891847
_cell_formula_units_Z   4
loop_
 _symmetry_equiv_pos_site_id
 _symmetry_equiv_pos_as_xyz
  1  'x, y, z'
loop_
 _atom_site_type_symbol
 _atom_site_label
 _atom_site_symmetry_multiplicity
 _atom_site_fract_x
 _atom_site_fract_y
 _atom_site_fract_z
 _atom_site_occupancy
  O  O0  1  0.82978474  0.50000000  0.00000000  1
  O  O1  1  0.50000000  0.00000000  0.82978474  1
  O  O2  1  0.00000000  0.82978474  0.50000000  1
  O  O3  1  0.67021526  0.67021526  0.67021526  1
  O  O4  1  0.17021526  0.50000000  0.00000000  1
  O  O5  1  0.50000000  0.00000000  0.17021526  1
  O  O6  1  0.00000000  0.17021526  0.50000000  1
  O  O7  1  0.32978474  0.32978474  0.32978474  1
  O  O8  1  0.04785005  0.47635268  0.71004970  1
  O  O9  1  0.26630298  0.33780035  0.78995030  1
  O  O10  1  0.23369702  0.02364732  0.07149738  1
  O  O11  1  0.16219965  0.42850262  0.45214995  1
  O  O12  1  0.42850262  0.45214995  0.16219965  1
  O  O13  1  0.71004970  0.04785005  0.47635268  1
  O  O14  1  0.33780035  0.78995030  0.26630298  1
  O  O15  1  0.07149738  0.23369702  0.02364732  1
  O  O16  1  0.54785005  0.83780035  0.57149738  1
  O  O17  1  0.97635268  0.92850262  0.76630298  1
  O  O18  1  0.21004970  0.73369702  0.66219965  1
  O  O19  1  0.52364732  0.28995030  0.95214995  1
  O  O20  1  0.92850262  0.76630298  0.97635268  1
  O  O21  1  0.66219965  0.21004970  0.73369702  1
  O  O22  1  0.28995030  0.95214995  0.52364732  1
  O  O23  1  0.57149738  0.54785005  0.83780035  1
  O  O24  1  0.83780035  0.57149738  0.54785005  1
  O  O25  1  0.76630298  0.97635268  0.92850262  1
  O  O26  1  0.73369702  0.66219965  0.21004970  1
  O  O27  1  0.95214995  0.52364732  0.28995030  1
  O  O28  1  0.45214995  0.16219965  0.42850262  1
  O  O29  1  0.02364732  0.07149738  0.23369702  1
  O  O30  1  0.78995030  0.26630298  0.33780035  1
  O  O31  1  0.47635268  0.71004970  0.04785005  1
  Sn  Sn32  1  0.00000000  0.00000000  0.00000000  1
  Sn  Sn33  1  0.00000000  0.50000000  0.50000000  1
  Sn  Sn34  1  0.50000000  0.00000000  0.50000000  1
  Sn  Sn35  1  0.50000000  0.50000000  0.00000000  1
  Te  Te36  1  0.94851149  0.69851149  0.25000000  1
  Te  Te37  1  0.75000000  0.55148851  0.80148851  1
  Te  Te38  1  0.75000000  0.05148851  0.30148851  1
  Te  Te39  1  0.19851149  0.25000000  0.44851149  1
  Te  Te40  1  0.44851149  0.19851149  0.25000000  1
  Te  Te41  1  0.30148851  0.75000000  0.05148851  1
  Te  Te42  1  0.05148851  0.30148851  0.75000000  1
  Te  Te43  1  0.25000000  0.44851149  0.19851149  1
  Te  Te44  1  0.69851149  0.25000000  0.94851149  1
  Te  Te45  1  0.55148851  0.80148851  0.75000000  1
  Te  Te46  1  0.80148851  0.75000000  0.55148851  1
  Te  Te47  1  0.25000000  0.94851149  0.69851149  1
