# generated using pymatgen
data_NaNd(PO3)4
_symmetry_space_group_name_H-M   'P 1'
_cell_length_a   7.31852748
_cell_length_b   10.05802406
_cell_length_c   13.36496609
_cell_angle_alpha   90.00000000
_cell_angle_beta   90.00000000
_cell_angle_gamma   90.41592545
_symmetry_Int_Tables_number   1
_chemical_formula_structural   NaNd(PO3)4
_chemical_formula_sum   'Na4 Nd4 P16 O48'
_cell_volume   983.76823592
_cell_formula_units_Z   4
loop_
 _symmetry_equiv_pos_site_id
 _symmetry_equiv_pos_as_xyz
  1  'x, y, z'
loop_
 _atom_site_type_symbol
 _atom_site_label
 _atom_site_symmetry_multiplicity
 _atom_site_fract_x
 _atom_site_fract_y
 _atom_site_fract_z
 _atom_site_occupancy
  O  O0  1  0.91188044  0.70788886  0.41934613  1
  O  O1  1  0.58811956  0.79211114  0.91934613  1
  O  O2  1  0.08811956  0.29211114  0.58065387  1
  O  O3  1  0.41188044  0.20788886  0.08065387  1
  O  O4  1  0.21568456  0.78347207  0.48696772  1
  O  O5  1  0.28431544  0.71652793  0.98696772  1
  O  O6  1  0.78431544  0.21652793  0.51303228  1
  O  O7  1  0.71568456  0.28347207  0.01303228  1
  O  O8  1  0.19399151  0.60132512  0.35263930  1
  O  O9  1  0.30600849  0.89867488  0.85263930  1
  O  O10  1  0.80600849  0.39867488  0.64736070  1
  O  O11  1  0.69399151  0.10132512  0.14736070  1
  O  O12  1  0.13379884  0.84780046  0.31444786  1
  O  O13  1  0.36620116  0.65219954  0.81444786  1
  O  O14  1  0.86620116  0.15219954  0.68555214  1
  O  O15  1  0.63379884  0.34780046  0.18555214  1
  O  O16  1  0.75923454  0.91326649  0.33925305  1
  O  O17  1  0.07322881  0.66833544  0.12252677  1
  O  O18  1  0.74076546  0.58673351  0.83925305  1
  O  O19  1  0.25923454  0.41326649  0.16074695  1
  O  O20  1  0.57389082  0.70474511  0.38753405  1
  O  O21  1  0.92610918  0.79525489  0.88753405  1
  O  O22  1  0.42610918  0.29525489  0.61246595  1
  O  O23  1  0.07389082  0.20474511  0.11246595  1
  O  O24  1  0.28452431  0.10334785  0.29467661  1
  O  O25  1  0.21547569  0.39665215  0.79467661  1
  O  O26  1  0.71547569  0.89665215  0.70532339  1
  O  O27  1  0.78452431  0.60334785  0.20532339  1
  O  O28  1  0.32220982  0.34279316  0.36555804  1
  O  O29  1  0.17779018  0.15720684  0.86555804  1
  O  O30  1  0.67779018  0.65720684  0.63444196  1
  O  O31  1  0.82220982  0.84279316  0.13444196  1
  O  O32  1  0.90549911  0.20424393  0.33620315  1
  O  O33  1  0.59450089  0.29575607  0.83620315  1
  O  O34  1  0.09450089  0.79575607  0.66379685  1
  O  O35  1  0.40549911  0.70424393  0.16379685  1
  O  O36  1  0.71535338  0.40491396  0.38824337  1
  O  O37  1  0.78464662  0.09508604  0.88824337  1
  O  O38  1  0.28464662  0.59508604  0.61175663  1
  O  O39  1  0.21535338  0.90491396  0.11175663  1
  O  O40  1  0.28697095  0.13949428  0.48017064  1
  O  O41  1  0.21302905  0.36050572  0.98017064  1
  O  O42  1  0.71302905  0.86050572  0.51982936  1
  O  O43  1  0.78697095  0.63949428  0.01982936  1
  O  O44  1  0.57322881  0.16833544  0.37747323  1
  O  O45  1  0.92677119  0.33166456  0.87747323  1
  O  O46  1  0.42677119  0.83166456  0.62252677  1
  O  O47  1  0.24076546  0.08673351  0.66074695  1
  Na  Na48  1  0.49927279  0.93615602  0.22314784  1
  Na  Na49  1  0.00072721  0.56384398  0.72314784  1
  Na  Na50  1  0.50072721  0.06384398  0.77685216  1
  Na  Na51  1  0.99927279  0.43615602  0.27685216  1
  P  P52  1  0.12111027  0.73349912  0.38581416  1
  P  P53  1  0.37888973  0.76650088  0.88581416  1
  P  P54  1  0.87888973  0.26650088  0.61418584  1
  P  P55  1  0.62111027  0.23349912  0.11418584  1
  P  P56  1  0.73047605  0.79769553  0.40889165  1
  P  P57  1  0.76952395  0.70230447  0.90889165  1
  P  P58  1  0.26952395  0.20230447  0.59110835  1
  P  P59  1  0.23047605  0.29769553  0.09110835  1
  P  P60  1  0.25130130  0.75833325  0.10124308  1
  P  P61  1  0.24869870  0.74166675  0.60124308  1
  P  P62  1  0.74869870  0.24166675  0.89875692  1
  P  P63  1  0.75130130  0.25833325  0.39875692  1
  P  P64  1  0.85616171  0.69632650  0.12627495  1
  P  P65  1  0.64383829  0.80367350  0.62627495  1
  P  P66  1  0.14383829  0.30367350  0.87372505  1
  P  P67  1  0.35616171  0.19632650  0.37372505  1
  Nd  Nd68  1  0.48696232  0.52183021  0.27853052  1
  Nd  Nd69  1  0.01303768  0.97816979  0.77853052  1
  Nd  Nd70  1  0.51303768  0.47816979  0.72146948  1
  Nd  Nd71  1  0.98696232  0.02183021  0.22146948  1
