# generated using pymatgen
data_K2(NbSe2)3
_symmetry_space_group_name_H-M   'P 1'
_cell_length_a   6.16840911
_cell_length_b   6.16880612
_cell_length_c   16.71659722
_cell_angle_alpha   90.00000000
_cell_angle_beta   90.00000000
_cell_angle_gamma   59.99787594
_symmetry_Int_Tables_number   1
_chemical_formula_structural   K2(NbSe2)3
_chemical_formula_sum   'K4 Nb6 Se12'
_cell_volume   550.86287556
_cell_formula_units_Z   2
loop_
 _symmetry_equiv_pos_site_id
 _symmetry_equiv_pos_as_xyz
  1  'x, y, z'
loop_
 _atom_site_type_symbol
 _atom_site_label
 _atom_site_symmetry_multiplicity
 _atom_site_fract_x
 _atom_site_fract_y
 _atom_site_fract_z
 _atom_site_occupancy
  K  K0  1  0.33336167  0.00005042  0.50000000  1
  K  K1  1  0.99997133  0.66674608  0.50000000  1
  K  K2  1  0.33335240  0.66660593  -0.00000000  1
  K  K3  1  0.99998060  0.33329233  -0.00000000  1
  Nb  Nb4  1  0.33270996  0.66729740  0.25000251  1
  Nb  Nb5  1  0.66666700  0.99940616  0.25032602  1
  Nb  Nb6  1  0.00062304  0.33334136  0.25000251  1
  Nb  Nb7  1  0.33270996  0.66729740  0.74999749  1
  Nb  Nb8  1  0.66666700  0.99940616  0.74967398  1
  Nb  Nb9  1  0.00062304  0.33334136  0.74999749  1
  Se  Se10  1  0.99732172  0.00024588  0.15173221  1
  Se  Se11  1  0.33601128  0.33090060  0.15173221  1
  Se  Se12  1  0.66666700  0.66879210  0.15172722  1
  Se  Se13  1  0.99732172  0.00024588  0.84826779  1
  Se  Se14  1  0.33601128  0.33090060  0.84826779  1
  Se  Se15  1  0.66666700  0.66879210  0.84827278  1
  Se  Se16  1  0.99805040  0.00225913  0.34842646  1
  Se  Se17  1  0.33528260  0.33364253  0.34842646  1
  Se  Se18  1  0.66666700  0.66400046  0.34842143  1
  Se  Se19  1  0.99805040  0.00225913  0.65157354  1
  Se  Se20  1  0.33528260  0.33364253  0.65157354  1
  Se  Se21  1  0.66666700  0.66400046  0.65157857  1
