# generated using pymatgen
data_Ca11Sb10
_symmetry_space_group_name_H-M   'P 1'
_cell_length_a   12.06552211
_cell_length_b   12.06552211
_cell_length_c   12.17583662
_cell_angle_alpha   119.70074355
_cell_angle_beta   119.70074357
_cell_angle_gamma   90.00000000
_symmetry_Int_Tables_number   1
_chemical_formula_structural   Ca11Sb10
_chemical_formula_sum   'Ca22 Sb20'
_cell_volume   1264.61427740
_cell_formula_units_Z   2
loop_
 _symmetry_equiv_pos_site_id
 _symmetry_equiv_pos_as_xyz
  1  'x, y, z'
loop_
 _atom_site_type_symbol
 _atom_site_label
 _atom_site_symmetry_multiplicity
 _atom_site_fract_x
 _atom_site_fract_y
 _atom_site_fract_z
 _atom_site_occupancy
  Ca  Ca0  1  0.18902420  0.44054373  0.37804840  1
  Ca  Ca1  1  0.93750467  0.18902420  0.37804840  1
  Ca  Ca2  1  0.44054373  0.18902420  0.37804840  1
  Ca  Ca3  1  0.81097580  0.55945627  0.62195160  1
  Ca  Ca4  1  0.81097580  0.06249533  0.62195160  1
  Ca  Ca5  1  0.06249533  0.81097580  0.62195160  1
  Ca  Ca6  1  0.55945627  0.81097580  0.62195160  1
  Ca  Ca7  1  0.18902420  0.93750467  0.37804840  1
  Ca  Ca8  1  0.16445622  0.16445622  0.00000000  1
  Ca  Ca9  1  0.83554378  0.16445622  0.00000000  1
  Ca  Ca10  1  0.16445622  0.83554378  0.00000000  1
  Ca  Ca11  1  0.83554378  0.83554378  0.00000000  1
  Ca  Ca12  1  0.33498274  0.33498274  0.66996547  1
  Ca  Ca13  1  0.66501726  0.66501726  0.33003453  1
  Ca  Ca14  1  0.39662666  0.73596013  0.79325331  1
  Ca  Ca15  1  0.05729318  0.39662666  0.79325331  1
  Ca  Ca16  1  0.73596013  0.39662666  0.79325331  1
  Ca  Ca17  1  0.60337334  0.26403987  0.20674669  1
  Ca  Ca18  1  0.60337334  0.94270682  0.20674669  1
  Ca  Ca19  1  0.94270682  0.60337334  0.20674669  1
  Ca  Ca20  1  0.26403987  0.60337334  0.20674669  1
  Ca  Ca21  1  0.39662666  0.05729318  0.79325331  1
  Sb  Sb22  1  0.34832579  0.00000000  0.00000000  1
  Sb  Sb23  1  0.00000000  0.34832579  0.00000000  1
  Sb  Sb24  1  0.00000000  0.65167421  0.00000000  1
  Sb  Sb25  1  0.65167421  0.00000000  0.00000000  1
  Sb  Sb26  1  0.12819393  0.12819393  0.25638785  1
  Sb  Sb27  1  0.87180607  0.87180607  0.74361215  1
  Sb  Sb28  1  0.37356062  0.37356062  0.00000000  1
  Sb  Sb29  1  0.62643938  0.37356062  0.00000000  1
  Sb  Sb30  1  0.37356062  0.62643938  0.00000000  1
  Sb  Sb31  1  0.62643938  0.62643938  0.00000000  1
  Sb  Sb32  1  0.25000000  0.75000000  0.50000000  1
  Sb  Sb33  1  0.75000000  0.25000000  0.50000000  1
  Sb  Sb34  1  0.53093149  0.53093149  0.64940107  1
  Sb  Sb35  1  0.11846958  0.53093149  0.64940107  1
  Sb  Sb36  1  0.53093149  0.11846958  0.64940107  1
  Sb  Sb37  1  0.88153042  0.46906851  0.35059893  1
  Sb  Sb38  1  0.46906851  0.88153042  0.35059893  1
  Sb  Sb39  1  0.88153042  0.88153042  0.35059893  1
  Sb  Sb40  1  0.46906851  0.46906851  0.35059893  1
  Sb  Sb41  1  0.11846958  0.11846958  0.64940107  1
