# generated using pymatgen
data_FeCu5S4
_symmetry_space_group_name_H-M   'P 1'
_cell_length_a   3.84362767
_cell_length_b   3.84178755
_cell_length_c   12.79609394
_cell_angle_alpha   98.63278970
_cell_angle_beta   90.00000164
_cell_angle_gamma   120.01583770
_symmetry_Int_Tables_number   1
_chemical_formula_structural   FeCu5S4
_chemical_formula_sum   'Fe1 Cu5 S4'
_cell_volume   161.13431257
_cell_formula_units_Z   1
loop_
 _symmetry_equiv_pos_site_id
 _symmetry_equiv_pos_as_xyz
  1  'x, y, z'
loop_
 _atom_site_type_symbol
 _atom_site_label
 _atom_site_symmetry_multiplicity
 _atom_site_fract_x
 _atom_site_fract_y
 _atom_site_fract_z
 _atom_site_occupancy
  Fe  Fe0  1  0.69509737  0.39019374  0.08489369  1
  Cu  Cu1  1  0.55965233  0.11930467  0.67901705  1
  Cu  Cu2  1  0.16934350  0.33868601  0.50701649  1
  Cu  Cu3  1  0.31378237  0.62756474  0.94222619  1
  Cu  Cu4  1  0.43411864  0.86823828  0.30326532  1
  Cu  Cu5  1  0.93982177  0.87964453  0.82048732  1
  S  S6  1  0.00712171  0.01424443  0.02094640  1
  S  S7  1  0.25275121  0.50550342  0.75847069  1
  S  S8  1  0.75320637  0.50641375  0.26010497  1
  S  S9  1  0.50010372  0.00020644  0.49857086  1
