# generated using pymatgen
data_MgSeO3
_symmetry_space_group_name_H-M   'P 1'
_cell_length_a   5.07224804
_cell_length_b   5.98990103
_cell_length_c   7.77857913
_cell_angle_alpha   90.00000000
_cell_angle_beta   90.00000000
_cell_angle_gamma   90.00000000
_symmetry_Int_Tables_number   1
_chemical_formula_structural   MgSeO3
_chemical_formula_sum   'Mg4 Se4 O12'
_cell_volume   236.33084280
_cell_formula_units_Z   4
loop_
 _symmetry_equiv_pos_site_id
 _symmetry_equiv_pos_as_xyz
  1  'x, y, z'
loop_
 _atom_site_type_symbol
 _atom_site_label
 _atom_site_symmetry_multiplicity
 _atom_site_fract_x
 _atom_site_fract_y
 _atom_site_fract_z
 _atom_site_occupancy
  O  O0  1  0.85933944  0.18313716  0.42131730  1
  O  O1  1  0.35933944  0.31686284  0.57868270  1
  O  O2  1  0.64066056  0.68313716  0.07868270  1
  O  O3  1  0.14066056  0.81686284  0.92131730  1
  O  O4  1  0.14066056  0.81686284  0.57868270  1
  O  O5  1  0.64066056  0.68313716  0.42131730  1
  O  O6  1  0.35933944  0.31686284  0.92131730  1
  O  O7  1  0.85933944  0.18313716  0.07868270  1
  O  O8  1  0.32141632  0.07102473  0.25000000  1
  O  O9  1  0.82141632  0.42897527  0.75000000  1
  O  O10  1  0.17858368  0.57102473  0.25000000  1
  O  O11  1  0.67858368  0.92897527  0.75000000  1
  Mg  Mg12  1  0.50000000  0.00000000  0.00000000  1
  Mg  Mg13  1  0.00000000  0.50000000  0.00000000  1
  Mg  Mg14  1  0.00000000  0.50000000  0.50000000  1
  Mg  Mg15  1  0.50000000  0.00000000  0.50000000  1
  Se  Se16  1  0.98191664  0.02197184  0.25000000  1
  Se  Se17  1  0.48191664  0.47802816  0.75000000  1
  Se  Se18  1  0.51808336  0.52197184  0.25000000  1
  Se  Se19  1  0.01808336  0.97802816  0.75000000  1
