# generated using pymatgen
data_Li3Cu(TeO3)4
_symmetry_space_group_name_H-M   'P 1'
_cell_length_a   5.71546385
_cell_length_b   11.49624419
_cell_length_c   10.17843039
_cell_angle_alpha   27.49623698
_cell_angle_beta   50.00257641
_cell_angle_gamma   55.26326763
_symmetry_Int_Tables_number   1
_chemical_formula_structural   Li3Cu(TeO3)4
_chemical_formula_sum   'Li3 Cu1 Te4 O12'
_cell_volume   236.54252326
_cell_formula_units_Z   1
loop_
 _symmetry_equiv_pos_site_id
 _symmetry_equiv_pos_as_xyz
  1  'x, y, z'
loop_
 _atom_site_type_symbol
 _atom_site_label
 _atom_site_symmetry_multiplicity
 _atom_site_fract_x
 _atom_site_fract_y
 _atom_site_fract_z
 _atom_site_occupancy
  Li  Li0  1  0.27240168  0.49867141  0.27498500  1
  Li  Li1  1  0.79070469  0.00312382  0.78971784  1
  Li  Li2  1  0.79413721  0.49836978  0.79385713  1
  Cu  Cu3  1  0.25504831  0.00058847  0.25217093  1
  Te  Te4  1  0.00693551  -0.00016881  0.99805253  1
  Te  Te5  1  0.00651098  0.50540310  0.00078079  1
  Te  Te6  1  0.48986707  0.99256449  0.50685393  1
  Te  Te7  1  0.50110328  0.50615052  0.47975124  1
  O  O8  1  0.38626618  0.30067524  0.12732354  1
  O  O9  1  0.23276072  0.13235234  0.60329753  1
  O  O10  1  0.12258757  0.34054050  0.70144134  1
  O  O11  1  0.86090332  0.17559839  0.24173949  1
  O  O12  1  0.40002503  0.79978312  0.10373480  1
  O  O13  1  0.71801904  0.36348404  0.38330205  1
  O  O14  1  0.23551909  0.63743667  0.57946059  1
  O  O15  1  0.59324046  0.18690931  0.85524729  1
  O  O16  1  0.10566633  0.83758873  0.72954576  1
  O  O17  1  0.86762888  0.67720699  0.23042060  1
  O  O18  1  0.70164586  0.85986803  0.40558002  1
  O  O19  1  0.58862877  0.68385487  0.87233761  1
