# generated using pymatgen
data_SrZnSb2
_symmetry_space_group_name_H-M   'P 1'
_cell_length_a   4.43220923
_cell_length_b   4.46812530
_cell_length_c   23.06083711
_cell_angle_alpha   90.00000000
_cell_angle_beta   90.00000000
_cell_angle_gamma   90.00000000
_symmetry_Int_Tables_number   1
_chemical_formula_structural   SrZnSb2
_chemical_formula_sum   'Sr4 Zn4 Sb8'
_cell_volume   456.68912031
_cell_formula_units_Z   4
loop_
 _symmetry_equiv_pos_site_id
 _symmetry_equiv_pos_as_xyz
  1  'x, y, z'
loop_
 _atom_site_type_symbol
 _atom_site_label
 _atom_site_symmetry_multiplicity
 _atom_site_fract_x
 _atom_site_fract_y
 _atom_site_fract_z
 _atom_site_occupancy
  Zn  Zn0  1  0.25000000  0.27530618  0.75002331  1
  Zn  Zn1  1  0.75000000  0.72469382  0.24997669  1
  Zn  Zn2  1  0.75000000  0.77530618  0.74997669  1
  Zn  Zn3  1  0.25000000  0.22469382  0.25002331  1
  Sr  Sr4  1  0.25000000  0.77188017  0.61597200  1
  Sr  Sr5  1  0.75000000  0.22811983  0.38402800  1
  Sr  Sr6  1  0.75000000  0.27188017  0.88402800  1
  Sr  Sr7  1  0.25000000  0.72811983  0.11597200  1
  Sb  Sb8  1  0.25000000  0.22425455  0.00112781  1
  Sb  Sb9  1  0.75000000  0.77574545  0.99887219  1
  Sb  Sb10  1  0.75000000  0.72425455  0.49887219  1
  Sb  Sb11  1  0.25000000  0.27574545  0.50112781  1
  Sb  Sb12  1  0.25000000  0.72579392  0.32322998  1
  Sb  Sb13  1  0.75000000  0.27420608  0.67677002  1
  Sb  Sb14  1  0.75000000  0.22579392  0.17677002  1
  Sb  Sb15  1  0.25000000  0.77420608  0.82322998  1
