# generated using pymatgen
data_Sr2Ta2O7
_symmetry_space_group_name_H-M   'P 1'
_cell_length_a   3.98985361
_cell_length_b   5.75570000
_cell_length_c   13.97290283
_cell_angle_alpha   90.00000000
_cell_angle_beta   98.20823009
_cell_angle_gamma   90.00000000
_symmetry_Int_Tables_number   1
_chemical_formula_structural   Sr2Ta2O7
_chemical_formula_sum   'Sr4 Ta4 O14'
_cell_volume   317.59216189
_cell_formula_units_Z   2
loop_
 _symmetry_equiv_pos_site_id
 _symmetry_equiv_pos_as_xyz
  1  'x, y, z'
loop_
 _atom_site_type_symbol
 _atom_site_label
 _atom_site_symmetry_multiplicity
 _atom_site_fract_x
 _atom_site_fract_y
 _atom_site_fract_z
 _atom_site_occupancy
  O  O0  1  0.00000000  0.00000000  0.00000000  1
  O  O1  1  0.00000000  0.50000000  0.00000000  1
  O  O2  1  0.45299834  0.75000000  0.90599668  1
  O  O3  1  0.54700166  0.25000000  0.09400332  1
  O  O4  1  0.09897408  0.99235438  0.19794817  1
  O  O5  1  0.90102592  0.00764562  0.80205183  1
  O  O6  1  0.90102592  0.49235438  0.80205183  1
  O  O7  1  0.09897408  0.50764562  0.19794817  1
  O  O8  1  0.20582560  0.51187419  0.41165120  1
  O  O9  1  0.79417440  0.48812581  0.58834880  1
  O  O10  1  0.79417440  0.01187419  0.58834880  1
  O  O11  1  0.20582560  0.98812581  0.41165120  1
  O  O12  1  0.64906116  0.75000000  0.29812232  1
  O  O13  1  0.35093884  0.25000000  0.70187768  1
  Sr  Sr14  1  0.71464346  0.25000000  0.42928692  1
  Sr  Sr15  1  0.28535654  0.75000000  0.57071308  1
  Sr  Sr16  1  0.55342143  0.75000000  0.10684286  1
  Sr  Sr17  1  0.44657857  0.25000000  0.89315714  1
  Ta  Ta18  1  0.15908696  0.75000000  0.31817392  1
  Ta  Ta19  1  0.84091304  0.25000000  0.68182608  1
  Ta  Ta20  1  0.05467949  0.25000000  0.10935897  1
  Ta  Ta21  1  0.94532051  0.75000000  0.89064103  1
