# generated using pymatgen
data_SrCuF4
_symmetry_space_group_name_H-M   'P 1'
_cell_length_a   5.75637322
_cell_length_b   5.75637322
_cell_length_c   6.72131456
_cell_angle_alpha   115.35451094
_cell_angle_beta   115.35451099
_cell_angle_gamma   90.00000002
_symmetry_Int_Tables_number   1
_chemical_formula_structural   SrCuF4
_chemical_formula_sum   'Sr2 Cu2 F8'
_cell_volume   177.23226959
_cell_formula_units_Z   2
loop_
 _symmetry_equiv_pos_site_id
 _symmetry_equiv_pos_as_xyz
  1  'x, y, z'
loop_
 _atom_site_type_symbol
 _atom_site_label
 _atom_site_symmetry_multiplicity
 _atom_site_fract_x
 _atom_site_fract_y
 _atom_site_fract_z
 _atom_site_occupancy
  F  F0  1  0.95579036  0.45579036  0.24972228  1
  F  F1  1  0.70606808  0.20606808  0.75027772  1
  F  F2  1  0.04420964  0.54420964  0.75027772  1
  F  F3  1  0.20606808  0.04420964  0.75027772  1
  F  F4  1  0.29393192  0.79393192  0.24972228  1
  F  F5  1  0.45579036  0.29393192  0.24972228  1
  F  F6  1  0.79393192  0.95579036  0.24972228  1
  F  F7  1  0.54420964  0.70606808  0.75027772  1
  Cu  Cu8  1  0.50000000  0.00000000  0.00000000  1
  Cu  Cu9  1  0.00000000  0.50000000  0.00000000  1
  Sr  Sr10  1  0.75000000  0.75000000  0.50000000  1
  Sr  Sr11  1  0.25000000  0.25000000  0.50000000  1
