# generated using pymatgen
data_CeY(GaPd2)2
_symmetry_space_group_name_H-M   'P 1'
_cell_length_a   5.70078694
_cell_length_b   7.13209126
_cell_length_c   7.45542710
_cell_angle_alpha   90.00000000
_cell_angle_beta   90.00000000
_cell_angle_gamma   90.00000000
_symmetry_Int_Tables_number   1
_chemical_formula_structural   CeY(GaPd2)2
_chemical_formula_sum   'Ce2 Y2 Ga4 Pd8'
_cell_volume   303.12672661
_cell_formula_units_Z   2
loop_
 _symmetry_equiv_pos_site_id
 _symmetry_equiv_pos_as_xyz
  1  'x, y, z'
loop_
 _atom_site_type_symbol
 _atom_site_label
 _atom_site_symmetry_multiplicity
 _atom_site_fract_x
 _atom_site_fract_y
 _atom_site_fract_z
 _atom_site_occupancy
  Ce  Ce0  1  0.14919853  0.75000000  0.46603433  1
  Ce  Ce1  1  0.35080147  0.75000000  0.96603433  1
  Y  Y2  1  0.84895841  0.25000000  0.53358812  1
  Y  Y3  1  0.65104159  0.25000000  0.03358812  1
  Ga  Ga4  1  0.84894285  0.75000000  0.11537251  1
  Ga  Ga5  1  0.65105715  0.75000000  0.61537251  1
  Ga  Ga6  1  0.14893913  0.25000000  0.88222123  1
  Ga  Ga7  1  0.35106087  0.25000000  0.38222123  1
  Pd  Pd8  1  0.58733120  0.94793732  0.31907895  1
  Pd  Pd9  1  0.91266880  0.55206268  0.81907895  1
  Pd  Pd10  1  0.41405455  0.44816842  0.68231295  1
  Pd  Pd11  1  0.08594545  0.05183158  0.18231295  1
  Pd  Pd12  1  0.41405455  0.05183158  0.68231295  1
  Pd  Pd13  1  0.08594545  0.44816842  0.18231295  1
  Pd  Pd14  1  0.58733120  0.55206268  0.31907895  1
  Pd  Pd15  1  0.91266880  0.94793732  0.81907895  1
