# generated using pymatgen
data_CsNdZnTe3
_symmetry_space_group_name_H-M   'P 1'
_cell_length_a   4.52753559
_cell_length_b   8.96081911
_cell_length_c   12.04062460
_cell_angle_alpha   90.00000000
_cell_angle_beta   90.00000000
_cell_angle_gamma   104.63317079
_symmetry_Int_Tables_number   1
_chemical_formula_structural   CsNdZnTe3
_chemical_formula_sum   'Cs2 Nd2 Zn2 Te6'
_cell_volume   472.64806692
_cell_formula_units_Z   2
loop_
 _symmetry_equiv_pos_site_id
 _symmetry_equiv_pos_as_xyz
  1  'x, y, z'
loop_
 _atom_site_type_symbol
 _atom_site_label
 _atom_site_symmetry_multiplicity
 _atom_site_fract_x
 _atom_site_fract_y
 _atom_site_fract_z
 _atom_site_occupancy
  Zn  Zn0  1  0.46472082  0.92944163  0.75000000  1
  Zn  Zn1  1  0.53527918  0.07055837  0.25000000  1
  Te  Te2  1  0.37919409  0.75838818  0.56539830  1
  Te  Te3  1  0.62080591  0.24161182  0.43460170  1
  Te  Te4  1  0.93945525  0.87891051  0.25000000  1
  Te  Te5  1  0.06054475  0.12108949  0.75000000  1
  Te  Te6  1  0.37919409  0.75838818  0.93460170  1
  Te  Te7  1  0.62080591  0.24161182  0.06539830  1
  Cs  Cs8  1  0.74643367  0.49286733  0.75000000  1
  Cs  Cs9  1  0.25356633  0.50713267  0.25000000  1
  Nd  Nd10  1  0.00000000  0.00000000  0.00000000  1
  Nd  Nd11  1  0.00000000  0.00000000  0.50000000  1
