# generated using pymatgen
data_CsVP2S7
_symmetry_space_group_name_H-M   'P 1'
_cell_length_a   6.54141791
_cell_length_b   6.54141791
_cell_length_c   7.17018844
_cell_angle_alpha   94.91613308
_cell_angle_beta   94.91613303
_cell_angle_gamma   96.61384407
_symmetry_Int_Tables_number   1
_chemical_formula_structural   CsVP2S7
_chemical_formula_sum   'Cs1 V1 P2 S7'
_cell_volume   302.23137283
_cell_formula_units_Z   1
loop_
 _symmetry_equiv_pos_site_id
 _symmetry_equiv_pos_as_xyz
  1  'x, y, z'
loop_
 _atom_site_type_symbol
 _atom_site_label
 _atom_site_symmetry_multiplicity
 _atom_site_fract_x
 _atom_site_fract_y
 _atom_site_fract_z
 _atom_site_occupancy
  P  P0  1  0.05487371  0.34136723  0.57505141  1
  P  P1  1  0.65863277  0.94512629  0.42494859  1
  S  S2  1  0.31372025  0.36334470  0.75711973  1
  S  S3  1  0.63665530  0.68627975  0.24288027  1
  S  S4  1  0.15656655  0.47091699  0.34447328  1
  S  S5  1  0.52908301  0.84343345  0.65552672  1
  S  S6  1  0.81804509  0.45075138  0.70053728  1
  S  S7  1  0.54924862  0.18195491  0.29946272  1
  S  S8  1  0.98793797  0.01206203  0.50000000  1
  V  V9  1  0.50153010  0.49846990  0.50000000  1
  Cs  Cs10  1  0.10588664  0.89411336  0.00000000  1
