# generated using pymatgen
data_CsPrZnTe3
_symmetry_space_group_name_H-M   'P 1'
_cell_length_a   4.54921033
_cell_length_b   8.96358098
_cell_length_c   12.11741712
_cell_angle_alpha   90.00000000
_cell_angle_beta   90.00000000
_cell_angle_gamma   104.70016709
_symmetry_Int_Tables_number   1
_chemical_formula_structural   CsPrZnTe3
_chemical_formula_sum   'Cs2 Pr2 Zn2 Te6'
_cell_volume   477.94068107
_cell_formula_units_Z   2
loop_
 _symmetry_equiv_pos_site_id
 _symmetry_equiv_pos_as_xyz
  1  'x, y, z'
loop_
 _atom_site_type_symbol
 _atom_site_label
 _atom_site_symmetry_multiplicity
 _atom_site_fract_x
 _atom_site_fract_y
 _atom_site_fract_z
 _atom_site_occupancy
  Zn  Zn0  1  0.46498769  0.92997538  0.75000000  1
  Zn  Zn1  1  0.53501231  0.07002462  0.25000000  1
  Te  Te2  1  0.37878208  0.75756417  0.56704436  1
  Te  Te3  1  0.62121792  0.24243583  0.43295564  1
  Te  Te4  1  0.93926473  0.87852946  0.25000000  1
  Te  Te5  1  0.06073527  0.12147054  0.75000000  1
  Te  Te6  1  0.37878208  0.75756417  0.93295564  1
  Te  Te7  1  0.62121792  0.24243583  0.06704436  1
  Cs  Cs8  1  0.74647429  0.49294858  0.75000000  1
  Cs  Cs9  1  0.25352571  0.50705142  0.25000000  1
  Pr  Pr10  1  0.00000000  0.00000000  0.00000000  1
  Pr  Pr11  1  0.00000000  0.00000000  0.50000000  1
