# generated using pymatgen
data_Cs2NaAl3F12
_symmetry_space_group_name_H-M   'P 1'
_cell_length_a   7.43163328
_cell_length_b   7.43163329
_cell_length_c   7.43163329
_cell_angle_alpha   57.46966092
_cell_angle_beta   57.46966093
_cell_angle_gamma   57.46966091
_symmetry_Int_Tables_number   1
_chemical_formula_structural   Cs2NaAl3F12
_chemical_formula_sum   'Cs2 Na1 Al3 F12'
_cell_volume   273.33417421
_cell_formula_units_Z   1
loop_
 _symmetry_equiv_pos_site_id
 _symmetry_equiv_pos_as_xyz
  1  'x, y, z'
loop_
 _atom_site_type_symbol
 _atom_site_label
 _atom_site_symmetry_multiplicity
 _atom_site_fract_x
 _atom_site_fract_y
 _atom_site_fract_z
 _atom_site_occupancy
  F  F0  1  0.08475429  0.08475429  0.61745424  1
  F  F1  1  0.08475429  0.61745424  0.08475429  1
  F  F2  1  0.61745424  0.08475429  0.08475429  1
  F  F3  1  0.38254576  0.91524571  0.91524571  1
  F  F4  1  0.91524571  0.91524571  0.38254576  1
  F  F5  1  0.91524571  0.38254576  0.91524571  1
  F  F6  1  0.29711320  0.92254004  0.29711320  1
  F  F7  1  0.29711320  0.29711320  0.92254004  1
  F  F8  1  0.92254004  0.29711320  0.29711320  1
  F  F9  1  0.07745996  0.70288680  0.70288680  1
  F  F10  1  0.70288680  0.07745996  0.70288680  1
  F  F11  1  0.70288680  0.70288680  0.07745996  1
  Na  Na12  1  0.00000000  0.00000000  0.00000000  1
  Al  Al13  1  0.00000000  0.50000000  0.00000000  1
  Al  Al14  1  0.00000000  0.00000000  0.50000000  1
  Al  Al15  1  0.50000000  0.00000000  0.00000000  1
  Cs  Cs16  1  0.62298912  0.62298912  0.62298912  1
  Cs  Cs17  1  0.37701088  0.37701088  0.37701088  1
