# generated using pymatgen
data_BiOF
_symmetry_space_group_name_H-M   'P 1'
_cell_length_a   6.87067993
_cell_length_b   6.05199258
_cell_length_c   6.03448387
_cell_angle_alpha   98.73608306
_cell_angle_beta   68.22076952
_cell_angle_gamma   68.04384518
_symmetry_Int_Tables_number   1
_chemical_formula_structural   BiOF
_chemical_formula_sum   'Bi4 O4 F4'
_cell_volume   203.43663306
_cell_formula_units_Z   4
loop_
 _symmetry_equiv_pos_site_id
 _symmetry_equiv_pos_as_xyz
  1  'x, y, z'
loop_
 _atom_site_type_symbol
 _atom_site_label
 _atom_site_symmetry_multiplicity
 _atom_site_fract_x
 _atom_site_fract_y
 _atom_site_fract_z
 _atom_site_occupancy
  Bi  Bi0  1  0.25028008  0.91957734  0.07331773  1
  Bi  Bi1  1  0.74692247  0.67212903  0.32590602  1
  Bi  Bi2  1  0.24936154  0.32407249  0.67130099  1
  Bi  Bi3  1  0.75175532  0.07316592  0.92018076  1
  O  O4  1  0.51265669  0.99198736  0.73866016  1
  O  O5  1  0.98596066  0.25207843  0.00632573  1
  O  O6  1  0.01121352  0.74242780  0.99668596  1
  O  O7  1  0.48341194  0.01119312  0.25651684  1
  F  F8  1  0.49960700  0.49736910  0.00892288  1
  F  F9  1  0.49593596  0.50228870  0.51136093  1
  F  F10  1  0.99129528  0.50575675  0.50556289  1
  F  F11  1  0.99965153  0.00248495  0.49677011  1
