# generated using pymatgen
data_RbGd2CuS4
_symmetry_space_group_name_H-M   'P 1'
_cell_length_a   4.02246560
_cell_length_b   7.24108786
_cell_length_c   13.86110593
_cell_angle_alpha   90.00000000
_cell_angle_beta   90.00000000
_cell_angle_gamma   106.12613353
_symmetry_Int_Tables_number   1
_chemical_formula_structural   RbGd2CuS4
_chemical_formula_sum   'Rb2 Gd4 Cu2 S8'
_cell_volume   387.84695473
_cell_formula_units_Z   2
loop_
 _symmetry_equiv_pos_site_id
 _symmetry_equiv_pos_as_xyz
  1  'x, y, z'
loop_
 _atom_site_type_symbol
 _atom_site_label
 _atom_site_symmetry_multiplicity
 _atom_site_fract_x
 _atom_site_fract_y
 _atom_site_fract_z
 _atom_site_occupancy
  S  S0  1  0.00000000  0.00000000  0.50000000  1
  S  S1  1  0.00000000  0.00000000  0.00000000  1
  S  S2  1  0.25922187  0.51844374  0.10962107  1
  S  S3  1  0.74077813  0.48155626  0.89037893  1
  S  S4  1  0.42339740  0.84679480  0.75000000  1
  S  S5  1  0.25922187  0.51844374  0.39037893  1
  S  S6  1  0.57660260  0.15320520  0.25000000  1
  S  S7  1  0.74077813  0.48155626  0.60962107  1
  Cu  Cu8  1  0.83445434  0.66890868  0.75000000  1
  Cu  Cu9  1  0.16554566  0.33109132  0.25000000  1
  Rb  Rb10  1  0.89336745  0.78673491  0.25000000  1
  Rb  Rb11  1  0.10663255  0.21326509  0.75000000  1
  Gd  Gd12  1  0.63404925  0.26809850  0.43873642  1
  Gd  Gd13  1  0.36595075  0.73190150  0.56126358  1
  Gd  Gd14  1  0.63404925  0.26809850  0.06126358  1
  Gd  Gd15  1  0.36595075  0.73190150  0.93873642  1
