# generated using pymatgen
data_DyBO3
_symmetry_space_group_name_H-M   'P 1'
_cell_length_a   6.18903480
_cell_length_b   6.41038936
_cell_length_c   6.39307786
_cell_angle_alpha   92.56889174
_cell_angle_beta   107.13263951
_cell_angle_gamma   107.14009470
_symmetry_Int_Tables_number   1
_chemical_formula_structural   DyBO3
_chemical_formula_sum   'Dy4 B4 O12'
_cell_volume   229.20041422
_cell_formula_units_Z   4
loop_
 _symmetry_equiv_pos_site_id
 _symmetry_equiv_pos_as_xyz
  1  'x, y, z'
loop_
 _atom_site_type_symbol
 _atom_site_label
 _atom_site_symmetry_multiplicity
 _atom_site_fract_x
 _atom_site_fract_y
 _atom_site_fract_z
 _atom_site_occupancy
  B  B0  1  0.02192357  0.23624690  0.72163983  1
  B  B1  1  0.97807643  0.76375310  0.27836017  1
  B  B2  1  0.51849751  0.28191705  0.23786867  1
  B  B3  1  0.48150249  0.71808295  0.76213133  1
  O  O4  1  0.58916721  0.87267788  0.64453080  1
  O  O5  1  0.41083279  0.12732212  0.35546920  1
  O  O6  1  0.54625603  0.53174853  0.77675604  1
  O  O7  1  0.45374397  0.46825147  0.22324396  1
  O  O8  1  0.11419031  0.65823651  0.20496251  1
  O  O9  1  0.88580969  0.34176349  0.79503749  1
  O  O10  1  0.34612008  0.78224410  0.87456375  1
  O  O11  1  0.65387992  0.21775590  0.12543625  1
  O  O12  1  0.86877832  0.88623229  0.12894102  1
  O  O13  1  0.13122168  0.11376771  0.87105898  1
  O  O14  1  0.92503066  0.75020517  0.46966029  1
  O  O15  1  0.07496934  0.24979483  0.53033971  1
  Dy  Dy16  1  0.45469064  0.16727361  0.73168280  1
  Dy  Dy17  1  0.54530936  0.83272639  0.26831720  1
  Dy  Dy18  1  0.05645930  0.27637181  0.18148988  1
  Dy  Dy19  1  0.94354070  0.72362819  0.81851012  1
