# generated using pymatgen
data_Tl2Ge2S5
_symmetry_space_group_name_H-M   'P 1'
_cell_length_a   9.04367911
_cell_length_b   10.93924517
_cell_length_c   10.93924517
_cell_angle_alpha   90.12215088
_cell_angle_beta   99.51278346
_cell_angle_gamma   99.51278340
_symmetry_Int_Tables_number   1
_chemical_formula_structural   Tl2Ge2S5
_chemical_formula_sum   'Tl8 Ge8 S20'
_cell_volume   1052.18887112
_cell_formula_units_Z   4
loop_
 _symmetry_equiv_pos_site_id
 _symmetry_equiv_pos_as_xyz
  1  'x, y, z'
loop_
 _atom_site_type_symbol
 _atom_site_label
 _atom_site_symmetry_multiplicity
 _atom_site_fract_x
 _atom_site_fract_y
 _atom_site_fract_z
 _atom_site_occupancy
  S  S0  1  0.25000000  0.45466958  0.54533042  1
  S  S1  1  0.75000000  0.54533042  0.45466958  1
  S  S2  1  0.25000000  0.11374717  0.88625283  1
  S  S3  1  0.75000000  0.88625283  0.11374717  1
  S  S4  1  0.53073290  0.99065113  0.75443472  1
  S  S5  1  0.96926710  0.24556528  0.00934887  1
  S  S6  1  0.46926710  0.00934887  0.24556528  1
  S  S7  1  0.03073290  0.75443472  0.99065113  1
  S  S8  1  0.95646519  0.24522759  0.35022675  1
  S  S9  1  0.54353481  0.64977325  0.75477241  1
  S  S10  1  0.04353481  0.75477241  0.64977325  1
  S  S11  1  0.45646519  0.35022675  0.24522759  1
  S  S12  1  0.04711224  0.75639702  0.32008705  1
  S  S13  1  0.45288776  0.67991295  0.24360298  1
  S  S14  1  0.95288776  0.24360298  0.67991295  1
  S  S15  1  0.54711224  0.32008705  0.75639702  1
  S  S16  1  0.74441712  0.54157165  0.11254820  1
  S  S17  1  0.75558288  0.88745180  0.45842835  1
  S  S18  1  0.25558288  0.45842835  0.88745180  1
  S  S19  1  0.24441712  0.11254820  0.54157165  1
  Ge  Ge20  1  0.60935527  0.86655578  0.26953151  1
  Ge  Ge21  1  0.89064473  0.73046849  0.13344422  1
  Ge  Ge22  1  0.39064473  0.13344422  0.73046849  1
  Ge  Ge23  1  0.10935527  0.26953151  0.86655578  1
  Ge  Ge24  1  0.10177777  0.26612058  0.53054832  1
  Ge  Ge25  1  0.39822223  0.46945168  0.73387942  1
  Ge  Ge26  1  0.89822223  0.73387942  0.46945168  1
  Ge  Ge27  1  0.60177777  0.53054832  0.26612058  1
  Tl  Tl28  1  0.89973689  0.93725025  0.79433621  1
  Tl  Tl29  1  0.60026311  0.20566379  0.06274975  1
  Tl  Tl30  1  0.10026311  0.06274975  0.20566379  1
  Tl  Tl31  1  0.39973689  0.79433621  0.93725025  1
  Tl  Tl32  1  0.62250845  0.20553497  0.45204135  1
  Tl  Tl33  1  0.87749155  0.54795865  0.79446503  1
  Tl  Tl34  1  0.37749155  0.79446503  0.54795865  1
  Tl  Tl35  1  0.12250845  0.45204135  0.20553497  1
