# generated using pymatgen
data_NaLa2OsO6
_symmetry_space_group_name_H-M   'P 1'
_cell_length_a   5.65498105
_cell_length_b   6.02678578
_cell_length_c   8.12922057
_cell_angle_alpha   90.00000000
_cell_angle_beta   90.69331786
_cell_angle_gamma   90.00000000
_symmetry_Int_Tables_number   1
_chemical_formula_structural   NaLa2OsO6
_chemical_formula_sum   'Na2 La4 Os2 O12'
_cell_volume   277.03460359
_cell_formula_units_Z   2
loop_
 _symmetry_equiv_pos_site_id
 _symmetry_equiv_pos_as_xyz
  1  'x, y, z'
loop_
 _atom_site_type_symbol
 _atom_site_label
 _atom_site_symmetry_multiplicity
 _atom_site_fract_x
 _atom_site_fract_y
 _atom_site_fract_z
 _atom_site_occupancy
  O  O0  1  0.83444118  0.72171637  0.56803916  1
  O  O1  1  0.66555882  0.22171637  0.93196084  1
  O  O2  1  0.16555882  0.27828363  0.43196084  1
  O  O3  1  0.33444118  0.77828363  0.06803916  1
  O  O4  1  0.11600322  0.04975546  0.72942299  1
  O  O5  1  0.38399678  0.54975546  0.77057701  1
  O  O6  1  0.88399678  0.95024454  0.27057701  1
  O  O7  1  0.61600322  0.45024454  0.22942299  1
  O  O8  1  0.21073315  0.32615511  0.05096717  1
  O  O9  1  0.28926685  0.82615511  0.44903283  1
  O  O10  1  0.78926685  0.67384489  0.94903283  1
  O  O11  1  0.71073315  0.17384489  0.55096717  1
  Na  Na12  1  0.50000000  0.50000000  0.50000000  1
  Na  Na13  1  0.00000000  0.00000000  0.00000000  1
  La  La14  1  0.48143852  0.06651862  0.25339170  1
  La  La15  1  0.01856148  0.56651862  0.24660830  1
  La  La16  1  0.98143852  0.43348138  0.75339170  1
  La  La17  1  0.51856148  0.93348138  0.74660830  1
  Os  Os18  1  0.50000000  0.50000000  0.00000000  1
  Os  Os19  1  0.00000000  0.00000000  0.50000000  1
