# generated using pymatgen
data_Li2Fe(Si2O5)3
_symmetry_space_group_name_H-M   'P 1'
_cell_length_a   7.26039391
_cell_length_b   7.45110790
_cell_length_c   14.84122231
_cell_angle_alpha   80.23535126
_cell_angle_beta   90.00000000
_cell_angle_gamma   60.84313738
_symmetry_Int_Tables_number   1
_chemical_formula_structural   Li2Fe(Si2O5)3
_chemical_formula_sum   'Li4 Fe2 Si12 O30'
_cell_volume   687.79664438
_cell_formula_units_Z   2
loop_
 _symmetry_equiv_pos_site_id
 _symmetry_equiv_pos_as_xyz
  1  'x, y, z'
loop_
 _atom_site_type_symbol
 _atom_site_label
 _atom_site_symmetry_multiplicity
 _atom_site_fract_x
 _atom_site_fract_y
 _atom_site_fract_z
 _atom_site_occupancy
  Li  Li0  1  0.68375937  0.60275535  0.94943140  1
  Li  Li1  1  0.34941352  0.60148237  0.83924759  1
  Li  Li2  1  0.71348628  0.60275535  0.44943140  1
  Li  Li3  1  0.04910411  0.60148237  0.33924759  1
  Fe  Fe4  1  0.28086902  0.95078839  0.89620253  1
  Fe  Fe5  1  0.76834260  0.95078839  0.39620253  1
  Si  Si6  1  0.63991039  0.81932201  0.74689289  1
  Si  Si7  1  0.08088292  0.88795460  0.56444020  1
  Si  Si8  1  0.54076760  0.81932201  0.24689289  1
  Si  Si9  1  0.03116348  0.88795460  0.06444020  1
  Si  Si10  1  0.16663252  0.45895488  0.55046165  1
  Si  Si11  1  0.99967631  0.36661489  0.74742011  1
  Si  Si12  1  0.37441260  0.45895488  0.05046165  1
  Si  Si13  1  0.63370880  0.36661489  0.24742011  1
  Si  Si14  1  0.91157212  0.01481653  0.75642787  1
  Si  Si15  1  0.43597393  0.00839509  0.54197433  1
  Si  Si16  1  0.07361135  0.01481653  0.25642787  1
  Si  Si17  1  0.55563098  0.00839509  0.04197433  1
  O  O18  1  0.53882665  0.89948871  0.95809211  1
  O  O19  1  0.07923563  0.88196757  0.84838384  1
  O  O20  1  0.03020155  0.90296000  0.67137219  1
  O  O21  1  0.46310243  0.79712969  0.80736067  1
  O  O22  1  0.57246073  0.85511943  0.63830877  1
  O  O23  1  0.56168464  0.89948871  0.45809211  1
  O  O24  1  0.46548174  0.53872926  0.96307877  1
  O  O25  1  0.03879681  0.88196757  0.34838384  1
  O  O26  1  0.85588670  0.59222683  0.77933474  1
  O  O27  1  0.06683845  0.90296000  0.17137219  1
  O  O28  1  0.73976888  0.79712969  0.30736067  1
  O  O29  1  0.23162471  0.63997967  0.55991974  1
  O  O30  1  0.57242084  0.85511943  0.13830877  1
  O  O31  1  0.99578900  0.53872926  0.46307877  1
  O  O32  1  0.07892167  0.40551234  0.64718003  1
  O  O33  1  0.55188647  0.59222683  0.27933474  1
  O  O34  1  0.19054897  0.22252388  0.82636041  1
  O  O35  1  0.84543018  0.26243114  0.73798378  1
  O  O36  1  0.12839561  0.63997967  0.05991974  1
  O  O37  1  0.38791998  0.24741153  0.53879465  1
  O  O38  1  0.51556598  0.40551234  0.14718003  1
  O  O39  1  0.69506141  0.99858156  0.76723470  1
  O  O40  1  0.58692715  0.22252388  0.32636041  1
  O  O41  1  0.89213968  0.26243114  0.23798378  1
  O  O42  1  0.20850267  0.01375982  0.53321376  1
  O  O43  1  0.85181920  0.00217648  0.50379528  1
  O  O44  1  0.36466849  0.24741153  0.03879465  1
  O  O45  1  0.30635803  0.99858156  0.26723470  1
  O  O46  1  0.77773751  0.01375982  0.03321376  1
  O  O47  1  0.14600432  0.00217648  0.00379528  1
