# generated using pymatgen
data_KYbSiS4
_symmetry_space_group_name_H-M   'P 1'
_cell_length_a   6.90721563
_cell_length_b   5.65791359
_cell_length_c   9.16616039
_cell_angle_alpha   90.00000000
_cell_angle_beta   104.31303847
_cell_angle_gamma   90.00000000
_symmetry_Int_Tables_number   1
_chemical_formula_structural   KYbSiS4
_chemical_formula_sum   'K2 Yb2 Si2 S8'
_cell_volume   347.09823139
_cell_formula_units_Z   2
loop_
 _symmetry_equiv_pos_site_id
 _symmetry_equiv_pos_as_xyz
  1  'x, y, z'
loop_
 _atom_site_type_symbol
 _atom_site_label
 _atom_site_symmetry_multiplicity
 _atom_site_fract_x
 _atom_site_fract_y
 _atom_site_fract_z
 _atom_site_occupancy
  Si  Si0  1  0.24645540  0.69953788  0.32659043  1
  Si  Si1  1  0.75354460  0.19953788  0.67340957  1
  S  S2  1  0.43204016  0.69956007  0.17793751  1
  S  S3  1  0.56795984  0.19956007  0.82206249  1
  S  S4  1  0.60981356  0.19958433  0.44329749  1
  S  S5  1  0.39018644  0.69958433  0.55670251  1
  S  S6  1  0.00677464  0.44018195  0.27973047  1
  S  S7  1  0.99322536  0.94018195  0.72026953  1
  S  S8  1  0.00671529  0.95876052  0.27971783  1
  S  S9  1  0.99328471  0.45876052  0.72028217  1
  K  K10  1  0.25985908  0.19959059  0.04209270  1
  K  K11  1  0.74014092  0.69959059  0.95790730  1
  Yb  Yb12  1  0.25280767  0.19949466  0.55606705  1
  Yb  Yb13  1  0.74719233  0.69949466  0.44393295  1
