# generated using pymatgen
data_Ba2YTaO6
_symmetry_space_group_name_H-M   'P 1'
_cell_length_a   6.02546379
_cell_length_b   6.02546379
_cell_length_c   6.04146352
_cell_angle_alpha   119.91243290
_cell_angle_beta   119.91243287
_cell_angle_gamma   89.99999999
_symmetry_Int_Tables_number   1
_chemical_formula_structural   Ba2YTaO6
_chemical_formula_sum   'Ba2 Y1 Ta1 O6'
_cell_volume   155.50835319
_cell_formula_units_Z   1
loop_
 _symmetry_equiv_pos_site_id
 _symmetry_equiv_pos_as_xyz
  1  'x, y, z'
loop_
 _atom_site_type_symbol
 _atom_site_label
 _atom_site_symmetry_multiplicity
 _atom_site_fract_x
 _atom_site_fract_y
 _atom_site_fract_z
 _atom_site_occupancy
  O  O0  1  0.76140520  0.70898879  0.00000000  1
  O  O1  1  0.29101121  0.76140520  0.00000000  1
  O  O2  1  0.70898879  0.23859480  0.00000000  1
  O  O3  1  0.23859480  0.29101121  0.00000000  1
  O  O4  1  0.26449777  0.26449777  0.52899554  1
  O  O5  1  0.73550223  0.73550223  0.47100446  1
  Y  Y6  1  0.00000000  0.00000000  0.00000000  1
  Ba  Ba7  1  0.25000000  0.75000000  0.50000000  1
  Ba  Ba8  1  0.75000000  0.25000000  0.50000000  1
  Ta  Ta9  1  0.50000000  0.50000000  0.00000000  1
