# generated using pymatgen
data_LaSnRh
_symmetry_space_group_name_H-M   'P 1'
_cell_length_a   7.54788180
_cell_length_b   7.54788180
_cell_length_c   4.26360664
_cell_angle_alpha   90.00000000
_cell_angle_beta   90.00000000
_cell_angle_gamma   120.00000001
_symmetry_Int_Tables_number   1
_chemical_formula_structural   LaSnRh
_chemical_formula_sum   'La3 Sn3 Rh3'
_cell_volume   210.35747168
_cell_formula_units_Z   3
loop_
 _symmetry_equiv_pos_site_id
 _symmetry_equiv_pos_as_xyz
  1  'x, y, z'
loop_
 _atom_site_type_symbol
 _atom_site_label
 _atom_site_symmetry_multiplicity
 _atom_site_fract_x
 _atom_site_fract_y
 _atom_site_fract_z
 _atom_site_occupancy
  Rh  Rh0  1  0.33333333  0.66666667  0.50000000  1
  Rh  Rh1  1  0.66666667  0.33333333  0.50000000  1
  Rh  Rh2  1  0.00000000  0.00000000  0.00000000  1
  Sn  Sn3  1  0.75413480  0.75413480  0.50000000  1
  Sn  Sn4  1  0.00000000  0.24586520  0.50000000  1
  Sn  Sn5  1  0.24586520  0.00000000  0.50000000  1
  La  La6  1  0.00000000  0.58425930  0.00000000  1
  La  La7  1  0.41574070  0.41574070  0.00000000  1
  La  La8  1  0.58425930  0.00000000  0.00000000  1
