# generated using pymatgen
data_ErSi3Ni
_symmetry_space_group_name_H-M   'P 1'
_cell_length_a   3.92202391
_cell_length_b   3.92452632
_cell_length_c   10.67156309
_cell_angle_alpha   90.00000000
_cell_angle_beta   100.58887642
_cell_angle_gamma   90.00000000
_symmetry_Int_Tables_number   1
_chemical_formula_structural   ErSi3Ni
_chemical_formula_sum   'Er2 Si6 Ni2'
_cell_volume   161.46048155
_cell_formula_units_Z   2
loop_
 _symmetry_equiv_pos_site_id
 _symmetry_equiv_pos_as_xyz
  1  'x, y, z'
loop_
 _atom_site_type_symbol
 _atom_site_label
 _atom_site_symmetry_multiplicity
 _atom_site_fract_x
 _atom_site_fract_y
 _atom_site_fract_z
 _atom_site_occupancy
  Si  Si0  1  0.44380238  0.00000000  0.88760476  1
  Si  Si1  1  0.55619762  0.00000000  0.11239524  1
  Si  Si2  1  0.21806572  0.00000000  0.43613144  1
  Si  Si3  1  0.78193428  0.00000000  0.56386856  1
  Si  Si4  1  0.94386669  0.50000000  0.88773337  1
  Si  Si5  1  0.05613331  0.50000000  0.11226663  1
  Ni  Ni6  1  0.11081707  0.00000000  0.22163414  1
  Ni  Ni7  1  0.88918293  0.00000000  0.77836586  1
  Er  Er8  1  0.33115419  0.50000000  0.66230838  1
  Er  Er9  1  0.66884581  0.50000000  0.33769162  1
