# generated using pymatgen
data_CsSmZnTe3
_symmetry_space_group_name_H-M   'P 1'
_cell_length_a   4.49403113
_cell_length_b   8.95908781
_cell_length_c   11.92241400
_cell_angle_alpha   90.00000000
_cell_angle_beta   90.00000000
_cell_angle_gamma   104.52536149
_symmetry_Int_Tables_number   1
_chemical_formula_structural   CsSmZnTe3
_chemical_formula_sum   'Cs2 Sm2 Zn2 Te6'
_cell_volume   464.68205164
_cell_formula_units_Z   2
loop_
 _symmetry_equiv_pos_site_id
 _symmetry_equiv_pos_as_xyz
  1  'x, y, z'
loop_
 _atom_site_type_symbol
 _atom_site_label
 _atom_site_symmetry_multiplicity
 _atom_site_fract_x
 _atom_site_fract_y
 _atom_site_fract_z
 _atom_site_occupancy
  Zn  Zn0  1  0.46486257  0.92972514  0.75000000  1
  Zn  Zn1  1  0.53513743  0.07027486  0.25000000  1
  Te  Te2  1  0.38016417  0.76032835  0.56302023  1
  Te  Te3  1  0.61983583  0.23967165  0.43697977  1
  Te  Te4  1  0.93938314  0.87876627  0.25000000  1
  Te  Te5  1  0.06061686  0.12123373  0.75000000  1
  Te  Te6  1  0.38016417  0.76032835  0.93697977  1
  Te  Te7  1  0.61983583  0.23967165  0.06302023  1
  Cs  Cs8  1  0.74705591  0.49411183  0.75000000  1
  Cs  Cs9  1  0.25294409  0.50588817  0.25000000  1
  Sm  Sm10  1  0.00000000  0.00000000  0.00000000  1
  Sm  Sm11  1  0.00000000  0.00000000  0.50000000  1
