# generated using pymatgen
data_Pr2CdPd2
_symmetry_space_group_name_H-M   'P 1'
_cell_length_a   3.97153442
_cell_length_b   7.87390790
_cell_length_c   7.87390790
_cell_angle_alpha   90.00000000
_cell_angle_beta   90.00000000
_cell_angle_gamma   90.00000000
_symmetry_Int_Tables_number   1
_chemical_formula_structural   Pr2CdPd2
_chemical_formula_sum   'Pr4 Cd2 Pd4'
_cell_volume   246.22888133
_cell_formula_units_Z   2
loop_
 _symmetry_equiv_pos_site_id
 _symmetry_equiv_pos_as_xyz
  1  'x, y, z'
loop_
 _atom_site_type_symbol
 _atom_site_label
 _atom_site_symmetry_multiplicity
 _atom_site_fract_x
 _atom_site_fract_y
 _atom_site_fract_z
 _atom_site_occupancy
  Pd  Pd0  1  0.00000000  0.12693940  0.37306060  1
  Pd  Pd1  1  0.00000000  0.37306060  0.87306060  1
  Pd  Pd2  1  0.00000000  0.62693940  0.12693940  1
  Pd  Pd3  1  0.00000000  0.87306060  0.62693940  1
  Cd  Cd4  1  0.00000000  0.00000000  0.00000000  1
  Cd  Cd5  1  0.00000000  0.50000000  0.50000000  1
  Pr  Pr6  1  0.50000000  0.82546931  0.32546931  1
  Pr  Pr7  1  0.50000000  0.67453069  0.82546931  1
  Pr  Pr8  1  0.50000000  0.32546931  0.17453069  1
  Pr  Pr9  1  0.50000000  0.17453069  0.67453069  1
