# generated using pymatgen
data_Sr2YTaO6
_symmetry_space_group_name_H-M   'P 1'
_cell_length_a   5.85324177
_cell_length_b   5.94446346
_cell_length_c   8.32294505
_cell_angle_alpha   90.00000000
_cell_angle_beta   90.19711112
_cell_angle_gamma   90.00000000
_symmetry_Int_Tables_number   1
_chemical_formula_structural   Sr2YTaO6
_chemical_formula_sum   'Sr4 Y2 Ta2 O12'
_cell_volume   289.59001431
_cell_formula_units_Z   2
loop_
 _symmetry_equiv_pos_site_id
 _symmetry_equiv_pos_as_xyz
  1  'x, y, z'
loop_
 _atom_site_type_symbol
 _atom_site_label
 _atom_site_symmetry_multiplicity
 _atom_site_fract_x
 _atom_site_fract_y
 _atom_site_fract_z
 _atom_site_occupancy
  O  O0  1  0.80616632  0.72569627  0.45415034  1
  O  O1  1  0.69383368  0.22569627  0.04584966  1
  O  O2  1  0.19383368  0.27430373  0.54584966  1
  O  O3  1  0.30616632  0.77430373  0.95415034  1
  O  O4  1  0.72598897  0.19656324  0.45861899  1
  O  O5  1  0.77401103  0.69656324  0.04138101  1
  O  O6  1  0.27401103  0.80343676  0.54138101  1
  O  O7  1  0.22598897  0.30343676  0.95861899  1
  O  O8  1  0.08210207  0.02530186  0.26568183  1
  O  O9  1  0.41789793  0.52530186  0.23431817  1
  O  O10  1  0.91789793  0.97469814  0.73431817  1
  O  O11  1  0.58210207  0.47469814  0.76568183  1
  Sr  Sr12  1  0.99126286  0.46277798  0.24940588  1
  Sr  Sr13  1  0.50873714  0.96277798  0.25059412  1
  Sr  Sr14  1  0.49126286  0.03722202  0.74940588  1
  Sr  Sr15  1  0.00873714  0.53722202  0.75059412  1
  Y  Y16  1  0.00000000  0.00000000  0.00000000  1
  Y  Y17  1  0.50000000  0.50000000  0.50000000  1
  Ta  Ta18  1  0.50000000  0.50000000  0.00000000  1
  Ta  Ta19  1  0.00000000  0.00000000  0.50000000  1
