# generated using pymatgen
data_Zn11Rh2
_symmetry_space_group_name_H-M   'P 1'
_cell_length_a   7.91253888
_cell_length_b   7.91253888
_cell_length_c   7.91253888
_cell_angle_alpha   109.47122064
_cell_angle_beta   109.47122063
_cell_angle_gamma   109.47122065
_symmetry_Int_Tables_number   1
_chemical_formula_structural   Zn11Rh2
_chemical_formula_sum   'Zn22 Rh4'
_cell_volume   381.35169437
_cell_formula_units_Z   2
loop_
 _symmetry_equiv_pos_site_id
 _symmetry_equiv_pos_as_xyz
  1  'x, y, z'
loop_
 _atom_site_type_symbol
 _atom_site_label
 _atom_site_symmetry_multiplicity
 _atom_site_fract_x
 _atom_site_fract_y
 _atom_site_fract_z
 _atom_site_occupancy
  Zn  Zn0  1  0.00000000  0.00000000  0.78666724  1
  Zn  Zn1  1  0.00000000  0.78666724  0.00000000  1
  Zn  Zn2  1  0.78666724  0.00000000  0.00000000  1
  Zn  Zn3  1  0.21333276  0.21333276  0.21333276  1
  Zn  Zn4  1  0.35119186  0.35119186  0.61715891  1
  Zn  Zn5  1  0.64880814  0.26596705  0.00000000  1
  Zn  Zn6  1  0.26596705  0.64880814  0.00000000  1
  Zn  Zn7  1  0.00000000  0.26596705  0.64880814  1
  Zn  Zn8  1  0.38284109  0.73403295  0.73403295  1
  Zn  Zn9  1  0.73403295  0.38284109  0.73403295  1
  Zn  Zn10  1  0.26596705  0.00000000  0.64880814  1
  Zn  Zn11  1  0.64880814  0.00000000  0.26596705  1
  Zn  Zn12  1  0.00000000  0.64880814  0.26596705  1
  Zn  Zn13  1  0.61715891  0.35119186  0.35119186  1
  Zn  Zn14  1  0.35119186  0.61715891  0.35119186  1
  Zn  Zn15  1  0.73403295  0.73403295  0.38284109  1
  Zn  Zn16  1  0.00000000  0.35599428  0.35599428  1
  Zn  Zn17  1  0.64400572  0.00000000  0.64400572  1
  Zn  Zn18  1  0.35599428  0.00000000  0.35599428  1
  Zn  Zn19  1  0.35599428  0.35599428  0.00000000  1
  Zn  Zn20  1  0.64400572  0.64400572  0.00000000  1
  Zn  Zn21  1  0.00000000  0.64400572  0.64400572  1
  Rh  Rh22  1  0.00000000  0.00000000  0.34335065  1
  Rh  Rh23  1  0.00000000  0.34335065  0.00000000  1
  Rh  Rh24  1  0.34335065  0.00000000  0.00000000  1
  Rh  Rh25  1  0.65664935  0.65664935  0.65664935  1
