# generated using pymatgen
data_Sm(SiAu)2
_symmetry_space_group_name_H-M   'P 1'
_cell_length_a   4.30506288
_cell_length_b   4.30506287
_cell_length_c   5.98991875
_cell_angle_alpha   111.06083760
_cell_angle_beta   111.06083751
_cell_angle_gamma   90.00000006
_symmetry_Int_Tables_number   1
_chemical_formula_structural   Sm(SiAu)2
_chemical_formula_sum   'Sm1 Si2 Au2'
_cell_volume   95.60939219
_cell_formula_units_Z   1
loop_
 _symmetry_equiv_pos_site_id
 _symmetry_equiv_pos_as_xyz
  1  'x, y, z'
loop_
 _atom_site_type_symbol
 _atom_site_label
 _atom_site_symmetry_multiplicity
 _atom_site_fract_x
 _atom_site_fract_y
 _atom_site_fract_z
 _atom_site_occupancy
  Si  Si0  1  0.61274127  0.61274127  0.22548254  1
  Si  Si1  1  0.38725873  0.38725873  0.77451746  1
  Sm  Sm2  1  0.00000000  0.00000000  0.00000000  1
  Au  Au3  1  0.25000000  0.75000000  0.50000000  1
  Au  Au4  1  0.75000000  0.25000000  0.50000000  1
