# generated using pymatgen
data_LiFePO4
_symmetry_space_group_name_H-M   'P 1'
_cell_length_a   8.57054663
_cell_length_b   5.26414507
_cell_length_c   7.85739149
_cell_angle_alpha   90.00000000
_cell_angle_beta   90.00000000
_cell_angle_gamma   90.00000000
_symmetry_Int_Tables_number   1
_chemical_formula_structural   LiFePO4
_chemical_formula_sum   'Li4 Fe4 P4 O16'
_cell_volume   354.49879510
_cell_formula_units_Z   4
loop_
 _symmetry_equiv_pos_site_id
 _symmetry_equiv_pos_as_xyz
  1  'x, y, z'
loop_
 _atom_site_type_symbol
 _atom_site_label
 _atom_site_symmetry_multiplicity
 _atom_site_fract_x
 _atom_site_fract_y
 _atom_site_fract_z
 _atom_site_occupancy
  Li  Li0  1  0.20472260  0.37402539  0.51540528  1
  Li  Li1  1  0.29527740  0.37402539  0.01540528  1
  Li  Li2  1  0.70472260  0.87402539  0.98459472  1
  Li  Li3  1  0.79527740  0.87402539  0.48459472  1
  Fe  Fe4  1  0.06946212  0.97334805  0.81533269  1
  Fe  Fe5  1  0.43053788  0.97334805  0.31533269  1
  Fe  Fe6  1  0.56946212  0.47334805  0.68466731  1
  Fe  Fe7  1  0.93053788  0.47334805  0.18466731  1
  P  P8  1  0.07133147  0.99839963  0.24603003  1
  P  P9  1  0.42866853  0.99839963  0.74603003  1
  P  P10  1  0.57133147  0.49839963  0.25396997  1
  P  P11  1  0.92866853  0.49839963  0.75396997  1
  O  O12  1  0.05631369  0.25050930  0.35031942  1
  O  O13  1  0.08343727  0.34605125  0.73353623  1
  O  O14  1  0.09236126  0.09810275  0.05873471  1
  O  O15  1  0.20847755  0.82892862  0.30123917  1
  O  O16  1  0.29152245  0.82892862  0.80123917  1
  O  O17  1  0.40763874  0.09810275  0.55873471  1
  O  O18  1  0.41656273  0.34605125  0.23353623  1
  O  O19  1  0.44368631  0.25050930  0.85031942  1
  O  O20  1  0.55631369  0.75050930  0.14968058  1
  O  O21  1  0.58343727  0.84605125  0.76646377  1
  O  O22  1  0.59236126  0.59810275  0.44126529  1
  O  O23  1  0.70847755  0.32892862  0.19876083  1
  O  O24  1  0.79152245  0.32892862  0.69876083  1
  O  O25  1  0.90763874  0.59810275  0.94126529  1
  O  O26  1  0.91656273  0.84605125  0.26646377  1
  O  O27  1  0.94368631  0.75050930  0.64968058  1
