# generated using pymatgen
data_Er4In(NiGe2)2
_symmetry_space_group_name_H-M   'P 1'
_cell_length_a   4.20980374
_cell_length_b   7.01254953
_cell_length_c   7.98703114
_cell_angle_alpha   107.97079580
_cell_angle_beta   105.28021501
_cell_angle_gamma   90.00000002
_symmetry_Int_Tables_number   1
_chemical_formula_structural   Er4In(NiGe2)2
_chemical_formula_sum   'Er4 In1 Ni2 Ge4'
_cell_volume   215.50561876
_cell_formula_units_Z   1
loop_
 _symmetry_equiv_pos_site_id
 _symmetry_equiv_pos_as_xyz
  1  'x, y, z'
loop_
 _atom_site_type_symbol
 _atom_site_label
 _atom_site_symmetry_multiplicity
 _atom_site_fract_x
 _atom_site_fract_y
 _atom_site_fract_z
 _atom_site_occupancy
  Ni  Ni0  1  0.21749929  0.64070112  0.43499858  1
  Ni  Ni1  1  0.78250071  0.35929888  0.56500142  1
  Ge  Ge2  1  0.06582140  0.66266430  0.13164280  1
  Ge  Ge3  1  0.93417860  0.33733570  0.86835720  1
  Ge  Ge4  1  0.20251565  0.26781055  0.40503131  1
  Ge  Ge5  1  0.79748435  0.73218945  0.59496869  1
  In  In6  1  0.00000000  0.00000000  0.00000000  1
  Er  Er7  1  0.34411431  0.06246403  0.68822863  1
  Er  Er8  1  0.65588569  0.93753597  0.31177137  1
  Er  Er9  1  0.40848147  0.60885068  0.81696294  1
  Er  Er10  1  0.59151853  0.39114932  0.18303706  1
