# generated using pymatgen
data_CeMg2Ni9
_symmetry_space_group_name_H-M   'P 1'
_cell_length_a   8.38110808
_cell_length_b   8.38110808
_cell_length_c   8.38110808
_cell_angle_alpha   33.58860946
_cell_angle_beta   33.58860942
_cell_angle_gamma   33.58860950
_symmetry_Int_Tables_number   1
_chemical_formula_structural   CeMg2Ni9
_chemical_formula_sum   'Ce1 Mg2 Ni9'
_cell_volume   160.49987838
_cell_formula_units_Z   1
loop_
 _symmetry_equiv_pos_site_id
 _symmetry_equiv_pos_as_xyz
  1  'x, y, z'
loop_
 _atom_site_type_symbol
 _atom_site_label
 _atom_site_symmetry_multiplicity
 _atom_site_fract_x
 _atom_site_fract_y
 _atom_site_fract_z
 _atom_site_occupancy
  Mg  Mg0  1  0.85545545  0.85545545  0.85545545  1
  Mg  Mg1  1  0.14454455  0.14454455  0.14454455  1
  Ni  Ni2  1  0.08229758  0.58647213  0.58647213  1
  Ni  Ni3  1  0.58647213  0.08229758  0.58647213  1
  Ni  Ni4  1  0.58647213  0.58647213  0.08229758  1
  Ni  Ni5  1  0.91770242  0.41352787  0.41352787  1
  Ni  Ni6  1  0.41352787  0.91770242  0.41352787  1
  Ni  Ni7  1  0.33378860  0.33378860  0.33378860  1
  Ni  Ni8  1  0.41352787  0.41352787  0.91770242  1
  Ni  Ni9  1  0.50000000  0.50000000  0.50000000  1
  Ni  Ni10  1  0.66621140  0.66621140  0.66621140  1
  Ce  Ce11  1  0.00000000  0.00000000  0.00000000  1
