# generated using pymatgen
data_SmCoSi2
_symmetry_space_group_name_H-M   'P 1'
_cell_length_a   4.04431819
_cell_length_b   4.11061650
_cell_length_c   8.38659539
_cell_angle_alpha   104.18600802
_cell_angle_beta   90.00000000
_cell_angle_gamma   90.00000000
_symmetry_Int_Tables_number   1
_chemical_formula_structural   SmCoSi2
_chemical_formula_sum   'Sm2 Co2 Si4'
_cell_volume   135.17243066
_cell_formula_units_Z   2
loop_
 _symmetry_equiv_pos_site_id
 _symmetry_equiv_pos_as_xyz
  1  'x, y, z'
loop_
 _atom_site_type_symbol
 _atom_site_label
 _atom_site_symmetry_multiplicity
 _atom_site_fract_x
 _atom_site_fract_y
 _atom_site_fract_z
 _atom_site_occupancy
  Si  Si0  1  0.25000000  0.24978415  0.49956830  1
  Si  Si1  1  0.75000000  0.75021585  0.50043170  1
  Si  Si2  1  0.75000000  0.45686681  0.91373362  1
  Si  Si3  1  0.25000000  0.54313319  0.08626638  1
  Co  Co4  1  0.75000000  0.31881027  0.63762054  1
  Co  Co5  1  0.25000000  0.68118973  0.36237946  1
  Sm  Sm6  1  0.25000000  0.89325465  0.78650930  1
  Sm  Sm7  1  0.75000000  0.10674535  0.21349070  1
