# generated using pymatgen
data_LiFePO4
_symmetry_space_group_name_H-M   'P 1'
_cell_length_a   5.00607679
_cell_length_b   5.00607679
_cell_length_c   16.35444678
_cell_angle_alpha   92.61751071
_cell_angle_beta   87.38248929
_cell_angle_gamma   82.22602416
_symmetry_Int_Tables_number   1
_chemical_formula_structural   LiFePO4
_chemical_formula_sum   'Li4 Fe4 P4 O16'
_cell_volume   405.10817069
_cell_formula_units_Z   4
loop_
 _symmetry_equiv_pos_site_id
 _symmetry_equiv_pos_as_xyz
  1  'x, y, z'
loop_
 _atom_site_type_symbol
 _atom_site_label
 _atom_site_symmetry_multiplicity
 _atom_site_fract_x
 _atom_site_fract_y
 _atom_site_fract_z
 _atom_site_occupancy
  Li  Li0  1  0.58160583  0.83003576  0.93428644  1
  Li  Li1  1  0.83003576  0.58160583  0.56571356  1
  Li  Li2  1  0.16996424  0.41839417  0.43428644  1
  Li  Li3  1  0.41839417  0.16996424  0.06571356  1
  Fe  Fe4  1  0.33916477  0.83168773  0.74862338  1
  Fe  Fe5  1  0.16831227  0.66083523  0.24862338  1
  Fe  Fe6  1  0.83168773  0.33916477  0.75137662  1
  Fe  Fe7  1  0.66083523  0.16831227  0.25137662  1
  P  P8  1  0.30595675  0.36325754  0.63353923  1
  P  P9  1  0.36325754  0.30595675  0.86646077  1
  P  P10  1  0.63674246  0.69404325  0.13353923  1
  P  P11  1  0.69404325  0.63674246  0.36646077  1
  O  O12  1  0.10755355  0.56045495  0.69538512  1
  O  O13  1  0.43954505  0.89244645  0.19538512  1
  O  O14  1  0.07223328  0.26993392  0.84512476  1
  O  O15  1  0.43574339  0.59628825  0.84859673  1
  O  O16  1  0.22602345  0.42165335  0.54693155  1
  O  O17  1  0.73006608  0.92776672  0.34512476  1
  O  O18  1  0.40371175  0.56425661  0.34859673  1
  O  O19  1  0.57834665  0.77397655  0.04693155  1
  O  O20  1  0.42165335  0.22602345  0.95306845  1
  O  O21  1  0.59628825  0.43574339  0.65140327  1
  O  O22  1  0.26993392  0.07223328  0.65487524  1
  O  O23  1  0.77397655  0.57834665  0.45306845  1
  O  O24  1  0.56425661  0.40371175  0.15140327  1
  O  O25  1  0.92776672  0.73006608  0.15487524  1
  O  O26  1  0.56045495  0.10755355  0.80461488  1
  O  O27  1  0.89244645  0.43954505  0.30461488  1
