# generated using pymatgen
data_Tm4In(NiGe2)2
_symmetry_space_group_name_H-M   'P 1'
_cell_length_a   4.19197044
_cell_length_b   6.98959571
_cell_length_c   7.95385665
_cell_angle_alpha   107.93285520
_cell_angle_beta   105.27891677
_cell_angle_gamma   90.00000004
_symmetry_Int_Tables_number   1
_chemical_formula_structural   Tm4In(NiGe2)2
_chemical_formula_sum   'Tm4 In1 Ni2 Ge4'
_cell_volume   213.05285986
_cell_formula_units_Z   1
loop_
 _symmetry_equiv_pos_site_id
 _symmetry_equiv_pos_as_xyz
  1  'x, y, z'
loop_
 _atom_site_type_symbol
 _atom_site_label
 _atom_site_symmetry_multiplicity
 _atom_site_fract_x
 _atom_site_fract_y
 _atom_site_fract_z
 _atom_site_occupancy
  Ni  Ni0  1  0.21810422  0.63796100  0.43620845  1
  Ni  Ni1  1  0.78189578  0.36203900  0.56379155  1
  Ge  Ge2  1  0.06617140  0.66266801  0.13234279  1
  Ge  Ge3  1  0.93382860  0.33733199  0.86765721  1
  Ge  Ge4  1  0.20155045  0.26445132  0.40310090  1
  Ge  Ge5  1  0.79844955  0.73554868  0.59689910  1
  In  In6  1  0.00000000  0.00000000  0.00000000  1
  Tm  Tm7  1  0.34397068  0.06282903  0.68794136  1
  Tm  Tm8  1  0.65602932  0.93717097  0.31205864  1
  Tm  Tm9  1  0.40869274  0.60902670  0.81738548  1
  Tm  Tm10  1  0.59130726  0.39097330  0.18261452  1
