# generated using pymatgen
data_Li6MnSiO6
_symmetry_space_group_name_H-M   'P 1'
_cell_length_a   8.27352814
_cell_length_b   8.27352814
_cell_length_c   8.27352814
_cell_angle_alpha   90.00000000
_cell_angle_beta   90.00000000
_cell_angle_gamma   90.00000000
_symmetry_Int_Tables_number   1
_chemical_formula_structural   Li6MnSiO6
_chemical_formula_sum   'Li24 Mn4 Si4 O24'
_cell_volume   566.33349105
_cell_formula_units_Z   4
loop_
 _symmetry_equiv_pos_site_id
 _symmetry_equiv_pos_as_xyz
  1  'x, y, z'
loop_
 _atom_site_type_symbol
 _atom_site_label
 _atom_site_symmetry_multiplicity
 _atom_site_fract_x
 _atom_site_fract_y
 _atom_site_fract_z
 _atom_site_occupancy
  Li  Li0  1  0.02013483  0.17206785  0.33425981  1
  Li  Li1  1  0.00370122  0.23651531  0.72661957  1
  Li  Li2  1  0.17206785  0.33425981  0.02013483  1
  Li  Li3  1  0.16574019  0.97986517  0.67206785  1
  Li  Li4  1  0.27338043  0.50370022  0.26348469  1
  Li  Li5  1  0.23651531  0.72661957  0.00370122  1
  Li  Li6  1  0.26348469  0.27338043  0.50370022  1
  Li  Li7  1  0.22661957  0.49629978  0.76348469  1
  Li  Li8  1  0.33425981  0.02013483  0.17206785  1
  Li  Li9  1  0.32793215  0.66574019  0.52013483  1
  Li  Li10  1  0.49629978  0.76348469  0.22661957  1
  Li  Li11  1  0.47986517  0.82793215  0.83425981  1
  Li  Li12  1  0.52013483  0.32793215  0.66574019  1
  Li  Li13  1  0.50370022  0.26348469  0.27338043  1
  Li  Li14  1  0.67206785  0.16574019  0.97986517  1
  Li  Li15  1  0.66574019  0.52013483  0.32793215  1
  Li  Li16  1  0.77338043  0.99629978  0.73651531  1
  Li  Li17  1  0.73651531  0.77338043  0.99629978  1
  Li  Li18  1  0.76348469  0.22661957  0.49629978  1
  Li  Li19  1  0.72661957  0.00370122  0.23651531  1
  Li  Li20  1  0.83425981  0.47986517  0.82793215  1
  Li  Li21  1  0.82793215  0.83425981  0.47986517  1
  Li  Li22  1  0.99629978  0.73651531  0.77338043  1
  Li  Li23  1  0.97986517  0.67206785  0.16574019  1
  Mn  Mn24  1  0.12640898  0.87359102  0.37359102  1
  Mn  Mn25  1  0.37359102  0.12640898  0.87359102  1
  Mn  Mn26  1  0.62640898  0.62640898  0.62640898  1
  Mn  Mn27  1  0.87359102  0.37359102  0.12640898  1
  Si  Si28  1  0.99264418  0.50735582  0.49264418  1
  Si  Si29  1  0.50735582  0.49264418  0.99264418  1
  Si  Si30  1  0.49264418  0.99264418  0.50735582  1
  Si  Si31  1  0.00735582  0.00735582  0.00735582  1
  O  O32  1  0.01049602  0.51049602  0.98950398  1
  O  O33  1  0.12449844  0.89927148  0.88725940  1
  O  O34  1  0.10072852  0.38725940  0.37550156  1
  O  O35  1  0.12298966  0.12298966  0.12298966  1
  O  O36  1  0.11274060  0.62449844  0.60072852  1
  O  O37  1  0.23804830  0.26195170  0.73804830  1
  O  O38  1  0.26195170  0.73804830  0.23804830  1
  O  O39  1  0.38725940  0.37550156  0.10072852  1
  O  O40  1  0.37701034  0.87701034  0.62298966  1
  O  O41  1  0.39927148  0.61274060  0.87550156  1
  O  O42  1  0.37550156  0.10072852  0.38725940  1
  O  O43  1  0.48950398  0.48950398  0.48950398  1
  O  O44  1  0.51049602  0.98950398  0.01049602  1
  O  O45  1  0.62449844  0.60072852  0.11274060  1
  O  O46  1  0.60072852  0.11274060  0.62449844  1
  O  O47  1  0.62298966  0.37701034  0.87701034  1
  O  O48  1  0.61274060  0.87550156  0.39927148  1
  O  O49  1  0.73804830  0.23804830  0.26195170  1
  O  O50  1  0.76195170  0.76195170  0.76195170  1
  O  O51  1  0.88725940  0.12449844  0.89927148  1
  O  O52  1  0.87701034  0.62298966  0.37701034  1
  O  O53  1  0.89927148  0.88725940  0.12449844  1
  O  O54  1  0.87550156  0.39927148  0.61274060  1
  O  O55  1  0.98950398  0.01049602  0.51049602  1
