# generated using pymatgen
data_NdBO3
_symmetry_space_group_name_H-M   'P 1'
_cell_length_a   6.39361048
_cell_length_b   6.60351908
_cell_length_c   6.59700326
_cell_angle_alpha   93.56040890
_cell_angle_beta   106.82439447
_cell_angle_gamma   105.65309556
_symmetry_Int_Tables_number   1
_chemical_formula_structural   NdBO3
_chemical_formula_sum   'Nd4 B4 O12'
_cell_volume   253.73092549
_cell_formula_units_Z   4
loop_
 _symmetry_equiv_pos_site_id
 _symmetry_equiv_pos_as_xyz
  1  'x, y, z'
loop_
 _atom_site_type_symbol
 _atom_site_label
 _atom_site_symmetry_multiplicity
 _atom_site_fract_x
 _atom_site_fract_y
 _atom_site_fract_z
 _atom_site_occupancy
  B  B0  1  0.51928492  0.73359012  0.72842365  1
  B  B1  1  0.48071508  0.26640988  0.27157635  1
  B  B2  1  0.01619633  0.77899869  0.24116628  1
  B  B3  1  0.98380367  0.22100131  0.75883372  1
  O  O4  1  0.42553516  0.24947641  0.45572931  1
  O  O5  1  0.57446484  0.75052359  0.54427069  1
  O  O6  1  0.85040481  0.28686963  0.86574950  1
  O  O7  1  0.14959519  0.71313037  0.13425050  1
  O  O8  1  0.61694189  0.16416150  0.20228027  1
  O  O9  1  0.38305811  0.83583850  0.79771973  1
  O  O10  1  0.95473063  0.96163635  0.22351356  1
  O  O11  1  0.04526937  0.03836365  0.77648644  1
  O  O12  1  0.37527643  0.38661180  0.12893119  1
  O  O13  1  0.62472357  0.61338820  0.87106881  1
  O  O14  1  0.08934185  0.36642467  0.64471675  1
  O  O15  1  0.91065815  0.63357533  0.35528325  1
  Nd  Nd16  1  0.55793925  0.77884385  0.19013974  1
  Nd  Nd17  1  0.44206075  0.22115615  0.80986026  1
  Nd  Nd18  1  0.95304059  0.66850595  0.73589392  1
  Nd  Nd19  1  0.04695941  0.33149405  0.26410608  1
