# generated using pymatgen
data_NdS2
_symmetry_space_group_name_H-M   'P 1'
_cell_length_a   4.04871602
_cell_length_b   8.06723797
_cell_length_c   8.14597691
_cell_angle_alpha   90.12909270
_cell_angle_beta   90.00000000
_cell_angle_gamma   90.00000000
_symmetry_Int_Tables_number   1
_chemical_formula_structural   NdS2
_chemical_formula_sum   'Nd4 S8'
_cell_volume   266.06286082
_cell_formula_units_Z   4
loop_
 _symmetry_equiv_pos_site_id
 _symmetry_equiv_pos_as_xyz
  1  'x, y, z'
loop_
 _atom_site_type_symbol
 _atom_site_label
 _atom_site_symmetry_multiplicity
 _atom_site_fract_x
 _atom_site_fract_y
 _atom_site_fract_z
 _atom_site_occupancy
  S  S0  1  0.15594164  0.60804966  0.00270901  1
  S  S1  1  0.65594164  0.89195034  0.99729099  1
  S  S2  1  0.84405836  0.39195034  0.99729099  1
  S  S3  1  0.34405836  0.10804966  0.00270901  1
  S  S4  1  0.76083832  0.12563164  0.63285039  1
  S  S5  1  0.26083832  0.37436836  0.36714961  1
  S  S6  1  0.23916168  0.87436836  0.36714961  1
  S  S7  1  0.73916168  0.62563164  0.63285039  1
  Nd  Nd8  1  0.71118503  0.62881718  0.27575305  1
  Nd  Nd9  1  0.21118503  0.87118282  0.72424695  1
  Nd  Nd10  1  0.28881497  0.37118282  0.72424695  1
  Nd  Nd11  1  0.78881497  0.12881718  0.27575305  1
