# generated using pymatgen
data_Sr2Mg(BO3)2
_symmetry_space_group_name_H-M   'P 1'
_cell_length_a   5.19387618
_cell_length_b   5.25210386
_cell_length_c   6.19854032
_cell_angle_alpha   114.70312902
_cell_angle_beta   90.00000000
_cell_angle_gamma   119.63393275
_symmetry_Int_Tables_number   1
_chemical_formula_structural   Sr2Mg(BO3)2
_chemical_formula_sum   'Sr2 Mg1 B2 O6'
_cell_volume   128.86927494
_cell_formula_units_Z   1
loop_
 _symmetry_equiv_pos_site_id
 _symmetry_equiv_pos_as_xyz
  1  'x, y, z'
loop_
 _atom_site_type_symbol
 _atom_site_label
 _atom_site_symmetry_multiplicity
 _atom_site_fract_x
 _atom_site_fract_y
 _atom_site_fract_z
 _atom_site_occupancy
  B  B0  1  0.93764814  0.87529627  0.73552015  1
  B  B1  1  0.06235186  0.12470373  0.26447985  1
  O  O2  1  0.76869783  0.53739566  0.66128666  1
  O  O3  1  0.20658907  0.95115066  0.23171946  1
  O  O4  1  0.25543841  0.04884934  0.76828054  1
  O  O5  1  0.79341093  0.04884934  0.76828054  1
  O  O6  1  0.74456159  0.95115066  0.23171946  1
  O  O7  1  0.23130217  0.46260434  0.33871334  1
  Mg  Mg8  1  0.50000000  0.00000000  0.50000000  1
  Sr  Sr9  1  0.70931893  0.41863785  0.18526263  1
  Sr  Sr10  1  0.29068107  0.58136215  0.81473737  1
