# generated using pymatgen
data_CeZnAu
_symmetry_space_group_name_H-M   'P 1'
_cell_length_a   4.65287632
_cell_length_b   6.98813703
_cell_length_c   8.04036510
_cell_angle_alpha   90.00000000
_cell_angle_beta   90.00000000
_cell_angle_gamma   90.00000000
_symmetry_Int_Tables_number   1
_chemical_formula_structural   CeZnAu
_chemical_formula_sum   'Ce4 Zn4 Au4'
_cell_volume   261.43196716
_cell_formula_units_Z   4
loop_
 _symmetry_equiv_pos_site_id
 _symmetry_equiv_pos_as_xyz
  1  'x, y, z'
loop_
 _atom_site_type_symbol
 _atom_site_label
 _atom_site_symmetry_multiplicity
 _atom_site_fract_x
 _atom_site_fract_y
 _atom_site_fract_z
 _atom_site_occupancy
  Zn  Zn0  1  0.25000000  0.20579423  0.08240414  1
  Zn  Zn1  1  0.25000000  0.70579423  0.41759586  1
  Zn  Zn2  1  0.75000000  0.79420577  0.91759586  1
  Zn  Zn3  1  0.75000000  0.29420577  0.58240414  1
  Ce  Ce4  1  0.75000000  0.49470923  0.22517874  1
  Ce  Ce5  1  0.25000000  0.00529077  0.72517874  1
  Ce  Ce6  1  0.75000000  0.99470923  0.27482126  1
  Ce  Ce7  1  0.25000000  0.50529077  0.77482126  1
  Au  Au8  1  0.25000000  0.77287530  0.08598652  1
  Au  Au9  1  0.25000000  0.27287530  0.41401348  1
  Au  Au10  1  0.75000000  0.72712470  0.58598652  1
  Au  Au11  1  0.75000000  0.22712470  0.91401348  1
