# generated using pymatgen
data_ZrGeTe4
_symmetry_space_group_name_H-M   'P 1'
_cell_length_a   4.02656381
_cell_length_b   8.79160026
_cell_length_c   11.14424658
_cell_angle_alpha   90.00000000
_cell_angle_beta   90.00000000
_cell_angle_gamma   103.23824121
_symmetry_Int_Tables_number   1
_chemical_formula_structural   ZrGeTe4
_chemical_formula_sum   'Zr2 Ge2 Te8'
_cell_volume   384.02217005
_cell_formula_units_Z   2
loop_
 _symmetry_equiv_pos_site_id
 _symmetry_equiv_pos_as_xyz
  1  'x, y, z'
loop_
 _atom_site_type_symbol
 _atom_site_label
 _atom_site_symmetry_multiplicity
 _atom_site_fract_x
 _atom_site_fract_y
 _atom_site_fract_z
 _atom_site_occupancy
  Ge  Ge0  1  0.77035975  0.54071950  0.53571333  1
  Ge  Ge1  1  0.22964025  0.45928050  0.03571333  1
  Zr  Zr2  1  0.65639507  0.31279013  0.72613988  1
  Zr  Zr3  1  0.34360493  0.68720987  0.22613988  1
  Te  Te4  1  0.97060806  0.94121612  0.25841094  1
  Te  Te5  1  0.02939194  0.05878388  0.75841094  1
  Te  Te6  1  0.89391114  0.78782228  0.04007927  1
  Te  Te7  1  0.10608886  0.21217772  0.54007927  1
  Te  Te8  1  0.72413051  0.44826103  0.30097995  1
  Te  Te9  1  0.27586949  0.55173897  0.80097995  1
  Te  Te10  1  0.37450866  0.74901731  0.49967663  1
  Te  Te11  1  0.62549134  0.25098269  0.99967663  1
