# generated using pymatgen
data_Sc5Si7Pt9
_symmetry_space_group_name_H-M   'P 1'
_cell_length_a   10.02957240
_cell_length_b   10.02957240
_cell_length_c   3.91550079
_cell_angle_alpha   90.00000000
_cell_angle_beta   90.00000000
_cell_angle_gamma   119.99999995
_symmetry_Int_Tables_number   1
_chemical_formula_structural   Sc5Si7Pt9
_chemical_formula_sum   'Sc5 Si7 Pt9'
_cell_volume   341.10083573
_cell_formula_units_Z   1
loop_
 _symmetry_equiv_pos_site_id
 _symmetry_equiv_pos_as_xyz
  1  'x, y, z'
loop_
 _atom_site_type_symbol
 _atom_site_label
 _atom_site_symmetry_multiplicity
 _atom_site_fract_x
 _atom_site_fract_y
 _atom_site_fract_z
 _atom_site_occupancy
  Si  Si0  1  0.57308060  0.85628729  0.50000000  1
  Si  Si1  1  0.14371271  0.71679331  0.50000000  1
  Si  Si2  1  0.28320669  0.42691940  0.50000000  1
  Si  Si3  1  0.88694288  0.31459497  0.00000000  1
  Si  Si4  1  0.68540503  0.57234790  0.00000000  1
  Si  Si5  1  0.42765210  0.11305712  0.00000000  1
  Si  Si6  1  0.00000000  0.00000000  0.00000000  1
  Sc  Sc7  1  0.33333333  0.66666667  0.00000000  1
  Sc  Sc8  1  0.66666667  0.33333333  0.50000000  1
  Sc  Sc9  1  0.22949884  0.12520234  0.50000000  1
  Sc  Sc10  1  0.89570350  0.77050116  0.50000000  1
  Sc  Sc11  1  0.87479766  0.10429650  0.50000000  1
  Pt  Pt12  1  0.55075770  0.60258637  0.50000000  1
  Pt  Pt13  1  0.39741363  0.94817133  0.50000000  1
  Pt  Pt14  1  0.05182867  0.44924230  0.50000000  1
  Pt  Pt15  1  0.64873377  0.08262575  0.00000000  1
  Pt  Pt16  1  0.91737425  0.56610802  0.00000000  1
  Pt  Pt17  1  0.43389198  0.35126623  0.00000000  1
  Pt  Pt18  1  0.71586998  0.83878258  0.00000000  1
  Pt  Pt19  1  0.16121742  0.87708740  0.00000000  1
  Pt  Pt20  1  0.12291260  0.28413002  0.00000000  1
