# generated using pymatgen
data_LiNb(BO3)2
_symmetry_space_group_name_H-M   'P 1'
_cell_length_a   5.04573810
_cell_length_b   9.10767423
_cell_length_c   11.23857783
_cell_angle_alpha   90.00000000
_cell_angle_beta   97.57886724
_cell_angle_gamma   90.00000000
_symmetry_Int_Tables_number   1
_chemical_formula_structural   LiNb(BO3)2
_chemical_formula_sum   'Li4 Nb4 B8 O24'
_cell_volume   511.95642246
_cell_formula_units_Z   4
loop_
 _symmetry_equiv_pos_site_id
 _symmetry_equiv_pos_as_xyz
  1  'x, y, z'
loop_
 _atom_site_type_symbol
 _atom_site_label
 _atom_site_symmetry_multiplicity
 _atom_site_fract_x
 _atom_site_fract_y
 _atom_site_fract_z
 _atom_site_occupancy
  Li  Li0  1  0.18573780  0.96173959  0.09302102  1
  Li  Li1  1  0.31426220  0.46173959  0.40697898  1
  Li  Li2  1  0.68573780  0.53826041  0.59302102  1
  Li  Li3  1  0.81426220  0.03826041  0.90697898  1
  Nb  Nb4  1  0.13342560  0.30389102  0.13089992  1
  Nb  Nb5  1  0.36657440  0.80389102  0.36910008  1
  Nb  Nb6  1  0.63342560  0.19610898  0.63089992  1
  Nb  Nb7  1  0.86657440  0.69610898  0.86910008  1
  B  B8  1  0.17576929  0.31672272  0.61812373  1
  B  B9  1  0.14340989  0.64745807  0.13134402  1
  B  B10  1  0.32423071  0.81672272  0.88187627  1
  B  B11  1  0.35659011  0.14745807  0.36865598  1
  B  B12  1  0.64340989  0.85254193  0.63134402  1
  B  B13  1  0.67576929  0.18327728  0.11812373  1
  B  B14  1  0.85659011  0.35254193  0.86865598  1
  B  B15  1  0.82423071  0.68327728  0.38187627  1
  O  O16  1  0.06923047  0.33740678  0.95841986  1
  O  O17  1  0.09012697  0.64427199  0.39103816  1
  O  O18  1  0.11608625  0.89825733  0.91295377  1
  O  O19  1  0.23877102  0.26891204  0.31233172  1
  O  O20  1  0.26472547  0.00722478  0.33731393  1
  O  O21  1  0.24353427  0.67306485  0.84365753  1
  O  O22  1  0.25646573  0.17306485  0.65634247  1
  O  O23  1  0.23527453  0.50722478  0.16268607  1
  O  O24  1  0.26122898  0.76891204  0.18766828  1
  O  O25  1  0.38391375  0.39825733  0.58704623  1
  O  O26  1  0.43076953  0.83740678  0.54158014  1
  O  O27  1  0.40987303  0.14427199  0.10896184  1
  O  O28  1  0.59012697  0.85572801  0.89103816  1
  O  O29  1  0.56923047  0.16259322  0.45841986  1
  O  O30  1  0.61608625  0.60174267  0.41295377  1
  O  O31  1  0.73877102  0.23108796  0.81233172  1
  O  O32  1  0.76472547  0.49277522  0.83731393  1
  O  O33  1  0.74353427  0.82693515  0.34365753  1
  O  O34  1  0.75646573  0.32693515  0.15634247  1
  O  O35  1  0.73527453  0.99277522  0.66268607  1
  O  O36  1  0.76122898  0.73108796  0.68766828  1
  O  O37  1  0.88391375  0.10174267  0.08704623  1
  O  O38  1  0.90987303  0.35572801  0.60896184  1
  O  O39  1  0.93076953  0.66259322  0.04158014  1
