# generated using pymatgen
data_Rb2UF6
_symmetry_space_group_name_H-M   'P 1'
_cell_length_a   7.15135733
_cell_length_b   7.15135732
_cell_length_c   7.60089081
_cell_angle_alpha   90.00000000
_cell_angle_beta   90.00000000
_cell_angle_gamma   120.77931247
_symmetry_Int_Tables_number   1
_chemical_formula_structural   Rb2UF6
_chemical_formula_sum   'Rb4 U2 F12'
_cell_volume   333.97024636
_cell_formula_units_Z   2
loop_
 _symmetry_equiv_pos_site_id
 _symmetry_equiv_pos_as_xyz
  1  'x, y, z'
loop_
 _atom_site_type_symbol
 _atom_site_label
 _atom_site_symmetry_multiplicity
 _atom_site_fract_x
 _atom_site_fract_y
 _atom_site_fract_z
 _atom_site_occupancy
  F  F0  1  0.09950392  0.90049608  0.04183446  1
  F  F1  1  0.90049608  0.09950392  0.54183446  1
  F  F2  1  0.90049608  0.09950392  0.95816554  1
  F  F3  1  0.09950392  0.90049608  0.45816554  1
  F  F4  1  0.00546894  0.60813279  0.75000000  1
  F  F5  1  0.99453106  0.39186721  0.25000000  1
  F  F6  1  0.28567270  0.30290230  0.75000000  1
  F  F7  1  0.71432730  0.69709770  0.25000000  1
  F  F8  1  0.30290230  0.28567270  0.25000000  1
  F  F9  1  0.69709770  0.71432730  0.75000000  1
  F  F10  1  0.39186721  0.99453106  0.75000000  1
  F  F11  1  0.60813279  0.00546894  0.25000000  1
  Rb  Rb12  1  0.34217973  0.65782027  0.50162276  1
  Rb  Rb13  1  0.65782027  0.34217973  0.00162276  1
  Rb  Rb14  1  0.65782027  0.34217973  0.49837724  1
  Rb  Rb15  1  0.34217973  0.65782027  0.99837724  1
  U  U16  1  0.94827148  0.05172852  0.25000000  1
  U  U17  1  0.05172852  0.94827148  0.75000000  1
