# generated using pymatgen
data_ScSi7Ir3
_symmetry_space_group_name_H-M   'P 1'
_cell_length_a   7.98625979
_cell_length_b   7.98625979
_cell_length_c   7.98625979
_cell_angle_alpha   56.52297306
_cell_angle_beta   56.52297312
_cell_angle_gamma   56.52297306
_symmetry_Int_Tables_number   1
_chemical_formula_structural   ScSi7Ir3
_chemical_formula_sum   'Sc2 Si14 Ir6'
_cell_volume   331.23347254
_cell_formula_units_Z   2
loop_
 _symmetry_equiv_pos_site_id
 _symmetry_equiv_pos_as_xyz
  1  'x, y, z'
loop_
 _atom_site_type_symbol
 _atom_site_label
 _atom_site_symmetry_multiplicity
 _atom_site_fract_x
 _atom_site_fract_y
 _atom_site_fract_z
 _atom_site_occupancy
  Si  Si0  1  0.75000000  0.75000000  0.75000000  1
  Si  Si1  1  0.25000000  0.25000000  0.25000000  1
  Si  Si2  1  0.06509447  0.85043778  0.67235607  1
  Si  Si3  1  0.85043778  0.67235607  0.06509447  1
  Si  Si4  1  0.67235607  0.06509447  0.85043778  1
  Si  Si5  1  0.82764393  0.64956222  0.43490553  1
  Si  Si6  1  0.64956222  0.43490553  0.82764393  1
  Si  Si7  1  0.43490553  0.82764393  0.64956222  1
  Si  Si8  1  0.56509447  0.17235607  0.35043778  1
  Si  Si9  1  0.35043778  0.56509447  0.17235607  1
  Si  Si10  1  0.17235607  0.35043778  0.56509447  1
  Si  Si11  1  0.32764393  0.93490553  0.14956222  1
  Si  Si12  1  0.14956222  0.32764393  0.93490553  1
  Si  Si13  1  0.93490553  0.14956222  0.32764393  1
  Sc  Sc14  1  0.00000000  0.00000000  0.00000000  1
  Sc  Sc15  1  0.50000000  0.50000000  0.50000000  1
  Ir  Ir16  1  0.42701043  0.07298957  0.75000000  1
  Ir  Ir17  1  0.92701043  0.25000000  0.57298957  1
  Ir  Ir18  1  0.25000000  0.57298957  0.92701043  1
  Ir  Ir19  1  0.57298957  0.92701043  0.25000000  1
  Ir  Ir20  1  0.75000000  0.42701043  0.07298957  1
  Ir  Ir21  1  0.07298957  0.75000000  0.42701043  1
