# generated using pymatgen
data_Cd3(AsO4)2
_symmetry_space_group_name_H-M   'P 1'
_cell_length_a   6.73094519
_cell_length_b   9.48452223
_cell_length_c   12.34130387
_cell_angle_alpha   90.00000000
_cell_angle_beta   90.00000000
_cell_angle_gamma   98.15473292
_symmetry_Int_Tables_number   1
_chemical_formula_structural   Cd3(AsO4)2
_chemical_formula_sum   'Cd12 As8 O32'
_cell_volume   779.89993527
_cell_formula_units_Z   4
loop_
 _symmetry_equiv_pos_site_id
 _symmetry_equiv_pos_as_xyz
  1  'x, y, z'
loop_
 _atom_site_type_symbol
 _atom_site_label
 _atom_site_symmetry_multiplicity
 _atom_site_fract_x
 _atom_site_fract_y
 _atom_site_fract_z
 _atom_site_occupancy
  O  O0  1  0.25251335  0.52858424  0.53961058  1
  O  O1  1  0.24748665  0.47141576  0.03961058  1
  O  O2  1  0.74748665  0.47141576  0.46038942  1
  O  O3  1  0.75251335  0.52858424  0.96038942  1
  O  O4  1  0.51734082  0.73498461  0.42097832  1
  O  O5  1  0.98265918  0.26501539  0.92097832  1
  O  O6  1  0.48265918  0.26501539  0.57902168  1
  O  O7  1  0.01734082  0.73498461  0.07902168  1
  O  O8  1  0.13476142  0.70742237  0.36958440  1
  O  O9  1  0.36523858  0.29257763  0.86958440  1
  O  O10  1  0.86523858  0.29257763  0.63041560  1
  O  O11  1  0.63476142  0.70742237  0.13041560  1
  O  O12  1  0.34057346  0.47532597  0.32022247  1
  O  O13  1  0.15942654  0.52467403  0.82022247  1
  O  O14  1  0.65942654  0.52467403  0.67977753  1
  O  O15  1  0.84057346  0.47532597  0.17977753  1
  O  O16  1  0.11039754  0.11759142  0.43576047  1
  O  O17  1  0.38960246  0.88240858  0.93576047  1
  O  O18  1  0.88960246  0.88240858  0.56423953  1
  O  O19  1  0.61039754  0.11759142  0.06423953  1
  O  O20  1  0.16754166  0.07874805  0.06615298  1
  O  O21  1  0.33245834  0.92125195  0.56615298  1
  O  O22  1  0.83245834  0.92125195  0.93384702  1
  O  O23  1  0.66754166  0.07874805  0.43384702  1
  O  O24  1  0.39744329  0.92530060  0.20525746  1
  O  O25  1  0.10255671  0.07469940  0.70525746  1
  O  O26  1  0.60255671  0.07469940  0.79474254  1
  O  O27  1  0.89744329  0.92530060  0.29474254  1
  O  O28  1  0.37438183  0.21663964  0.23080640  1
  O  O29  1  0.12561817  0.78336036  0.73080640  1
  O  O30  1  0.62561817  0.78336036  0.76919360  1
  O  O31  1  0.87438183  0.21663964  0.26919360  1
  As  As32  1  0.31145475  0.60542952  0.41366630  1
  As  As33  1  0.18854525  0.39457048  0.91366630  1
  As  As34  1  0.68854525  0.39457048  0.58633370  1
  As  As35  1  0.81145475  0.60542952  0.08633370  1
  As  As36  1  0.89026030  0.08305529  0.36319367  1
  As  As37  1  0.60973970  0.91694471  0.86319367  1
  As  As38  1  0.10973970  0.91694471  0.63680633  1
  As  As39  1  0.39026030  0.08305529  0.13680633  1
  Cd  Cd40  1  0.62762117  0.35817673  0.30727635  1
  Cd  Cd41  1  0.87237883  0.64182327  0.80727635  1
  Cd  Cd42  1  0.37237883  0.64182327  0.69272365  1
  Cd  Cd43  1  0.12762117  0.35817673  0.19272365  1
  Cd  Cd44  1  0.83323144  0.72079914  0.42470672  1
  Cd  Cd45  1  0.66676856  0.27920086  0.92470672  1
  Cd  Cd46  1  0.16676856  0.27920086  0.57529328  1
  Cd  Cd47  1  0.33323144  0.72079914  0.07529328  1
  Cd  Cd48  1  0.34595917  0.94419875  0.38372771  1
  Cd  Cd49  1  0.15404083  0.05580125  0.88372771  1
  Cd  Cd50  1  0.65404083  0.05580125  0.61627229  1
  Cd  Cd51  1  0.84595917  0.94419875  0.11627229  1
