# generated using pymatgen
data_ErGePt
_symmetry_space_group_name_H-M   'P 1'
_cell_length_a   4.36400425
_cell_length_b   6.97333478
_cell_length_c   7.61950856
_cell_angle_alpha   90.00000000
_cell_angle_beta   90.00000000
_cell_angle_gamma   90.00000000
_symmetry_Int_Tables_number   1
_chemical_formula_structural   ErGePt
_chemical_formula_sum   'Er4 Ge4 Pt4'
_cell_volume   231.87431380
_cell_formula_units_Z   4
loop_
 _symmetry_equiv_pos_site_id
 _symmetry_equiv_pos_as_xyz
  1  'x, y, z'
loop_
 _atom_site_type_symbol
 _atom_site_label
 _atom_site_symmetry_multiplicity
 _atom_site_fract_x
 _atom_site_fract_y
 _atom_site_fract_z
 _atom_site_occupancy
  Ge  Ge0  1  0.25000000  0.69091065  0.41042364  1
  Ge  Ge1  1  0.25000000  0.19091065  0.08957636  1
  Ge  Ge2  1  0.75000000  0.30908935  0.58957636  1
  Ge  Ge3  1  0.75000000  0.80908935  0.91042364  1
  Er  Er4  1  0.75000000  0.49741943  0.20398918  1
  Er  Er5  1  0.25000000  0.00258057  0.70398918  1
  Er  Er6  1  0.75000000  0.99741943  0.29601082  1
  Er  Er7  1  0.25000000  0.50258057  0.79601082  1
  Pt  Pt8  1  0.25000000  0.79442704  0.08377521  1
  Pt  Pt9  1  0.25000000  0.29442704  0.41622479  1
  Pt  Pt10  1  0.75000000  0.70557296  0.58377521  1
  Pt  Pt11  1  0.75000000  0.20557296  0.91622479  1
