# generated using pymatgen
data_ScSi7Rh3
_symmetry_space_group_name_H-M   'P 1'
_cell_length_a   7.92077217
_cell_length_b   7.92077217
_cell_length_c   7.92077218
_cell_angle_alpha   57.07655156
_cell_angle_beta   57.07655151
_cell_angle_gamma   57.07655156
_symmetry_Int_Tables_number   1
_chemical_formula_structural   ScSi7Rh3
_chemical_formula_sum   'Sc2 Si14 Rh6'
_cell_volume   327.71111915
_cell_formula_units_Z   2
loop_
 _symmetry_equiv_pos_site_id
 _symmetry_equiv_pos_as_xyz
  1  'x, y, z'
loop_
 _atom_site_type_symbol
 _atom_site_label
 _atom_site_symmetry_multiplicity
 _atom_site_fract_x
 _atom_site_fract_y
 _atom_site_fract_z
 _atom_site_occupancy
  Si  Si0  1  0.75000000  0.75000000  0.75000000  1
  Si  Si1  1  0.25000000  0.25000000  0.25000000  1
  Si  Si2  1  0.06639439  0.85152528  0.67232935  1
  Si  Si3  1  0.85152528  0.67232935  0.06639439  1
  Si  Si4  1  0.67232935  0.06639439  0.85152528  1
  Si  Si5  1  0.82767065  0.64847472  0.43360561  1
  Si  Si6  1  0.64847472  0.43360561  0.82767065  1
  Si  Si7  1  0.43360561  0.82767065  0.64847472  1
  Si  Si8  1  0.56639439  0.17232935  0.35152528  1
  Si  Si9  1  0.35152528  0.56639439  0.17232935  1
  Si  Si10  1  0.17232935  0.35152528  0.56639439  1
  Si  Si11  1  0.32767065  0.93360561  0.14847472  1
  Si  Si12  1  0.14847472  0.32767065  0.93360561  1
  Si  Si13  1  0.93360561  0.14847472  0.32767065  1
  Sc  Sc14  1  0.00000000  0.00000000  0.00000000  1
  Sc  Sc15  1  0.50000000  0.50000000  0.50000000  1
  Rh  Rh16  1  0.42796871  0.07203129  0.75000000  1
  Rh  Rh17  1  0.92796871  0.25000000  0.57203129  1
  Rh  Rh18  1  0.25000000  0.57203129  0.92796871  1
  Rh  Rh19  1  0.57203129  0.92796871  0.25000000  1
  Rh  Rh20  1  0.75000000  0.42796871  0.07203129  1
  Rh  Rh21  1  0.07203129  0.75000000  0.42796871  1
