# generated using pymatgen
data_Y3ReO8
_symmetry_space_group_name_H-M   'P 1'
_cell_length_a   6.05847621
_cell_length_b   7.29283590
_cell_length_c   13.69169313
_cell_angle_alpha   98.21109813
_cell_angle_beta   90.00000000
_cell_angle_gamma   90.00000000
_symmetry_Int_Tables_number   1
_chemical_formula_structural   Y3ReO8
_chemical_formula_sum   'Y12 Re4 O32'
_cell_volume   598.74499325
_cell_formula_units_Z   4
loop_
 _symmetry_equiv_pos_site_id
 _symmetry_equiv_pos_as_xyz
  1  'x, y, z'
loop_
 _atom_site_type_symbol
 _atom_site_label
 _atom_site_symmetry_multiplicity
 _atom_site_fract_x
 _atom_site_fract_y
 _atom_site_fract_z
 _atom_site_occupancy
  O  O0  1  0.80412179  0.54401825  0.51914078  1
  O  O1  1  0.30412179  0.95598175  0.98085922  1
  O  O2  1  0.19587821  0.45598175  0.48085922  1
  O  O3  1  0.69587821  0.04401825  0.01914078  1
  O  O4  1  0.04477274  0.84829721  0.59690129  1
  O  O5  1  0.54477274  0.65170279  0.90309871  1
  O  O6  1  0.95522726  0.15170279  0.40309871  1
  O  O7  1  0.45522726  0.34829721  0.09690129  1
  O  O8  1  0.64431202  0.00240074  0.67012958  1
  O  O9  1  0.14431202  0.49759926  0.82987042  1
  O  O10  1  0.35568798  0.99759926  0.32987042  1
  O  O11  1  0.85568798  0.50240074  0.17012958  1
  O  O12  1  0.44567324  0.70739519  0.58779127  1
  O  O13  1  0.94567324  0.79260481  0.91220873  1
  O  O14  1  0.55432676  0.29260481  0.41220873  1
  O  O15  1  0.05432676  0.20739519  0.08779127  1
  O  O16  1  0.53000148  0.64012726  0.32699218  1
  O  O17  1  0.03000148  0.85987274  0.17300782  1
  O  O18  1  0.46999852  0.35987274  0.67300782  1
  O  O19  1  0.96999852  0.14012726  0.82699218  1
  O  O20  1  0.53017027  0.80618435  0.15773185  1
  O  O21  1  0.03017027  0.69381565  0.34226815  1
  O  O22  1  0.46982973  0.19381565  0.84226815  1
  O  O23  1  0.96982973  0.30618435  0.65773185  1
  O  O24  1  0.80485165  0.39601222  0.98009339  1
  O  O25  1  0.30485165  0.10398778  0.51990661  1
  O  O26  1  0.19514835  0.60398778  0.01990661  1
  O  O27  1  0.69514835  0.89601222  0.48009339  1
  O  O28  1  0.70645425  0.18037195  0.21372899  1
  O  O29  1  0.20645425  0.31962805  0.28627101  1
  O  O30  1  0.29354575  0.81962805  0.78627101  1
  O  O31  1  0.79354575  0.68037195  0.71372899  1
  Y  Y32  1  0.69846735  0.21549254  0.55510494  1
  Y  Y33  1  0.19846735  0.28450746  0.94489506  1
  Y  Y34  1  0.30153265  0.78450746  0.44489506  1
  Y  Y35  1  0.80153265  0.71549254  0.05510494  1
  Y  Y36  1  0.74047010  0.39198310  0.79795049  1
  Y  Y37  1  0.24047010  0.10801690  0.70204951  1
  Y  Y38  1  0.25952990  0.60801690  0.20204951  1
  Y  Y39  1  0.75952990  0.89198310  0.29795049  1
  Y  Y40  1  0.18923065  0.55953873  0.66736301  1
  Y  Y41  1  0.68923065  0.94046127  0.83263699  1
  Y  Y42  1  0.81076935  0.44046127  0.33263699  1
  Y  Y43  1  0.31076935  0.05953873  0.16736301  1
  Re  Re44  1  0.74529647  0.76890727  0.59016286  1
  Re  Re45  1  0.24529647  0.73109273  0.90983714  1
  Re  Re46  1  0.25470353  0.23109273  0.40983714  1
  Re  Re47  1  0.75470353  0.26890727  0.09016286  1
