# generated using pymatgen
data_Ti6Ge5
_symmetry_space_group_name_H-M   'P 1'
_cell_length_a   5.23098381
_cell_length_b   7.97429743
_cell_length_c   9.74279298
_cell_angle_alpha   114.15841124
_cell_angle_beta   105.57229247
_cell_angle_gamma   90.00000001
_symmetry_Int_Tables_number   1
_chemical_formula_structural   Ti6Ge5
_chemical_formula_sum   'Ti12 Ge10'
_cell_volume   354.39793657
_cell_formula_units_Z   2
loop_
 _symmetry_equiv_pos_site_id
 _symmetry_equiv_pos_as_xyz
  1  'x, y, z'
loop_
 _atom_site_type_symbol
 _atom_site_label
 _atom_site_symmetry_multiplicity
 _atom_site_fract_x
 _atom_site_fract_y
 _atom_site_fract_z
 _atom_site_occupancy
  Ti  Ti0  1  0.14206047  0.25497347  0.28412094  1
  Ti  Ti1  1  0.85793953  0.74502653  0.71587906  1
  Ti  Ti2  1  0.35793877  0.97086884  0.71587755  1
  Ti  Ti3  1  0.64206123  0.02913116  0.28412245  1
  Ti  Ti4  1  0.43691249  0.67881683  0.87382498  1
  Ti  Ti5  1  0.56308751  0.32118317  0.12617502  1
  Ti  Ti6  1  0.06308773  0.80499280  0.12617546  1
  Ti  Ti7  1  0.93691227  0.19500720  0.87382454  1
  Ti  Ti8  1  0.05852999  0.30853248  0.61705401  1
  Ti  Ti9  1  0.44147597  0.69146752  0.38294599  1
  Ti  Ti10  1  0.94147001  0.69146752  0.38294599  1
  Ti  Ti11  1  0.55852403  0.30853248  0.61705401  1
  Ge  Ge12  1  0.28902514  0.58830343  0.57805028  1
  Ge  Ge13  1  0.71097486  0.41169657  0.42194972  1
  Ge  Ge14  1  0.21098027  0.01022660  0.42196054  1
  Ge  Ge15  1  0.78901973  0.98977340  0.57803946  1
  Ge  Ge16  1  0.06790646  0.46990776  0.13581293  1
  Ge  Ge17  1  0.93209354  0.53009224  0.86418707  1
  Ge  Ge18  1  0.43209760  0.33411097  0.86419520  1
  Ge  Ge19  1  0.56790240  0.66588903  0.13580480  1
  Ge  Ge20  1  0.74999823  0.00000000  0.00000000  1
  Ge  Ge21  1  0.25000177  0.00000000  0.00000000  1
