# generated using pymatgen
data_LiNiPO4
_symmetry_space_group_name_H-M   'P 1'
_cell_length_a   8.00161780
_cell_length_b   5.13183986
_cell_length_c   8.47532373
_cell_angle_alpha   90.00000000
_cell_angle_beta   96.57114230
_cell_angle_gamma   90.00000000
_symmetry_Int_Tables_number   1
_chemical_formula_structural   LiNiPO4
_chemical_formula_sum   'Li4 Ni4 P4 O16'
_cell_volume   345.73607447
_cell_formula_units_Z   4
loop_
 _symmetry_equiv_pos_site_id
 _symmetry_equiv_pos_as_xyz
  1  'x, y, z'
loop_
 _atom_site_type_symbol
 _atom_site_label
 _atom_site_symmetry_multiplicity
 _atom_site_fract_x
 _atom_site_fract_y
 _atom_site_fract_z
 _atom_site_occupancy
  Li  Li0  1  0.02204624  0.54960836  0.90636297  1
  Li  Li1  1  0.54665979  0.47397569  0.69025497  1
  Li  Li2  1  0.45334021  0.97397569  0.30974503  1
  Li  Li3  1  0.97795376  0.04960836  0.09363803  1
  Ni  Ni4  1  0.18033802  0.97784234  0.58629451  1
  Ni  Ni5  1  0.36064328  0.50283249  0.06966105  1
  Ni  Ni6  1  0.63935672  0.00283249  0.93033895  1
  Ni  Ni7  1  0.81966198  0.47784234  0.41370549  1
  P  P8  1  0.23062106  0.48071596  0.40330830  1
  P  P9  1  0.27546000  0.05079004  0.94745227  1
  P  P10  1  0.72454000  0.55079004  0.05254773  1
  P  P11  1  0.76937894  0.98071596  0.59669170  1
  O  O12  1  0.04109007  0.50543627  0.34043225  1
  O  O13  1  0.27056039  0.61962084  0.56650709  1
  O  O14  1  0.20566234  0.77834604  0.97327169  1
  O  O15  1  0.15236809  0.25718895  0.00494397  1
  O  O16  1  0.28121043  0.18475327  0.41950746  1
  O  O17  1  0.31669379  0.09903198  0.77880181  1
  O  O18  1  0.33987423  0.61352879  0.28646638  1
  O  O19  1  0.44373993  0.09841400  0.06469495  1
  O  O20  1  0.55626007  0.59841400  0.93530505  1
  O  O21  1  0.66012577  0.11352879  0.71353362  1
  O  O22  1  0.68330621  0.59903198  0.22119819  1
  O  O23  1  0.71878957  0.68475327  0.58049254  1
  O  O24  1  0.84763191  0.75718895  0.99505603  1
  O  O25  1  0.79433766  0.27834604  0.02672831  1
  O  O26  1  0.72943961  0.11962084  0.43349291  1
  O  O27  1  0.95890993  0.00543627  0.65956775  1
