# generated using pymatgen
data_Na2Au
_symmetry_space_group_name_H-M   'P 1'
_cell_length_a   5.61251953
_cell_length_b   5.96228174
_cell_length_c   5.96228174
_cell_angle_alpha   77.20114077
_cell_angle_beta   61.92228395
_cell_angle_gamma   61.92228398
_symmetry_Int_Tables_number   1
_chemical_formula_structural   Na2Au
_chemical_formula_sum   'Na4 Au2'
_cell_volume   155.31923602
_cell_formula_units_Z   2
loop_
 _symmetry_equiv_pos_site_id
 _symmetry_equiv_pos_as_xyz
  1  'x, y, z'
loop_
 _atom_site_type_symbol
 _atom_site_label
 _atom_site_symmetry_multiplicity
 _atom_site_fract_x
 _atom_site_fract_y
 _atom_site_fract_z
 _atom_site_occupancy
  Na  Na0  1  0.82974033  0.50000000  0.84051934  1
  Na  Na1  1  0.67025967  0.15948066  0.50000000  1
  Na  Na2  1  0.17025967  0.50000000  0.15948066  1
  Na  Na3  1  0.32974033  0.84051934  0.50000000  1
  Au  Au4  1  0.75000000  0.00000000  0.00000000  1
  Au  Au5  1  0.25000000  0.00000000  0.00000000  1
