# generated using pymatgen
data_Cs2LiAl3F12
_symmetry_space_group_name_H-M   'P 1'
_cell_length_a   7.21481413
_cell_length_b   7.21481413
_cell_length_c   7.21481414
_cell_angle_alpha   58.87185641
_cell_angle_beta   58.87185638
_cell_angle_gamma   58.87185640
_symmetry_Int_Tables_number   1
_chemical_formula_structural   Cs2LiAl3F12
_chemical_formula_sum   'Cs2 Li1 Al3 F12'
_cell_volume   258.71980645
_cell_formula_units_Z   1
loop_
 _symmetry_equiv_pos_site_id
 _symmetry_equiv_pos_as_xyz
  1  'x, y, z'
loop_
 _atom_site_type_symbol
 _atom_site_label
 _atom_site_symmetry_multiplicity
 _atom_site_fract_x
 _atom_site_fract_y
 _atom_site_fract_z
 _atom_site_occupancy
  Li  Li0  1  0.00000000  0.00000000  0.00000000  1
  F  F1  1  0.30652031  0.93018101  0.30652031  1
  F  F2  1  0.07165656  0.07165656  0.65054265  1
  F  F3  1  0.65054265  0.07165656  0.07165656  1
  F  F4  1  0.34945735  0.92834344  0.92834344  1
  F  F5  1  0.92834344  0.92834344  0.34945735  1
  F  F6  1  0.07165656  0.65054265  0.07165656  1
  F  F7  1  0.30652031  0.30652031  0.93018101  1
  F  F8  1  0.93018101  0.30652031  0.30652031  1
  F  F9  1  0.06981899  0.69347969  0.69347969  1
  F  F10  1  0.69347969  0.06981899  0.69347969  1
  F  F11  1  0.69347969  0.69347969  0.06981899  1
  F  F12  1  0.92834344  0.34945735  0.92834344  1
  Al  Al13  1  0.00000000  0.50000000  0.00000000  1
  Al  Al14  1  0.50000000  0.00000000  0.00000000  1
  Al  Al15  1  0.00000000  0.00000000  0.50000000  1
  Cs  Cs16  1  0.62732960  0.62732960  0.62732960  1
  Cs  Cs17  1  0.37267040  0.37267040  0.37267040  1
