# generated using pymatgen
data_TlPO4
_symmetry_space_group_name_H-M   'P 1'
_cell_length_a   4.96573705
_cell_length_b   4.96573705
_cell_length_c   7.25969767
_cell_angle_alpha   90.00000000
_cell_angle_beta   90.00000000
_cell_angle_gamma   112.76390645
_symmetry_Int_Tables_number   1
_chemical_formula_structural   TlPO4
_chemical_formula_sum   'Tl2 P2 O8'
_cell_volume   165.06968847
_cell_formula_units_Z   2
loop_
 _symmetry_equiv_pos_site_id
 _symmetry_equiv_pos_as_xyz
  1  'x, y, z'
loop_
 _atom_site_type_symbol
 _atom_site_label
 _atom_site_symmetry_multiplicity
 _atom_site_fract_x
 _atom_site_fract_y
 _atom_site_fract_z
 _atom_site_occupancy
  O  O0  1  0.25498847  0.74501153  0.56836878  1
  O  O1  1  0.74501153  0.25498847  0.06836878  1
  O  O2  1  0.74501153  0.25498847  0.43163122  1
  O  O3  1  0.25498847  0.74501153  0.93163122  1
  O  O4  1  0.69488841  0.77030040  0.75000000  1
  O  O5  1  0.30511159  0.22969960  0.25000000  1
  O  O6  1  0.77030040  0.69488841  0.25000000  1
  O  O7  1  0.22969960  0.30511159  0.75000000  1
  P  P8  1  0.64951852  0.35048148  0.25000000  1
  P  P9  1  0.35048148  0.64951852  0.75000000  1
  Tl  Tl10  1  0.00000000  0.00000000  0.50000000  1
  Tl  Tl11  1  0.00000000  0.00000000  0.00000000  1
