# generated using pymatgen
data_LiNiPO4
_symmetry_space_group_name_H-M   'P 1'
_cell_length_a   8.53777244
_cell_length_b   7.41899714
_cell_length_c   15.17542927
_cell_angle_alpha   90.00000000
_cell_angle_beta   91.61009451
_cell_angle_gamma   90.00000000
_symmetry_Int_Tables_number   1
_chemical_formula_structural   LiNiPO4
_chemical_formula_sum   'Li12 Ni12 P12 O48'
_cell_volume   960.85811409
_cell_formula_units_Z   12
loop_
 _symmetry_equiv_pos_site_id
 _symmetry_equiv_pos_as_xyz
  1  'x, y, z'
loop_
 _atom_site_type_symbol
 _atom_site_label
 _atom_site_symmetry_multiplicity
 _atom_site_fract_x
 _atom_site_fract_y
 _atom_site_fract_z
 _atom_site_occupancy
  Li  Li0  1  0.22839270  0.97879576  0.93286149  1
  Li  Li1  1  0.22775021  0.02818550  0.58562460  1
  Li  Li2  1  0.24443950  0.06330289  0.24314059  1
  Li  Li3  1  0.25556050  0.56330289  0.25685941  1
  Li  Li4  1  0.27224979  0.52818550  0.91437540  1
  Li  Li5  1  0.27160730  0.47879576  0.56713851  1
  Li  Li6  1  0.72839270  0.52120424  0.43286149  1
  Li  Li7  1  0.72775021  0.47181450  0.08562460  1
  Li  Li8  1  0.74443950  0.43669711  0.74314059  1
  Li  Li9  1  0.75556050  0.93669711  0.75685941  1
  Li  Li10  1  0.77224979  0.97181450  0.41437540  1
  Li  Li11  1  0.77160730  0.02120424  0.06713851  1
  Ni  Ni12  1  0.05206254  0.68894442  0.40524934  1
  Ni  Ni13  1  0.08976592  0.81412646  0.76206295  1
  Ni  Ni14  1  0.08087009  0.68022123  0.07910010  1
  Ni  Ni15  1  0.41912991  0.18022123  0.42089990  1
  Ni  Ni16  1  0.41023408  0.31412646  0.73793705  1
  Ni  Ni17  1  0.44793746  0.18894442  0.09475066  1
  Ni  Ni18  1  0.55206254  0.81105558  0.90524934  1
  Ni  Ni19  1  0.58976592  0.68587354  0.26206295  1
  Ni  Ni20  1  0.58087009  0.81977877  0.57910010  1
  Ni  Ni21  1  0.91912991  0.31977877  0.92089990  1
  Ni  Ni22  1  0.91023408  0.18587354  0.23793705  1
  Ni  Ni23  1  0.94793746  0.31105558  0.59475066  1
  P  P24  1  0.06307578  0.26490533  0.40590695  1
  P  P25  1  0.07541912  0.22708547  0.76709719  1
  P  P26  1  0.10752750  0.26038865  0.07781152  1
  P  P27  1  0.39247250  0.76038865  0.42218848  1
  P  P28  1  0.42458088  0.72708547  0.73290281  1
  P  P29  1  0.43692422  0.76490533  0.09409305  1
  P  P30  1  0.56307578  0.23509467  0.90590695  1
  P  P31  1  0.57541912  0.27291453  0.26709719  1
  P  P32  1  0.60752750  0.23961135  0.57781152  1
  P  P33  1  0.89247250  0.73961135  0.92218848  1
  P  P34  1  0.92458088  0.77291453  0.23290281  1
  P  P35  1  0.93692422  0.73509467  0.59409305  1
  O  O36  1  0.96948859  0.44271502  0.38990462  1
  O  O37  1  0.03979328  0.88661984  0.63786612  1
  O  O38  1  0.09012266  0.38393816  0.83492470  1
  O  O39  1  0.09002504  0.22695678  0.50591399  1
  O  O40  1  0.05961504  0.78722003  0.95994406  1
  O  O41  1  0.08700198  0.76070918  0.28200793  1
  O  O42  1  0.10325061  0.26099078  0.18026824  1
  O  O43  1  0.08961356  0.05083159  0.82218158  1
  O  O44  1  0.15943541  0.44632303  0.04070232  1
  O  O45  1  0.20171995  0.23200196  0.69456411  1
  O  O46  1  0.23318870  0.12541694  0.04592038  1
  O  O47  1  0.22465950  0.26987589  0.36131376  1
  O  O48  1  0.27534050  0.76987589  0.13868624  1
  O  O49  1  0.26681130  0.62541694  0.45407962  1
  O  O50  1  0.29828005  0.73200196  0.80543589  1
  O  O51  1  0.34056459  0.94632303  0.45929768  1
  O  O52  1  0.41038644  0.55083159  0.67781842  1
  O  O53  1  0.39674939  0.76099078  0.31973176  1
  O  O54  1  0.41299802  0.26070918  0.21799207  1
  O  O55  1  0.44038496  0.28722003  0.54005594  1
  O  O56  1  0.40997496  0.72695678  0.99408601  1
  O  O57  1  0.40987734  0.88393816  0.66507530  1
  O  O58  1  0.46020672  0.38661984  0.86213388  1
  O  O59  1  0.53051141  0.94271502  0.11009538  1
  O  O60  1  0.46948859  0.05728498  0.88990462  1
  O  O61  1  0.53979328  0.61338016  0.13786612  1
  O  O62  1  0.59012266  0.11606184  0.33492470  1
  O  O63  1  0.59002504  0.27304322  0.00591399  1
  O  O64  1  0.55961504  0.71277997  0.45994406  1
  O  O65  1  0.58700198  0.73929082  0.78200793  1
  O  O66  1  0.60325061  0.23900922  0.68026824  1
  O  O67  1  0.58961356  0.44916841  0.32218158  1
  O  O68  1  0.65943541  0.05367697  0.54070232  1
  O  O69  1  0.70171995  0.26799804  0.19456411  1
  O  O70  1  0.73318870  0.37458306  0.54592038  1
  O  O71  1  0.72465950  0.23012411  0.86131376  1
  O  O72  1  0.77534050  0.73012411  0.63868624  1
  O  O73  1  0.79828005  0.76799804  0.30543589  1
  O  O74  1  0.76681130  0.87458306  0.95407962  1
  O  O75  1  0.84056459  0.55367697  0.95929768  1
  O  O76  1  0.91038644  0.94916841  0.17781842  1
  O  O77  1  0.89674939  0.73900922  0.81973176  1
  O  O78  1  0.91299802  0.23929082  0.71799207  1
  O  O79  1  0.94038496  0.21277997  0.04005594  1
  O  O80  1  0.90997496  0.77304322  0.49408601  1
  O  O81  1  0.90987734  0.61606184  0.16507530  1
  O  O82  1  0.96020672  0.11338016  0.36213388  1
  O  O83  1  0.03051141  0.55728498  0.61009538  1
