# generated using pymatgen
data_Cd3As2
_symmetry_space_group_name_H-M   'P 1'
_cell_length_a   9.16922992
_cell_length_b   9.16922992
_cell_length_c   12.90797991
_cell_angle_alpha   90.00000000
_cell_angle_beta   90.00000000
_cell_angle_gamma   90.00000000
_symmetry_Int_Tables_number   1
_chemical_formula_structural   Cd3As2
_chemical_formula_sum   'Cd24 As16'
_cell_volume   1085.23553666
_cell_formula_units_Z   8
loop_
 _symmetry_equiv_pos_site_id
 _symmetry_equiv_pos_as_xyz
  1  'x, y, z'
loop_
 _atom_site_type_symbol
 _atom_site_label
 _atom_site_symmetry_multiplicity
 _atom_site_fract_x
 _atom_site_fract_y
 _atom_site_fract_z
 _atom_site_occupancy
  As  As0  1  0.00590850  0.50590850  0.25000000  1
  As  As1  1  0.99409150  0.00590850  0.75000000  1
  As  As2  1  0.50590850  0.49409150  0.75000000  1
  As  As3  1  0.49409150  0.99409150  0.25000000  1
  As  As4  1  0.99409150  0.49409150  0.75000000  1
  As  As5  1  0.00590850  0.99409150  0.25000000  1
  As  As6  1  0.49409150  0.50590850  0.25000000  1
  As  As7  1  0.50590850  0.00590850  0.75000000  1
  As  As8  1  0.75000000  0.75000000  0.50809226  1
  As  As9  1  0.75000000  0.75000000  0.00809226  1
  As  As10  1  0.25000000  0.25000000  0.49190774  1
  As  As11  1  0.25000000  0.25000000  0.99190774  1
  As  As12  1  0.25000000  0.75000000  0.50488457  1
  As  As13  1  0.75000000  0.25000000  0.00488457  1
  As  As14  1  0.75000000  0.25000000  0.49511543  1
  As  As15  1  0.25000000  0.75000000  0.99511543  1
  Cd  Cd16  1  0.25000000  0.99453583  0.39679395  1
  Cd  Cd17  1  0.50546417  0.25000000  0.89679395  1
  Cd  Cd18  1  0.99453583  0.25000000  0.89679395  1
  Cd  Cd19  1  0.75000000  0.00546417  0.60320605  1
  Cd  Cd20  1  0.75000000  0.49453583  0.60320605  1
  Cd  Cd21  1  0.25000000  0.50546417  0.39679395  1
  Cd  Cd22  1  0.49453583  0.75000000  0.10320605  1
  Cd  Cd23  1  0.00546417  0.75000000  0.10320605  1
  Cd  Cd24  1  0.96490726  0.75000000  0.36747452  1
  Cd  Cd25  1  0.53509274  0.75000000  0.36747452  1
  Cd  Cd26  1  0.25000000  0.46490726  0.13252548  1
  Cd  Cd27  1  0.75000000  0.53509274  0.86747452  1
  Cd  Cd28  1  0.75000000  0.96490726  0.86747452  1
  Cd  Cd29  1  0.03509274  0.25000000  0.63252548  1
  Cd  Cd30  1  0.46490726  0.25000000  0.63252548  1
  Cd  Cd31  1  0.25000000  0.03509274  0.13252548  1
  Cd  Cd32  1  0.03238568  0.75000000  0.64506091  1
  Cd  Cd33  1  0.46761432  0.75000000  0.64506091  1
  Cd  Cd34  1  0.25000000  0.53238568  0.85493909  1
  Cd  Cd35  1  0.75000000  0.46761432  0.14506091  1
  Cd  Cd36  1  0.75000000  0.03238568  0.14506091  1
  Cd  Cd37  1  0.96761432  0.25000000  0.35493909  1
  Cd  Cd38  1  0.53238568  0.25000000  0.35493909  1
  Cd  Cd39  1  0.25000000  0.96761432  0.85493909  1
