# generated using pymatgen
data_Ge2Mo
_symmetry_space_group_name_H-M   'P 1'
_cell_length_a   3.48578144
_cell_length_b   6.40446672
_cell_length_c   8.64668043
_cell_angle_alpha   90.00000000
_cell_angle_beta   90.00000000
_cell_angle_gamma   90.00000000
_symmetry_Int_Tables_number   1
_chemical_formula_structural   Ge2Mo
_chemical_formula_sum   'Ge8 Mo4'
_cell_volume   193.03343313
_cell_formula_units_Z   4
loop_
 _symmetry_equiv_pos_site_id
 _symmetry_equiv_pos_as_xyz
  1  'x, y, z'
loop_
 _atom_site_type_symbol
 _atom_site_label
 _atom_site_symmetry_multiplicity
 _atom_site_fract_x
 _atom_site_fract_y
 _atom_site_fract_z
 _atom_site_occupancy
  Ge  Ge0  1  0.25000000  0.43908234  0.86719396  1
  Ge  Ge1  1  0.75000000  0.56091766  0.13280604  1
  Ge  Ge2  1  0.25000000  0.93908234  0.63280604  1
  Ge  Ge3  1  0.75000000  0.06091766  0.36719396  1
  Ge  Ge4  1  0.75000000  0.13599954  0.95914759  1
  Ge  Ge5  1  0.25000000  0.86400046  0.04085241  1
  Ge  Ge6  1  0.75000000  0.63599954  0.54085241  1
  Ge  Ge7  1  0.25000000  0.36400046  0.45914759  1
  Mo  Mo8  1  0.25000000  0.74947704  0.32883276  1
  Mo  Mo9  1  0.75000000  0.25052296  0.67116724  1
  Mo  Mo10  1  0.25000000  0.24947704  0.17116724  1
  Mo  Mo11  1  0.75000000  0.75052296  0.82883276  1
