# generated using pymatgen
data_Al4CO4
_symmetry_space_group_name_H-M   'P 1'
_cell_length_a   5.19331286
_cell_length_b   5.19331285
_cell_length_c   9.17117158
_cell_angle_alpha   90.00000000
_cell_angle_beta   90.00000000
_cell_angle_gamma   112.29311224
_symmetry_Int_Tables_number   1
_chemical_formula_structural   Al4CO4
_chemical_formula_sum   'Al8 C2 O8'
_cell_volume   228.86289414
_cell_formula_units_Z   2
loop_
 _symmetry_equiv_pos_site_id
 _symmetry_equiv_pos_as_xyz
  1  'x, y, z'
loop_
 _atom_site_type_symbol
 _atom_site_label
 _atom_site_symmetry_multiplicity
 _atom_site_fract_x
 _atom_site_fract_y
 _atom_site_fract_z
 _atom_site_occupancy
  C  C0  1  0.80467278  0.19532722  0.11524369  1
  C  C1  1  0.19532722  0.80467278  0.61524369  1
  O  O2  1  0.82089297  0.69072120  0.32356457  1
  O  O3  1  0.17910703  0.30927880  0.82356457  1
  O  O4  1  0.30927880  0.17910703  0.32356457  1
  O  O5  1  0.69072120  0.82089297  0.82356457  1
  O  O6  1  0.44227014  0.55772986  0.08930448  1
  O  O7  1  0.55772986  0.44227014  0.58930448  1
  O  O8  1  0.19615018  0.80384982  0.94488162  1
  O  O9  1  0.80384982  0.19615018  0.44488162  1
  Al  Al10  1  0.89268848  0.56582431  0.49964448  1
  Al  Al11  1  0.10731152  0.43417569  0.99964448  1
  Al  Al12  1  0.43417569  0.10731152  0.49964448  1
  Al  Al13  1  0.56582431  0.89268848  0.99964448  1
  Al  Al14  1  0.60191501  0.39808499  0.20970535  1
  Al  Al15  1  0.39808499  0.60191501  0.70970535  1
  Al  Al16  1  0.93748601  0.06251399  0.28964677  1
  Al  Al17  1  0.06251399  0.93748601  0.78964677  1
