# generated using pymatgen
data_K3GaO3
_symmetry_space_group_name_H-M   'P 1'
_cell_length_a   6.59231476
_cell_length_b   6.68843320
_cell_length_c   6.68843320
_cell_angle_alpha   115.12571105
_cell_angle_beta   96.29216128
_cell_angle_gamma   96.29216122
_symmetry_Int_Tables_number   1
_chemical_formula_structural   K3GaO3
_chemical_formula_sum   'K6 Ga2 O6'
_cell_volume   261.37009664
_cell_formula_units_Z   2
loop_
 _symmetry_equiv_pos_site_id
 _symmetry_equiv_pos_as_xyz
  1  'x, y, z'
loop_
 _atom_site_type_symbol
 _atom_site_label
 _atom_site_symmetry_multiplicity
 _atom_site_fract_x
 _atom_site_fract_y
 _atom_site_fract_z
 _atom_site_occupancy
  O  O0  1  0.73419841  0.84389976  0.57219956  1
  O  O1  1  0.15451104  0.89957370  0.89957370  1
  O  O2  1  0.84548896  0.10042630  0.10042630  1
  O  O3  1  0.26580159  0.15610024  0.42780044  1
  O  O4  1  0.26580159  0.42780044  0.15610024  1
  O  O5  1  0.73419841  0.57219956  0.84389976  1
  K  K6  1  0.35059630  0.62670944  0.62670944  1
  K  K7  1  0.00000000  0.74206302  0.25793698  1
  K  K8  1  0.50000000  0.80459185  0.19540815  1
  K  K9  1  0.00000000  0.25793698  0.74206302  1
  K  K10  1  0.64940370  0.37329056  0.37329056  1
  K  K11  1  0.50000000  0.19540815  0.80459185  1
  Ga  Ga12  1  0.85183716  0.82986278  0.82986278  1
  Ga  Ga13  1  0.14816284  0.17013722  0.17013722  1
