# generated using pymatgen
data_Li2MnCO4
_symmetry_space_group_name_H-M   'P 1'
_cell_length_a   6.85482868
_cell_length_b   5.11995954
_cell_length_c   11.04103513
_cell_angle_alpha   90.00000000
_cell_angle_beta   95.59935297
_cell_angle_gamma   90.00000000
_symmetry_Int_Tables_number   1
_chemical_formula_structural   Li2MnCO4
_chemical_formula_sum   'Li8 Mn4 C4 O16'
_cell_volume   385.65212671
_cell_formula_units_Z   4
loop_
 _symmetry_equiv_pos_site_id
 _symmetry_equiv_pos_as_xyz
  1  'x, y, z'
loop_
 _atom_site_type_symbol
 _atom_site_label
 _atom_site_symmetry_multiplicity
 _atom_site_fract_x
 _atom_site_fract_y
 _atom_site_fract_z
 _atom_site_occupancy
  Li  Li0  1  0.11785270  0.34667889  0.78592764  1
  Li  Li1  1  0.11785270  0.15332111  0.28592764  1
  Li  Li2  1  0.21929945  0.18507977  0.57079850  1
  Li  Li3  1  0.21929945  0.31492023  0.07079850  1
  Li  Li4  1  0.78070055  0.68507977  0.92920150  1
  Li  Li5  1  0.78070055  0.81492023  0.42920150  1
  Li  Li6  1  0.88214730  0.84667889  0.71407236  1
  Li  Li7  1  0.88214730  0.65332111  0.21407236  1
  Mn  Mn8  1  0.51531827  0.14624558  0.84359997  1
  Mn  Mn9  1  0.48468173  0.64624558  0.65640003  1
  Mn  Mn10  1  0.51531827  0.35375442  0.34359997  1
  Mn  Mn11  1  0.48468173  0.85375442  0.15640003  1
  C  C12  1  0.18656327  0.81315125  0.93584172  1
  C  C13  1  0.18656327  0.68684875  0.43584172  1
  C  C14  1  0.81343673  0.31315125  0.56415828  1
  C  C15  1  0.81343673  0.18684875  0.06415828  1
  O  O16  1  0.05996233  0.70115913  0.85669728  1
  O  O17  1  0.05996233  0.79884087  0.35669728  1
  O  O18  1  0.22374014  0.06367279  0.92747200  1
  O  O19  1  0.22374014  0.43632721  0.42747200  1
  O  O20  1  0.27625210  0.82377632  0.52320656  1
  O  O21  1  0.35526066  0.32657442  0.71032510  1
  O  O22  1  0.27625210  0.67622368  0.02320656  1
  O  O23  1  0.35526066  0.17342558  0.21032510  1
  O  O24  1  0.64473934  0.82657442  0.78967490  1
  O  O25  1  0.72374790  0.32377632  0.97679344  1
  O  O26  1  0.64473934  0.67342558  0.28967490  1
  O  O27  1  0.72374790  0.17622368  0.47679344  1
  O  O28  1  0.77625986  0.56367279  0.57252800  1
  O  O29  1  0.77625986  0.93632721  0.07252800  1
  O  O30  1  0.94003767  0.20115913  0.64330272  1
  O  O31  1  0.94003767  0.29884087  0.14330272  1
