# generated using pymatgen
data_Gd2Si2O7
_symmetry_space_group_name_H-M   'P 1'
_cell_length_a   5.12741550
_cell_length_b   8.34110684
_cell_length_c   14.00389992
_cell_angle_alpha   90.00000000
_cell_angle_beta   90.00000000
_cell_angle_gamma   90.00000000
_symmetry_Int_Tables_number   1
_chemical_formula_structural   Gd2Si2O7
_chemical_formula_sum   'Gd8 Si8 O28'
_cell_volume   598.92328001
_cell_formula_units_Z   4
loop_
 _symmetry_equiv_pos_site_id
 _symmetry_equiv_pos_as_xyz
  1  'x, y, z'
loop_
 _atom_site_type_symbol
 _atom_site_label
 _atom_site_symmetry_multiplicity
 _atom_site_fract_x
 _atom_site_fract_y
 _atom_site_fract_z
 _atom_site_occupancy
  O  O0  1  0.85182619  0.75164602  0.90167263  1
  O  O1  1  0.14817381  0.25164602  0.09832737  1
  O  O2  1  0.64817381  0.75164602  0.40167263  1
  O  O3  1  0.35182619  0.25164602  0.59832737  1
  O  O4  1  0.29186963  0.91757218  0.95341093  1
  O  O5  1  0.70813037  0.41757218  0.04658907  1
  O  O6  1  0.20813037  0.91757218  0.45341093  1
  O  O7  1  0.79186963  0.41757218  0.54658907  1
  O  O8  1  0.29176669  0.58563179  0.95338485  1
  O  O9  1  0.70823331  0.08563179  0.04661515  1
  O  O10  1  0.20823331  0.58563179  0.45338485  1
  O  O11  1  0.79176669  0.08563179  0.54661515  1
  O  O12  1  0.06188223  0.75164206  0.08017591  1
  O  O13  1  0.93811777  0.25164206  0.91982409  1
  O  O14  1  0.43811777  0.75164206  0.58017591  1
  O  O15  1  0.56188223  0.25164206  0.41982409  1
  O  O16  1  0.48549069  0.08927951  0.26825260  1
  O  O17  1  0.51450931  0.58927951  0.73174740  1
  O  O18  1  0.01450931  0.08927951  0.76825260  1
  O  O19  1  0.98549069  0.58927951  0.23174740  1
  O  O20  1  0.48552168  0.41392148  0.26822483  1
  O  O21  1  0.51447832  0.91392148  0.73177517  1
  O  O22  1  0.01447832  0.41392148  0.76822483  1
  O  O23  1  0.98552168  0.91392148  0.23177517  1
  O  O24  1  0.06986142  0.25162729  0.34550557  1
  O  O25  1  0.93013858  0.75162729  0.65449443  1
  O  O26  1  0.43013858  0.25162729  0.84550557  1
  O  O27  1  0.56986142  0.75162729  0.15449443  1
  Si  Si28  1  0.12494502  0.75161934  0.96132374  1
  Si  Si29  1  0.87505498  0.25161934  0.03867626  1
  Si  Si30  1  0.37505498  0.75161934  0.46132374  1
  Si  Si31  1  0.62494502  0.25161934  0.53867626  1
  Si  Si32  1  0.87874007  0.75162027  0.18001048  1
  Si  Si33  1  0.12125993  0.25162027  0.81998952  1
  Si  Si34  1  0.62125993  0.75162027  0.68001048  1
  Si  Si35  1  0.37874007  0.25162027  0.31998952  1
  Gd  Gd36  1  0.84185775  0.00956625  0.37425484  1
  Gd  Gd37  1  0.15814225  0.50956625  0.62574516  1
  Gd  Gd38  1  0.65814225  0.00956625  0.87425484  1
  Gd  Gd39  1  0.34185775  0.50956625  0.12574516  1
  Gd  Gd40  1  0.84185636  0.49367381  0.37424479  1
  Gd  Gd41  1  0.15814364  0.99367381  0.62575521  1
  Gd  Gd42  1  0.65814364  0.49367381  0.87424479  1
  Gd  Gd43  1  0.34185636  0.99367381  0.12575521  1
