# generated using pymatgen
data_CsCd(PO3)3
_symmetry_space_group_name_H-M   'P 1'
_cell_length_a   7.63968507
_cell_length_b   9.73414734
_cell_length_c   12.86743216
_cell_angle_alpha   90.00000000
_cell_angle_beta   90.00000000
_cell_angle_gamma   90.00000000
_symmetry_Int_Tables_number   1
_chemical_formula_structural   CsCd(PO3)3
_chemical_formula_sum   'Cs4 Cd4 P12 O36'
_cell_volume   956.89714519
_cell_formula_units_Z   4
loop_
 _symmetry_equiv_pos_site_id
 _symmetry_equiv_pos_as_xyz
  1  'x, y, z'
loop_
 _atom_site_type_symbol
 _atom_site_label
 _atom_site_symmetry_multiplicity
 _atom_site_fract_x
 _atom_site_fract_y
 _atom_site_fract_z
 _atom_site_occupancy
  O  O0  1  0.25000000  0.35384685  0.57011504  1
  O  O1  1  0.75000000  0.64615315  0.42988496  1
  O  O2  1  0.25000000  0.85384685  0.92988496  1
  O  O3  1  0.75000000  0.14615315  0.07011504  1
  O  O4  1  0.25000000  0.09421539  0.62088798  1
  O  O5  1  0.75000000  0.90578461  0.37911202  1
  O  O6  1  0.25000000  0.59421539  0.87911202  1
  O  O7  1  0.75000000  0.40578461  0.12088798  1
  O  O8  1  0.01060581  0.85861555  0.72500472  1
  O  O9  1  0.51060581  0.14138445  0.27499528  1
  O  O10  1  0.48939419  0.35861555  0.77499528  1
  O  O11  1  0.98939419  0.64138445  0.22500472  1
  O  O12  1  0.98939419  0.14138445  0.27499528  1
  O  O13  1  0.48939419  0.85861555  0.72500472  1
  O  O14  1  0.51060581  0.64138445  0.22500472  1
  O  O15  1  0.01060581  0.35861555  0.77499528  1
  O  O16  1  0.04897150  0.62240320  0.63344717  1
  O  O17  1  0.54897150  0.37759680  0.36655283  1
  O  O18  1  0.45102850  0.12240320  0.86655283  1
  O  O19  1  0.95102850  0.87759680  0.13344717  1
  O  O20  1  0.75000000  0.70634951  0.68399943  1
  O  O21  1  0.25000000  0.29365049  0.31600057  1
  O  O22  1  0.75000000  0.20634951  0.81600057  1
  O  O23  1  0.25000000  0.79365049  0.18399943  1
  O  O24  1  0.91426998  0.32514002  0.96230809  1
  O  O25  1  0.41426998  0.67485998  0.03769191  1
  O  O26  1  0.58573002  0.82514002  0.53769191  1
  O  O27  1  0.08573002  0.17485998  0.46230809  1
  O  O28  1  0.08573002  0.67485998  0.03769191  1
  O  O29  1  0.58573002  0.32514002  0.96230809  1
  O  O30  1  0.41426998  0.17485998  0.46230809  1
  O  O31  1  0.91426998  0.82514002  0.53769191  1
  O  O32  1  0.04897150  0.12240320  0.86655283  1
  O  O33  1  0.54897150  0.87759680  0.13344717  1
  O  O34  1  0.45102850  0.62240320  0.63344717  1
  O  O35  1  0.95102850  0.37759680  0.36655283  1
  P  P36  1  0.25000000  0.20407082  0.54095050  1
  P  P37  1  0.75000000  0.79592918  0.45904950  1
  P  P38  1  0.25000000  0.70407082  0.95904950  1
  P  P39  1  0.75000000  0.29592918  0.04095050  1
  P  P40  1  0.94712906  0.75261071  0.64971565  1
  P  P41  1  0.44712906  0.24738929  0.35028435  1
  P  P42  1  0.55287094  0.25261071  0.85028435  1
  P  P43  1  0.05287094  0.74738929  0.14971565  1
  P  P44  1  0.05287094  0.24738929  0.35028435  1
  P  P45  1  0.55287094  0.75261071  0.64971565  1
  P  P46  1  0.44712906  0.74738929  0.14971565  1
  P  P47  1  0.94712906  0.25261071  0.85028435  1
  Cd  Cd48  1  0.75000000  0.51429002  0.27678609  1
  Cd  Cd49  1  0.25000000  0.48570998  0.72321391  1
  Cd  Cd50  1  0.75000000  0.01429002  0.22321391  1
  Cd  Cd51  1  0.25000000  0.98570998  0.77678609  1
  Cs  Cs52  1  0.75000000  0.88593339  0.91709097  1
  Cs  Cs53  1  0.25000000  0.11406661  0.08290903  1
  Cs  Cs54  1  0.75000000  0.38593339  0.58290903  1
  Cs  Cs55  1  0.25000000  0.61406661  0.41709097  1
