# generated using pymatgen
data_Tl2Pt2O7
_symmetry_space_group_name_H-M   'P 1'
_cell_length_a   7.30844626
_cell_length_b   7.30844626
_cell_length_c   7.30844625
_cell_angle_alpha   59.99999999
_cell_angle_beta   59.99999999
_cell_angle_gamma   59.99999997
_symmetry_Int_Tables_number   1
_chemical_formula_structural   Tl2Pt2O7
_chemical_formula_sum   'Tl4 Pt4 O14'
_cell_volume   276.03247201
_cell_formula_units_Z   2
loop_
 _symmetry_equiv_pos_site_id
 _symmetry_equiv_pos_as_xyz
  1  'x, y, z'
loop_
 _atom_site_type_symbol
 _atom_site_label
 _atom_site_symmetry_multiplicity
 _atom_site_fract_x
 _atom_site_fract_y
 _atom_site_fract_z
 _atom_site_occupancy
  O  O0  1  0.16555978  0.58444022  0.58444022  1
  O  O1  1  0.41555978  0.83444022  0.83444022  1
  O  O2  1  0.58444022  0.16555978  0.58444022  1
  O  O3  1  0.58444022  0.58444022  0.16555978  1
  O  O4  1  0.16555978  0.16555978  0.58444022  1
  O  O5  1  0.16555978  0.58444022  0.16555978  1
  O  O6  1  0.41555978  0.83444022  0.41555978  1
  O  O7  1  0.83444022  0.41555978  0.83444022  1
  O  O8  1  0.87500000  0.87500000  0.87500000  1
  O  O9  1  0.12500000  0.12500000  0.12500000  1
  O  O10  1  0.58444022  0.16555978  0.16555978  1
  O  O11  1  0.83444022  0.83444022  0.41555978  1
  O  O12  1  0.41555978  0.41555978  0.83444022  1
  O  O13  1  0.83444022  0.41555978  0.41555978  1
  Pt  Pt14  1  0.50000000  0.00000000  0.50000000  1
  Pt  Pt15  1  0.00000000  0.50000000  0.50000000  1
  Pt  Pt16  1  0.50000000  0.50000000  0.00000000  1
  Pt  Pt17  1  0.50000000  0.50000000  0.50000000  1
  Tl  Tl18  1  0.00000000  0.50000000  0.00000000  1
  Tl  Tl19  1  0.50000000  0.00000000  0.00000000  1
  Tl  Tl20  1  0.00000000  0.00000000  0.50000000  1
  Tl  Tl21  1  0.00000000  0.00000000  0.00000000  1
