# generated using pymatgen
data_Rb3GaO3
_symmetry_space_group_name_H-M   'P 1'
_cell_length_a   6.92692879
_cell_length_b   6.94894709
_cell_length_c   6.94894709
_cell_angle_alpha   114.91519460
_cell_angle_beta   97.20181043
_cell_angle_gamma   97.20181044
_symmetry_Int_Tables_number   1
_chemical_formula_structural   Rb3GaO3
_chemical_formula_sum   'Rb6 Ga2 O6'
_cell_volume   295.00351449
_cell_formula_units_Z   2
loop_
 _symmetry_equiv_pos_site_id
 _symmetry_equiv_pos_as_xyz
  1  'x, y, z'
loop_
 _atom_site_type_symbol
 _atom_site_label
 _atom_site_symmetry_multiplicity
 _atom_site_fract_x
 _atom_site_fract_y
 _atom_site_fract_z
 _atom_site_occupancy
  O  O0  1  0.14215944  0.90086321  0.90086321  1
  O  O1  1  0.85784056  0.09913679  0.09913679  1
  O  O2  1  0.73439948  0.84805841  0.58564526  1
  O  O3  1  0.26560052  0.41435474  0.15194159  1
  O  O4  1  0.26560052  0.15194159  0.41435474  1
  O  O5  1  0.73439948  0.58564526  0.84805841  1
  Ga  Ga6  1  0.85096781  0.83593735  0.83593735  1
  Ga  Ga7  1  0.14903219  0.16406265  0.16406265  1
  Rb  Rb8  1  0.65489718  0.37213482  0.37213482  1
  Rb  Rb9  1  0.34510282  0.62786518  0.62786518  1
  Rb  Rb10  1  0.50000000  0.19657262  0.80342738  1
  Rb  Rb11  1  0.50000000  0.80342738  0.19657262  1
  Rb  Rb12  1  0.00000000  0.25993344  0.74006656  1
  Rb  Rb13  1  0.00000000  0.74006656  0.25993344  1
