# generated using pymatgen
data_Li3Pr2(BO3)3
_symmetry_space_group_name_H-M   'P 1'
_cell_length_a   5.88563598
_cell_length_b   8.96591587
_cell_length_c   14.27751593
_cell_angle_alpha   90.00000000
_cell_angle_beta   90.00000000
_cell_angle_gamma   103.90873396
_symmetry_Int_Tables_number   1
_chemical_formula_structural   Li3Pr2(BO3)3
_chemical_formula_sum   'Li12 Pr8 B12 O36'
_cell_volume   731.33561894
_cell_formula_units_Z   4
loop_
 _symmetry_equiv_pos_site_id
 _symmetry_equiv_pos_as_xyz
  1  'x, y, z'
loop_
 _atom_site_type_symbol
 _atom_site_label
 _atom_site_symmetry_multiplicity
 _atom_site_fract_x
 _atom_site_fract_y
 _atom_site_fract_z
 _atom_site_occupancy
  Li  Li0  1  0.84344271  0.79193139  0.11175430  1
  Li  Li1  1  0.65655729  0.70806861  0.61175430  1
  Li  Li2  1  0.15655729  0.20806861  0.88824570  1
  Li  Li3  1  0.34344271  0.29193139  0.38824570  1
  Li  Li4  1  0.57155604  0.99659651  0.16529018  1
  Li  Li5  1  0.92844396  0.50340349  0.66529018  1
  Li  Li6  1  0.42844396  0.00340349  0.83470982  1
  Li  Li7  1  0.07155604  0.49659651  0.33470982  1
  Li  Li8  1  0.20945515  0.78922741  0.21490816  1
  Li  Li9  1  0.29054485  0.71077259  0.71490816  1
  Li  Li10  1  0.79054485  0.21077259  0.78509184  1
  Li  Li11  1  0.70945515  0.28922741  0.28509184  1
  B  B12  1  0.25005714  0.98618569  0.01501156  1
  B  B13  1  0.24994286  0.51381431  0.51501156  1
  B  B14  1  0.74994286  0.01381431  0.98498844  1
  B  B15  1  0.75005714  0.48618569  0.48498844  1
  B  B16  1  0.90322241  0.01686183  0.32284077  1
  B  B17  1  0.59677759  0.48313817  0.82284077  1
  B  B18  1  0.09677759  0.98313817  0.67715923  1
  B  B19  1  0.40322241  0.51686183  0.17715923  1
  B  B20  1  0.41308101  0.02830935  0.33645003  1
  B  B21  1  0.08691899  0.47169065  0.83645003  1
  B  B22  1  0.58691899  0.97169065  0.66354997  1
  B  B23  1  0.91308101  0.52830935  0.16354997  1
  O  O24  1  0.22887825  0.91921470  0.10274306  1
  O  O25  1  0.27112175  0.58078530  0.60274306  1
  O  O26  1  0.77112175  0.08078530  0.89725694  1
  O  O27  1  0.72887825  0.41921470  0.39725694  1
  O  O28  1  0.80262739  0.64519376  0.49315083  1
  O  O29  1  0.69737261  0.85480624  0.99315083  1
  O  O30  1  0.19737261  0.35480624  0.50684917  1
  O  O31  1  0.30262739  0.14519376  0.00684917  1
  O  O32  1  0.28285003  0.60583695  0.43539932  1
  O  O33  1  0.21714997  0.89416305  0.93539932  1
  O  O34  1  0.71714997  0.39416305  0.56460068  1
  O  O35  1  0.78285003  0.10583695  0.06460068  1
  O  O36  1  0.96368915  0.17626006  0.33031835  1
  O  O37  1  0.53631085  0.32373994  0.83031835  1
  O  O38  1  0.03631085  0.82373994  0.66968165  1
  O  O39  1  0.46368915  0.67626006  0.16968165  1
  O  O40  1  0.85031525  0.94451775  0.23752363  1
  O  O41  1  0.64968475  0.55548225  0.73752363  1
  O  O42  1  0.14968475  0.05548225  0.76247637  1
  O  O43  1  0.35031525  0.44451775  0.26247637  1
  O  O44  1  0.88813803  0.93058927  0.40481545  1
  O  O45  1  0.61186197  0.56941073  0.90481545  1
  O  O46  1  0.11186197  0.06941073  0.59518455  1
  O  O47  1  0.38813803  0.43058927  0.09518455  1
  O  O48  1  0.43923548  0.12101786  0.25784070  1
  O  O49  1  0.06076452  0.37898214  0.75784070  1
  O  O50  1  0.56076452  0.87898214  0.74215930  1
  O  O51  1  0.93923548  0.62101786  0.24215930  1
  O  O52  1  0.43033488  0.09324854  0.42532147  1
  O  O53  1  0.06966512  0.40675146  0.92532147  1
  O  O54  1  0.56966512  0.90675146  0.57467853  1
  O  O55  1  0.93033488  0.59324854  0.07467853  1
  O  O56  1  0.36444292  0.86920861  0.33122885  1
  O  O57  1  0.13555708  0.63079139  0.83122885  1
  O  O58  1  0.63555708  0.13079139  0.66877115  1
  O  O59  1  0.86444292  0.36920861  0.16877115  1
  Pr  Pr60  1  0.18784085  0.84106805  0.49707386  1
  Pr  Pr61  1  0.31215915  0.65893195  0.99707386  1
  Pr  Pr62  1  0.81215915  0.15893195  0.50292614  1
  Pr  Pr63  1  0.68784085  0.34106805  0.00292614  1
  Pr  Pr64  1  0.63365630  0.69201086  0.33602574  1
  Pr  Pr65  1  0.86634370  0.80798914  0.83602574  1
  Pr  Pr66  1  0.36634370  0.30798914  0.66397426  1
  Pr  Pr67  1  0.13365630  0.19201086  0.16397426  1
