# generated using pymatgen
data_H2CBrCl
_symmetry_space_group_name_H-M   'P 1'
_cell_length_a   4.68129463
_cell_length_b   8.78568887
_cell_length_c   10.57854698
_cell_angle_alpha   90.00000000
_cell_angle_beta   90.00000000
_cell_angle_gamma   90.00000000
_symmetry_Int_Tables_number   1
_chemical_formula_structural   H2CBrCl
_chemical_formula_sum   'H8 C4 Br4 Cl4'
_cell_volume   435.07869181
_cell_formula_units_Z   4
loop_
 _symmetry_equiv_pos_site_id
 _symmetry_equiv_pos_as_xyz
  1  'x, y, z'
loop_
 _atom_site_type_symbol
 _atom_site_label
 _atom_site_symmetry_multiplicity
 _atom_site_fract_x
 _atom_site_fract_y
 _atom_site_fract_z
 _atom_site_occupancy
  H  H0  1  0.83492053  0.95996191  0.79443606  1
  H  H1  1  0.66507947  0.54003809  0.29443606  1
  H  H2  1  0.33492053  0.54003809  0.20556394  1
  H  H3  1  0.16507947  0.95996191  0.70556394  1
  H  H4  1  0.16629131  0.04368726  0.20560053  1
  H  H5  1  0.33370869  0.45631274  0.70560053  1
  H  H6  1  0.66629131  0.45631274  0.79439947  1
  H  H7  1  0.83370869  0.04368726  0.29439947  1
  C  C8  1  0.00000000  0.02965171  0.75000000  1
  C  C9  1  0.50000000  0.47034829  0.25000000  1
  C  C10  1  0.00000000  0.97474862  0.25000000  1
  C  C11  1  0.50000000  0.52525138  0.75000000  1
  Br  Br12  1  0.81960954  0.85307238  0.11878561  1
  Br  Br13  1  0.68039046  0.64692762  0.61878561  1
  Br  Br14  1  0.31960954  0.64692762  0.88121439  1
  Br  Br15  1  0.18039046  0.85307238  0.38121439  1
  Cl  Cl16  1  0.16450792  0.14188268  0.86917259  1
  Cl  Cl17  1  0.33549208  0.35811732  0.36917259  1
  Cl  Cl18  1  0.66450792  0.35811732  0.13082741  1
  Cl  Cl19  1  0.83549208  0.14188268  0.63082741  1
