# generated using pymatgen
data_HfB4Ir3
_symmetry_space_group_name_H-M   'P 1'
_cell_length_a   3.52577185
_cell_length_b   7.62127400
_cell_length_c   7.62121123
_cell_angle_alpha   119.99996020
_cell_angle_beta   90.00000000
_cell_angle_gamma   90.00000000
_symmetry_Int_Tables_number   1
_chemical_formula_structural   HfB4Ir3
_chemical_formula_sum   'Hf2 B8 Ir6'
_cell_volume   177.35220252
_cell_formula_units_Z   2
loop_
 _symmetry_equiv_pos_site_id
 _symmetry_equiv_pos_as_xyz
  1  'x, y, z'
loop_
 _atom_site_type_symbol
 _atom_site_label
 _atom_site_symmetry_multiplicity
 _atom_site_fract_x
 _atom_site_fract_y
 _atom_site_fract_z
 _atom_site_occupancy
  Hf  Hf0  1  0.25000000  0.66664963  0.33332762  1
  Hf  Hf1  1  0.75000000  0.33335037  0.66667238  1
  B  B2  1  0.75000000  0.94925910  0.55131610  1
  B  B3  1  0.75000000  0.44868928  0.39790962  1
  B  B4  1  0.75000000  0.60206359  0.05076868  1
  B  B5  1  0.25000000  0.05074090  0.44868390  1
  B  B6  1  0.25000000  0.55131072  0.60209038  1
  B  B7  1  0.25000000  0.39793641  0.94923132  1
  B  B8  1  0.50000000  0.00000000  0.00000000  1
  B  B9  1  0.00000000  0.00000000  0.00000000  1
  Ir  Ir10  1  0.75000000  0.74347089  0.66801542  1
  Ir  Ir11  1  0.75000000  0.33198566  0.07547595  1
  Ir  Ir12  1  0.75000000  0.92453041  0.25653574  1
  Ir  Ir13  1  0.25000000  0.25652911  0.33198458  1
  Ir  Ir14  1  0.25000000  0.66801434  0.92452405  1
  Ir  Ir15  1  0.25000000  0.07546959  0.74346426  1
