# generated using pymatgen
data_P2Pt5
_symmetry_space_group_name_H-M   'P 1'
_cell_length_a   5.44924756
_cell_length_b   6.12145539
_cell_length_c   7.52653603
_cell_angle_alpha   98.48059609
_cell_angle_beta   90.00000000
_cell_angle_gamma   116.42936047
_symmetry_Int_Tables_number   1
_chemical_formula_structural   P2Pt5
_chemical_formula_sum   'P4 Pt10'
_cell_volume   221.75496113
_cell_formula_units_Z   2
loop_
 _symmetry_equiv_pos_site_id
 _symmetry_equiv_pos_as_xyz
  1  'x, y, z'
loop_
 _atom_site_type_symbol
 _atom_site_label
 _atom_site_symmetry_multiplicity
 _atom_site_fract_x
 _atom_site_fract_y
 _atom_site_fract_z
 _atom_site_occupancy
  P  P0  1  0.43541930  0.68212973  0.22443602  1
  P  P1  1  0.75328958  0.31787027  0.27556398  1
  P  P2  1  0.56458070  0.31787027  0.77556398  1
  P  P3  1  0.24671042  0.68212973  0.72443602  1
  Pt  Pt4  1  0.84482953  0.23744192  0.96740894  1
  Pt  Pt5  1  0.60738761  0.76255808  0.53259106  1
  Pt  Pt6  1  0.91855905  0.28897597  0.59482236  1
  Pt  Pt7  1  0.62958308  0.71102403  0.90517764  1
  Pt  Pt8  1  0.08144095  0.71102403  0.40517764  1
  Pt  Pt9  1  0.37041692  0.28897597  0.09482236  1
  Pt  Pt10  1  0.39261239  0.23744192  0.46740894  1
  Pt  Pt11  1  0.15517047  0.76255808  0.03259106  1
  Pt  Pt12  1  0.11154085  0.00000000  0.75000000  1
  Pt  Pt13  1  0.88845915  0.00000000  0.25000000  1
