# generated using pymatgen
data_Ho3ScO6
_symmetry_space_group_name_H-M   'P 1'
_cell_length_a   6.57563661
_cell_length_b   6.57563660
_cell_length_c   6.57563660
_cell_angle_alpha   91.99951512
_cell_angle_beta   91.99951509
_cell_angle_gamma   91.99951519
_symmetry_Int_Tables_number   1
_chemical_formula_structural   Ho3ScO6
_chemical_formula_sum   'Ho6 Sc2 O12'
_cell_volume   283.79215792
_cell_formula_units_Z   2
loop_
 _symmetry_equiv_pos_site_id
 _symmetry_equiv_pos_as_xyz
  1  'x, y, z'
loop_
 _atom_site_type_symbol
 _atom_site_label
 _atom_site_symmetry_multiplicity
 _atom_site_fract_x
 _atom_site_fract_y
 _atom_site_fract_z
 _atom_site_occupancy
  O  O0  1  0.40642948  0.53658804  0.19276919  1
  O  O1  1  0.53658804  0.19276919  0.40642948  1
  O  O2  1  0.19276919  0.40642948  0.53658804  1
  O  O3  1  0.59357052  0.46341196  0.80723081  1
  O  O4  1  0.46341196  0.80723081  0.59357052  1
  O  O5  1  0.80723081  0.59357052  0.46341196  1
  O  O6  1  0.93045182  0.08632661  0.69282075  1
  O  O7  1  0.08632661  0.69282075  0.93045182  1
  O  O8  1  0.30717925  0.06954818  0.91367339  1
  O  O9  1  0.91367339  0.30717925  0.06954818  1
  O  O10  1  0.06954818  0.91367339  0.30717925  1
  O  O11  1  0.69282075  0.93045182  0.08632661  1
  Sc  Sc12  1  0.50000000  0.50000000  0.50000000  1
  Sc  Sc13  1  0.00000000  0.00000000  0.00000000  1
  Ho  Ho14  1  0.25286905  0.06829166  0.56064840  1
  Ho  Ho15  1  0.06829166  0.56064840  0.25286905  1
  Ho  Ho16  1  0.56064840  0.25286905  0.06829166  1
  Ho  Ho17  1  0.74713095  0.93170834  0.43935160  1
  Ho  Ho18  1  0.93170834  0.43935160  0.74713095  1
  Ho  Ho19  1  0.43935160  0.74713095  0.93170834  1
