# generated using pymatgen
data_LiFeCO4
_symmetry_space_group_name_H-M   'P 1'
_cell_length_a   6.61236910
_cell_length_b   5.44823185
_cell_length_c   10.53650770
_cell_angle_alpha   90.00000000
_cell_angle_beta   98.08986258
_cell_angle_gamma   90.00000000
_symmetry_Int_Tables_number   1
_chemical_formula_structural   LiFeCO4
_chemical_formula_sum   'Li4 Fe4 C4 O16'
_cell_volume   375.80785990
_cell_formula_units_Z   4
loop_
 _symmetry_equiv_pos_site_id
 _symmetry_equiv_pos_as_xyz
  1  'x, y, z'
loop_
 _atom_site_type_symbol
 _atom_site_label
 _atom_site_symmetry_multiplicity
 _atom_site_fract_x
 _atom_site_fract_y
 _atom_site_fract_z
 _atom_site_occupancy
  Li  Li0  1  0.11639984  0.34962864  0.79322322  1
  Li  Li1  1  0.11639984  0.15037136  0.29322322  1
  Li  Li2  1  0.88360016  0.84962864  0.70677678  1
  Li  Li3  1  0.88360016  0.65037136  0.20677678  1
  Fe  Fe4  1  0.51341456  0.13969103  0.84580812  1
  Fe  Fe5  1  0.48658544  0.63969103  0.65419188  1
  Fe  Fe6  1  0.51341456  0.36030897  0.34580812  1
  Fe  Fe7  1  0.48658544  0.86030897  0.15419188  1
  C  C8  1  0.20320319  0.80998158  0.92542800  1
  C  C9  1  0.20320319  0.69001842  0.42542800  1
  C  C10  1  0.79679681  0.30998158  0.57457200  1
  C  C11  1  0.79679681  0.19001842  0.07457200  1
  O  O12  1  0.08021776  0.70292416  0.84060971  1
  O  O13  1  0.08021776  0.79707584  0.34060971  1
  O  O14  1  0.25768529  0.04310345  0.91089007  1
  O  O15  1  0.25768529  0.45689655  0.41089007  1
  O  O16  1  0.28214868  0.80215000  0.52983108  1
  O  O17  1  0.38611437  0.37454049  0.73425893  1
  O  O18  1  0.28214868  0.69785000  0.02983108  1
  O  O19  1  0.38611437  0.12545951  0.23425893  1
  O  O20  1  0.61388563  0.87454049  0.76574107  1
  O  O21  1  0.71785132  0.30215000  0.97016892  1
  O  O22  1  0.61388563  0.62545951  0.26574107  1
  O  O23  1  0.71785132  0.19785000  0.47016892  1
  O  O24  1  0.74231471  0.54310345  0.58910993  1
  O  O25  1  0.74231471  0.95689655  0.08910993  1
  O  O26  1  0.91978224  0.20292416  0.65939029  1
  O  O27  1  0.91978224  0.29707584  0.15939029  1
