# generated using pymatgen
data_K3UF7
_symmetry_space_group_name_H-M   'P 1'
_cell_length_a   9.38504987
_cell_length_b   9.38504986
_cell_length_c   11.36985582
_cell_angle_alpha   114.37558371
_cell_angle_beta   114.37558373
_cell_angle_gamma   89.99999999
_symmetry_Int_Tables_number   1
_chemical_formula_structural   K3UF7
_chemical_formula_sum   'K12 U4 F28'
_cell_volume   813.16692941
_cell_formula_units_Z   4
loop_
 _symmetry_equiv_pos_site_id
 _symmetry_equiv_pos_as_xyz
  1  'x, y, z'
loop_
 _atom_site_type_symbol
 _atom_site_label
 _atom_site_symmetry_multiplicity
 _atom_site_fract_x
 _atom_site_fract_y
 _atom_site_fract_z
 _atom_site_occupancy
  F  F0  1  0.67275946  0.13314764  0.21041707  1
  F  F1  1  0.07726943  0.17275946  0.71041707  1
  F  F2  1  0.63314764  0.03765761  0.71041707  1
  F  F3  1  0.53765761  0.57726943  0.21041707  1
  F  F4  1  0.32724054  0.86685236  0.78958293  1
  F  F5  1  0.92273057  0.82724054  0.28958293  1
  F  F6  1  0.36685236  0.96234239  0.28958293  1
  F  F7  1  0.46234239  0.42273057  0.78958293  1
  F  F8  1  0.13068493  0.54375918  0.71222835  1
  F  F9  1  0.16846917  0.63068493  0.21222835  1
  F  F10  1  0.04375918  0.08154342  0.21222835  1
  F  F11  1  0.58154342  0.66846917  0.71222835  1
  F  F12  1  0.86931507  0.45624082  0.28777165  1
  F  F13  1  0.83153083  0.36931507  0.78777165  1
  F  F14  1  0.95624082  0.91845658  0.78777165  1
  F  F15  1  0.41845658  0.33153083  0.28777165  1
  F  F16  1  0.26978063  0.51978063  0.53956126  1
  F  F17  1  0.01978063  0.76978063  0.03956126  1
  F  F18  1  0.73021937  0.48021937  0.46043874  1
  F  F19  1  0.98021937  0.23021937  0.96043874  1
  F  F20  1  0.36634602  0.24215139  0.01549967  1
  F  F21  1  0.77334828  0.86634602  0.51549967  1
  F  F22  1  0.74215139  0.14915366  0.51549967  1
  F  F23  1  0.64915366  0.27334828  0.01549967  1
  F  F24  1  0.63365398  0.75784861  0.98450033  1
  F  F25  1  0.22665172  0.13365398  0.48450033  1
  F  F26  1  0.25784861  0.85084634  0.48450033  1
  F  F27  1  0.35084634  0.72665172  0.98450033  1
  K  K28  1  0.12500000  0.37500000  0.25000000  1
  K  K29  1  0.87500000  0.62500000  0.75000000  1
  K  K30  1  0.62500000  0.87500000  0.25000000  1
  K  K31  1  0.37500000  0.12500000  0.75000000  1
  K  K32  1  0.20778901  0.47720119  0.97839845  1
  K  K33  1  0.50119726  0.70778901  0.47839845  1
  K  K34  1  0.97720119  0.27060944  0.47839845  1
  K  K35  1  0.77060944  0.00119726  0.97839845  1
  K  K36  1  0.79221099  0.52279881  0.02160155  1
  K  K37  1  0.49880274  0.29221099  0.52160155  1
  K  K38  1  0.02279881  0.72939056  0.52160155  1
  K  K39  1  0.22939056  0.99880274  0.02160155  1
  U  U40  1  0.39343019  0.64343019  0.78686038  1
  U  U41  1  0.14343019  0.89343019  0.28686038  1
  U  U42  1  0.60656981  0.35656981  0.21313962  1
  U  U43  1  0.85656981  0.10656981  0.71313962  1
