# generated using pymatgen
data_Ba2Ge
_symmetry_space_group_name_H-M   'P 1'
_cell_length_a   5.47582376
_cell_length_b   8.56570600
_cell_length_c   10.24602186
_cell_angle_alpha   90.00000000
_cell_angle_beta   90.00000000
_cell_angle_gamma   90.00000000
_symmetry_Int_Tables_number   1
_chemical_formula_structural   Ba2Ge
_chemical_formula_sum   'Ba8 Ge4'
_cell_volume   480.58244661
_cell_formula_units_Z   4
loop_
 _symmetry_equiv_pos_site_id
 _symmetry_equiv_pos_as_xyz
  1  'x, y, z'
loop_
 _atom_site_type_symbol
 _atom_site_label
 _atom_site_symmetry_multiplicity
 _atom_site_fract_x
 _atom_site_fract_y
 _atom_site_fract_z
 _atom_site_occupancy
  Ge  Ge0  1  0.25000000  0.74885521  0.39985782  1
  Ge  Ge1  1  0.75000000  0.25114479  0.60014218  1
  Ge  Ge2  1  0.25000000  0.24885521  0.10014218  1
  Ge  Ge3  1  0.75000000  0.75114479  0.89985782  1
  Ba  Ba4  1  0.75000000  0.35444162  0.91627347  1
  Ba  Ba5  1  0.25000000  0.64555838  0.08372653  1
  Ba  Ba6  1  0.75000000  0.85444162  0.58372653  1
  Ba  Ba7  1  0.25000000  0.14555838  0.41627347  1
  Ba  Ba8  1  0.25000000  0.01903397  0.82964361  1
  Ba  Ba9  1  0.75000000  0.98096603  0.17035639  1
  Ba  Ba10  1  0.25000000  0.51903397  0.67035639  1
  Ba  Ba11  1  0.75000000  0.48096603  0.32964361  1
