# generated using pymatgen
data_Sr(GeAu)2
_symmetry_space_group_name_H-M   'P 1'
_cell_length_a   4.60861891
_cell_length_b   4.60861891
_cell_length_c   6.18065232
_cell_angle_alpha   111.89002566
_cell_angle_beta   111.89002571
_cell_angle_gamma   90.00000001
_symmetry_Int_Tables_number   1
_chemical_formula_structural   Sr(GeAu)2
_chemical_formula_sum   'Sr1 Ge2 Au2'
_cell_volume   111.54365194
_cell_formula_units_Z   1
loop_
 _symmetry_equiv_pos_site_id
 _symmetry_equiv_pos_as_xyz
  1  'x, y, z'
loop_
 _atom_site_type_symbol
 _atom_site_label
 _atom_site_symmetry_multiplicity
 _atom_site_fract_x
 _atom_site_fract_y
 _atom_site_fract_z
 _atom_site_occupancy
  Ge  Ge0  1  0.62167207  0.62167207  0.24334415  1
  Ge  Ge1  1  0.37832793  0.37832793  0.75665585  1
  Sr  Sr2  1  0.00000000  0.00000000  0.00000000  1
  Au  Au3  1  0.25000000  0.75000000  0.50000000  1
  Au  Au4  1  0.75000000  0.25000000  0.50000000  1
