# generated using pymatgen
data_LiCaGe2
_symmetry_space_group_name_H-M   'P 1'
_cell_length_a   3.94106457
_cell_length_b   8.07855097
_cell_length_c   10.75581190
_cell_angle_alpha   90.00000000
_cell_angle_beta   90.00000000
_cell_angle_gamma   90.00000000
_symmetry_Int_Tables_number   1
_chemical_formula_structural   LiCaGe2
_chemical_formula_sum   'Li4 Ca4 Ge8'
_cell_volume   342.44451810
_cell_formula_units_Z   4
loop_
 _symmetry_equiv_pos_site_id
 _symmetry_equiv_pos_as_xyz
  1  'x, y, z'
loop_
 _atom_site_type_symbol
 _atom_site_label
 _atom_site_symmetry_multiplicity
 _atom_site_fract_x
 _atom_site_fract_y
 _atom_site_fract_z
 _atom_site_occupancy
  Li  Li0  1  0.25000000  0.49220790  0.88914657  1
  Li  Li1  1  0.25000000  0.99220790  0.61085343  1
  Li  Li2  1  0.75000000  0.50779210  0.11085343  1
  Li  Li3  1  0.75000000  0.00779210  0.38914657  1
  Ca  Ca4  1  0.75000000  0.36755367  0.63605256  1
  Ca  Ca5  1  0.25000000  0.13244633  0.13605256  1
  Ca  Ca6  1  0.25000000  0.63244633  0.36394744  1
  Ca  Ca7  1  0.75000000  0.86755367  0.86394744  1
  Ge  Ge8  1  0.25000000  0.72747205  0.06227024  1
  Ge  Ge9  1  0.25000000  0.65967229  0.67925804  1
  Ge  Ge10  1  0.75000000  0.84032771  0.17925804  1
  Ge  Ge11  1  0.25000000  0.15967229  0.82074196  1
  Ge  Ge12  1  0.75000000  0.27252795  0.93772976  1
  Ge  Ge13  1  0.25000000  0.22747205  0.43772976  1
  Ge  Ge14  1  0.75000000  0.77252795  0.56227024  1
  Ge  Ge15  1  0.75000000  0.34032771  0.32074196  1
