# generated using pymatgen
data_CdSnF6
_symmetry_space_group_name_H-M   'P 1'
_cell_length_a   5.90733128
_cell_length_b   5.90733128
_cell_length_c   5.90733129
_cell_angle_alpha   55.73108561
_cell_angle_beta   55.73108559
_cell_angle_gamma   55.73108559
_symmetry_Int_Tables_number   1
_chemical_formula_structural   CdSnF6
_chemical_formula_sum   'Cd1 Sn1 F6'
_cell_volume   131.33353640
_cell_formula_units_Z   1
loop_
 _symmetry_equiv_pos_site_id
 _symmetry_equiv_pos_as_xyz
  1  'x, y, z'
loop_
 _atom_site_type_symbol
 _atom_site_label
 _atom_site_symmetry_multiplicity
 _atom_site_fract_x
 _atom_site_fract_y
 _atom_site_fract_z
 _atom_site_occupancy
  F  F0  1  0.23264407  0.89032111  0.64335893  1
  F  F1  1  0.89032111  0.64335893  0.23264407  1
  F  F2  1  0.35664107  0.76735593  0.10967889  1
  F  F3  1  0.10967889  0.35664107  0.76735593  1
  F  F4  1  0.76735593  0.10967889  0.35664107  1
  F  F5  1  0.64335893  0.23264407  0.89032111  1
  Cd  Cd6  1  0.50000000  0.50000000  0.50000000  1
  Sn  Sn7  1  0.00000000  0.00000000  0.00000000  1
