# generated using pymatgen
data_LiV2(CO3)4
_symmetry_space_group_name_H-M   'P 1'
_cell_length_a   9.16572790
_cell_length_b   5.87772939
_cell_length_c   8.20888202
_cell_angle_alpha   90.00000000
_cell_angle_beta   89.55526902
_cell_angle_gamma   90.00000000
_symmetry_Int_Tables_number   1
_chemical_formula_structural   LiV2(CO3)4
_chemical_formula_sum   'Li2 V4 C8 O24'
_cell_volume   442.22926432
_cell_formula_units_Z   2
loop_
 _symmetry_equiv_pos_site_id
 _symmetry_equiv_pos_as_xyz
  1  'x, y, z'
loop_
 _atom_site_type_symbol
 _atom_site_label
 _atom_site_symmetry_multiplicity
 _atom_site_fract_x
 _atom_site_fract_y
 _atom_site_fract_z
 _atom_site_occupancy
  Li  Li0  1  0.32676219  0.56730429  0.14515801  1
  Li  Li1  1  0.82676219  0.43269571  0.64515801  1
  V  V2  1  0.00094252  0.00124330  0.45869485  1
  V  V3  1  0.00198259  0.95763130  0.04244892  1
  V  V4  1  0.50198259  0.04236870  0.54244892  1
  V  V5  1  0.50094252  0.99875670  0.95869485  1
  C  C6  1  0.00559878  0.56757191  0.45358230  1
  C  C7  1  0.99319368  0.47284422  0.95097124  1
  C  C8  1  0.22047487  0.00189019  0.75300602  1
  C  C9  1  0.28195664  0.00456227  0.25599202  1
  C  C10  1  0.49319368  0.52715578  0.45097124  1
  C  C11  1  0.50559878  0.43242809  0.95358230  1
  C  C12  1  0.72047487  0.99810981  0.25300602  1
  C  C13  1  0.78195664  0.99543773  0.75599202  1
  O  O14  1  0.99711273  0.35447251  0.43127832  1
  O  O15  1  0.97290028  0.50871823  0.80483177  1
  O  O16  1  0.01357512  0.63111421  0.06267279  1
  O  O17  1  0.99723895  0.26418320  0.01226184  1
  O  O18  1  0.12211013  0.68921996  0.43901012  1
  O  O19  1  0.13768994  0.01900044  0.24203986  1
  O  O20  1  0.14819991  0.06847769  0.63472882  1
  O  O21  1  0.16905274  0.92237915  0.88836024  1
  O  O22  1  0.33863505  0.09022494  0.38437354  1
  O  O23  1  0.35184704  0.90184248  0.14421201  1
  O  O24  1  0.36687326  0.01476827  0.74428400  1
  O  O25  1  0.38848159  0.31305244  0.99418132  1
  O  O26  1  0.51357512  0.36888579  0.56267279  1
  O  O27  1  0.49723895  0.73581680  0.51226184  1
  O  O28  1  0.47290028  0.49128177  0.30483177  1
  O  O29  1  0.49711273  0.64552749  0.93127832  1
  O  O30  1  0.62211013  0.31078004  0.93901012  1
  O  O31  1  0.63768994  0.98099956  0.74203986  1
  O  O32  1  0.64819991  0.93152231  0.13472882  1
  O  O33  1  0.66905274  0.07761985  0.38836024  1
  O  O34  1  0.83863505  0.90977506  0.88437354  1
  O  O35  1  0.85184704  0.09815752  0.64421201  1
  O  O36  1  0.86687326  0.98523173  0.24428400  1
  O  O37  1  0.88848159  0.68694756  0.49418132  1
