# generated using pymatgen
data_LiFeP2O7
_symmetry_space_group_name_H-M   'P 1'
_cell_length_a   4.94889604
_cell_length_b   8.06464867
_cell_length_c   14.15012936
_cell_angle_alpha   90.00000000
_cell_angle_beta   80.56139342
_cell_angle_gamma   90.00000000
_symmetry_Int_Tables_number   1
_chemical_formula_structural   LiFeP2O7
_chemical_formula_sum   'Li4 Fe4 P8 O28'
_cell_volume   557.10172563
_cell_formula_units_Z   4
loop_
 _symmetry_equiv_pos_site_id
 _symmetry_equiv_pos_as_xyz
  1  'x, y, z'
loop_
 _atom_site_type_symbol
 _atom_site_label
 _atom_site_symmetry_multiplicity
 _atom_site_fract_x
 _atom_site_fract_y
 _atom_site_fract_z
 _atom_site_occupancy
  Li  Li0  1  0.16795138  0.64164832  0.87907783  1
  Li  Li1  1  0.33204862  0.14164832  0.62092217  1
  Li  Li2  1  0.66795138  0.85835168  0.37907783  1
  Li  Li3  1  0.83204862  0.35835168  0.12092217  1
  Fe  Fe4  1  0.14002793  0.73604794  0.18901894  1
  Fe  Fe5  1  0.35997207  0.23604794  0.31098106  1
  Fe  Fe6  1  0.64002793  0.76395206  0.68901894  1
  Fe  Fe7  1  0.85997207  0.26395206  0.81098106  1
  P  P8  1  0.19324358  0.78159005  0.54427570  1
  P  P9  1  0.33440549  0.02876494  0.82249364  1
  P  P10  1  0.16559451  0.52876494  0.67750636  1
  P  P11  1  0.30675642  0.28159005  0.95572430  1
  P  P12  1  0.69324358  0.71840995  0.04427570  1
  P  P13  1  0.83440549  0.47123506  0.32249364  1
  P  P14  1  0.66559451  0.97123506  0.17750636  1
  P  P15  1  0.80675642  0.21840995  0.45572430  1
  O  O16  1  0.94937867  0.94929297  0.20769953  1
  O  O17  1  0.95460624  0.64572278  0.73587457  1
  O  O18  1  0.11723877  0.17856587  0.43038798  1
  O  O19  1  0.15161028  0.36740286  0.88151560  1
  O  O20  1  0.06927997  0.34729031  0.68620032  1
  O  O21  1  0.18559395  0.30468224  0.05780604  1
  O  O22  1  0.20420227  0.57955817  0.56693021  1
  O  O23  1  0.29579773  0.07955817  0.93306979  1
  O  O24  1  0.31440605  0.80468224  0.44219396  1
  O  O25  1  0.43072003  0.84729031  0.81379968  1
  O  O26  1  0.34838972  0.86740286  0.61848440  1
  O  O27  1  0.38276123  0.67856587  0.06961202  1
  O  O28  1  0.54539376  0.14572278  0.76412543  1
  O  O29  1  0.55062133  0.44929297  0.29230047  1
  O  O30  1  0.44937867  0.55070703  0.70769953  1
  O  O31  1  0.45460624  0.85427722  0.23587457  1
  O  O32  1  0.61723877  0.32143413  0.93038798  1
  O  O33  1  0.65161028  0.13259714  0.38151560  1
  O  O34  1  0.56927997  0.15270969  0.18620032  1
  O  O35  1  0.68559395  0.19531776  0.55780604  1
  O  O36  1  0.70420227  0.92044183  0.06693121  1
  O  O37  1  0.79579773  0.42044183  0.43306979  1
  O  O38  1  0.81440605  0.69531776  0.94219396  1
  O  O39  1  0.93072003  0.65270969  0.31379968  1
  O  O40  1  0.84838972  0.63259714  0.11848440  1
  O  O41  1  0.88276123  0.82143413  0.56961202  1
  O  O42  1  0.04539376  0.35427722  0.26412543  1
  O  O43  1  0.05062133  0.05070703  0.79230047  1
