# generated using pymatgen
data_ZnPdF6
_symmetry_space_group_name_H-M   'P 1'
_cell_length_a   5.47260250
_cell_length_b   5.47260250
_cell_length_c   5.47260250
_cell_angle_alpha   55.67146467
_cell_angle_beta   55.67146467
_cell_angle_gamma   55.67146468
_symmetry_Int_Tables_number   1
_chemical_formula_structural   ZnPdF6
_chemical_formula_sum   'Zn1 Pd1 F6'
_cell_volume   104.25660659
_cell_formula_units_Z   1
loop_
 _symmetry_equiv_pos_site_id
 _symmetry_equiv_pos_as_xyz
  1  'x, y, z'
loop_
 _atom_site_type_symbol
 _atom_site_label
 _atom_site_symmetry_multiplicity
 _atom_site_fract_x
 _atom_site_fract_y
 _atom_site_fract_z
 _atom_site_occupancy
  F  F0  1  0.38285354  0.10430057  0.75909104  1
  F  F1  1  0.10430057  0.75909104  0.38285354  1
  F  F2  1  0.24090896  0.61714646  0.89569943  1
  F  F3  1  0.89569943  0.24090896  0.61714646  1
  F  F4  1  0.61714646  0.89569943  0.24090896  1
  F  F5  1  0.75909104  0.38285354  0.10430057  1
  Zn  Zn6  1  0.50000000  0.50000000  0.50000000  1
  Pd  Pd7  1  0.00000000  0.00000000  0.00000000  1
