# generated using pymatgen
data_Gd2SeO2
_symmetry_space_group_name_H-M   'P 1'
_cell_length_a   3.90932960
_cell_length_b   3.90932960
_cell_length_c   6.91867592
_cell_angle_alpha   90.00000000
_cell_angle_beta   90.00000000
_cell_angle_gamma   119.99999997
_symmetry_Int_Tables_number   1
_chemical_formula_structural   Gd2SeO2
_chemical_formula_sum   'Gd2 Se1 O2'
_cell_volume   91.57105043
_cell_formula_units_Z   1
loop_
 _symmetry_equiv_pos_site_id
 _symmetry_equiv_pos_as_xyz
  1  'x, y, z'
loop_
 _atom_site_type_symbol
 _atom_site_label
 _atom_site_symmetry_multiplicity
 _atom_site_fract_x
 _atom_site_fract_y
 _atom_site_fract_z
 _atom_site_occupancy
  O  O0  1  0.66666667  0.33333333  0.37442613  1
  O  O1  1  0.33333333  0.66666667  0.62557387  1
  Se  Se2  1  0.00000000  0.00000000  0.00000000  1
  Gd  Gd3  1  0.66666667  0.33333333  0.71030257  1
  Gd  Gd4  1  0.33333333  0.66666667  0.28969743  1
