# generated using pymatgen
data_Li5Cr5O12
_symmetry_space_group_name_H-M   'P 1'
_cell_length_a   5.09900831
_cell_length_b   5.08697765
_cell_length_c   19.77920017
_cell_angle_alpha   84.87457197
_cell_angle_beta   95.02290979
_cell_angle_gamma   59.68184119
_symmetry_Int_Tables_number   1
_chemical_formula_structural   Li5Cr5O12
_chemical_formula_sum   'Li10 Cr10 O24'
_cell_volume   435.82507376
_cell_formula_units_Z   2
loop_
 _symmetry_equiv_pos_site_id
 _symmetry_equiv_pos_as_xyz
  1  'x, y, z'
loop_
 _atom_site_type_symbol
 _atom_site_label
 _atom_site_symmetry_multiplicity
 _atom_site_fract_x
 _atom_site_fract_y
 _atom_site_fract_z
 _atom_site_occupancy
  Li  Li0  1  0.34393876  0.82803051  0.50190996  1
  Li  Li1  1  0.15082706  0.67126616  0.24743186  1
  Li  Li2  1  0.75879752  0.74653898  0.62456445  1
  Li  Li3  1  0.34818889  0.82948942  0.00248929  1
  Li  Li4  1  0.83821887  0.34113480  0.74876015  1
  Li  Li5  1  0.51309982  0.99547427  0.74876134  1
  Li  Li6  1  0.74855698  0.74873249  0.12504106  1
  Li  Li7  1  0.67064051  0.15204487  0.50145082  1
  Li  Li8  1  0.82899297  0.34701421  0.24736593  1
  Li  Li9  1  0.67084609  0.14993403  0.00243729  1
  Cr  Cr10  1  0.24837306  0.25572956  0.87468547  1
  Cr  Cr11  1  0.92117190  0.91341004  0.87514105  1
  Cr  Cr12  1  0.58431317  0.58559332  0.87525802  1
  Cr  Cr13  1  0.41009536  0.41548274  0.62492441  1
  Cr  Cr14  1  0.06759796  0.09179517  0.62516478  1
  Cr  Cr15  1  0.25106807  0.25142546  0.37496259  1
  Cr  Cr16  1  0.91580574  0.91614363  0.37491307  1
  Cr  Cr17  1  0.58709233  0.58734065  0.37490034  1
  Cr  Cr18  1  0.41550752  0.41462465  0.12484844  1
  Cr  Cr19  1  0.08156927  0.08287206  0.12482882  1
  O  O20  1  0.20800478  0.96137410  0.82130120  1
  O  O21  1  0.28518407  0.55721972  0.92825107  1
  O  O22  1  0.62132015  0.88843410  0.92970927  1
  O  O23  1  0.07373780  0.79586200  0.57125157  1
  O  O24  1  0.42874071  0.70072947  0.67649928  1
  O  O25  1  0.19961839  0.95475326  0.32179980  1
  O  O26  1  0.14363033  0.33478782  0.67930776  1
  O  O27  1  0.28772475  0.55519532  0.42811066  1
  O  O28  1  0.62152434  0.88765663  0.42966656  1
  O  O29  1  0.07257554  0.80916908  0.06974364  1
  O  O30  1  0.87152731  0.63076531  0.82032945  1
  O  O31  1  0.56449653  0.27124388  0.82211821  1
  O  O32  1  0.36482212  0.15457777  0.57285371  1
  O  O33  1  0.42428793  0.68822127  0.18010807  1
  O  O34  1  0.95571050  0.19870022  0.92811942  1
  O  O35  1  0.70449889  0.41684856  0.56970166  1
  O  O36  1  0.13144184  0.36555354  0.17573649  1
  O  O37  1  0.76366822  0.09440179  0.68122665  1
  O  O38  1  0.88685135  0.62182453  0.32036147  1
  O  O39  1  0.55464114  0.28688579  0.32195957  1
  O  O40  1  0.36541182  0.13150199  0.07401980  1
  O  O41  1  0.95505278  0.19976487  0.42832335  1
  O  O42  1  0.68765624  0.42500557  0.06962983  1
  O  O43  1  0.80949058  0.07212640  0.18001536  1
