# generated using pymatgen
data_Cs2Pt3S4
_symmetry_space_group_name_H-M   'P 1'
_cell_length_a   6.43603099
_cell_length_b   6.43603100
_cell_length_c   7.83413802
_cell_angle_alpha   102.24462966
_cell_angle_beta   102.24462969
_cell_angle_gamma   118.92631399
_symmetry_Int_Tables_number   1
_chemical_formula_structural   Cs2Pt3S4
_chemical_formula_sum   'Cs2 Pt3 S4'
_cell_volume   258.09744754
_cell_formula_units_Z   1
loop_
 _symmetry_equiv_pos_site_id
 _symmetry_equiv_pos_as_xyz
  1  'x, y, z'
loop_
 _atom_site_type_symbol
 _atom_site_label
 _atom_site_symmetry_multiplicity
 _atom_site_fract_x
 _atom_site_fract_y
 _atom_site_fract_z
 _atom_site_occupancy
  S  S0  1  0.72883843  0.06501025  0.79384868  1
  S  S1  1  0.06501025  0.72883843  0.79384868  1
  S  S2  1  0.27116157  0.93498975  0.20615132  1
  S  S3  1  0.93498975  0.27116157  0.20615132  1
  Cs  Cs4  1  0.65278415  0.65278415  0.30556829  1
  Cs  Cs5  1  0.34721585  0.34721585  0.69443171  1
  Pt  Pt6  1  0.50000000  0.00000000  0.00000000  1
  Pt  Pt7  1  0.00000000  0.00000000  0.00000000  1
  Pt  Pt8  1  0.00000000  0.50000000  0.00000000  1
