# generated using pymatgen
data_Ca2Nb2O7
_symmetry_space_group_name_H-M   'P 1'
_cell_length_a   5.54829266
_cell_length_b   7.77114035
_cell_length_c   13.66033001
_cell_angle_alpha   98.27688619
_cell_angle_beta   90.00000000
_cell_angle_gamma   90.00000000
_symmetry_Int_Tables_number   1
_chemical_formula_structural   Ca2Nb2O7
_chemical_formula_sum   'Ca8 Nb8 O28'
_cell_volume   582.85153520
_cell_formula_units_Z   4
loop_
 _symmetry_equiv_pos_site_id
 _symmetry_equiv_pos_as_xyz
  1  'x, y, z'
loop_
 _atom_site_type_symbol
 _atom_site_label
 _atom_site_symmetry_multiplicity
 _atom_site_fract_x
 _atom_site_fract_y
 _atom_site_fract_z
 _atom_site_occupancy
  O  O0  1  0.55341729  0.07300275  0.40591816  1
  O  O1  1  0.05341729  0.92699725  0.59408184  1
  O  O2  1  0.44184903  0.01435007  0.18090437  1
  O  O3  1  0.94184903  0.98564993  0.81909563  1
  O  O4  1  0.35484425  0.32699548  0.30213839  1
  O  O5  1  0.85484425  0.67300452  0.69786161  1
  O  O6  1  0.65591680  0.27165359  0.08733634  1
  O  O7  1  0.15591680  0.72834641  0.91266366  1
  O  O8  1  0.06164200  0.13815734  0.42670803  1
  O  O9  1  0.56164200  0.86184266  0.57329197  1
  O  O10  1  0.95640960  0.11750771  0.22461466  1
  O  O11  1  0.45640960  0.88249229  0.77538534  1
  O  O12  1  0.03063099  0.05263628  0.02022477  1
  O  O13  1  0.53063099  0.94736372  0.97977523  1
  O  O14  1  0.58130241  0.63474647  0.38539607  1
  O  O15  1  0.08130241  0.36525353  0.61460393  1
  O  O16  1  0.52911528  0.54177062  0.97818895  1
  O  O17  1  0.02911528  0.45822938  0.02181105  1
  O  O18  1  0.45288391  0.50422285  0.77211739  1
  O  O19  1  0.95288391  0.49577715  0.22788261  1
  O  O20  1  0.58445493  0.41454323  0.56166686  1
  O  O21  1  0.08445493  0.58545677  0.43833314  1
  O  O22  1  0.33235265  0.22234925  0.88888956  1
  O  O23  1  0.83235265  0.77765075  0.11111044  1
  O  O24  1  0.67782134  0.17201731  0.69127733  1
  O  O25  1  0.17782134  0.82798269  0.30872267  1
  O  O26  1  0.93812478  0.42581909  0.82157977  1
  O  O27  1  0.43812478  0.57418091  0.17842023  1
  Ca  Ca28  1  0.76724328  0.23037878  0.91641608  1
  Ca  Ca29  1  0.26724328  0.76962122  0.08358392  1
  Ca  Ca30  1  0.34798692  0.13938610  0.56537705  1
  Ca  Ca31  1  0.84798692  0.86061390  0.43462295  1
  Ca  Ca32  1  0.74866529  0.71688563  0.87553263  1
  Ca  Ca33  1  0.24866529  0.28311437  0.12446737  1
  Ca  Ca34  1  0.27431799  0.64000233  0.59961554  1
  Ca  Ca35  1  0.77431799  0.35999767  0.40038446  1
  Nb  Nb36  1  0.26371496  0.47400784  0.88155922  1
  Nb  Nb37  1  0.76371496  0.52599216  0.11844078  1
  Nb  Nb38  1  0.78875150  0.41152568  0.67444047  1
  Nb  Nb39  1  0.28875150  0.58847432  0.32555953  1
  Nb  Nb40  1  0.26419054  0.96751283  0.88363598  1
  Nb  Nb41  1  0.76419054  0.03248717  0.11636402  1
  Nb  Nb42  1  0.78476424  0.92126525  0.67674344  1
  Nb  Nb43  1  0.28476424  0.07873475  0.32325656  1
