# generated using pymatgen
data_Hg2GeO4
_symmetry_space_group_name_H-M   'P 1'
_cell_length_a   6.55948733
_cell_length_b   6.55948733
_cell_length_c   6.73428402
_cell_angle_alpha   104.89202068
_cell_angle_beta   104.89202077
_cell_angle_gamma   118.18413050
_symmetry_Int_Tables_number   1
_chemical_formula_structural   Hg2GeO4
_chemical_formula_sum   'Hg4 Ge2 O8'
_cell_volume   221.13473330
_cell_formula_units_Z   2
loop_
 _symmetry_equiv_pos_site_id
 _symmetry_equiv_pos_as_xyz
  1  'x, y, z'
loop_
 _atom_site_type_symbol
 _atom_site_label
 _atom_site_symmetry_multiplicity
 _atom_site_fract_x
 _atom_site_fract_y
 _atom_site_fract_z
 _atom_site_occupancy
  O  O0  1  0.74658119  0.79550560  0.08394171  1
  O  O1  1  0.71156389  0.16263948  0.41605829  1
  O  O2  1  0.20449440  0.25341881  0.41605829  1
  O  O3  1  0.83736052  0.28843611  0.08394171  1
  O  O4  1  0.25341881  0.20449440  0.91605829  1
  O  O5  1  0.28843611  0.83736052  0.58394171  1
  O  O6  1  0.16263948  0.71156389  0.91605829  1
  O  O7  1  0.79550560  0.74658119  0.58394171  1
  Ge  Ge8  1  0.87500000  0.12500000  0.25000000  1
  Ge  Ge9  1  0.12500000  0.87500000  0.75000000  1
  Hg  Hg10  1  0.19293753  0.80706247  0.25000000  1
  Hg  Hg11  1  0.55706247  0.44293753  0.25000000  1
  Hg  Hg12  1  0.80706247  0.19293753  0.75000000  1
  Hg  Hg13  1  0.44293753  0.55706247  0.75000000  1
