# generated using pymatgen
data_HoMn12
_symmetry_space_group_name_H-M   'P 1'
_cell_length_a   4.69457475
_cell_length_b   6.29886326
_cell_length_c   6.29886326
_cell_angle_alpha   82.01754171
_cell_angle_beta   68.12070060
_cell_angle_gamma   68.12070062
_symmetry_Int_Tables_number   1
_chemical_formula_structural   HoMn12
_chemical_formula_sum   'Ho1 Mn12'
_cell_volume   160.39446699
_cell_formula_units_Z   1
loop_
 _symmetry_equiv_pos_site_id
 _symmetry_equiv_pos_as_xyz
  1  'x, y, z'
loop_
 _atom_site_type_symbol
 _atom_site_label
 _atom_site_symmetry_multiplicity
 _atom_site_fract_x
 _atom_site_fract_y
 _atom_site_fract_z
 _atom_site_occupancy
  Mn  Mn0  1  0.72898562  0.77101438  0.77101438  1
  Mn  Mn1  1  0.50000000  0.00000000  0.50000000  1
  Mn  Mn2  1  0.00000000  0.50000000  0.00000000  1
  Mn  Mn3  1  0.50000000  0.50000000  0.00000000  1
  Mn  Mn4  1  0.00000000  0.00000000  0.50000000  1
  Mn  Mn5  1  0.36503572  0.63496428  0.63496428  1
  Mn  Mn6  1  0.00000000  0.36503572  0.63496428  1
  Mn  Mn7  1  0.00000000  0.63496428  0.36503572  1
  Mn  Mn8  1  0.63496428  0.36503572  0.36503572  1
  Mn  Mn9  1  0.27101438  0.22898562  0.22898562  1
  Mn  Mn10  1  0.50000000  0.77101438  0.22898562  1
  Mn  Mn11  1  0.50000000  0.22898562  0.77101438  1
  Ho  Ho12  1  0.00000000  0.00000000  0.00000000  1
