# generated using pymatgen
data_RbAlF4
_symmetry_space_group_name_H-M   'P 1'
_cell_length_a   10.55471696
_cell_length_b   10.55471697
_cell_length_c   10.55471696
_cell_angle_alpha   105.44138375
_cell_angle_beta   111.52294524
_cell_angle_gamma   111.52294521
_symmetry_Int_Tables_number   1
_chemical_formula_structural   RbAlF4
_chemical_formula_sum   'Rb10 Al10 F40'
_cell_volume   901.81697387
_cell_formula_units_Z   10
loop_
 _symmetry_equiv_pos_site_id
 _symmetry_equiv_pos_as_xyz
  1  'x, y, z'
loop_
 _atom_site_type_symbol
 _atom_site_label
 _atom_site_symmetry_multiplicity
 _atom_site_fract_x
 _atom_site_fract_y
 _atom_site_fract_z
 _atom_site_occupancy
  F  F0  1  0.50000000  0.13845299  0.63845299  1
  F  F1  1  0.50000000  0.36154701  0.86154701  1
  F  F2  1  0.50000000  0.86154701  0.36154701  1
  F  F3  1  0.50000000  0.63845299  0.13845299  1
  F  F4  1  0.06285705  0.78142853  0.28142853  1
  F  F5  1  0.50000000  0.71857147  0.78142853  1
  F  F6  1  0.50000000  0.28142853  0.21857147  1
  F  F7  1  0.93714295  0.21857147  0.71857147  1
  F  F8  1  0.87074677  0.15221217  0.44034373  1
  F  F9  1  0.12925323  0.56959697  0.28146540  1
  F  F10  1  0.71186843  0.55965627  0.43040303  1
  F  F11  1  0.28813157  0.71853460  0.84778783  1
  F  F12  1  0.28813157  0.06959697  0.94034373  1
  F  F13  1  0.12925323  0.05965627  0.34778783  1
  F  F14  1  0.71191274  0.93016346  0.05989110  1
  F  F15  1  0.87074677  0.21853460  0.93040303  1
  F  F16  1  0.12972764  0.84797835  0.55989110  1
  F  F17  1  0.87027236  0.43016346  0.71825071  1
  F  F18  1  0.28808726  0.44010890  0.56983654  1
  F  F19  1  0.71191274  0.28174929  0.15202165  1
  F  F20  1  0.34557521  0.00136661  0.34441440  1
  F  F21  1  0.65695221  0.65558560  0.00116081  1
  F  F22  1  0.34304779  0.34420860  0.99863339  1
  F  F23  1  0.65442479  0.99883919  0.65579140  1
  F  F24  1  0.65442479  0.15558560  0.49863339  1
  F  F25  1  0.34557521  0.84420860  0.50116081  1
  F  F26  1  0.34304779  0.49883919  0.84441440  1
  F  F27  1  0.65695221  0.50136661  0.15579140  1
  F  F28  1  0.20906935  0.06687820  0.14248466  1
  F  F29  1  0.92439354  0.85751534  0.06658469  1
  F  F30  1  0.07560646  0.14219116  0.93312180  1
  F  F31  1  0.79093065  0.93341531  0.85780884  1
  F  F32  1  0.79093065  0.35751534  0.43312180  1
  F  F33  1  0.20906935  0.64219116  0.56658469  1
  F  F34  1  0.07560646  0.43341531  0.64248466  1
  F  F35  1  0.92439354  0.56687820  0.35780884  1
  F  F36  1  0.28808726  0.34797835  0.21825071  1
  F  F37  1  0.12972764  0.78174929  0.06983654  1
  F  F38  1  0.87027236  0.94010890  0.65202165  1
  F  F39  1  0.71186843  0.65221217  0.78146540  1
  Al  Al40  1  0.28413122  0.57657902  0.70758216  1
  Al  Al41  1  0.71586878  0.42345093  0.29244780  1
  Al  Al42  1  0.86899687  0.29241784  0.57654907  1
  Al  Al43  1  0.13100313  0.70755220  0.42342098  1
  Al  Al44  1  0.13100313  0.92345093  0.20758216  1
  Al  Al45  1  0.71586878  0.79241784  0.92342098  1
  Al  Al46  1  0.28413122  0.20755220  0.07654907  1
  Al  Al47  1  0.86899687  0.07657902  0.79244780  1
  Al  Al48  1  0.50000000  0.50000000  0.00000000  1
  Al  Al49  1  0.50000000  0.00000000  0.50000000  1
  Rb  Rb50  1  0.49980620  0.02966005  0.84646377  1
  Rb  Rb51  1  0.50019380  0.34665757  0.52985384  1
  Rb  Rb52  1  0.18319628  0.15353623  0.65334243  1
  Rb  Rb53  1  0.81680372  0.47014616  0.97033995  1
  Rb  Rb54  1  0.81680372  0.84665757  0.34646377  1
  Rb  Rb55  1  0.50019380  0.65353623  0.47033995  1
  Rb  Rb56  1  0.49980620  0.97014616  0.15334243  1
  Rb  Rb57  1  0.18319628  0.52966005  0.02985384  1
  Rb  Rb58  1  0.00000000  0.75000000  0.75000000  1
  Rb  Rb59  1  0.00000000  0.25000000  0.25000000  1
