# generated using pymatgen
data_Ho2(Ga3Co)3
_symmetry_space_group_name_H-M   'P 1'
_cell_length_a   7.38367894
_cell_length_b   7.35415981
_cell_length_c   9.42056015
_cell_angle_alpha   90.00000000
_cell_angle_beta   90.00000000
_cell_angle_gamma   120.13286900
_symmetry_Int_Tables_number   1
_chemical_formula_structural   Ho2(Ga3Co)3
_chemical_formula_sum   'Ho4 Ga18 Co6'
_cell_volume   442.41536463
_cell_formula_units_Z   2
loop_
 _symmetry_equiv_pos_site_id
 _symmetry_equiv_pos_as_xyz
  1  'x, y, z'
loop_
 _atom_site_type_symbol
 _atom_site_label
 _atom_site_symmetry_multiplicity
 _atom_site_fract_x
 _atom_site_fract_y
 _atom_site_fract_z
 _atom_site_occupancy
  Co  Co0  1  0.32921465  0.65842930  0.00000000  1
  Co  Co1  1  0.67078535  0.34157070  0.50000000  1
  Co  Co2  1  0.67078535  0.34157070  0.00000000  1
  Co  Co3  1  0.32921465  0.65842930  0.50000000  1
  Co  Co4  1  0.00000000  0.00000000  0.00000000  1
  Co  Co5  1  0.00000000  0.00000000  0.50000000  1
  Ga  Ga6  1  0.66569075  0.66556813  0.92810550  1
  Ga  Ga7  1  0.33430925  0.33443187  0.42810550  1
  Ga  Ga8  1  0.99987739  0.66556813  0.42810550  1
  Ga  Ga9  1  0.33430925  0.33443187  0.07189450  1
  Ga  Ga10  1  0.00012261  0.33443187  0.92810550  1
  Ga  Ga11  1  0.99987739  0.66556813  0.07189450  1
  Ga  Ga12  1  0.33343922  0.00000000  0.55827944  1
  Ga  Ga13  1  0.33343922  0.00000000  0.94172056  1
  Ga  Ga14  1  0.66656078  0.00000000  0.05827944  1
  Ga  Ga15  1  0.66656078  0.00000000  0.44172056  1
  Ga  Ga16  1  0.87896635  0.00000000  0.75000000  1
  Ga  Ga17  1  0.12103365  0.00000000  0.25000000  1
  Ga  Ga18  1  0.33640794  0.78590676  0.25000000  1
  Ga  Ga19  1  0.55050118  0.21409324  0.25000000  1
  Ga  Ga20  1  0.66359206  0.21409324  0.75000000  1
  Ga  Ga21  1  0.44949882  0.78590676  0.75000000  1
  Ga  Ga22  1  0.66569075  0.66556813  0.57189450  1
  Ga  Ga23  1  0.00012261  0.33443187  0.57189450  1
  Ho  Ho24  1  0.33139925  0.32850534  0.75000000  1
  Ho  Ho25  1  0.00289391  0.67149466  0.75000000  1
  Ho  Ho26  1  0.66860075  0.67149466  0.25000000  1
  Ho  Ho27  1  0.99710609  0.32850534  0.25000000  1
