# generated using pymatgen
data_LiFePO4
_symmetry_space_group_name_H-M   'P 1'
_cell_length_a   7.75351132
_cell_length_b   8.66802740
_cell_length_c   4.74519366
_cell_angle_alpha   90.00000000
_cell_angle_beta   90.00000000
_cell_angle_gamma   90.00000000
_symmetry_Int_Tables_number   1
_chemical_formula_structural   LiFePO4
_chemical_formula_sum   'Li4 Fe4 P4 O16'
_cell_volume   318.91330789
_cell_formula_units_Z   4
loop_
 _symmetry_equiv_pos_site_id
 _symmetry_equiv_pos_as_xyz
  1  'x, y, z'
loop_
 _atom_site_type_symbol
 _atom_site_label
 _atom_site_symmetry_multiplicity
 _atom_site_fract_x
 _atom_site_fract_y
 _atom_site_fract_z
 _atom_site_occupancy
  Li  Li0  1  0.14324936  0.01621157  0.02969819  1
  Li  Li1  1  0.35675064  0.51621157  0.52969819  1
  Li  Li2  1  0.64324936  0.48378843  0.02969819  1
  Li  Li3  1  0.85675064  0.98378843  0.52969819  1
  Fe  Fe4  1  0.04384124  0.66200942  0.98485615  1
  Fe  Fe5  1  0.45615876  0.16200942  0.48485615  1
  Fe  Fe6  1  0.54384124  0.83799058  0.98485615  1
  Fe  Fe7  1  0.95615876  0.33799058  0.48485615  1
  P  P8  1  0.24158592  0.85009506  0.55064318  1
  P  P9  1  0.25841408  0.35009506  0.05064318  1
  P  P10  1  0.74158592  0.64990494  0.55064318  1
  P  P11  1  0.75841408  0.14990494  0.05064318  1
  O  O12  1  0.08301800  0.93997092  0.64815165  1
  O  O13  1  0.09531312  0.44327797  0.15697361  1
  O  O14  1  0.25302409  0.82711971  0.22401266  1
  O  O15  1  0.24322546  0.69033522  0.69766455  1
  O  O16  1  0.25677454  0.19033522  0.19766455  1
  O  O17  1  0.24697591  0.32711971  0.72401266  1
  O  O18  1  0.40468688  0.94327797  0.65697361  1
  O  O19  1  0.41698200  0.43997092  0.14815165  1
  O  O20  1  0.58301800  0.56002908  0.64815165  1
  O  O21  1  0.59531312  0.05672203  0.15697361  1
  O  O22  1  0.75302409  0.67288029  0.22401266  1
  O  O23  1  0.74322546  0.80966478  0.69766455  1
  O  O24  1  0.75677454  0.30966478  0.19766455  1
  O  O25  1  0.74697591  0.17288029  0.72401266  1
  O  O26  1  0.90468688  0.55672203  0.65697361  1
  O  O27  1  0.91698200  0.06002908  0.14815165  1
