# generated using pymatgen
data_Zr2CuS4
_symmetry_space_group_name_H-M   'P 1'
_cell_length_a   7.38790258
_cell_length_b   7.38790258
_cell_length_c   7.38790259
_cell_angle_alpha   60.00000001
_cell_angle_beta   60.00000002
_cell_angle_gamma   60.00000003
_symmetry_Int_Tables_number   1
_chemical_formula_structural   Zr2CuS4
_chemical_formula_sum   'Zr4 Cu2 S8'
_cell_volume   285.13365647
_cell_formula_units_Z   2
loop_
 _symmetry_equiv_pos_site_id
 _symmetry_equiv_pos_as_xyz
  1  'x, y, z'
loop_
 _atom_site_type_symbol
 _atom_site_label
 _atom_site_symmetry_multiplicity
 _atom_site_fract_x
 _atom_site_fract_y
 _atom_site_fract_z
 _atom_site_occupancy
  S  S0  1  0.74862029  0.74862029  0.74862029  1
  S  S1  1  0.25137971  0.25137971  0.74586088  1
  S  S2  1  0.25137971  0.74586088  0.25137971  1
  S  S3  1  0.74586088  0.25137971  0.25137971  1
  S  S4  1  0.74862029  0.25413912  0.74862029  1
  S  S5  1  0.25413912  0.74862029  0.74862029  1
  S  S6  1  0.25137971  0.25137971  0.25137971  1
  S  S7  1  0.74862029  0.74862029  0.25413912  1
  Cu  Cu8  1  0.87500000  0.87500000  0.87500000  1
  Cu  Cu9  1  0.12500000  0.12500000  0.12500000  1
  Zr  Zr10  1  0.50000000  0.50000000  0.00000000  1
  Zr  Zr11  1  0.50000000  0.50000000  0.50000000  1
  Zr  Zr12  1  0.00000000  0.50000000  0.50000000  1
  Zr  Zr13  1  0.50000000  0.00000000  0.50000000  1
