# generated using pymatgen
data_K2HfF6
_symmetry_space_group_name_H-M   'P 1'
_cell_length_a   6.64694130
_cell_length_b   6.71594562
_cell_length_c   6.96574206
_cell_angle_alpha   89.94474414
_cell_angle_beta   89.88834097
_cell_angle_gamma   60.33930626
_symmetry_Int_Tables_number   1
_chemical_formula_structural   K2HfF6
_chemical_formula_sum   'K4 Hf2 F12'
_cell_volume   270.20971824
_cell_formula_units_Z   2
loop_
 _symmetry_equiv_pos_site_id
 _symmetry_equiv_pos_as_xyz
  1  'x, y, z'
loop_
 _atom_site_type_symbol
 _atom_site_label
 _atom_site_symmetry_multiplicity
 _atom_site_fract_x
 _atom_site_fract_y
 _atom_site_fract_z
 _atom_site_occupancy
  F  F0  1  0.93175827  0.19445483  0.04439769  1
  F  F1  1  0.87378690  0.19445483  0.45560231  1
  F  F2  1  0.06824173  0.80554517  0.95560231  1
  F  F3  1  0.12621310  0.80554517  0.54439769  1
  F  F4  1  0.62017430  0.38251511  0.77181485  1
  F  F5  1  0.99731059  0.38251511  0.72818515  1
  F  F6  1  0.69977018  0.02587136  0.22172795  1
  F  F7  1  0.27435846  0.02587136  0.27827205  1
  F  F8  1  0.30022982  0.97412864  0.77827205  1
  F  F9  1  0.72564154  0.97412864  0.72172795  1
  F  F10  1  0.00268941  0.61748489  0.27181485  1
  F  F11  1  0.37982570  0.61748489  0.22818515  1
  K  K12  1  0.32627228  0.31496921  0.00254588  1
  K  K13  1  0.35875851  0.31496921  0.49745412  1
  K  K14  1  0.64124149  0.68503079  0.50254588  1
  K  K15  1  0.67372772  0.68503079  0.99745412  1
  Hf  Hf16  1  0.04800260  0.90399479  0.25000000  1
  Hf  Hf17  1  0.95199740  0.09600521  0.75000000  1
