# generated using pymatgen
data_Lu3Al5O12
_symmetry_space_group_name_H-M   'P 1'
_cell_length_a   10.36223001
_cell_length_b   10.36223001
_cell_length_c   10.36223001
_cell_angle_alpha   109.47122064
_cell_angle_beta   109.47122064
_cell_angle_gamma   109.47122063
_symmetry_Int_Tables_number   1
_chemical_formula_structural   Lu3Al5O12
_chemical_formula_sum   'Lu12 Al20 O48'
_cell_volume   856.52056159
_cell_formula_units_Z   4
loop_
 _symmetry_equiv_pos_site_id
 _symmetry_equiv_pos_as_xyz
  1  'x, y, z'
loop_
 _atom_site_type_symbol
 _atom_site_label
 _atom_site_symmetry_multiplicity
 _atom_site_fract_x
 _atom_site_fract_y
 _atom_site_fract_z
 _atom_site_occupancy
  O  O0  1  0.79744496  0.41842770  0.82115628  1
  O  O1  1  0.08157230  0.87901727  0.40272859  1
  O  O2  1  0.67884372  0.09727141  0.97628868  1
  O  O3  1  0.70255504  0.52371132  0.62098273  1
  O  O4  1  0.70255504  0.67884372  0.08157230  1
  O  O5  1  0.52371132  0.62098273  0.70255504  1
  O  O6  1  0.09727141  0.62098273  0.41842770  1
  O  O7  1  0.62098273  0.70255504  0.52371132  1
  O  O8  1  0.40272859  0.82115628  0.52371132  1
  O  O9  1  0.87901727  0.97628868  0.79744496  1
  O  O10  1  0.97628868  0.79744496  0.87901727  1
  O  O11  1  0.08157230  0.70255504  0.67884372  1
  O  O12  1  0.62098273  0.41842770  0.09727141  1
  O  O13  1  0.52371132  0.40272859  0.82115628  1
  O  O14  1  0.67884372  0.08157230  0.70255504  1
  O  O15  1  0.41842770  0.09727141  0.62098273  1
  O  O16  1  0.82115628  0.52371132  0.40272859  1
  O  O17  1  0.40272859  0.08157230  0.87901727  1
  O  O18  1  0.09727141  0.97628868  0.67884372  1
  O  O19  1  0.59727141  0.17884372  0.47628868  1
  O  O20  1  0.97628868  0.67884372  0.09727141  1
  O  O21  1  0.82115628  0.79744496  0.41842770  1
  O  O22  1  0.87901727  0.40272859  0.08157230  1
  O  O23  1  0.79744496  0.87901727  0.97628868  1
  O  O24  1  0.20255504  0.58157230  0.17884372  1
  O  O25  1  0.91842770  0.12098273  0.59727141  1
  O  O26  1  0.32115628  0.90272859  0.02371132  1
  O  O27  1  0.29744496  0.47628868  0.37901727  1
  O  O28  1  0.29744496  0.32115628  0.91842770  1
  O  O29  1  0.47628868  0.37901727  0.29744496  1
  O  O30  1  0.90272859  0.37901727  0.58157230  1
  O  O31  1  0.37901727  0.29744496  0.47628868  1
  O  O32  1  0.20255504  0.12098273  0.02371132  1
  O  O33  1  0.12098273  0.59727141  0.91842770  1
  O  O34  1  0.17884372  0.20255504  0.58157230  1
  O  O35  1  0.58157230  0.17884372  0.20255504  1
  O  O36  1  0.02371132  0.32115628  0.90272859  1
  O  O37  1  0.90272859  0.02371132  0.32115628  1
  O  O38  1  0.59727141  0.91842770  0.12098273  1
  O  O39  1  0.17884372  0.47628868  0.59727141  1
  O  O40  1  0.58157230  0.90272859  0.37901727  1
  O  O41  1  0.32115628  0.91842770  0.29744496  1
  O  O42  1  0.47628868  0.59727141  0.17884372  1
  O  O43  1  0.37901727  0.58157230  0.90272859  1
  O  O44  1  0.91842770  0.29744496  0.32115628  1
  O  O45  1  0.02371132  0.20255504  0.12098273  1
  O  O46  1  0.12098273  0.02371132  0.20255504  1
  O  O47  1  0.41842770  0.82115628  0.79744496  1
  Al  Al48  1  0.00000000  0.00000000  0.00000000  1
  Al  Al49  1  0.00000000  0.50000000  0.00000000  1
  Al  Al50  1  0.00000000  0.00000000  0.50000000  1
  Al  Al51  1  0.50000000  0.00000000  0.00000000  1
  Al  Al52  1  0.00000000  0.50000000  0.50000000  1
  Al  Al53  1  0.50000000  0.00000000  0.50000000  1
  Al  Al54  1  0.50000000  0.50000000  0.00000000  1
  Al  Al55  1  0.50000000  0.50000000  0.50000000  1
  Al  Al56  1  0.25000000  0.62500000  0.37500000  1
  Al  Al57  1  0.62500000  0.75000000  0.37500000  1
  Al  Al58  1  0.87500000  0.25000000  0.12500000  1
  Al  Al59  1  0.12500000  0.87500000  0.25000000  1
  Al  Al60  1  0.25000000  0.12500000  0.87500000  1
  Al  Al61  1  0.75000000  0.87500000  0.12500000  1
  Al  Al62  1  0.37500000  0.25000000  0.62500000  1
  Al  Al63  1  0.62500000  0.37500000  0.25000000  1
  Al  Al64  1  0.12500000  0.75000000  0.87500000  1
  Al  Al65  1  0.87500000  0.12500000  0.75000000  1
  Al  Al66  1  0.75000000  0.37500000  0.62500000  1
  Al  Al67  1  0.37500000  0.62500000  0.75000000  1
  Lu  Lu68  1  0.25000000  0.37500000  0.12500000  1
  Lu  Lu69  1  0.37500000  0.75000000  0.12500000  1
  Lu  Lu70  1  0.12500000  0.25000000  0.37500000  1
  Lu  Lu71  1  0.37500000  0.12500000  0.25000000  1
  Lu  Lu72  1  0.12500000  0.37500000  0.75000000  1
  Lu  Lu73  1  0.75000000  0.12500000  0.37500000  1
  Lu  Lu74  1  0.75000000  0.62500000  0.87500000  1
  Lu  Lu75  1  0.62500000  0.25000000  0.87500000  1
  Lu  Lu76  1  0.87500000  0.75000000  0.62500000  1
  Lu  Lu77  1  0.62500000  0.87500000  0.75000000  1
  Lu  Lu78  1  0.87500000  0.62500000  0.25000000  1
  Lu  Lu79  1  0.25000000  0.87500000  0.62500000  1
