# generated using pymatgen
data_SrGa2(SiO4)2
_symmetry_space_group_name_H-M   'P 1'
_cell_length_a   8.50430951
_cell_length_b   9.13560802
_cell_length_c   9.61765926
_cell_angle_alpha   90.00000000
_cell_angle_beta   90.00000000
_cell_angle_gamma   90.68364011
_symmetry_Int_Tables_number   1
_chemical_formula_structural   SrGa2(SiO4)2
_chemical_formula_sum   'Sr4 Ga8 Si8 O32'
_cell_volume   747.16236184
_cell_formula_units_Z   4
loop_
 _symmetry_equiv_pos_site_id
 _symmetry_equiv_pos_as_xyz
  1  'x, y, z'
loop_
 _atom_site_type_symbol
 _atom_site_label
 _atom_site_symmetry_multiplicity
 _atom_site_fract_x
 _atom_site_fract_y
 _atom_site_fract_z
 _atom_site_occupancy
  O  O0  1  0.73631714  0.81828786  0.57578114  1
  O  O1  1  0.26368286  0.68171214  0.07578114  1
  O  O2  1  0.26368286  0.18171214  0.42421886  1
  O  O3  1  0.73631714  0.31828786  0.92421886  1
  O  O4  1  0.77440818  0.50714592  0.35383220  1
  O  O5  1  0.22559182  0.99285408  0.85383220  1
  O  O6  1  0.22559182  0.49285408  0.64616780  1
  O  O7  1  0.77440818  0.00714592  0.14616780  1
  O  O8  1  0.43649731  0.39379250  0.30584897  1
  O  O9  1  0.56350269  0.10620750  0.80584897  1
  O  O10  1  0.56350269  0.60620750  0.69415103  1
  O  O11  1  0.43649731  0.89379250  0.19415103  1
  O  O12  1  0.07304694  0.42819106  0.30101181  1
  O  O13  1  0.92695306  0.07180894  0.80101181  1
  O  O14  1  0.92695306  0.57180894  0.69898819  1
  O  O15  1  0.07304694  0.92819106  0.19898819  1
  O  O16  1  0.55908426  0.62495602  0.12836238  1
  O  O17  1  0.44091574  0.87504398  0.62836238  1
  O  O18  1  0.44091574  0.37504398  0.87163762  1
  O  O19  1  0.55908426  0.12495602  0.37163762  1
  O  O20  1  0.01565311  0.19303777  0.09732680  1
  O  O21  1  0.98434689  0.30696223  0.59732680  1
  O  O22  1  0.98434689  0.80696223  0.90267320  1
  O  O23  1  0.01565311  0.69303777  0.40267320  1
  O  O24  1  0.48857222  0.19001703  0.06808584  1
  O  O25  1  0.51142778  0.30998297  0.56808584  1
  O  O26  1  0.51142778  0.80998297  0.93191416  1
  O  O27  1  0.48857222  0.69001703  0.43191416  1
  O  O28  1  0.93838291  0.12166665  0.36363562  1
  O  O29  1  0.06161709  0.37833335  0.86363562  1
  O  O30  1  0.06161709  0.87833335  0.63636438  1
  O  O31  1  0.93838291  0.62166665  0.13636438  1
  Si  Si32  1  0.55973942  0.74190088  0.58262391  1
  Si  Si33  1  0.44026058  0.75809912  0.08262391  1
  Si  Si34  1  0.44026058  0.25809912  0.41737609  1
  Si  Si35  1  0.55973942  0.24190088  0.91737609  1
  Si  Si36  1  0.05421343  0.93703333  0.79863966  1
  Si  Si37  1  0.94578657  0.56296667  0.29863966  1
  Si  Si38  1  0.94578657  0.06296667  0.20136034  1
  Si  Si39  1  0.05421343  0.43703333  0.70136034  1
  Ga  Ga40  1  0.57306913  0.55442111  0.30949958  1
  Ga  Ga41  1  0.42693087  0.94557889  0.80949958  1
  Ga  Ga42  1  0.42693087  0.44557889  0.69050042  1
  Ga  Ga43  1  0.57306913  0.05442111  0.19050042  1
  Ga  Ga44  1  0.06992347  0.77406994  0.07595873  1
  Ga  Ga45  1  0.93007653  0.72593006  0.57595873  1
  Ga  Ga46  1  0.93007653  0.22593006  0.92404127  1
  Ga  Ga47  1  0.06992347  0.27406994  0.42404127  1
  Sr  Sr48  1  0.25146388  0.38900634  0.08543460  1
  Sr  Sr49  1  0.74853612  0.11099366  0.58543460  1
  Sr  Sr50  1  0.74853612  0.61099366  0.91456540  1
  Sr  Sr51  1  0.25146388  0.88900634  0.41456540  1
