# generated using pymatgen
data_Tl2GeSe3
_symmetry_space_group_name_H-M   'P 1'
_cell_length_a   7.09330987
_cell_length_b   7.23949244
_cell_length_c   8.95971386
_cell_angle_alpha   89.58571866
_cell_angle_beta   111.77099074
_cell_angle_gamma   113.55201542
_symmetry_Int_Tables_number   1
_chemical_formula_structural   Tl2GeSe3
_chemical_formula_sum   'Tl4 Ge2 Se6'
_cell_volume   386.28048595
_cell_formula_units_Z   2
loop_
 _symmetry_equiv_pos_site_id
 _symmetry_equiv_pos_as_xyz
  1  'x, y, z'
loop_
 _atom_site_type_symbol
 _atom_site_label
 _atom_site_symmetry_multiplicity
 _atom_site_fract_x
 _atom_site_fract_y
 _atom_site_fract_z
 _atom_site_occupancy
  Ge  Ge0  1  0.42917087  0.54954054  0.31535710  1
  Ge  Ge1  1  0.57082913  0.45045946  0.68464290  1
  Se  Se2  1  0.76290396  0.70778912  0.91417184  1
  Se  Se3  1  0.23709604  0.29221088  0.08582816  1
  Se  Se4  1  0.51320267  0.88677869  0.26498516  1
  Se  Se5  1  0.48679733  0.11322131  0.73501484  1
  Se  Se6  1  0.22650462  0.46281054  0.49346246  1
  Se  Se7  1  0.77349538  0.53718946  0.50653754  1
  Tl  Tl8  1  0.72964311  0.31901452  0.10196627  1
  Tl  Tl9  1  0.27035689  0.68098548  0.89803373  1
  Tl  Tl10  1  0.86851146  0.04282530  0.66745984  1
  Tl  Tl11  1  0.13148854  0.95717470  0.33254016  1
