# generated using pymatgen
data_Tl2SiSe3
_symmetry_space_group_name_H-M   'P 1'
_cell_length_a   7.17421817
_cell_length_b   7.08311699
_cell_length_c   8.91911846
_cell_angle_alpha   112.04991404
_cell_angle_beta   89.45585019
_cell_angle_gamma   112.91172798
_symmetry_Int_Tables_number   1
_chemical_formula_structural   Tl2SiSe3
_chemical_formula_sum   'Tl4 Si2 Se6'
_cell_volume   381.95036406
_cell_formula_units_Z   2
loop_
 _symmetry_equiv_pos_site_id
 _symmetry_equiv_pos_as_xyz
  1  'x, y, z'
loop_
 _atom_site_type_symbol
 _atom_site_label
 _atom_site_symmetry_multiplicity
 _atom_site_fract_x
 _atom_site_fract_y
 _atom_site_fract_z
 _atom_site_occupancy
  Si  Si0  1  0.45179888  0.56792096  0.67765949  1
  Si  Si1  1  0.54820112  0.43207904  0.32234051  1
  Se  Se2  1  0.30345674  0.24781042  0.09877140  1
  Se  Se3  1  0.69654326  0.75218958  0.90122860  1
  Se  Se4  1  0.12650272  0.48599506  0.72955477  1
  Se  Se5  1  0.87349728  0.51400494  0.27044523  1
  Se  Se6  1  0.52931413  0.76147641  0.50586946  1
  Se  Se7  1  0.47068587  0.23852359  0.49413054  1
  Tl  Tl8  1  0.67940421  0.27220513  0.90066967  1
  Tl  Tl9  1  0.32059579  0.72779487  0.09933033  1
  Tl  Tl10  1  0.95807526  0.13519992  0.33406514  1
  Tl  Tl11  1  0.04192474  0.86480008  0.66593486  1
