# generated using pymatgen
data_Ba(ZnSb)2
_symmetry_space_group_name_H-M   'P 1'
_cell_length_a   4.56016695
_cell_length_b   10.71026479
_cell_length_c   11.76650458
_cell_angle_alpha   90.00000000
_cell_angle_beta   90.00000000
_cell_angle_gamma   90.00000000
_symmetry_Int_Tables_number   1
_chemical_formula_structural   Ba(ZnSb)2
_chemical_formula_sum   'Ba4 Zn8 Sb8'
_cell_volume   574.68309089
_cell_formula_units_Z   4
loop_
 _symmetry_equiv_pos_site_id
 _symmetry_equiv_pos_as_xyz
  1  'x, y, z'
loop_
 _atom_site_type_symbol
 _atom_site_label
 _atom_site_symmetry_multiplicity
 _atom_site_fract_x
 _atom_site_fract_y
 _atom_site_fract_z
 _atom_site_occupancy
  Zn  Zn0  1  0.75000000  0.40277292  0.04739895  1
  Zn  Zn1  1  0.25000000  0.59722708  0.95260105  1
  Zn  Zn2  1  0.25000000  0.09722708  0.54739895  1
  Zn  Zn3  1  0.75000000  0.90277292  0.45260105  1
  Zn  Zn4  1  0.75000000  0.94576470  0.87997885  1
  Zn  Zn5  1  0.25000000  0.05423530  0.12002115  1
  Zn  Zn6  1  0.75000000  0.44576470  0.62002115  1
  Zn  Zn7  1  0.25000000  0.55423530  0.37997885  1
  Sb  Sb8  1  0.75000000  0.65017727  0.46518571  1
  Sb  Sb9  1  0.25000000  0.34982273  0.53481429  1
  Sb  Sb10  1  0.25000000  0.84982273  0.96518571  1
  Sb  Sb11  1  0.75000000  0.15017727  0.03481429  1
  Sb  Sb12  1  0.75000000  0.52562155  0.83776661  1
  Sb  Sb13  1  0.25000000  0.47437845  0.16223339  1
  Sb  Sb14  1  0.75000000  0.02562155  0.66223339  1
  Sb  Sb15  1  0.25000000  0.97437845  0.33776661  1
  Ba  Ba16  1  0.25000000  0.74707644  0.67992754  1
  Ba  Ba17  1  0.75000000  0.25292356  0.32007246  1
  Ba  Ba18  1  0.25000000  0.24707644  0.82007246  1
  Ba  Ba19  1  0.75000000  0.75292356  0.17992754  1
