# generated using pymatgen
data_LiFe4(PO4)3
_symmetry_space_group_name_H-M   'P 1'
_cell_length_a   9.03534876
_cell_length_b   10.41508131
_cell_length_c   8.97555301
_cell_angle_alpha   115.52419004
_cell_angle_beta   60.21868583
_cell_angle_gamma   116.21985965
_symmetry_Int_Tables_number   1
_chemical_formula_structural   LiFe4(PO4)3
_chemical_formula_sum   'Li2 Fe8 P6 O24'
_cell_volume   632.93699850
_cell_formula_units_Z   2
loop_
 _symmetry_equiv_pos_site_id
 _symmetry_equiv_pos_as_xyz
  1  'x, y, z'
loop_
 _atom_site_type_symbol
 _atom_site_label
 _atom_site_symmetry_multiplicity
 _atom_site_fract_x
 _atom_site_fract_y
 _atom_site_fract_z
 _atom_site_occupancy
  Li  Li0  1  0.01638669  0.03279312  0.00698127  1
  Li  Li1  1  0.51638669  0.53279312  0.50942516  1
  Fe  Fe2  1  0.31394632  0.99308449  0.03369184  1
  Fe  Fe3  1  0.03278405  0.99207371  0.64770225  1
  Fe  Fe4  1  0.15149649  0.45896599  0.15669974  1
  Fe  Fe5  1  0.14963297  0.49032468  0.53474072  1
  Fe  Fe6  1  0.64963297  0.99032468  0.30595100  1
  Fe  Fe7  1  0.81394632  0.49308449  0.14544534  1
  Fe  Fe8  1  0.53278405  0.49207371  0.81158641  1
  Fe  Fe9  1  0.65149649  0.95896599  0.65076976  1
  P  P10  1  0.28097938  0.86022286  0.64283972  1
  P  P11  1  0.43326322  0.36044269  0.14529525  1
  P  P12  1  0.14355344  0.35777228  0.78317965  1
  P  P13  1  0.93326322  0.86044269  0.28188321  1
  P  P14  1  0.64355344  0.85777228  0.93103919  1
  P  P15  1  0.78097938  0.36022286  0.43640476  1
  O  O16  1  0.12954152  0.86273487  0.18826900  1
  O  O17  1  0.18220796  0.86006924  0.54459111  1
  O  O18  1  0.39227019  0.44356114  0.06049154  1
  O  O19  1  0.30914413  0.20061987  0.12230027  1
  O  O20  1  0.21677577  0.94816480  0.84206502  1
  O  O21  1  0.54287953  0.85378643  0.12688953  1
  O  O22  1  0.39095855  0.44821793  0.34463607  1
  O  O23  1  0.26906263  0.70167630  0.62008066  1
  O  O24  1  0.04287953  0.35378643  0.68401637  1
  O  O25  1  0.48936543  0.94554688  0.55686317  1
  O  O26  1  0.06027593  0.44390698  0.99048083  1
  O  O27  1  0.62954152  0.36273487  0.04492534  1
  O  O28  1  0.89095855  0.94821793  0.21262332  1
  O  O29  1  0.80914413  0.70061987  0.26917546  1
  O  O30  1  0.11984792  0.20037052  0.77680685  1
  O  O31  1  0.34268589  0.44703923  0.71344180  1
  O  O32  1  0.56027593  0.94390698  0.89315022  1
  O  O33  1  0.89227019  0.94356114  0.49079941  1
  O  O34  1  0.71677577  0.44816480  0.38932400  1
  O  O35  1  0.61984792  0.70037052  0.80371574  1
  O  O36  1  0.76906263  0.20167630  0.31253301  1
  O  O37  1  0.68220796  0.36006924  0.63327016  1
  O  O38  1  0.84268589  0.94703923  0.89091154  1
  O  O39  1  0.98936543  0.44554688  0.39931928  1
