# generated using pymatgen
data_SmNbO4
_symmetry_space_group_name_H-M   'P 1'
_cell_length_a   5.21643780
_cell_length_b   5.43876532
_cell_length_c   6.74908742
_cell_angle_alpha   112.26324842
_cell_angle_beta   111.18411599
_cell_angle_gamma   93.56994063
_symmetry_Int_Tables_number   1
_chemical_formula_structural   SmNbO4
_chemical_formula_sum   'Sm2 Nb2 O8'
_cell_volume   160.76770509
_cell_formula_units_Z   2
loop_
 _symmetry_equiv_pos_site_id
 _symmetry_equiv_pos_as_xyz
  1  'x, y, z'
loop_
 _atom_site_type_symbol
 _atom_site_label
 _atom_site_symmetry_multiplicity
 _atom_site_fract_x
 _atom_site_fract_y
 _atom_site_fract_z
 _atom_site_occupancy
  O  O0  1  0.97887205  0.78601751  0.56653984  1
  O  O1  1  0.58766779  0.28052233  0.56653984  1
  O  O2  1  0.02112795  0.21398249  0.43346016  1
  O  O3  1  0.41233221  0.71947767  0.43346016  1
  O  O4  1  0.20594563  0.36469563  0.91709717  1
  O  O5  1  0.71115154  0.05240154  0.91709717  1
  O  O6  1  0.79405437  0.63530437  0.08290283  1
  O  O7  1  0.28884846  0.94759846  0.08290283  1
  Nb  Nb8  1  0.85867433  0.10867433  0.71734867  1
  Nb  Nb9  1  0.14132567  0.89132567  0.28265133  1
  Sm  Sm10  1  0.37796853  0.62796853  0.75593705  1
  Sm  Sm11  1  0.62203147  0.37203147  0.24406295  1
