# generated using pymatgen
data_Ba3P4
_symmetry_space_group_name_H-M   'P 1'
_cell_length_a   6.23987231
_cell_length_b   8.13218249
_cell_length_c   9.72635779
_cell_angle_alpha   82.93098247
_cell_angle_beta   71.29042549
_cell_angle_gamma   67.43985808
_symmetry_Int_Tables_number   1
_chemical_formula_structural   Ba3P4
_chemical_formula_sum   'Ba6 P8'
_cell_volume   431.69908576
_cell_formula_units_Z   2
loop_
 _symmetry_equiv_pos_site_id
 _symmetry_equiv_pos_as_xyz
  1  'x, y, z'
loop_
 _atom_site_type_symbol
 _atom_site_label
 _atom_site_symmetry_multiplicity
 _atom_site_fract_x
 _atom_site_fract_y
 _atom_site_fract_z
 _atom_site_occupancy
  P  P0  1  0.42011484  0.65549971  0.49391539  1
  P  P1  1  0.56952994  0.34450029  0.50608461  1
  P  P2  1  0.82561455  0.84450029  0.99391539  1
  P  P3  1  0.66403023  0.15549971  0.00608461  1
  P  P4  1  0.34883219  0.19366092  0.65165436  1
  P  P5  1  0.19414747  0.80633908  0.34834564  1
  P  P6  1  0.75048654  0.69366092  0.84834564  1
  P  P7  1  0.29249311  0.30633908  0.15165436  1
  Ba  Ba8  1  0.59153198  0.99087927  0.33717353  1
  Ba  Ba9  1  0.91958478  0.00912073  0.66282647  1
  Ba  Ba10  1  0.33241125  0.50912073  0.83717353  1
  Ba  Ba11  1  0.67870551  0.49087927  0.16282647  1
  Ba  Ba12  1  0.00361881  0.50000000  0.50000000  1
  Ba  Ba13  1  0.25361881  0.00000000  0.00000000  1
