# generated using pymatgen
data_Ga2Sn2S5
_symmetry_space_group_name_H-M   'P 1'
_cell_length_a   6.39807617
_cell_length_b   11.02564109
_cell_length_c   12.70926781
_cell_angle_alpha   90.00000000
_cell_angle_beta   90.00000000
_cell_angle_gamma   90.00000000
_symmetry_Int_Tables_number   1
_chemical_formula_structural   Ga2Sn2S5
_chemical_formula_sum   'Ga8 Sn8 S20'
_cell_volume   896.54850038
_cell_formula_units_Z   4
loop_
 _symmetry_equiv_pos_site_id
 _symmetry_equiv_pos_as_xyz
  1  'x, y, z'
loop_
 _atom_site_type_symbol
 _atom_site_label
 _atom_site_symmetry_multiplicity
 _atom_site_fract_x
 _atom_site_fract_y
 _atom_site_fract_z
 _atom_site_occupancy
  S  S0  1  0.47809372  0.96592629  0.67241771  1
  S  S1  1  0.52190628  0.46592629  0.32758229  1
  S  S2  1  0.02190628  0.96592629  0.17241771  1
  S  S3  1  0.97809372  0.46592629  0.82758229  1
  S  S4  1  0.50592625  0.80205383  0.22620640  1
  S  S5  1  0.49407375  0.30205383  0.77379360  1
  S  S6  1  0.99407375  0.80205383  0.72620640  1
  S  S7  1  0.00592625  0.30205383  0.27379360  1
  S  S8  1  0.14282478  0.53768918  0.56159565  1
  S  S9  1  0.85717522  0.03768918  0.43840435  1
  S  S10  1  0.35717522  0.53768918  0.06159565  1
  S  S11  1  0.64282478  0.03768918  0.93840435  1
  S  S12  1  0.64043594  0.72183527  0.50688209  1
  S  S13  1  0.35956406  0.22183527  0.49311791  1
  S  S14  1  0.85956406  0.72183527  0.00688209  1
  S  S15  1  0.14043594  0.22183527  0.99311791  1
  S  S16  1  0.98855279  0.13929720  0.71195098  1
  S  S17  1  0.01144721  0.63929720  0.28804902  1
  S  S18  1  0.51144721  0.13929720  0.21195098  1
  S  S19  1  0.48855279  0.63929720  0.78804902  1
  Ga  Ga20  1  0.64651396  0.11490194  0.76819673  1
  Ga  Ga21  1  0.35348604  0.61490194  0.23180327  1
  Ga  Ga22  1  0.85348604  0.11490194  0.26819673  1
  Ga  Ga23  1  0.14651396  0.61490194  0.73180327  1
  Ga  Ga24  1  0.15188100  0.28090940  0.81816634  1
  Ga  Ga25  1  0.84811900  0.78090940  0.18183366  1
  Ga  Ga26  1  0.34811900  0.28090940  0.31816634  1
  Ga  Ga27  1  0.65188100  0.78090940  0.68183366  1
  Sn  Sn28  1  0.54389938  0.48121224  0.53882877  1
  Sn  Sn29  1  0.45610062  0.98121224  0.46117123  1
  Sn  Sn30  1  0.95610062  0.48121224  0.03882877  1
  Sn  Sn31  1  0.04389938  0.98121224  0.96117123  1
  Sn  Sn32  1  0.55001785  0.25657464  0.01766649  1
  Sn  Sn33  1  0.44998215  0.75657464  0.98233351  1
  Sn  Sn34  1  0.94998215  0.25657464  0.51766649  1
  Sn  Sn35  1  0.05001785  0.75657464  0.48233351  1
