# generated using pymatgen
data_Ni5Ge3
_symmetry_space_group_name_H-M   'P 1'
_cell_length_a   6.34925042
_cell_length_b   6.36882548
_cell_length_c   6.36882533
_cell_angle_alpha   63.69788305
_cell_angle_beta   64.07301173
_cell_angle_gamma   64.07300499
_symmetry_Int_Tables_number   1
_chemical_formula_structural   Ni5Ge3
_chemical_formula_sum   'Ni10 Ge6'
_cell_volume   197.94252028
_cell_formula_units_Z   2
loop_
 _symmetry_equiv_pos_site_id
 _symmetry_equiv_pos_as_xyz
  1  'x, y, z'
loop_
 _atom_site_type_symbol
 _atom_site_label
 _atom_site_symmetry_multiplicity
 _atom_site_fract_x
 _atom_site_fract_y
 _atom_site_fract_z
 _atom_site_occupancy
  Ni  Ni0  1  0.60480987  0.24540206  0.90002398  1
  Ni  Ni1  1  0.39519013  0.09997602  0.75459794  1
  Ni  Ni2  1  0.89673875  0.58999011  0.26277469  1
  Ni  Ni3  1  0.10326125  0.73722531  0.41000989  1
  Ni  Ni4  1  0.24840224  0.91746915  0.58408546  1
  Ni  Ni5  1  0.75159776  0.41591454  0.08253085  1
  Ni  Ni6  1  0.16601724  0.17886660  0.17005634  1
  Ni  Ni7  1  0.83398276  0.82994366  0.82113340  1
  Ni  Ni8  1  0.33748326  0.65605120  0.99548142  1
  Ni  Ni9  1  0.66251674  0.00451858  0.34394880  1
  Ge  Ge10  1  1.00000000  0.02086485  0.97913515  1
  Ge  Ge11  1  0.50000000  0.81227035  0.18772965  1
  Ge  Ge12  1  0.29666561  0.33382736  0.36878574  1
  Ge  Ge13  1  0.70333439  0.63121426  0.66617264  1
  Ge  Ge14  1  0.20197422  0.50252751  0.79806155  1
  Ge  Ge15  1  0.79802578  0.20193845  0.49747249  1
