# generated using pymatgen
data_Sr2InF7
_symmetry_space_group_name_H-M   'P 1'
_cell_length_a   5.59825893
_cell_length_b   8.41229081
_cell_length_c   12.44248138
_cell_angle_alpha   90.00000000
_cell_angle_beta   90.00000000
_cell_angle_gamma   90.59506952
_symmetry_Int_Tables_number   1
_chemical_formula_structural   Sr2InF7
_chemical_formula_sum   'Sr8 In4 F28'
_cell_volume   585.93688088
_cell_formula_units_Z   4
loop_
 _symmetry_equiv_pos_site_id
 _symmetry_equiv_pos_as_xyz
  1  'x, y, z'
loop_
 _atom_site_type_symbol
 _atom_site_label
 _atom_site_symmetry_multiplicity
 _atom_site_fract_x
 _atom_site_fract_y
 _atom_site_fract_z
 _atom_site_occupancy
  F  F0  1  0.19861448  0.03165060  0.86064381  1
  F  F1  1  0.80138552  0.46834940  0.36064381  1
  F  F2  1  0.80138552  0.96834940  0.13935619  1
  F  F3  1  0.19861448  0.53165060  0.63935619  1
  F  F4  1  0.62709801  0.37341966  0.57386011  1
  F  F5  1  0.37290199  0.12658034  0.07386011  1
  F  F6  1  0.37290199  0.62658034  0.42613989  1
  F  F7  1  0.62709801  0.87341966  0.92613989  1
  F  F8  1  0.50825067  0.70639883  0.22756339  1
  F  F9  1  0.49174933  0.79360117  0.72756339  1
  F  F10  1  0.49174933  0.29360117  0.77243661  1
  F  F11  1  0.50825067  0.20639883  0.27243661  1
  F  F12  1  0.50856657  0.92729712  0.39561347  1
  F  F13  1  0.49143343  0.57270288  0.89561347  1
  F  F14  1  0.49143343  0.07270288  0.60438653  1
  F  F15  1  0.50856657  0.42729712  0.10438653  1
  F  F16  1  0.98835620  0.69522764  0.24409000  1
  F  F17  1  0.01164380  0.80477236  0.74409000  1
  F  F18  1  0.01164380  0.30477236  0.75591000  1
  F  F19  1  0.98835620  0.19522764  0.25591000  1
  F  F20  1  0.98688510  0.91156474  0.39539506  1
  F  F21  1  0.01311490  0.58843526  0.89539506  1
  F  F22  1  0.01311490  0.08843526  0.60460494  1
  F  F23  1  0.98688510  0.41156474  0.10460494  1
  F  F24  1  0.19431372  0.78824295  0.04120544  1
  F  F25  1  0.80568628  0.71175705  0.54120544  1
  F  F26  1  0.80568628  0.21175705  0.95879456  1
  F  F27  1  0.19431372  0.28824295  0.45879456  1
  Sr  Sr28  1  0.23318807  0.44721476  0.27935240  1
  Sr  Sr29  1  0.76681193  0.05278524  0.77935240  1
  Sr  Sr30  1  0.76681193  0.55278524  0.72064760  1
  Sr  Sr31  1  0.23318807  0.94721476  0.22064760  1
  Sr  Sr32  1  0.76574081  0.67684942  0.06145134  1
  Sr  Sr33  1  0.23425919  0.82315058  0.56145134  1
  Sr  Sr34  1  0.23425919  0.32315058  0.93854866  1
  Sr  Sr35  1  0.76574081  0.17684942  0.43854866  1
  In  In36  1  0.72110092  0.71439705  0.37447138  1
  In  In37  1  0.27889908  0.78560295  0.87447138  1
  In  In38  1  0.27889908  0.28560295  0.62552862  1
  In  In39  1  0.72110092  0.21439705  0.12552862  1
