# generated using pymatgen
data_Li3Fe2Ni3O10
_symmetry_space_group_name_H-M   'P 1'
_cell_length_a   5.06924033
_cell_length_b   5.04801433
_cell_length_c   7.70430527
_cell_angle_alpha   109.19739554
_cell_angle_beta   101.76901458
_cell_angle_gamma   100.30115844
_symmetry_Int_Tables_number   1
_chemical_formula_structural   Li3Fe2Ni3O10
_chemical_formula_sum   'Li3 Fe2 Ni3 O10'
_cell_volume   175.70798905
_cell_formula_units_Z   1
loop_
 _symmetry_equiv_pos_site_id
 _symmetry_equiv_pos_as_xyz
  1  'x, y, z'
loop_
 _atom_site_type_symbol
 _atom_site_label
 _atom_site_symmetry_multiplicity
 _atom_site_fract_x
 _atom_site_fract_y
 _atom_site_fract_z
 _atom_site_occupancy
  Li  Li0  1  0.23703295  0.94779209  0.42874342  1
  Li  Li1  1  0.60543937  0.69832290  0.21520109  1
  Li  Li2  1  0.76936702  0.09574554  0.59965314  1
  Fe  Fe3  1  0.10916154  0.70041213  0.69016589  1
  Fe  Fe4  1  0.89159754  0.30118184  0.30626018  1
  Ni  Ni5  1  0.00422029  0.49614362  0.99707805  1
  Ni  Ni6  1  0.69359369  0.88501104  0.89679225  1
  Ni  Ni7  1  0.29702070  0.10445230  0.09724238  1
  O  O8  1  0.04071648  0.08801992  0.86138593  1
  O  O9  1  0.09401822  0.29726661  0.52714877  1
  O  O10  1  0.33357034  0.73354993  0.95307600  1
  O  O11  1  0.43931499  0.87928095  0.66702158  1
  O  O12  1  0.22238918  0.46425337  0.21970883  1
  O  O13  1  0.80611735  0.52072059  0.76854250  1
  O  O14  1  0.54758709  0.09783768  0.32138595  1
  O  O15  1  0.68021164  0.29981391  0.06951575  1
  O  O16  1  0.89393719  0.69657830  0.45295418  1
  O  O17  1  0.94691139  0.90054128  0.14082012  1
