# generated using pymatgen
data_Cd3TeO6
_symmetry_space_group_name_H-M   'P 1'
_cell_length_a   5.59132426
_cell_length_b   5.73240452
_cell_length_c   8.22130878
_cell_angle_alpha   90.00000000
_cell_angle_beta   89.84781865
_cell_angle_gamma   90.00000000
_symmetry_Int_Tables_number   1
_chemical_formula_structural   Cd3TeO6
_chemical_formula_sum   'Cd6 Te2 O12'
_cell_volume   263.50626019
_cell_formula_units_Z   2
loop_
 _symmetry_equiv_pos_site_id
 _symmetry_equiv_pos_as_xyz
  1  'x, y, z'
loop_
 _atom_site_type_symbol
 _atom_site_label
 _atom_site_symmetry_multiplicity
 _atom_site_fract_x
 _atom_site_fract_y
 _atom_site_fract_z
 _atom_site_occupancy
  O  O0  1  0.66708586  0.22199225  0.41699371  1
  O  O1  1  0.83291414  0.72199225  0.08300629  1
  O  O2  1  0.33291414  0.77800775  0.58300629  1
  O  O3  1  0.16708586  0.27800775  0.91699371  1
  O  O4  1  0.21109489  0.32284422  0.55008388  1
  O  O5  1  0.28890511  0.82284422  0.94991612  1
  O  O6  1  0.78890511  0.67715578  0.44991612  1
  O  O7  1  0.71109489  0.17715578  0.05008388  1
  O  O8  1  0.12017909  0.07555510  0.22038030  1
  O  O9  1  0.37982091  0.57555510  0.27961970  1
  O  O10  1  0.87982091  0.92444490  0.77961970  1
  O  O11  1  0.62017909  0.42444490  0.72038030  1
  Cd  Cd12  1  0.01205703  0.54496254  0.74053758  1
  Cd  Cd13  1  0.48794297  0.04496254  0.75946242  1
  Cd  Cd14  1  0.98794297  0.45503746  0.25946242  1
  Cd  Cd15  1  0.51205703  0.95503746  0.24053758  1
  Cd  Cd16  1  0.50000000  0.50000000  0.00000000  1
  Cd  Cd17  1  0.00000000  0.00000000  0.50000000  1
  Te  Te18  1  0.50000000  0.50000000  0.50000000  1
  Te  Te19  1  0.00000000  0.00000000  0.00000000  1
