# generated using pymatgen
data_RhPb2F7
_symmetry_space_group_name_H-M   'P 1'
_cell_length_a   5.69439964
_cell_length_b   9.03287805
_cell_length_c   12.02533399
_cell_angle_alpha   90.00000000
_cell_angle_beta   90.00000000
_cell_angle_gamma   90.66320626
_symmetry_Int_Tables_number   1
_chemical_formula_structural   RhPb2F7
_chemical_formula_sum   'Rh4 Pb8 F28'
_cell_volume   618.50347380
_cell_formula_units_Z   4
loop_
 _symmetry_equiv_pos_site_id
 _symmetry_equiv_pos_as_xyz
  1  'x, y, z'
loop_
 _atom_site_type_symbol
 _atom_site_label
 _atom_site_symmetry_multiplicity
 _atom_site_fract_x
 _atom_site_fract_y
 _atom_site_fract_z
 _atom_site_occupancy
  F  F0  1  0.99302794  0.77416699  0.77669323  1
  F  F1  1  0.00697206  0.72583301  0.27669323  1
  F  F2  1  0.00697206  0.22583301  0.22330677  1
  F  F3  1  0.99302794  0.27416699  0.72330677  1
  F  F4  1  0.49568388  0.30945419  0.77074565  1
  F  F5  1  0.50431612  0.19054581  0.27074565  1
  F  F6  1  0.50431612  0.69054581  0.22925435  1
  F  F7  1  0.49568388  0.80945419  0.72925435  1
  F  F8  1  0.20843430  0.47703273  0.33563534  1
  F  F9  1  0.79156570  0.02296727  0.83563534  1
  F  F10  1  0.79156570  0.52296727  0.66436466  1
  F  F11  1  0.20843430  0.97703273  0.16436466  1
  F  F12  1  0.89531423  0.99399854  0.39396875  1
  F  F13  1  0.10468577  0.50600146  0.89396875  1
  F  F14  1  0.10468577  0.00600146  0.60603125  1
  F  F15  1  0.89531423  0.49399854  0.10603125  1
  F  F16  1  0.88415739  0.31442882  0.48900221  1
  F  F17  1  0.11584261  0.18557118  0.98900221  1
  F  F18  1  0.11584261  0.68557118  0.51099779  1
  F  F19  1  0.88415739  0.81442882  0.01099779  1
  F  F20  1  0.59705276  0.63163335  0.44713405  1
  F  F21  1  0.40294724  0.86836665  0.94713405  1
  F  F22  1  0.40294724  0.36836665  0.55286595  1
  F  F23  1  0.59705276  0.13163335  0.05286595  1
  F  F24  1  0.41478038  0.89671647  0.40182513  1
  F  F25  1  0.58521962  0.60328353  0.90182513  1
  F  F26  1  0.58521962  0.10328353  0.59817487  1
  F  F27  1  0.41478038  0.39671647  0.09817487  1
  Rh  Rh28  1  0.69702710  0.31229961  0.63208868  1
  Rh  Rh29  1  0.30297290  0.18770039  0.13208868  1
  Rh  Rh30  1  0.30297290  0.68770039  0.36791132  1
  Rh  Rh31  1  0.69702710  0.81229961  0.86791132  1
  Pb  Pb32  1  0.76717865  0.35089981  0.94708840  1
  Pb  Pb33  1  0.23282135  0.14910019  0.44708840  1
  Pb  Pb34  1  0.23282135  0.64910019  0.05291160  1
  Pb  Pb35  1  0.76717865  0.85089981  0.55291160  1
  Pb  Pb36  1  0.21097705  0.04478633  0.79510410  1
  Pb  Pb37  1  0.78902295  0.45521367  0.29510410  1
  Pb  Pb38  1  0.78902295  0.95521367  0.20489590  1
  Pb  Pb39  1  0.21097705  0.54478633  0.70489590  1
