# generated using pymatgen
data_Th(PS3)2
_symmetry_space_group_name_H-M   'P 1'
_cell_length_a   7.11446320
_cell_length_b   7.11446320
_cell_length_c   9.90323762
_cell_angle_alpha   90.00000000
_cell_angle_beta   90.00000000
_cell_angle_gamma   90.00000000
_symmetry_Int_Tables_number   1
_chemical_formula_structural   Th(PS3)2
_chemical_formula_sum   'Th2 P4 S12'
_cell_volume   501.25818161
_cell_formula_units_Z   2
loop_
 _symmetry_equiv_pos_site_id
 _symmetry_equiv_pos_as_xyz
  1  'x, y, z'
loop_
 _atom_site_type_symbol
 _atom_site_label
 _atom_site_symmetry_multiplicity
 _atom_site_fract_x
 _atom_site_fract_y
 _atom_site_fract_z
 _atom_site_occupancy
  P  P0  1  0.64995645  0.05935200  0.00000000  1
  P  P1  1  0.35004355  0.94064800  0.00000000  1
  P  P2  1  0.05935200  0.35004355  0.50000000  1
  P  P3  1  0.94064800  0.64995645  0.50000000  1
  S  S4  1  0.20929267  0.32129273  0.67193402  1
  S  S5  1  0.67870727  0.20929267  0.17193402  1
  S  S6  1  0.17679746  0.17273728  0.00000000  1
  S  S7  1  0.82726272  0.17679746  0.50000000  1
  S  S8  1  0.17273728  0.82320254  0.50000000  1
  S  S9  1  0.82320254  0.82726272  0.00000000  1
  S  S10  1  0.20929267  0.32129273  0.32806598  1
  S  S11  1  0.67870727  0.20929267  0.82806598  1
  S  S12  1  0.32129273  0.79070733  0.82806598  1
  S  S13  1  0.79070733  0.67870727  0.32806598  1
  S  S14  1  0.79070733  0.67870727  0.67193402  1
  S  S15  1  0.32129273  0.79070733  0.17193402  1
  Th  Th16  1  0.00000000  0.00000000  0.75000000  1
  Th  Th17  1  0.00000000  0.00000000  0.25000000  1
