# generated using pymatgen
data_Zr6Ni20P13
_symmetry_space_group_name_H-M   'P 1'
_cell_length_a   12.48719808
_cell_length_b   12.48719808
_cell_length_c   3.63664053
_cell_angle_alpha   90.00000000
_cell_angle_beta   90.00000000
_cell_angle_gamma   119.99999998
_symmetry_Int_Tables_number   1
_chemical_formula_structural   Zr6Ni20P13
_chemical_formula_sum   'Zr6 Ni20 P13'
_cell_volume   491.08990664
_cell_formula_units_Z   1
loop_
 _symmetry_equiv_pos_site_id
 _symmetry_equiv_pos_as_xyz
  1  'x, y, z'
loop_
 _atom_site_type_symbol
 _atom_site_label
 _atom_site_symmetry_multiplicity
 _atom_site_fract_x
 _atom_site_fract_y
 _atom_site_fract_z
 _atom_site_occupancy
  P  P0  1  0.00000000  0.00000000  0.00000000  1
  P  P1  1  0.23242868  0.28519148  0.50000000  1
  P  P2  1  0.71480852  0.94723720  0.50000000  1
  P  P3  1  0.05276280  0.76757132  0.50000000  1
  P  P4  1  0.76632619  0.71322299  0.00000000  1
  P  P5  1  0.28677701  0.05310320  0.00000000  1
  P  P6  1  0.47287005  0.61334993  0.50000000  1
  P  P7  1  0.38665007  0.85952012  0.50000000  1
  P  P8  1  0.86002183  0.47364389  0.00000000  1
  P  P9  1  0.52635611  0.38637794  0.00000000  1
  P  P10  1  0.61362206  0.13997817  0.00000000  1
  P  P11  1  0.94689680  0.23367381  0.00000000  1
  P  P12  1  0.14047988  0.52712995  0.50000000  1
  Ni  Ni13  1  0.41808594  0.97941835  0.00000000  1
  Ni  Ni14  1  0.02058165  0.43866758  0.00000000  1
  Ni  Ni15  1  0.58494975  0.02090781  0.50000000  1
  Ni  Ni16  1  0.56133242  0.58191406  0.00000000  1
  Ni  Ni17  1  0.97909219  0.56404194  0.50000000  1
  Ni  Ni18  1  0.92133397  0.08178962  0.50000000  1
  Ni  Ni19  1  0.16045565  0.07866603  0.50000000  1
  Ni  Ni20  1  0.91821038  0.83954435  0.50000000  1
  Ni  Ni21  1  0.09406101  0.89538468  0.00000000  1
  Ni  Ni22  1  0.80132367  0.90593899  0.00000000  1
  Ni  Ni23  1  0.10461532  0.19867633  0.00000000  1
  Ni  Ni24  1  0.33333333  0.66666667  0.50000000  1
  Ni  Ni25  1  0.66666667  0.33333333  0.00000000  1
  Ni  Ni26  1  0.67661695  0.74824201  0.50000000  1
  Ni  Ni27  1  0.25175799  0.92837495  0.50000000  1
  Ni  Ni28  1  0.92088629  0.67578734  0.00000000  1
  Ni  Ni29  1  0.32421266  0.24509895  0.00000000  1
  Ni  Ni30  1  0.75490105  0.07911371  0.00000000  1
  Ni  Ni31  1  0.43595806  0.41505025  0.50000000  1
  Ni  Ni32  1  0.07162505  0.32338305  0.50000000  1
  Zr  Zr33  1  0.80872858  0.28262403  0.50000000  1
  Zr  Zr34  1  0.71737597  0.52610455  0.50000000  1
  Zr  Zr35  1  0.47389545  0.19127142  0.50000000  1
  Zr  Zr36  1  0.19138879  0.71819564  0.00000000  1
  Zr  Zr37  1  0.28180436  0.47319315  0.00000000  1
  Zr  Zr38  1  0.52680685  0.80861121  0.00000000  1
