# generated using pymatgen
data_Pr3GePO9
_symmetry_space_group_name_H-M   'P 1'
_cell_length_a   7.13440880
_cell_length_b   9.30952248
_cell_length_c   12.61508330
_cell_angle_alpha   90.00000000
_cell_angle_beta   90.00000000
_cell_angle_gamma   107.63953139
_symmetry_Int_Tables_number   1
_chemical_formula_structural   Pr3GePO9
_chemical_formula_sum   'Pr12 Ge4 P4 O36'
_cell_volume   798.47281339
_cell_formula_units_Z   4
loop_
 _symmetry_equiv_pos_site_id
 _symmetry_equiv_pos_as_xyz
  1  'x, y, z'
loop_
 _atom_site_type_symbol
 _atom_site_label
 _atom_site_symmetry_multiplicity
 _atom_site_fract_x
 _atom_site_fract_y
 _atom_site_fract_z
 _atom_site_occupancy
  O  O0  1  0.20393455  0.38056197  0.82563856  1
  O  O1  1  0.29606545  0.11943803  0.32563856  1
  O  O2  1  0.79606545  0.61943803  0.17436144  1
  O  O3  1  0.70393455  0.88056197  0.67436144  1
  O  O4  1  0.65059413  0.58844319  0.57498096  1
  O  O5  1  0.84940587  0.91155681  0.07498096  1
  O  O6  1  0.34940587  0.41155681  0.42501904  1
  O  O7  1  0.15059413  0.08844319  0.92501904  1
  O  O8  1  0.00544126  0.37649565  0.57847838  1
  O  O9  1  0.49455874  0.12350435  0.07847838  1
  O  O10  1  0.99455874  0.62350435  0.42152162  1
  O  O11  1  0.50544126  0.87649565  0.92152162  1
  O  O12  1  0.32139898  0.63400853  0.67397709  1
  O  O13  1  0.17860102  0.86599147  0.17397709  1
  O  O14  1  0.67860102  0.36599147  0.32602291  1
  O  O15  1  0.82139898  0.13400853  0.82602291  1
  O  O16  1  0.10646537  0.10789897  0.65657325  1
  O  O17  1  0.39353463  0.39210103  0.15657325  1
  O  O18  1  0.89353463  0.89210103  0.34342675  1
  O  O19  1  0.60646537  0.60789897  0.84342675  1
  O  O20  1  0.68013741  0.39335298  0.94435561  1
  O  O21  1  0.81986259  0.10664702  0.44435561  1
  O  O22  1  0.31986259  0.60664702  0.05564439  1
  O  O23  1  0.18013741  0.89335298  0.55564439  1
  O  O24  1  0.08907226  0.84988859  0.74344910  1
  O  O25  1  0.41092774  0.65011141  0.24344910  1
  O  O26  1  0.91092774  0.15011141  0.25655090  1
  O  O27  1  0.58907226  0.34988859  0.75655090  1
  O  O28  1  0.41250559  0.04098913  0.70380454  1
  O  O29  1  0.08749441  0.45901087  0.20380454  1
  O  O30  1  0.58749441  0.95901087  0.29619546  1
  O  O31  1  0.91250559  0.54098913  0.79619546  1
  O  O32  1  0.01691176  0.72713806  0.97115165  1
  O  O33  1  0.48308824  0.77286194  0.47115165  1
  O  O34  1  0.98308824  0.27286194  0.02884835  1
  O  O35  1  0.51691176  0.22713806  0.52884835  1
  P  P36  1  0.19840584  0.97713768  0.66337878  1
  P  P37  1  0.30159416  0.52286232  0.16337878  1
  P  P38  1  0.80159416  0.02286232  0.33662122  1
  P  P39  1  0.69840584  0.47713768  0.83662122  1
  Ge  Ge40  1  0.46008035  0.26452555  0.39742478  1
  Ge  Ge41  1  0.03991965  0.23547445  0.89742478  1
  Ge  Ge42  1  0.53991965  0.73547445  0.60257522  1
  Ge  Ge43  1  0.96008035  0.76452555  0.10257522  1
  Pr  Pr44  1  0.98939183  0.62481848  0.60971427  1
  Pr  Pr45  1  0.51060817  0.87518152  0.10971427  1
  Pr  Pr46  1  0.01060817  0.37518152  0.39028573  1
  Pr  Pr47  1  0.48939183  0.12481848  0.89028573  1
  Pr  Pr48  1  0.25618147  0.64411483  0.87099469  1
  Pr  Pr49  1  0.24381853  0.85588517  0.37099469  1
  Pr  Pr50  1  0.74381853  0.35588517  0.12900531  1
  Pr  Pr51  1  0.75618147  0.14411483  0.62900531  1
  Pr  Pr52  1  0.33228062  0.37066650  0.63343935  1
  Pr  Pr53  1  0.16771938  0.12933350  0.13343935  1
  Pr  Pr54  1  0.66771938  0.62933350  0.36656065  1
  Pr  Pr55  1  0.83228062  0.87066650  0.86656065  1
