# generated using pymatgen
data_KPr(SeO4)2
_symmetry_space_group_name_H-M   'P 1'
_cell_length_a   7.50014587
_cell_length_b   9.02257476
_cell_length_c   11.25197523
_cell_angle_alpha   91.67616734
_cell_angle_beta   90.00000000
_cell_angle_gamma   90.00000000
_symmetry_Int_Tables_number   1
_chemical_formula_structural   KPr(SeO4)2
_chemical_formula_sum   'K4 Pr4 Se8 O32'
_cell_volume   761.10241193
_cell_formula_units_Z   4
loop_
 _symmetry_equiv_pos_site_id
 _symmetry_equiv_pos_as_xyz
  1  'x, y, z'
loop_
 _atom_site_type_symbol
 _atom_site_label
 _atom_site_symmetry_multiplicity
 _atom_site_fract_x
 _atom_site_fract_y
 _atom_site_fract_z
 _atom_site_occupancy
  O  O0  1  0.47939557  0.59193530  0.36297972  1
  O  O1  1  0.97939557  0.40806470  0.13702028  1
  O  O2  1  0.52060443  0.40806470  0.63702028  1
  O  O3  1  0.02060443  0.59193530  0.86297972  1
  O  O4  1  0.75205756  0.30239130  0.45617559  1
  O  O5  1  0.25205756  0.69760870  0.04382441  1
  O  O6  1  0.24794244  0.69760870  0.54382441  1
  O  O7  1  0.74794244  0.30239130  0.95617559  1
  O  O8  1  0.68226964  0.24606114  0.19098263  1
  O  O9  1  0.18226964  0.75393886  0.30901737  1
  O  O10  1  0.31773036  0.75393886  0.80901737  1
  O  O11  1  0.81773036  0.24606114  0.69098263  1
  O  O12  1  0.45083528  0.88356663  0.44454016  1
  O  O13  1  0.95083528  0.11643337  0.05545984  1
  O  O14  1  0.54916472  0.11643337  0.55545984  1
  O  O15  1  0.04916472  0.88356663  0.94454016  1
  O  O16  1  0.66878120  0.87941679  0.97137264  1
  O  O17  1  0.16878120  0.12058321  0.52862736  1
  O  O18  1  0.33121880  0.12058321  0.02862736  1
  O  O19  1  0.83121880  0.87941679  0.47137264  1
  O  O20  1  0.85218976  0.63150213  0.60196172  1
  O  O21  1  0.35218976  0.36849787  0.89803828  1
  O  O22  1  0.14781024  0.36849787  0.39803828  1
  O  O23  1  0.64781024  0.63150213  0.10196172  1
  O  O24  1  0.65967713  0.86571186  0.69530796  1
  O  O25  1  0.15967713  0.13428814  0.80469204  1
  O  O26  1  0.34032287  0.13428814  0.30469204  1
  O  O27  1  0.84032287  0.86571186  0.19530796  1
  O  O28  1  0.00021383  0.90071485  0.68691222  1
  O  O29  1  0.50021383  0.09928515  0.81308778  1
  O  O30  1  0.99978617  0.09928515  0.31308778  1
  O  O31  1  0.49978617  0.90071485  0.18691222  1
  K  K32  1  0.85381792  0.56256987  0.34303323  1
  K  K33  1  0.64618208  0.56256987  0.84303323  1
  K  K34  1  0.14618208  0.43743013  0.65696677  1
  K  K35  1  0.35381792  0.43743013  0.15696677  1
  Se  Se36  1  0.16440714  0.18706876  0.39214913  1
  Se  Se37  1  0.84186224  0.27790825  0.08992450  1
  Se  Se38  1  0.33559286  0.18706876  0.89214913  1
  Se  Se39  1  0.83559286  0.81293124  0.60785087  1
  Se  Se40  1  0.15813776  0.72209175  0.91007550  1
  Se  Se41  1  0.65813776  0.27790825  0.58992450  1
  Se  Se42  1  0.34186224  0.72209175  0.41007550  1
  Se  Se43  1  0.66440714  0.81293124  0.10785087  1
  Pr  Pr44  1  0.66594494  0.05661095  0.34835011  1
  Pr  Pr45  1  0.16594494  0.94338905  0.15164989  1
  Pr  Pr46  1  0.33405506  0.94338905  0.65164989  1
  Pr  Pr47  1  0.83405506  0.05661095  0.84835011  1
