# generated using pymatgen
data_K2Na4Be2O5
_symmetry_space_group_name_H-M   'P 1'
_cell_length_a   5.99768518
_cell_length_b   5.99768518
_cell_length_c   10.12044113
_cell_angle_alpha   90.00000000
_cell_angle_beta   90.00000000
_cell_angle_gamma   90.00000000
_symmetry_Int_Tables_number   1
_chemical_formula_structural   K2Na4Be2O5
_chemical_formula_sum   'K4 Na8 Be4 O10'
_cell_volume   364.05481091
_cell_formula_units_Z   2
loop_
 _symmetry_equiv_pos_site_id
 _symmetry_equiv_pos_as_xyz
  1  'x, y, z'
loop_
 _atom_site_type_symbol
 _atom_site_label
 _atom_site_symmetry_multiplicity
 _atom_site_fract_x
 _atom_site_fract_y
 _atom_site_fract_z
 _atom_site_occupancy
  Be  Be0  1  0.68697265  0.68697265  0.50000000  1
  Be  Be1  1  0.31302735  0.31302735  0.50000000  1
  Be  Be2  1  0.81302735  0.18697265  0.00000000  1
  Be  Be3  1  0.18697265  0.81302735  0.00000000  1
  O  O4  1  0.22634933  0.22634933  0.36320320  1
  O  O5  1  0.27365067  0.72634933  0.86320320  1
  O  O6  1  0.77365067  0.77365067  0.63679680  1
  O  O7  1  0.72634933  0.27365067  0.13679680  1
  O  O8  1  0.27365067  0.72634933  0.13679680  1
  O  O9  1  0.22634933  0.22634933  0.63679680  1
  O  O10  1  0.77365067  0.77365067  0.36320320  1
  O  O11  1  0.00000000  0.00000000  0.00000000  1
  O  O12  1  0.72634933  0.27365067  0.86320320  1
  O  O13  1  0.50000000  0.50000000  0.50000000  1
  Na  Na14  1  0.50000000  0.00000000  0.75000000  1
  Na  Na15  1  0.50000000  0.00000000  0.25000000  1
  Na  Na16  1  0.00000000  0.50000000  0.75000000  1
  Na  Na17  1  0.00000000  0.50000000  0.25000000  1
  Na  Na18  1  0.00000000  0.00000000  0.22559863  1
  Na  Na19  1  0.50000000  0.50000000  0.72559863  1
  Na  Na20  1  0.50000000  0.50000000  0.27440137  1
  Na  Na21  1  0.00000000  0.00000000  0.77440137  1
  K  K22  1  0.31973941  0.31973941  0.00000000  1
  K  K23  1  0.18026059  0.81973941  0.50000000  1
  K  K24  1  0.81973941  0.18026059  0.50000000  1
  K  K25  1  0.68026059  0.68026059  0.00000000  1
