# generated using pymatgen
data_MnSi
_symmetry_space_group_name_H-M   'P 1'
_cell_length_a   4.52271024
_cell_length_b   4.52271024
_cell_length_c   4.52271024
_cell_angle_alpha   90.00000000
_cell_angle_beta   90.00000000
_cell_angle_gamma   90.00000000
_symmetry_Int_Tables_number   1
_chemical_formula_structural   MnSi
_chemical_formula_sum   'Mn4 Si4'
_cell_volume   92.51162149
_cell_formula_units_Z   4
loop_
 _symmetry_equiv_pos_site_id
 _symmetry_equiv_pos_as_xyz
  1  'x, y, z'
loop_
 _atom_site_type_symbol
 _atom_site_label
 _atom_site_symmetry_multiplicity
 _atom_site_fract_x
 _atom_site_fract_y
 _atom_site_fract_z
 _atom_site_occupancy
  Mn  Mn0  1  0.36354311  0.86354311  0.63645689  1
  Mn  Mn1  1  0.86354311  0.63645689  0.36354311  1
  Mn  Mn2  1  0.63645689  0.36354311  0.86354311  1
  Mn  Mn3  1  0.13645689  0.13645689  0.13645689  1
  Si  Si4  1  0.65472722  0.15472722  0.34527278  1
  Si  Si5  1  0.15472722  0.34527278  0.65472722  1
  Si  Si6  1  0.34527278  0.65472722  0.15472722  1
  Si  Si7  1  0.84527278  0.84527278  0.84527278  1
