# generated using pymatgen
data_Ba3Tm4O9
_symmetry_space_group_name_H-M   'P 1'
_cell_length_a   9.11345381
_cell_length_b   9.11345381
_cell_length_c   9.11345380
_cell_angle_alpha   38.93567442
_cell_angle_beta   38.93567441
_cell_angle_gamma   38.93567438
_symmetry_Int_Tables_number   1
_chemical_formula_structural   Ba3Tm4O9
_chemical_formula_sum   'Ba3 Tm4 O9'
_cell_volume   268.81076965
_cell_formula_units_Z   1
loop_
 _symmetry_equiv_pos_site_id
 _symmetry_equiv_pos_as_xyz
  1  'x, y, z'
loop_
 _atom_site_type_symbol
 _atom_site_label
 _atom_site_symmetry_multiplicity
 _atom_site_fract_x
 _atom_site_fract_y
 _atom_site_fract_z
 _atom_site_occupancy
  O  O0  1  0.46705222  0.57128859  0.04049229  1
  O  O1  1  0.57128859  0.04049229  0.46705222  1
  O  O2  1  0.04049229  0.46705222  0.57128859  1
  O  O3  1  0.60099915  0.68849436  0.12622790  1
  O  O4  1  0.68849436  0.12622790  0.60099915  1
  O  O5  1  0.12622790  0.60099915  0.68849436  1
  O  O6  1  0.03027761  0.58089342  0.13424442  1
  O  O7  1  0.13424442  0.03027761  0.58089342  1
  O  O8  1  0.58089342  0.13424442  0.03027761  1
  Ba  Ba9  1  0.99953913  0.99953913  0.99953913  1
  Ba  Ba10  1  0.16383908  0.16383908  0.16383908  1
  Ba  Ba11  1  0.57866799  0.57866799  0.57866799  1
  Tm  Tm12  1  0.42497587  0.42497587  0.42497587  1
  Tm  Tm13  1  0.86376900  0.86376900  0.86376900  1
  Tm  Tm14  1  0.73857136  0.73857136  0.73857136  1
  Tm  Tm15  1  0.30016763  0.30016763  0.30016763  1
