# generated using pymatgen
data_LiFePO4
_symmetry_space_group_name_H-M   'P 1'
_cell_length_a   10.67160516
_cell_length_b   10.73715029
_cell_length_c   12.31200269
_cell_angle_alpha   90.00000000
_cell_angle_beta   90.00000000
_cell_angle_gamma   118.82031883
_symmetry_Int_Tables_number   1
_chemical_formula_structural   LiFePO4
_chemical_formula_sum   'Li12 Fe12 P12 O48'
_cell_volume   1236.00121833
_cell_formula_units_Z   12
loop_
 _symmetry_equiv_pos_site_id
 _symmetry_equiv_pos_as_xyz
  1  'x, y, z'
loop_
 _atom_site_type_symbol
 _atom_site_label
 _atom_site_symmetry_multiplicity
 _atom_site_fract_x
 _atom_site_fract_y
 _atom_site_fract_z
 _atom_site_occupancy
  Li  Li0  1  0.00000000  0.50000000  0.15297331  1
  Li  Li1  1  0.00000000  0.50000000  0.50759042  1
  Li  Li2  1  0.00000000  0.00000000  0.98585813  1
  Li  Li3  1  0.00000000  0.00000000  0.33229835  1
  Li  Li4  1  0.00000000  0.00000000  0.68139865  1
  Li  Li5  1  0.50000000  0.50000000  0.17626919  1
  Li  Li6  1  0.50000000  0.50000000  0.83989807  1
  Li  Li7  1  0.50000000  0.00000000  0.44471190  1
  Li  Li8  1  0.50000000  0.00000000  0.01397066  1
  Li  Li9  1  0.50000000  0.00000000  0.20763213  1
  Li  Li10  1  0.50000000  0.00000000  0.64021657  1
  Li  Li11  1  0.50000000  0.00000000  0.82304479  1
  Fe  Fe12  1  0.00413799  0.72975722  0.83444824  1
  Fe  Fe13  1  0.23919860  0.74685246  0.16893282  1
  Fe  Fe14  1  0.99586201  0.27024278  0.83444824  1
  Fe  Fe15  1  0.26601024  0.49423959  0.49865678  1
  Fe  Fe16  1  0.24436680  0.24509416  0.16605565  1
  Fe  Fe17  1  0.50532332  0.75052898  0.83393470  1
  Fe  Fe18  1  0.24126002  0.00772979  0.49863193  1
  Fe  Fe19  1  0.49467668  0.24947102  0.83393470  1
  Fe  Fe20  1  0.75563320  0.75490584  0.16605565  1
  Fe  Fe21  1  0.73398976  0.50576041  0.49865678  1
  Fe  Fe22  1  0.76080140  0.25314754  0.16893282  1
  Fe  Fe23  1  0.75873998  0.99227021  0.49863193  1
  P  P24  1  0.99623272  0.74226472  0.33711649  1
  P  P25  1  0.00376728  0.25773528  0.33711649  1
  P  P26  1  0.26839842  0.76510195  0.65498026  1
  P  P27  1  0.26025038  0.50127029  0.00753387  1
  P  P28  1  0.49296786  0.75186992  0.32732421  1
  P  P29  1  0.24329897  0.24556821  0.67683203  1
  P  P30  1  0.25792143  0.99826896  0.99981404  1
  P  P31  1  0.75670103  0.75443179  0.67683203  1
  P  P32  1  0.50703214  0.24813008  0.32732421  1
  P  P33  1  0.73974962  0.49872971  0.00753387  1
  P  P34  1  0.73160158  0.23489805  0.65498026  1
  P  P35  1  0.74207857  0.00173104  0.99981404  1
  O  O36  1  0.11696053  0.88904688  0.94752090  1
  O  O37  1  0.11099383  0.88954296  0.38183519  1
  O  O38  1  0.05582922  0.68499088  0.24520154  1
  O  O39  1  0.14833957  0.75475626  0.72638129  1
  O  O40  1  0.31933018  0.93855681  0.08986225  1
  O  O41  1  0.32316726  0.88950776  0.56891936  1
  O  O42  1  0.06437928  0.37239607  0.42681333  1
  O  O43  1  0.20141624  0.58971850  0.06932055  1
  O  O44  1  0.22048481  0.62228838  0.59748704  1
  O  O45  1  0.13738095  0.39195299  0.93957754  1
  O  O46  1  0.09839587  0.20037199  0.73337163  1
  O  O47  1  0.41692043  0.81691643  0.25627621  1
  O  O48  1  0.40971640  0.82392038  0.72847127  1
  O  O49  1  0.11272711  0.21531828  0.28816930  1
  O  O50  1  0.31726187  0.43356584  0.09161031  1
  O  O51  1  0.38190553  0.61927763  0.38570108  1
  O  O52  1  0.39088635  0.59365323  0.93218790  1
  O  O53  1  0.28342948  0.35634070  0.58771669  1
  O  O54  1  0.58234966  0.87527422  0.40765189  1
  O  O55  1  0.22213006  0.11136628  0.04534689  1
  O  O56  1  0.61207097  0.94068931  0.91715710  1
  O  O57  1  0.21780699  0.10062643  0.62812076  1
  O  O58  1  0.57976399  0.70626413  0.25313663  1
  O  O59  1  0.36804121  0.30803628  0.76197274  1
  O  O60  1  0.63195879  0.69196372  0.76197274  1
  O  O61  1  0.42023601  0.29373587  0.25313663  1
  O  O62  1  0.78219301  0.89937357  0.62812076  1
  O  O63  1  0.38792903  0.05931069  0.91715710  1
  O  O64  1  0.77786994  0.88863372  0.04534689  1
  O  O65  1  0.41765034  0.12472578  0.40765189  1
  O  O66  1  0.71657052  0.64365930  0.58771669  1
  O  O67  1  0.60911365  0.40634677  0.93218790  1
  O  O68  1  0.61809447  0.38072237  0.38570108  1
  O  O69  1  0.68273813  0.56643416  0.09161031  1
  O  O70  1  0.88727289  0.78468172  0.28816930  1
  O  O71  1  0.59028360  0.17607962  0.72847127  1
  O  O72  1  0.58307957  0.18308357  0.25627621  1
  O  O73  1  0.90160413  0.79962801  0.73337163  1
  O  O74  1  0.86261905  0.60804701  0.93957754  1
  O  O75  1  0.77951519  0.37771162  0.59748704  1
  O  O76  1  0.79858376  0.41028150  0.06932055  1
  O  O77  1  0.93562072  0.62760393  0.42681333  1
  O  O78  1  0.67683274  0.11049224  0.56891936  1
  O  O79  1  0.68066982  0.06144319  0.08986225  1
  O  O80  1  0.85166043  0.24524374  0.72638129  1
  O  O81  1  0.94417078  0.31500912  0.24520154  1
  O  O82  1  0.88900617  0.11045704  0.38183519  1
  O  O83  1  0.88303947  0.11095312  0.94752090  1
