# generated using pymatgen
data_Lu2MgS4
_symmetry_space_group_name_H-M   'P 1'
_cell_length_a   7.77414904
_cell_length_b   7.77414904
_cell_length_c   7.77414904
_cell_angle_alpha   60.00000000
_cell_angle_beta   59.99999999
_cell_angle_gamma   60.00000000
_symmetry_Int_Tables_number   1
_chemical_formula_structural   Lu2MgS4
_chemical_formula_sum   'Lu4 Mg2 S8'
_cell_volume   332.23362823
_cell_formula_units_Z   2
loop_
 _symmetry_equiv_pos_site_id
 _symmetry_equiv_pos_as_xyz
  1  'x, y, z'
loop_
 _atom_site_type_symbol
 _atom_site_label
 _atom_site_symmetry_multiplicity
 _atom_site_fract_x
 _atom_site_fract_y
 _atom_site_fract_z
 _atom_site_occupancy
  Mg  Mg0  1  0.87500000  0.87500000  0.87500000  1
  Mg  Mg1  1  0.12500000  0.12500000  0.12500000  1
  S  S2  1  0.25595971  0.25595971  0.73212087  1
  S  S3  1  0.74404029  0.74404029  0.74404029  1
  S  S4  1  0.74404029  0.74404029  0.26787913  1
  S  S5  1  0.25595971  0.73212087  0.25595971  1
  S  S6  1  0.25595971  0.25595971  0.25595971  1
  S  S7  1  0.26787913  0.74404029  0.74404029  1
  S  S8  1  0.74404029  0.26787913  0.74404029  1
  S  S9  1  0.73212087  0.25595971  0.25595971  1
  Lu  Lu10  1  0.50000000  0.50000000  0.50000000  1
  Lu  Lu11  1  0.50000000  0.00000000  0.50000000  1
  Lu  Lu12  1  0.00000000  0.50000000  0.50000000  1
  Lu  Lu13  1  0.50000000  0.50000000  0.00000000  1
