# generated using pymatgen
data_La(Ni2B)6
_symmetry_space_group_name_H-M   'P 1'
_cell_length_a   6.06220537
_cell_length_b   6.06220538
_cell_length_c   11.06203329
_cell_angle_alpha   90.00000000
_cell_angle_beta   90.00000000
_cell_angle_gamma   104.73658538
_symmetry_Int_Tables_number   1
_chemical_formula_structural   La(Ni2B)6
_chemical_formula_sum   'La2 Ni24 B12'
_cell_volume   393.16071391
_cell_formula_units_Z   2
loop_
 _symmetry_equiv_pos_site_id
 _symmetry_equiv_pos_as_xyz
  1  'x, y, z'
loop_
 _atom_site_type_symbol
 _atom_site_label
 _atom_site_symmetry_multiplicity
 _atom_site_fract_x
 _atom_site_fract_y
 _atom_site_fract_z
 _atom_site_occupancy
  B  B0  1  0.89699310  0.48609017  0.37789849  1
  B  B1  1  0.10300690  0.51390983  0.87789849  1
  B  B2  1  0.82422818  0.25078690  0.11371276  1
  B  B3  1  0.17577182  0.74921310  0.61371276  1
  B  B4  1  0.74921310  0.17577182  0.61371276  1
  B  B5  1  0.25078690  0.82422818  0.11371276  1
  B  B6  1  0.01384825  0.01384825  0.83816628  1
  B  B7  1  0.98615175  0.98615175  0.33816628  1
  B  B8  1  0.33570199  0.33570199  0.16742659  1
  B  B9  1  0.66429801  0.66429801  0.66742659  1
  B  B10  1  0.51390983  0.10300690  0.87789849  1
  B  B11  1  0.48609017  0.89699310  0.37789849  1
  Ni  Ni12  1  0.61931977  0.35305911  0.74333642  1
  Ni  Ni13  1  0.64694089  0.38068023  0.24333642  1
  Ni  Ni14  1  0.22579462  0.84412908  0.93243894  1
  Ni  Ni15  1  0.77420538  0.15587092  0.43243894  1
  Ni  Ni16  1  0.15587092  0.77420538  0.43243894  1
  Ni  Ni17  1  0.35305911  0.61931977  0.74333642  1
  Ni  Ni18  1  0.50557391  0.87003512  0.56247847  1
  Ni  Ni19  1  0.49442609  0.12996488  0.06247847  1
  Ni  Ni20  1  0.12996488  0.49442609  0.06247847  1
  Ni  Ni21  1  0.87003512  0.50557391  0.56247847  1
  Ni  Ni22  1  0.28964492  0.02486420  0.72486902  1
  Ni  Ni23  1  0.71035508  0.97513580  0.22486902  1
  Ni  Ni24  1  0.97513580  0.71035508  0.22486902  1
  Ni  Ni25  1  0.02486420  0.28964492  0.72486902  1
  Ni  Ni26  1  0.04005675  0.30546772  0.26483706  1
  Ni  Ni27  1  0.95994325  0.69453228  0.76483706  1
  Ni  Ni28  1  0.69453228  0.95994325  0.76483706  1
  Ni  Ni29  1  0.30546772  0.04005675  0.26483706  1
  Ni  Ni30  1  0.27712100  0.27712100  0.89956108  1
  Ni  Ni31  1  0.72287900  0.72287900  0.39956108  1
  Ni  Ni32  1  0.92964795  0.92964795  0.58407715  1
  Ni  Ni33  1  0.07035205  0.07035205  0.08407715  1
  Ni  Ni34  1  0.84412908  0.22579462  0.93243894  1
  Ni  Ni35  1  0.38068023  0.64694089  0.24333642  1
  La  La36  1  0.33272897  0.33272897  0.49962660  1
  La  La37  1  0.66727103  0.66727103  0.99962660  1
