# generated using pymatgen
data_Cs2SrP2O7
_symmetry_space_group_name_H-M   'P 1'
_cell_length_a   6.16241113
_cell_length_b   6.16241112
_cell_length_c   13.68678441
_cell_angle_alpha   90.61607791
_cell_angle_beta   102.26034926
_cell_angle_gamma   120.29669439
_symmetry_Int_Tables_number   1
_chemical_formula_structural   Cs2SrP2O7
_chemical_formula_sum   'Cs4 Sr2 P4 O14'
_cell_volume   434.23706111
_cell_formula_units_Z   2
loop_
 _symmetry_equiv_pos_site_id
 _symmetry_equiv_pos_as_xyz
  1  'x, y, z'
loop_
 _atom_site_type_symbol
 _atom_site_label
 _atom_site_symmetry_multiplicity
 _atom_site_fract_x
 _atom_site_fract_y
 _atom_site_fract_z
 _atom_site_occupancy
  O  O0  1  0.57587465  0.32587465  0.75000000  1
  O  O1  1  0.42412535  0.67412535  0.25000000  1
  O  O2  1  0.27899868  0.12290971  0.87095496  1
  O  O3  1  0.25195475  0.90804372  0.62904504  1
  O  O4  1  0.72100132  0.87709029  0.12904504  1
  O  O5  1  0.74804525  0.09195628  0.37095496  1
  O  O6  1  0.72284709  0.53945921  0.92477644  1
  O  O7  1  0.61468277  0.29807065  0.57522356  1
  O  O8  1  0.27715291  0.46054079  0.07522356  1
  O  O9  1  0.38531723  0.70192935  0.42477644  1
  O  O10  1  0.77470984  0.69183352  0.39099939  1
  O  O11  1  0.30083413  0.88371045  0.10900061  1
  O  O12  1  0.22529016  0.30816648  0.60900061  1
  O  O13  1  0.69916587  0.11628955  0.89099939  1
  P  P14  1  0.56510616  0.26971622  0.86710999  1
  P  P15  1  0.40260623  0.19799617  0.63289001  1
  P  P16  1  0.43489384  0.73028378  0.13289001  1
  P  P17  1  0.59739377  0.80200383  0.36710999  1
  Sr  Sr18  1  0.00000000  0.00000000  0.00000000  1
  Sr  Sr19  1  0.00000000  0.50000000  0.50000000  1
  Cs  Cs20  1  0.20623431  0.58710546  0.83574298  1
  Cs  Cs21  1  0.75136248  0.87049133  0.66425702  1
  Cs  Cs22  1  0.79376569  0.41289454  0.16425702  1
  Cs  Cs23  1  0.24863752  0.12950867  0.33574298  1
