# generated using pymatgen
data_SrZn5
_symmetry_space_group_name_H-M   'P 1'
_cell_length_a   5.23201119
_cell_length_b   6.86153663
_cell_length_c   13.16722019
_cell_angle_alpha   90.00000000
_cell_angle_beta   90.00000000
_cell_angle_gamma   90.00000000
_symmetry_Int_Tables_number   1
_chemical_formula_structural   SrZn5
_chemical_formula_sum   'Sr4 Zn20'
_cell_volume   472.69841760
_cell_formula_units_Z   4
loop_
 _symmetry_equiv_pos_site_id
 _symmetry_equiv_pos_as_xyz
  1  'x, y, z'
loop_
 _atom_site_type_symbol
 _atom_site_label
 _atom_site_symmetry_multiplicity
 _atom_site_fract_x
 _atom_site_fract_y
 _atom_site_fract_z
 _atom_site_occupancy
  Sr  Sr0  1  0.25000000  0.64663709  0.91050669  1
  Sr  Sr1  1  0.25000000  0.85336291  0.41050669  1
  Sr  Sr2  1  0.75000000  0.35336291  0.08949331  1
  Sr  Sr3  1  0.75000000  0.14663709  0.58949331  1
  Zn  Zn4  1  0.25000000  0.33912326  0.71405901  1
  Zn  Zn5  1  0.25000000  0.16087674  0.21405901  1
  Zn  Zn6  1  0.75000000  0.66087674  0.28594099  1
  Zn  Zn7  1  0.75000000  0.83912326  0.78594099  1
  Zn  Zn8  1  0.25000000  0.95787835  0.70559542  1
  Zn  Zn9  1  0.25000000  0.54212165  0.20559542  1
  Zn  Zn10  1  0.75000000  0.04212165  0.29440458  1
  Zn  Zn11  1  0.75000000  0.45787835  0.79440458  1
  Zn  Zn12  1  0.99811202  0.15275336  0.85711106  1
  Zn  Zn13  1  0.50188798  0.34724664  0.35711106  1
  Zn  Zn14  1  0.49811202  0.84724664  0.14288894  1
  Zn  Zn15  1  0.00188798  0.65275336  0.64288894  1
  Zn  Zn16  1  0.00188798  0.84724664  0.14288894  1
  Zn  Zn17  1  0.49811202  0.65275336  0.64288894  1
  Zn  Zn18  1  0.50188798  0.15275336  0.85711106  1
  Zn  Zn19  1  0.99811202  0.34724664  0.35711106  1
  Zn  Zn20  1  0.25000000  0.40571031  0.52180757  1
  Zn  Zn21  1  0.25000000  0.09428969  0.02180757  1
  Zn  Zn22  1  0.75000000  0.59428969  0.47819243  1
  Zn  Zn23  1  0.75000000  0.90571031  0.97819243  1
