# generated using pymatgen
data_LiFePO5
_symmetry_space_group_name_H-M   'P 1'
_cell_length_a   5.31996451
_cell_length_b   10.65976606
_cell_length_c   7.16529057
_cell_angle_alpha   70.78411001
_cell_angle_beta   68.20840688
_cell_angle_gamma   75.55001608
_symmetry_Int_Tables_number   1
_chemical_formula_structural   LiFePO5
_chemical_formula_sum   'Li4 Fe4 P4 O20'
_cell_volume   352.50408122
_cell_formula_units_Z   4
loop_
 _symmetry_equiv_pos_site_id
 _symmetry_equiv_pos_as_xyz
  1  'x, y, z'
loop_
 _atom_site_type_symbol
 _atom_site_label
 _atom_site_symmetry_multiplicity
 _atom_site_fract_x
 _atom_site_fract_y
 _atom_site_fract_z
 _atom_site_occupancy
  Li  Li0  1  0.51022347  0.00000000  0.50000000  1
  Li  Li1  1  0.00000000  0.25000000  0.75000000  1
  Li  Li2  1  0.48977653  0.50000000  0.00000000  1
  Li  Li3  1  0.50000000  0.75000000  0.25000000  1
  Fe  Fe4  1  0.50000000  0.25000000  0.75000000  1
  Fe  Fe5  1  0.50000000  0.25000000  0.25000000  1
  Fe  Fe6  1  0.50000000  0.75000000  0.75000000  1
  Fe  Fe7  1  0.00000000  0.75000000  0.25000000  1
  P  P8  1  0.12942757  0.06596044  0.18587795  1
  P  P9  1  0.11873504  0.56596044  0.68587795  1
  P  P10  1  0.87057243  0.43403956  0.31412205  1
  P  P11  1  0.88126496  0.93403956  0.81412205  1
  O  O12  1  0.81763929  0.08658240  0.78544984  1
  O  O13  1  0.21191836  0.14631477  0.95196585  1
  O  O14  1  0.59202284  0.29176162  0.95351017  1
  O  O15  1  0.29116099  0.10260458  0.29721666  1
  O  O16  1  0.81676391  0.10331675  0.27743144  1
  O  O17  1  0.40797716  0.20823838  0.54648983  1
  O  O18  1  0.18236071  0.41341760  0.71455016  1
  O  O19  1  0.78808164  0.35368523  0.54803415  1
  O  O20  1  0.80901677  0.60260458  0.79721666  1
  O  O21  1  0.30248790  0.60331675  0.77743144  1
  O  O22  1  0.70883901  0.39739542  0.20278334  1
  O  O23  1  0.18323609  0.39668325  0.22256856  1
  O  O24  1  0.81032747  0.58658240  0.28544984  1
  O  O25  1  0.18980101  0.64631477  0.45196585  1
  O  O26  1  0.66270538  0.79176162  0.45351017  1
  O  O27  1  0.19098323  0.89739542  0.70278334  1
  O  O28  1  0.69751210  0.89668325  0.72256856  1
  O  O29  1  0.33729462  0.70823838  0.04648983  1
  O  O30  1  0.81019899  0.85368523  0.04803415  1
  O  O31  1  0.18967253  0.91341760  0.21455016  1
