# generated using pymatgen
data_BaZnP2O7
_symmetry_space_group_name_H-M   'P 1'
_cell_length_a   5.38061083
_cell_length_b   7.59433458
_cell_length_c   7.68512446
_cell_angle_alpha   102.73120022
_cell_angle_beta   93.11842380
_cell_angle_gamma   94.00232763
_symmetry_Int_Tables_number   1
_chemical_formula_structural   BaZnP2O7
_chemical_formula_sum   'Ba2 Zn2 P4 O14'
_cell_volume   304.77642380
_cell_formula_units_Z   2
loop_
 _symmetry_equiv_pos_site_id
 _symmetry_equiv_pos_as_xyz
  1  'x, y, z'
loop_
 _atom_site_type_symbol
 _atom_site_label
 _atom_site_symmetry_multiplicity
 _atom_site_fract_x
 _atom_site_fract_y
 _atom_site_fract_z
 _atom_site_occupancy
  O  O0  1  0.78872151  0.46636070  0.25229693  1
  O  O1  1  0.21127849  0.53363930  0.74770307  1
  O  O2  1  0.56997515  0.76842757  0.89406328  1
  O  O3  1  0.43002485  0.23157243  0.10593672  1
  O  O4  1  0.29546725  0.64994670  0.41839516  1
  O  O5  1  0.70453275  0.35005330  0.58160484  1
  O  O6  1  0.73150183  0.36761253  0.91578180  1
  O  O7  1  0.26849817  0.63238747  0.08421820  1
  O  O8  1  0.45281217  0.11536739  0.70319324  1
  O  O9  1  0.54718783  0.88463261  0.29680676  1
  O  O10  1  0.92778545  0.11542313  0.70400262  1
  O  O11  1  0.07221455  0.88457687  0.29599738  1
  O  O12  1  0.11523864  0.84887042  0.90264622  1
  O  O13  1  0.88476136  0.15112958  0.09735378  1
  P  P14  1  0.70472351  0.30558808  0.10386658  1
  P  P15  1  0.29527649  0.69441192  0.89613342  1
  P  P16  1  0.29830001  0.76759669  0.28182044  1
  P  P17  1  0.70169999  0.23240331  0.71817956  1
  Zn  Zn18  1  0.79777040  0.88960187  0.10607399  1
  Zn  Zn19  1  0.20222960  0.11039813  0.89392601  1
  Ba  Ba20  1  0.80016619  0.72025360  0.56551049  1
  Ba  Ba21  1  0.19983381  0.27974640  0.43448951  1
