# generated using pymatgen
data_K2Pd3Se4
_symmetry_space_group_name_H-M   'P 1'
_cell_length_a   6.43102917
_cell_length_b   6.46558070
_cell_length_c   13.85333283
_cell_angle_alpha   83.37125879
_cell_angle_beta   76.57859738
_cell_angle_gamma   60.17661845
_symmetry_Int_Tables_number   1
_chemical_formula_structural   K2Pd3Se4
_chemical_formula_sum   'K4 Pd6 Se8'
_cell_volume   486.09058080
_cell_formula_units_Z   2
loop_
 _symmetry_equiv_pos_site_id
 _symmetry_equiv_pos_as_xyz
  1  'x, y, z'
loop_
 _atom_site_type_symbol
 _atom_site_label
 _atom_site_symmetry_multiplicity
 _atom_site_fract_x
 _atom_site_fract_y
 _atom_site_fract_z
 _atom_site_occupancy
  K  K0  1  0.30163154  0.25000000  0.39673692  1
  K  K1  1  0.44836846  0.25000000  0.10326308  1
  K  K2  1  0.69836846  0.75000000  0.60326308  1
  K  K3  1  0.55163154  0.75000000  0.89673692  1
  Se  Se4  1  0.34701636  0.41725088  0.62732716  1
  Se  Se5  1  0.02565649  0.08274912  0.62732716  1
  Se  Se6  1  0.23573276  0.41725088  0.87267284  1
  Se  Se7  1  0.10840561  0.91725088  0.12732716  1
  Se  Se8  1  0.65298364  0.58274912  0.37267284  1
  Se  Se9  1  0.89159439  0.08274912  0.87267284  1
  Se  Se10  1  0.76426724  0.58274912  0.12732716  1
  Se  Se11  1  0.97434351  0.91725088  0.37267284  1
  Pd  Pd12  1  0.37407057  0.75000000  0.25185886  1
  Pd  Pd13  1  0.12407057  0.25000000  0.75185886  1
  Pd  Pd14  1  0.62592943  0.25000000  0.74814114  1
  Pd  Pd15  1  0.12500000  0.75000000  0.75000000  1
  Pd  Pd16  1  0.87500000  0.25000000  0.25000000  1
  Pd  Pd17  1  0.87592943  0.75000000  0.24814114  1
