# generated using pymatgen
data_KGeSbO5
_symmetry_space_group_name_H-M   'P 1'
_cell_length_a   6.70513023
_cell_length_b   10.94520855
_cell_length_c   13.46721423
_cell_angle_alpha   90.00000000
_cell_angle_beta   90.00000000
_cell_angle_gamma   90.00000000
_symmetry_Int_Tables_number   1
_chemical_formula_structural   KGeSbO5
_chemical_formula_sum   'K8 Ge8 Sb8 O40'
_cell_volume   988.34604128
_cell_formula_units_Z   8
loop_
 _symmetry_equiv_pos_site_id
 _symmetry_equiv_pos_as_xyz
  1  'x, y, z'
loop_
 _atom_site_type_symbol
 _atom_site_label
 _atom_site_symmetry_multiplicity
 _atom_site_fract_x
 _atom_site_fract_y
 _atom_site_fract_z
 _atom_site_occupancy
  O  O0  1  0.95611439  0.12973442  0.77967243  1
  O  O1  1  0.04388561  0.62973442  0.22032757  1
  O  O2  1  0.54388561  0.12973442  0.27967243  1
  O  O3  1  0.45611439  0.62973442  0.72032757  1
  O  O4  1  0.47305077  0.87693274  0.27476108  1
  O  O5  1  0.52694923  0.37693274  0.72523892  1
  O  O6  1  0.02694923  0.87693274  0.77476108  1
  O  O7  1  0.97305077  0.37693274  0.22523892  1
  O  O8  1  0.53796946  0.12551291  0.73556990  1
  O  O9  1  0.46203054  0.62551291  0.26443010  1
  O  O10  1  0.96203054  0.12551291  0.23556990  1
  O  O11  1  0.03796946  0.62551291  0.76443010  1
  O  O12  1  0.04928750  0.88426086  0.22980897  1
  O  O13  1  0.95071250  0.38426086  0.77019103  1
  O  O14  1  0.45071250  0.88426086  0.72980897  1
  O  O15  1  0.15898650  0.77224521  0.60099924  1
  O  O16  1  0.54928750  0.38426086  0.27019103  1
  O  O17  1  0.71336590  0.53339771  0.10118135  1
  O  O18  1  0.21336590  0.03339771  0.39881865  1
  O  O19  1  0.78663410  0.53339771  0.60118135  1
  O  O20  1  0.80476258  0.96301291  0.39341426  1
  O  O21  1  0.19523742  0.46301291  0.60658574  1
  O  O22  1  0.69523742  0.96301291  0.89341426  1
  O  O23  1  0.30476258  0.46301291  0.10658574  1
  O  O24  1  0.49989586  0.86760045  0.48565832  1
  O  O25  1  0.50010414  0.36760045  0.51434168  1
  O  O26  1  0.00010414  0.86760045  0.98565832  1
  O  O27  1  0.99989586  0.36760045  0.01434168  1
  O  O28  1  0.96028986  0.11459564  0.99697908  1
  O  O29  1  0.03971014  0.61459564  0.00302092  1
  O  O30  1  0.53971014  0.11459564  0.49697908  1
  O  O31  1  0.46028986  0.61459564  0.50302092  1
  O  O32  1  0.16865024  0.73851813  0.38986811  1
  O  O33  1  0.83134976  0.23851813  0.61013189  1
  O  O34  1  0.33134976  0.73851813  0.88986811  1
  O  O35  1  0.66865024  0.23851813  0.11013189  1
  O  O36  1  0.65898650  0.27224521  0.89900076  1
  O  O37  1  0.34101350  0.77224521  0.10099924  1
  O  O38  1  0.84101350  0.27224521  0.39900076  1
  O  O39  1  0.28663410  0.03339771  0.89881865  1
  K  K40  1  0.77399362  0.69055828  0.38191741  1
  K  K41  1  0.29611167  0.43463892  0.88950046  1
  K  K42  1  0.20388833  0.43463892  0.38950046  1
  K  K43  1  0.70388833  0.93463892  0.11049954  1
  K  K44  1  0.27399362  0.19055828  0.11808259  1
  K  K45  1  0.72600638  0.69055828  0.88191741  1
  K  K46  1  0.22600638  0.19055828  0.61808259  1
  K  K47  1  0.79611167  0.93463892  0.61049954  1
  Ge  Ge48  1  0.68122761  0.25153182  0.50222962  1
  Ge  Ge49  1  0.18122761  0.75153182  0.99777038  1
  Ge  Ge50  1  0.81877239  0.25153182  0.00222962  1
  Ge  Ge51  1  0.51134194  0.50283616  0.18137455  1
  Ge  Ge52  1  0.48865806  0.00283616  0.81862545  1
  Ge  Ge53  1  0.98865806  0.50283616  0.68137455  1
  Ge  Ge54  1  0.31877239  0.75153182  0.49777038  1
  Ge  Ge55  1  0.01134194  0.00283616  0.31862545  1
  Sb  Sb56  1  0.25678981  0.75557461  0.24517927  1
  Sb  Sb57  1  0.74321019  0.25557461  0.75482073  1
  Sb  Sb58  1  0.24321019  0.75557461  0.74517927  1
  Sb  Sb59  1  0.50768588  0.00075922  0.38241421  1
  Sb  Sb60  1  0.49231412  0.50075922  0.61758579  1
  Sb  Sb61  1  0.99231412  0.00075922  0.88241421  1
  Sb  Sb62  1  0.00768588  0.50075922  0.11758579  1
  Sb  Sb63  1  0.75678981  0.25557461  0.25482073  1
