# generated using pymatgen
data_TaAlO4
_symmetry_space_group_name_H-M   'P 1'
_cell_length_a   3.81314202
_cell_length_b   6.42400180
_cell_length_c   6.51563868
_cell_angle_alpha   106.86510637
_cell_angle_beta   90.00000000
_cell_angle_gamma   107.26482544
_symmetry_Int_Tables_number   1
_chemical_formula_structural   TaAlO4
_chemical_formula_sum   'Ta2 Al2 O8'
_cell_volume   145.20931835
_cell_formula_units_Z   2
loop_
 _symmetry_equiv_pos_site_id
 _symmetry_equiv_pos_as_xyz
  1  'x, y, z'
loop_
 _atom_site_type_symbol
 _atom_site_label
 _atom_site_symmetry_multiplicity
 _atom_site_fract_x
 _atom_site_fract_y
 _atom_site_fract_z
 _atom_site_occupancy
  O  O0  1  0.35829379  0.71658758  0.79661599  1
  O  O1  1  0.64170621  0.28341242  0.20338401  1
  O  O2  1  0.94267898  0.88535796  0.13611761  1
  O  O3  1  0.05732102  0.11464204  0.86388239  1
  O  O4  1  0.14114086  0.28228172  0.52583845  1
  O  O5  1  0.85885914  0.71771828  0.47416155  1
  O  O6  1  0.26194173  0.52388347  0.14174823  1
  O  O7  1  0.73805827  0.47611653  0.85825177  1
  Al  Al8  1  0.79930936  0.59861873  0.17961459  1
  Al  Al9  1  0.20069064  0.40138127  0.82038541  1
  Ta  Ta10  1  0.89442965  0.78885930  0.76691766  1
  Ta  Ta11  1  0.10557035  0.21114070  0.23308234  1
