# generated using pymatgen
data_Rb2Pd3Se4
_symmetry_space_group_name_H-M   'P 1'
_cell_length_a   6.48239540
_cell_length_b   6.53828464
_cell_length_c   14.44674546
_cell_angle_alpha   83.61443602
_cell_angle_beta   77.03505486
_cell_angle_gamma   60.28236488
_symmetry_Int_Tables_number   1
_chemical_formula_structural   Rb2Pd3Se4
_chemical_formula_sum   'Rb4 Pd6 Se8'
_cell_volume   518.21963415
_cell_formula_units_Z   2
loop_
 _symmetry_equiv_pos_site_id
 _symmetry_equiv_pos_as_xyz
  1  'x, y, z'
loop_
 _atom_site_type_symbol
 _atom_site_label
 _atom_site_symmetry_multiplicity
 _atom_site_fract_x
 _atom_site_fract_y
 _atom_site_fract_z
 _atom_site_occupancy
  Se  Se0  1  0.89712579  0.08197441  0.86614268  1
  Se  Se1  1  0.76326847  0.58197441  0.13385732  1
  Se  Se2  1  0.97910019  0.91802559  0.36614268  1
  Se  Se3  1  0.65475713  0.58197441  0.36614268  1
  Se  Se4  1  0.34524287  0.41802559  0.63385732  1
  Se  Se5  1  0.02089981  0.08197441  0.63385732  1
  Se  Se6  1  0.23673153  0.41802559  0.86614268  1
  Se  Se7  1  0.10287421  0.91802559  0.13385732  1
  Rb  Rb8  1  0.55061807  0.75000000  0.89876387  1
  Rb  Rb9  1  0.30061807  0.25000000  0.39876387  1
  Rb  Rb10  1  0.44938193  0.25000000  0.10123613  1
  Rb  Rb11  1  0.69938193  0.75000000  0.60123613  1
  Pd  Pd12  1  0.37440922  0.75000000  0.25118156  1
  Pd  Pd13  1  0.12440922  0.25000000  0.75118156  1
  Pd  Pd14  1  0.62559078  0.25000000  0.74881844  1
  Pd  Pd15  1  0.12500000  0.75000000  0.75000000  1
  Pd  Pd16  1  0.87500000  0.25000000  0.25000000  1
  Pd  Pd17  1  0.87559078  0.75000000  0.24881844  1
