# generated using pymatgen
data_Dy3MnB7
_symmetry_space_group_name_H-M   'P 1'
_cell_length_a   3.44107002
_cell_length_b   8.06497820
_cell_length_c   9.29765885
_cell_angle_alpha   90.00000000
_cell_angle_beta   90.00000000
_cell_angle_gamma   102.31781200
_symmetry_Int_Tables_number   1
_chemical_formula_structural   Dy3MnB7
_chemical_formula_sum   'Dy6 Mn2 B14'
_cell_volume   252.09003408
_cell_formula_units_Z   2
loop_
 _symmetry_equiv_pos_site_id
 _symmetry_equiv_pos_as_xyz
  1  'x, y, z'
loop_
 _atom_site_type_symbol
 _atom_site_label
 _atom_site_symmetry_multiplicity
 _atom_site_fract_x
 _atom_site_fract_y
 _atom_site_fract_z
 _atom_site_occupancy
  B  B0  1  0.46062486  0.92124971  0.25000000  1
  B  B1  1  0.53937514  0.07875029  0.75000000  1
  B  B2  1  0.47822699  0.95645397  0.90171983  1
  B  B3  1  0.52177301  0.04354603  0.09828017  1
  B  B4  1  0.52177301  0.04354603  0.40171983  1
  B  B5  1  0.47822699  0.95645397  0.59828017  1
  B  B6  1  0.37019281  0.74038562  0.84699839  1
  B  B7  1  0.62980719  0.25961438  0.15300161  1
  B  B8  1  0.27265584  0.54531168  0.96761439  1
  B  B9  1  0.72734416  0.45468832  0.03238561  1
  B  B10  1  0.72734416  0.45468832  0.46761439  1
  B  B11  1  0.27265584  0.54531168  0.53238561  1
  B  B12  1  0.37019281  0.74038562  0.65300161  1
  B  B13  1  0.62980719  0.25961438  0.34699839  1
  Mn  Mn14  1  0.05365942  0.10731884  0.25000000  1
  Mn  Mn15  1  0.94634058  0.89268116  0.75000000  1
  Dy  Dy16  1  0.23992098  0.47984195  0.25000000  1
  Dy  Dy17  1  0.76007902  0.52015805  0.75000000  1
  Dy  Dy18  1  0.10395362  0.20790724  0.56045961  1
  Dy  Dy19  1  0.89604638  0.79209276  0.43954039  1
  Dy  Dy20  1  0.89604638  0.79209276  0.06045961  1
  Dy  Dy21  1  0.10395362  0.20790724  0.93954039  1
