# generated using pymatgen
data_Ca(AlS2)2
_symmetry_space_group_name_H-M   'P 1'
_cell_length_a   11.75970595
_cell_length_b   11.75970595
_cell_length_c   11.85515447
_cell_angle_alpha   105.30574488
_cell_angle_beta   105.30574485
_cell_angle_gamma   117.88999067
_symmetry_Int_Tables_number   1
_chemical_formula_structural   Ca(AlS2)2
_chemical_formula_sum   'Ca8 Al16 S32'
_cell_volume   1244.94838880
_cell_formula_units_Z   8
loop_
 _symmetry_equiv_pos_site_id
 _symmetry_equiv_pos_as_xyz
  1  'x, y, z'
loop_
 _atom_site_type_symbol
 _atom_site_label
 _atom_site_symmetry_multiplicity
 _atom_site_fract_x
 _atom_site_fract_y
 _atom_site_fract_z
 _atom_site_occupancy
  Al  Al0  1  0.88863662  0.86500700  0.99887902  1
  Al  Al1  1  0.86612799  0.38975760  0.50112098  1
  Al  Al2  1  0.13499300  0.11136338  0.50112098  1
  Al  Al3  1  0.61024240  0.13387201  0.99887902  1
  Al  Al4  1  0.11136338  0.13499300  0.00112098  1
  Al  Al5  1  0.13387201  0.61024240  0.49887902  1
  Al  Al6  1  0.86500700  0.88863662  0.49887902  1
  Al  Al7  1  0.38975760  0.86612799  0.00112098  1
  Al  Al8  1  0.03089159  0.63805332  0.00029209  1
  Al  Al9  1  0.63776124  0.53059950  0.49970791  1
  Al  Al10  1  0.36194668  0.96910841  0.49970791  1
  Al  Al11  1  0.46940050  0.36223876  0.00029209  1
  Al  Al12  1  0.96910841  0.36194668  0.99970791  1
  Al  Al13  1  0.36223876  0.46940050  0.50029209  1
  Al  Al14  1  0.63805332  0.03089159  0.50029209  1
  Al  Al15  1  0.53059950  0.63776124  0.99970791  1
  S  S16  1  0.31505996  0.15665156  0.00183422  1
  S  S17  1  0.15481734  0.81322574  0.49816578  1
  S  S18  1  0.84334844  0.68494004  0.49816578  1
  S  S19  1  0.18677426  0.84518266  0.00183422  1
  S  S20  1  0.68494004  0.84334844  0.99816578  1
  S  S21  1  0.84518266  0.18677426  0.50183422  1
  S  S22  1  0.15665156  0.31505996  0.50183422  1
  S  S23  1  0.81322574  0.15481734  0.99816578  1
  S  S24  1  0.91457733  0.41504428  0.33198809  1
  S  S25  1  0.08305619  0.08258925  0.16801191  1
  S  S26  1  0.58495572  0.08542267  0.16801191  1
  S  S27  1  0.91741075  0.91694381  0.33198809  1
  S  S28  1  0.08542267  0.58495572  0.66801191  1
  S  S29  1  0.91694381  0.91741075  0.83198809  1
  S  S30  1  0.41504428  0.91457733  0.83198809  1
  S  S31  1  0.08258925  0.08305619  0.66801191  1
  S  S32  1  0.41450840  0.41423287  0.33080110  1
  S  S33  1  0.08343177  0.58370730  0.16919890  1
  S  S34  1  0.58576713  0.58549160  0.16919890  1
  S  S35  1  0.41629270  0.91656823  0.33080110  1
  S  S36  1  0.58549160  0.58576713  0.66919890  1
  S  S37  1  0.91656823  0.41629270  0.83080110  1
  S  S38  1  0.41423287  0.41450840  0.83080110  1
  S  S39  1  0.58370730  0.08343177  0.66919890  1
  S  S40  1  0.65104443  0.34030944  0.99796980  1
  S  S41  1  0.34233964  0.15307463  0.50203020  1
  S  S42  1  0.65969056  0.34895557  0.50203020  1
  S  S43  1  0.84692537  0.65766036  0.99796980  1
  S  S44  1  0.34895557  0.65969056  0.00203020  1
  S  S45  1  0.65766036  0.84692537  0.49796980  1
  S  S46  1  0.34030944  0.65104443  0.49796980  1
  S  S47  1  0.15307463  0.34233964  0.00203020  1
  Ca  Ca48  1  0.87319782  0.62319782  0.24639564  1
  Ca  Ca49  1  0.37680218  0.12680218  0.25360436  1
  Ca  Ca50  1  0.12680218  0.37680218  0.75360436  1
  Ca  Ca51  1  0.62319782  0.87319782  0.74639564  1
  Ca  Ca52  1  0.62500000  0.37500000  0.75000000  1
  Ca  Ca53  1  0.37500000  0.62500000  0.25000000  1
  Ca  Ca54  1  0.12500000  0.87500000  0.75000000  1
  Ca  Ca55  1  0.87500000  0.12500000  0.25000000  1
