# generated using pymatgen
data_Mg3(PO4)2
_symmetry_space_group_name_H-M   'P 1'
_cell_length_a   5.12237252
_cell_length_b   7.73264424
_cell_length_c   8.34038616
_cell_angle_alpha   90.00000000
_cell_angle_beta   90.00000000
_cell_angle_gamma   94.23571448
_symmetry_Int_Tables_number   1
_chemical_formula_structural   Mg3(PO4)2
_chemical_formula_sum   'Mg6 P4 O16'
_cell_volume   329.45606466
_cell_formula_units_Z   2
loop_
 _symmetry_equiv_pos_site_id
 _symmetry_equiv_pos_as_xyz
  1  'x, y, z'
loop_
 _atom_site_type_symbol
 _atom_site_label
 _atom_site_symmetry_multiplicity
 _atom_site_fract_x
 _atom_site_fract_y
 _atom_site_fract_z
 _atom_site_occupancy
  O  O0  1  0.54573144  0.85664598  0.42454521  1
  O  O1  1  0.95426856  0.64335402  0.92454521  1
  O  O2  1  0.45426856  0.14335402  0.57545479  1
  O  O3  1  0.04573144  0.35664598  0.07545479  1
  O  O4  1  0.44045521  0.76279084  0.13736475  1
  O  O5  1  0.05954479  0.73720916  0.63736475  1
  O  O6  1  0.55954479  0.23720916  0.86263525  1
  O  O7  1  0.94045521  0.26279084  0.36263525  1
  O  O8  1  0.80319944  0.62607390  0.30179349  1
  O  O9  1  0.69680056  0.87392610  0.80179349  1
  O  O10  1  0.81523217  0.06196401  0.14475740  1
  O  O11  1  0.68476783  0.43803599  0.64475740  1
  O  O12  1  0.18476783  0.93803599  0.85524260  1
  O  O13  1  0.31523217  0.56196401  0.35524260  1
  O  O14  1  0.30319944  0.12607390  0.19820651  1
  O  O15  1  0.19680056  0.37392610  0.69820651  1
  Mg  Mg16  1  0.09221778  0.60823936  0.14412857  1
  Mg  Mg17  1  0.40778222  0.89176064  0.64412857  1
  Mg  Mg18  1  0.90778222  0.39176064  0.85587143  1
  Mg  Mg19  1  0.59221778  0.10823936  0.35587143  1
  Mg  Mg20  1  0.00000000  0.50000000  0.50000000  1
  Mg  Mg21  1  0.50000000  0.00000000  0.00000000  1
  P  P22  1  0.03282908  0.20162918  0.19457461  1
  P  P23  1  0.46717092  0.29837082  0.69457461  1
  P  P24  1  0.96717092  0.79837082  0.80542539  1
  P  P25  1  0.53282908  0.70162918  0.30542539  1
