# generated using pymatgen
data_Ba2Re6S11
_symmetry_space_group_name_H-M   'P 1'
_cell_length_a   12.04235019
_cell_length_b   12.04235019
_cell_length_c   12.04235019
_cell_angle_alpha   45.53475754
_cell_angle_beta   45.53475755
_cell_angle_gamma   45.53475755
_symmetry_Int_Tables_number   1
_chemical_formula_structural   Ba2Re6S11
_chemical_formula_sum   'Ba4 Re12 S22'
_cell_volume   810.50658337
_cell_formula_units_Z   2
loop_
 _symmetry_equiv_pos_site_id
 _symmetry_equiv_pos_as_xyz
  1  'x, y, z'
loop_
 _atom_site_type_symbol
 _atom_site_label
 _atom_site_symmetry_multiplicity
 _atom_site_fract_x
 _atom_site_fract_y
 _atom_site_fract_z
 _atom_site_occupancy
  S  S0  1  0.59083983  0.59083983  0.59083983  1
  S  S1  1  0.90916017  0.90916017  0.90916017  1
  S  S2  1  0.40916017  0.40916017  0.40916017  1
  S  S3  1  0.09083983  0.09083983  0.09083983  1
  S  S4  1  0.48218306  0.75000000  0.01781694  1
  S  S5  1  0.75000000  0.01781694  0.48218306  1
  S  S6  1  0.01781694  0.48218306  0.75000000  1
  S  S7  1  0.51781694  0.25000000  0.98218306  1
  S  S8  1  0.25000000  0.98218306  0.51781694  1
  S  S9  1  0.98218306  0.51781694  0.25000000  1
  S  S10  1  0.21050090  0.57277690  0.80738665  1
  S  S11  1  0.57277690  0.80738665  0.21050090  1
  S  S12  1  0.80738665  0.21050090  0.57277690  1
  S  S13  1  0.69261335  0.92722310  0.28949910  1
  S  S14  1  0.92722310  0.28949910  0.69261335  1
  S  S15  1  0.28949910  0.69261335  0.92722310  1
  S  S16  1  0.71050090  0.30738665  0.07277690  1
  S  S17  1  0.07277690  0.71050090  0.30738665  1
  S  S18  1  0.30738665  0.07277690  0.71050090  1
  S  S19  1  0.19261335  0.78949910  0.42722310  1
  S  S20  1  0.42722310  0.19261335  0.78949910  1
  S  S21  1  0.78949910  0.42722310  0.19261335  1
  Ba  Ba22  1  0.81137782  0.81137782  0.81137782  1
  Ba  Ba23  1  0.68862218  0.68862218  0.68862218  1
  Ba  Ba24  1  0.18862218  0.18862218  0.18862218  1
  Ba  Ba25  1  0.31137782  0.31137782  0.31137782  1
  Re  Re26  1  0.79277756  0.11688952  0.98881434  1
  Re  Re27  1  0.11688952  0.98881434  0.79277756  1
  Re  Re28  1  0.61688952  0.29277756  0.48881434  1
  Re  Re29  1  0.29277756  0.48881434  0.61688952  1
  Re  Re30  1  0.48881434  0.61688952  0.29277756  1
  Re  Re31  1  0.01118566  0.20722244  0.88311048  1
  Re  Re32  1  0.20722244  0.88311048  0.01118566  1
  Re  Re33  1  0.88311048  0.01118566  0.20722244  1
  Re  Re34  1  0.98881434  0.79277756  0.11688952  1
  Re  Re35  1  0.51118566  0.38311048  0.70722244  1
  Re  Re36  1  0.70722244  0.51118566  0.38311048  1
  Re  Re37  1  0.38311048  0.70722244  0.51118566  1
