# generated using pymatgen
data_Sr(AlS2)2
_symmetry_space_group_name_H-M   'P 1'
_cell_length_a   11.99332891
_cell_length_b   11.99332891
_cell_length_c   12.24695325
_cell_angle_alpha   104.74303390
_cell_angle_beta   104.74303389
_cell_angle_gamma   118.70290928
_symmetry_Int_Tables_number   1
_chemical_formula_structural   Sr(AlS2)2
_chemical_formula_sum   'Sr8 Al16 S32'
_cell_volume   1338.83009155
_cell_formula_units_Z   8
loop_
 _symmetry_equiv_pos_site_id
 _symmetry_equiv_pos_as_xyz
  1  'x, y, z'
loop_
 _atom_site_type_symbol
 _atom_site_label
 _atom_site_symmetry_multiplicity
 _atom_site_fract_x
 _atom_site_fract_y
 _atom_site_fract_z
 _atom_site_occupancy
  Al  Al0  1  0.89104174  0.86485763  0.99921653  1
  Al  Al1  1  0.86564110  0.39182521  0.50078347  1
  Al  Al2  1  0.13514237  0.10895826  0.50078347  1
  Al  Al3  1  0.60817479  0.13435890  0.99921653  1
  Al  Al4  1  0.10895826  0.13514237  0.00078347  1
  Al  Al5  1  0.13435890  0.60817479  0.49921653  1
  Al  Al6  1  0.86485763  0.89104174  0.49921653  1
  Al  Al7  1  0.39182521  0.86564110  0.00078347  1
  Al  Al8  1  0.03155754  0.63712130  0.00019664  1
  Al  Al9  1  0.63692466  0.53136090  0.49980336  1
  Al  Al10  1  0.36287870  0.96844246  0.49980336  1
  Al  Al11  1  0.46863910  0.36307534  0.00019664  1
  Al  Al12  1  0.96844246  0.36287870  0.99980336  1
  Al  Al13  1  0.36307534  0.46863910  0.50019664  1
  Al  Al14  1  0.63712130  0.03155754  0.50019664  1
  Al  Al15  1  0.53136090  0.63692466  0.99980336  1
  S  S16  1  0.31084498  0.16142555  0.00137391  1
  S  S17  1  0.16005164  0.80947108  0.49862609  1
  S  S18  1  0.83857445  0.68915502  0.49862609  1
  S  S19  1  0.19052892  0.83994836  0.00137391  1
  S  S20  1  0.68915502  0.83857445  0.99862609  1
  S  S21  1  0.83994836  0.19052892  0.50137391  1
  S  S22  1  0.16142555  0.31084498  0.50137391  1
  S  S23  1  0.80947108  0.16005164  0.99862609  1
  S  S24  1  0.91822376  0.41885187  0.33874433  1
  S  S25  1  0.08010754  0.07947942  0.16125567  1
  S  S26  1  0.58114813  0.08177624  0.16125567  1
  S  S27  1  0.92052058  0.91989246  0.33874433  1
  S  S28  1  0.08177624  0.58114813  0.66125567  1
  S  S29  1  0.91989246  0.92052058  0.83874433  1
  S  S30  1  0.41885187  0.91822376  0.83874433  1
  S  S31  1  0.07947942  0.08010754  0.66125567  1
  S  S32  1  0.41836227  0.41836711  0.33802546  1
  S  S33  1  0.08034164  0.58033681  0.16197454  1
  S  S34  1  0.58163289  0.58163773  0.16197454  1
  S  S35  1  0.41966319  0.91965836  0.33802546  1
  S  S36  1  0.58163773  0.58163289  0.66197454  1
  S  S37  1  0.91965836  0.41966319  0.83802546  1
  S  S38  1  0.41836711  0.41836227  0.83802546  1
  S  S39  1  0.58033681  0.08034164  0.66197454  1
  S  S40  1  0.64399555  0.33624124  0.99856983  1
  S  S41  1  0.33767141  0.14542572  0.50143017  1
  S  S42  1  0.66375876  0.35600445  0.50143017  1
  S  S43  1  0.85457428  0.66232859  0.99856983  1
  S  S44  1  0.35600445  0.66375876  0.00143017  1
  S  S45  1  0.66232859  0.85457428  0.49856983  1
  S  S46  1  0.33624124  0.64399555  0.49856983  1
  S  S47  1  0.14542572  0.33767141  0.00143017  1
  Sr  Sr48  1  0.87369369  0.62369369  0.24738738  1
  Sr  Sr49  1  0.37630631  0.12630631  0.25261262  1
  Sr  Sr50  1  0.12630631  0.37630631  0.75261262  1
  Sr  Sr51  1  0.62369369  0.87369369  0.74738738  1
  Sr  Sr52  1  0.62500000  0.37500000  0.75000000  1
  Sr  Sr53  1  0.37500000  0.62500000  0.25000000  1
  Sr  Sr54  1  0.12500000  0.87500000  0.75000000  1
  Sr  Sr55  1  0.87500000  0.12500000  0.25000000  1
