# generated using pymatgen
data_KGePO5
_symmetry_space_group_name_H-M   'P 1'
_cell_length_a   6.40152404
_cell_length_b   10.17297545
_cell_length_c   12.82633183
_cell_angle_alpha   90.00000000
_cell_angle_beta   90.00000000
_cell_angle_gamma   90.00000000
_symmetry_Int_Tables_number   1
_chemical_formula_structural   KGePO5
_chemical_formula_sum   'K8 Ge8 P8 O40'
_cell_volume   835.28339617
_cell_formula_units_Z   8
loop_
 _symmetry_equiv_pos_site_id
 _symmetry_equiv_pos_as_xyz
  1  'x, y, z'
loop_
 _atom_site_type_symbol
 _atom_site_label
 _atom_site_symmetry_multiplicity
 _atom_site_fract_x
 _atom_site_fract_y
 _atom_site_fract_z
 _atom_site_occupancy
  O  O0  1  0.96110814  0.88792570  0.24421952  1
  O  O1  1  0.03889186  0.38792570  0.75578048  1
  O  O2  1  0.53889186  0.88792570  0.74421952  1
  O  O3  1  0.46110814  0.38792570  0.25578048  1
  O  O4  1  0.04090071  0.12168740  0.24649184  1
  O  O5  1  0.95909929  0.62168740  0.75350816  1
  O  O6  1  0.45909929  0.12168740  0.74649184  1
  O  O7  1  0.54090071  0.62168740  0.25350816  1
  O  O8  1  0.19515319  0.97165437  0.39031696  1
  O  O9  1  0.80484681  0.47165437  0.60968304  1
  O  O10  1  0.30484681  0.97165437  0.89031696  1
  O  O11  1  0.69515319  0.47165437  0.10968304  1
  O  O12  1  0.81320045  0.03323509  0.39131819  1
  O  O13  1  0.18679955  0.53323509  0.60868181  1
  O  O14  1  0.68679955  0.03323509  0.89131819  1
  O  O15  1  0.69037224  0.72671627  0.90232952  1
  O  O16  1  0.31320045  0.53323509  0.10868181  1
  O  O17  1  0.53268495  0.63489489  0.72492861  1
  O  O18  1  0.03268495  0.13489489  0.77507139  1
  O  O19  1  0.96731505  0.63489489  0.22492861  1
  O  O20  1  0.54630945  0.87739182  0.26889012  1
  O  O21  1  0.45369055  0.37739182  0.73110988  1
  O  O22  1  0.95369055  0.87739182  0.76889012  1
  O  O23  1  0.04630945  0.37739182  0.23110988  1
  O  O24  1  0.48413647  0.13257978  0.48472053  1
  O  O25  1  0.51586353  0.63257978  0.51527947  1
  O  O26  1  0.01586353  0.13257978  0.98472053  1
  O  O27  1  0.98413647  0.63257978  0.01527947  1
  O  O28  1  0.47566516  0.37462134  0.51825775  1
  O  O29  1  0.52433484  0.87462134  0.48174225  1
  O  O30  1  0.02433484  0.37462134  0.01825775  1
  O  O31  1  0.97566516  0.87462134  0.98174225  1
  O  O32  1  0.19480009  0.27578048  0.40532724  1
  O  O33  1  0.80519991  0.77578048  0.59467276  1
  O  O34  1  0.30519991  0.27578048  0.90532724  1
  O  O35  1  0.69480009  0.77578048  0.09467276  1
  O  O36  1  0.19037224  0.22671627  0.59767048  1
  O  O37  1  0.80962776  0.72671627  0.40232952  1
  O  O38  1  0.30962776  0.22671627  0.09767048  1
  O  O39  1  0.46731505  0.13489489  0.27507139  1
  P  P40  1  0.83404260  0.75104656  0.99779666  1
  P  P41  1  0.33404260  0.25104656  0.50220334  1
  P  P42  1  0.66595740  0.75104656  0.49779666  1
  P  P43  1  0.16595740  0.25104656  0.00220334  1
  P  P44  1  0.50378160  0.50302419  0.17912249  1
  P  P45  1  0.49621840  0.00302419  0.82087751  1
  P  P46  1  0.99621840  0.50302419  0.67912249  1
  P  P47  1  0.00378160  0.00302419  0.32087751  1
  K  K48  1  0.19142264  0.56895613  0.39157489  1
  K  K49  1  0.22027640  0.81544215  0.61877119  1
  K  K50  1  0.72027640  0.31544215  0.88122881  1
  K  K51  1  0.27972360  0.81544215  0.11877119  1
  K  K52  1  0.77972360  0.31544215  0.38122881  1
  K  K53  1  0.69142264  0.06895613  0.10842511  1
  K  K54  1  0.30857736  0.56895613  0.89157489  1
  K  K55  1  0.80857736  0.06895613  0.60842511  1
  Ge  Ge56  1  0.75407367  0.75205953  0.25157634  1
  Ge  Ge57  1  0.24592633  0.25205953  0.74842366  1
  Ge  Ge58  1  0.74592633  0.75205953  0.75157634  1
  Ge  Ge59  1  0.25407367  0.25205953  0.24842366  1
  Ge  Ge60  1  0.99728072  0.50097429  0.13043815  1
  Ge  Ge61  1  0.00271928  0.00097429  0.86956185  1
  Ge  Ge62  1  0.50271928  0.50097429  0.63043815  1
  Ge  Ge63  1  0.49728072  0.00097429  0.36956185  1
