# generated using pymatgen
data_Tl6TeO12
_symmetry_space_group_name_H-M   'P 1'
_cell_length_a   6.53755044
_cell_length_b   6.53755045
_cell_length_c   6.53755045
_cell_angle_alpha   97.74349480
_cell_angle_beta   97.74349475
_cell_angle_gamma   97.74349478
_symmetry_Int_Tables_number   1
_chemical_formula_structural   Tl6TeO12
_chemical_formula_sum   'Tl6 Te1 O12'
_cell_volume   270.99289917
_cell_formula_units_Z   1
loop_
 _symmetry_equiv_pos_site_id
 _symmetry_equiv_pos_as_xyz
  1  'x, y, z'
loop_
 _atom_site_type_symbol
 _atom_site_label
 _atom_site_symmetry_multiplicity
 _atom_site_fract_x
 _atom_site_fract_y
 _atom_site_fract_z
 _atom_site_occupancy
  O  O0  1  0.42300251  0.17491900  0.60102654  1
  O  O1  1  0.17491900  0.60102654  0.42300251  1
  O  O2  1  0.60102654  0.42300251  0.17491900  1
  O  O3  1  0.57699749  0.82508100  0.39897346  1
  O  O4  1  0.82508100  0.39897346  0.57699749  1
  O  O5  1  0.39897346  0.57699749  0.82508100  1
  O  O6  1  0.03388098  0.92807175  0.70511179  1
  O  O7  1  0.29488821  0.96611902  0.07192825  1
  O  O8  1  0.07192825  0.29488821  0.96611902  1
  O  O9  1  0.96611902  0.07192825  0.29488821  1
  O  O10  1  0.70511179  0.03388098  0.92807175  1
  O  O11  1  0.92807175  0.70511179  0.03388098  1
  Te  Te12  1  0.00000000  0.00000000  0.00000000  1
  Tl  Tl13  1  0.69577863  0.39246651  0.86431183  1
  Tl  Tl14  1  0.39246651  0.86431183  0.69577863  1
  Tl  Tl15  1  0.86431183  0.69577863  0.39246651  1
  Tl  Tl16  1  0.30422137  0.60753349  0.13568817  1
  Tl  Tl17  1  0.60753349  0.13568817  0.30422137  1
  Tl  Tl18  1  0.13568817  0.30422137  0.60753349  1
