# generated using pymatgen
data_Sn3F8
_symmetry_space_group_name_H-M   'P 1'
_cell_length_a   5.49442948
_cell_length_b   5.49657983
_cell_length_c   12.49378353
_cell_angle_alpha   90.00000000
_cell_angle_beta   90.52353665
_cell_angle_gamma   90.00000000
_symmetry_Int_Tables_number   1
_chemical_formula_structural   Sn3F8
_chemical_formula_sum   'Sn6 F16'
_cell_volume   377.30363597
_cell_formula_units_Z   2
loop_
 _symmetry_equiv_pos_site_id
 _symmetry_equiv_pos_as_xyz
  1  'x, y, z'
loop_
 _atom_site_type_symbol
 _atom_site_label
 _atom_site_symmetry_multiplicity
 _atom_site_fract_x
 _atom_site_fract_y
 _atom_site_fract_z
 _atom_site_occupancy
  F  F0  1  0.33838785  0.10709041  0.75407095  1
  F  F1  1  0.16161215  0.60709041  0.74592905  1
  F  F2  1  0.66161215  0.89290959  0.24592905  1
  F  F3  1  0.83838785  0.39290959  0.25407095  1
  F  F4  1  0.21004064  0.30024535  0.53700159  1
  F  F5  1  0.28995936  0.80024535  0.96299841  1
  F  F6  1  0.13834151  0.03079226  0.14957530  1
  F  F7  1  0.36165849  0.53079226  0.35042470  1
  F  F8  1  0.86165849  0.96920774  0.85042470  1
  F  F9  1  0.63834151  0.46920774  0.64957530  1
  F  F10  1  0.67733932  0.19565259  0.45253794  1
  F  F11  1  0.82266068  0.69565259  0.04746206  1
  F  F12  1  0.32266068  0.80434741  0.54746206  1
  F  F13  1  0.17733932  0.30434741  0.95253794  1
  F  F14  1  0.71004064  0.19975465  0.03700159  1
  F  F15  1  0.78995936  0.69975465  0.46299841  1
  Sn  Sn16  1  0.46008702  0.44501949  0.83301105  1
  Sn  Sn17  1  0.03991298  0.94501949  0.66698895  1
  Sn  Sn18  1  0.53991298  0.55498051  0.16698895  1
  Sn  Sn19  1  0.96008702  0.05498051  0.33301105  1
  Sn  Sn20  1  0.50000000  0.50000000  0.50000000  1
  Sn  Sn21  1  0.00000000  0.00000000  0.00000000  1
