# generated using pymatgen
data_Tb3Al5O12
_symmetry_space_group_name_H-M   'P 1'
_cell_length_a   10.51600549
_cell_length_b   10.51600549
_cell_length_c   10.51600550
_cell_angle_alpha   109.47122066
_cell_angle_beta   109.47122066
_cell_angle_gamma   109.47122061
_symmetry_Int_Tables_number   1
_chemical_formula_structural   Tb3Al5O12
_chemical_formula_sum   'Tb12 Al20 O48'
_cell_volume   895.22153824
_cell_formula_units_Z   4
loop_
 _symmetry_equiv_pos_site_id
 _symmetry_equiv_pos_as_xyz
  1  'x, y, z'
loop_
 _atom_site_type_symbol
 _atom_site_label
 _atom_site_symmetry_multiplicity
 _atom_site_fract_x
 _atom_site_fract_y
 _atom_site_fract_z
 _atom_site_occupancy
  O  O0  1  0.98059508  0.67958756  0.09877999  1
  O  O1  1  0.82041244  0.80100753  0.41919244  1
  O  O2  1  0.40122001  0.08080756  0.88181509  1
  O  O3  1  0.51940492  0.61818491  0.69899247  1
  O  O4  1  0.51940492  0.40122001  0.82041244  1
  O  O5  1  0.61818491  0.69899247  0.51940492  1
  O  O6  1  0.08080756  0.69899247  0.67958756  1
  O  O7  1  0.69899247  0.51940492  0.61818491  1
  O  O8  1  0.41919244  0.09877999  0.61818491  1
  O  O9  1  0.80100753  0.88181509  0.98059508  1
  O  O10  1  0.88181509  0.98059508  0.80100753  1
  O  O11  1  0.82041244  0.51940492  0.40122001  1
  O  O12  1  0.69899247  0.67958756  0.08080756  1
  O  O13  1  0.61818491  0.41919244  0.09877999  1
  O  O14  1  0.40122001  0.82041244  0.51940492  1
  O  O15  1  0.67958756  0.08080756  0.69899247  1
  O  O16  1  0.09877999  0.61818491  0.41919244  1
  O  O17  1  0.41919244  0.82041244  0.80100753  1
  O  O18  1  0.08080756  0.88181509  0.40122001  1
  O  O19  1  0.58080756  0.90122001  0.38181509  1
  O  O20  1  0.88181509  0.40122001  0.08080756  1
  O  O21  1  0.09877999  0.98059508  0.67958756  1
  O  O22  1  0.80100753  0.41919244  0.82041244  1
  O  O23  1  0.98059508  0.80100753  0.88181509  1
  O  O24  1  0.01940492  0.32041244  0.90122001  1
  O  O25  1  0.17958756  0.19899247  0.58080756  1
  O  O26  1  0.59877999  0.91919244  0.11818491  1
  O  O27  1  0.48059508  0.38181509  0.30100753  1
  O  O28  1  0.48059508  0.59877999  0.17958756  1
  O  O29  1  0.38181509  0.30100753  0.48059508  1
  O  O30  1  0.91919244  0.30100753  0.32041244  1
  O  O31  1  0.30100753  0.48059508  0.38181509  1
  O  O32  1  0.01940492  0.19899247  0.11818491  1
  O  O33  1  0.19899247  0.58080756  0.17958756  1
  O  O34  1  0.90122001  0.01940492  0.32041244  1
  O  O35  1  0.32041244  0.90122001  0.01940492  1
  O  O36  1  0.11818491  0.59877999  0.91919244  1
  O  O37  1  0.91919244  0.11818491  0.59877999  1
  O  O38  1  0.58080756  0.17958756  0.19899247  1
  O  O39  1  0.90122001  0.38181509  0.58080756  1
  O  O40  1  0.32041244  0.91919244  0.30100753  1
  O  O41  1  0.59877999  0.17958756  0.48059508  1
  O  O42  1  0.38181509  0.58080756  0.90122001  1
  O  O43  1  0.30100753  0.32041244  0.91919244  1
  O  O44  1  0.17958756  0.48059508  0.59877999  1
  O  O45  1  0.11818491  0.01940492  0.19899247  1
  O  O46  1  0.19899247  0.11818491  0.01940492  1
  O  O47  1  0.67958756  0.09877999  0.98059508  1
  Al  Al48  1  0.25000000  0.12500000  0.87500000  1
  Al  Al49  1  0.75000000  0.87500000  0.12500000  1
  Al  Al50  1  0.37500000  0.25000000  0.62500000  1
  Al  Al51  1  0.62500000  0.37500000  0.25000000  1
  Al  Al52  1  0.12500000  0.75000000  0.87500000  1
  Al  Al53  1  0.87500000  0.12500000  0.75000000  1
  Al  Al54  1  0.75000000  0.37500000  0.62500000  1
  Al  Al55  1  0.37500000  0.62500000  0.75000000  1
  Al  Al56  1  0.12500000  0.87500000  0.25000000  1
  Al  Al57  1  0.87500000  0.25000000  0.12500000  1
  Al  Al58  1  0.62500000  0.75000000  0.37500000  1
  Al  Al59  1  0.25000000  0.62500000  0.37500000  1
  Al  Al60  1  0.50000000  0.50000000  0.50000000  1
  Al  Al61  1  0.50000000  0.50000000  0.00000000  1
  Al  Al62  1  0.50000000  0.00000000  0.50000000  1
  Al  Al63  1  0.00000000  0.50000000  0.50000000  1
  Al  Al64  1  0.50000000  0.00000000  0.00000000  1
  Al  Al65  1  0.00000000  0.00000000  0.50000000  1
  Al  Al66  1  0.00000000  0.50000000  0.00000000  1
  Al  Al67  1  0.00000000  0.00000000  0.00000000  1
  Tb  Tb68  1  0.25000000  0.87500000  0.62500000  1
  Tb  Tb69  1  0.87500000  0.62500000  0.25000000  1
  Tb  Tb70  1  0.62500000  0.87500000  0.75000000  1
  Tb  Tb71  1  0.87500000  0.75000000  0.62500000  1
  Tb  Tb72  1  0.62500000  0.25000000  0.87500000  1
  Tb  Tb73  1  0.75000000  0.62500000  0.87500000  1
  Tb  Tb74  1  0.75000000  0.12500000  0.37500000  1
  Tb  Tb75  1  0.12500000  0.37500000  0.75000000  1
  Tb  Tb76  1  0.37500000  0.12500000  0.25000000  1
  Tb  Tb77  1  0.12500000  0.25000000  0.37500000  1
  Tb  Tb78  1  0.37500000  0.75000000  0.12500000  1
  Tb  Tb79  1  0.25000000  0.37500000  0.12500000  1
