# generated using pymatgen
data_Sr2YRuO6
_symmetry_space_group_name_H-M   'P 1'
_cell_length_a   5.81665760
_cell_length_b   5.88539442
_cell_length_c   8.25486210
_cell_angle_alpha   90.00000000
_cell_angle_beta   90.39561942
_cell_angle_gamma   90.00000000
_symmetry_Int_Tables_number   1
_chemical_formula_structural   Sr2YRuO6
_chemical_formula_sum   'Sr4 Y2 Ru2 O12'
_cell_volume   282.58463356
_cell_formula_units_Z   2
loop_
 _symmetry_equiv_pos_site_id
 _symmetry_equiv_pos_as_xyz
  1  'x, y, z'
loop_
 _atom_site_type_symbol
 _atom_site_label
 _atom_site_symmetry_multiplicity
 _atom_site_fract_x
 _atom_site_fract_y
 _atom_site_fract_z
 _atom_site_occupancy
  O  O0  1  0.92365891  0.52069242  0.73368610  1
  O  O1  1  0.57634109  0.02069242  0.76631390  1
  O  O2  1  0.07634109  0.47930758  0.26631390  1
  O  O3  1  0.42365891  0.97930758  0.23368610  1
  O  O4  1  0.80449779  0.77201028  0.45808264  1
  O  O5  1  0.69550221  0.27201028  0.04191736  1
  O  O6  1  0.19550221  0.22798972  0.54191736  1
  O  O7  1  0.30449779  0.72798972  0.95808264  1
  O  O8  1  0.22919600  0.19851913  0.96073551  1
  O  O9  1  0.27080400  0.69851913  0.53926449  1
  O  O10  1  0.77080400  0.80148087  0.03926449  1
  O  O11  1  0.72919600  0.30148087  0.46073551  1
  Sr  Sr12  1  0.50874690  0.53740722  0.24945982  1
  Sr  Sr13  1  0.99125310  0.03740722  0.25054018  1
  Sr  Sr14  1  0.00874690  0.96259278  0.74945982  1
  Sr  Sr15  1  0.49125310  0.46259278  0.75054018  1
  Y  Y16  1  0.50000000  0.00000000  0.50000000  1
  Y  Y17  1  0.00000000  0.50000000  0.00000000  1
  Ru  Ru18  1  0.50000000  0.00000000  0.00000000  1
  Ru  Ru19  1  0.00000000  0.50000000  0.50000000  1
