# generated using pymatgen
data_K3GeS3
_symmetry_space_group_name_H-M   'P 1'
_cell_length_a   7.67407464
_cell_length_b   7.67407464
_cell_length_c   8.32491666
_cell_angle_alpha   104.90648167
_cell_angle_beta   104.90648169
_cell_angle_gamma   110.06221601
_symmetry_Int_Tables_number   1
_chemical_formula_structural   K3GeS3
_chemical_formula_sum   'K6 Ge2 S6'
_cell_volume   411.52463928
_cell_formula_units_Z   2
loop_
 _symmetry_equiv_pos_site_id
 _symmetry_equiv_pos_as_xyz
  1  'x, y, z'
loop_
 _atom_site_type_symbol
 _atom_site_label
 _atom_site_symmetry_multiplicity
 _atom_site_fract_x
 _atom_site_fract_y
 _atom_site_fract_z
 _atom_site_occupancy
  S  S0  1  0.24276902  0.95042514  0.29977311  1
  S  S1  1  0.04957486  0.75723098  0.70022689  1
  S  S2  1  0.63156411  0.63156411  0.85708261  1
  S  S3  1  0.36843589  0.36843589  0.14291739  1
  S  S4  1  0.75723098  0.04957486  0.70022689  1
  S  S5  1  0.95042514  0.24276902  0.29977311  1
  K  K6  1  0.21613297  0.21613297  0.68558534  1
  K  K7  1  0.78386703  0.78386703  0.31441466  1
  K  K8  1  0.00000000  0.50000000  0.00000000  1
  K  K9  1  0.50000000  0.00000000  0.00000000  1
  K  K10  1  0.33185899  0.66814101  0.50000000  1
  K  K11  1  0.66814101  0.33185899  0.50000000  1
  Ge  Ge12  1  0.88161351  0.88161351  0.84359600  1
  Ge  Ge13  1  0.11838649  0.11838649  0.15640400  1
