# generated using pymatgen
data_Hf(PS3)2
_symmetry_space_group_name_H-M   'P 1'
_cell_length_a   7.13910691
_cell_length_b   7.13910691
_cell_length_c   11.66192631
_cell_angle_alpha   101.75492406
_cell_angle_beta   101.75492407
_cell_angle_gamma   109.53705198
_symmetry_Int_Tables_number   1
_chemical_formula_structural   Hf(PS3)2
_chemical_formula_sum   'Hf2 P4 S12'
_cell_volume   524.05844360
_cell_formula_units_Z   2
loop_
 _symmetry_equiv_pos_site_id
 _symmetry_equiv_pos_as_xyz
  1  'x, y, z'
loop_
 _atom_site_type_symbol
 _atom_site_label
 _atom_site_symmetry_multiplicity
 _atom_site_fract_x
 _atom_site_fract_y
 _atom_site_fract_z
 _atom_site_occupancy
  P  P0  1  0.73174358  0.85575660  0.37444582  1
  P  P1  1  0.60575660  0.98174358  0.87444582  1
  P  P2  1  0.26868922  0.89270224  0.87444582  1
  P  P3  1  0.64270224  0.51868922  0.37444582  1
  S  S4  1  0.66742483  0.72008236  0.85498840  1
  S  S5  1  0.18756357  0.13490604  0.85498840  1
  S  S6  1  0.96052353  0.01139057  0.53816251  1
  S  S7  1  0.57763898  0.52677194  0.53816251  1
  S  S8  1  0.27677194  0.82763898  0.03816251  1
  S  S9  1  0.76139057  0.21052353  0.03816251  1
  S  S10  1  0.38761602  0.32338228  0.23329259  1
  S  S11  1  0.84567657  0.90991031  0.23329259  1
  S  S12  1  0.65991031  0.09567657  0.73329259  1
  S  S13  1  0.07338228  0.63761602  0.73329259  1
  S  S14  1  0.47008236  0.91742483  0.35498840  1
  S  S15  1  0.88490604  0.43756357  0.35498840  1
  Hf  Hf16  1  0.85101068  0.85101068  0.70202136  1
  Hf  Hf17  1  0.60101068  0.10101068  0.20202136  1
