# generated using pymatgen
data_FeOF
_symmetry_space_group_name_H-M   'P 1'
_cell_length_a   4.67637478
_cell_length_b   7.88812563
_cell_length_c   5.62835960
_cell_angle_alpha   94.55274197
_cell_angle_beta   91.74278193
_cell_angle_gamma   88.72288352
_symmetry_Int_Tables_number   1
_chemical_formula_structural   FeOF
_chemical_formula_sum   'Fe6 O6 F6'
_cell_volume   206.82599315
_cell_formula_units_Z   6
loop_
 _symmetry_equiv_pos_site_id
 _symmetry_equiv_pos_as_xyz
  1  'x, y, z'
loop_
 _atom_site_type_symbol
 _atom_site_label
 _atom_site_symmetry_multiplicity
 _atom_site_fract_x
 _atom_site_fract_y
 _atom_site_fract_z
 _atom_site_occupancy
  Fe  Fe0  1  0.50000000  0.00000000  0.50000000  1
  Fe  Fe1  1  0.47604211  0.35539762  0.82363080  1
  Fe  Fe2  1  0.52395789  0.64460238  0.17636920  1
  Fe  Fe3  1  0.02270204  0.68992443  0.65805356  1
  Fe  Fe4  1  0.97729796  0.31007557  0.34194644  1
  Fe  Fe5  1  0.00000000  0.00000000  0.00000000  1
  O  O6  1  0.80574789  0.08865030  0.28778730  1
  O  O7  1  0.69076147  0.76539459  0.46485429  1
  O  O8  1  0.70202548  0.42447988  0.12589287  1
  O  O9  1  0.29797452  0.57552012  0.87410713  1
  O  O10  1  0.30923853  0.23460541  0.53514571  1
  O  O11  1  0.19425211  0.91134970  0.71221270  1
  F  F12  1  0.80791895  0.43918415  0.63139157  1
  F  F13  1  0.79679884  0.77380089  0.96479374  1
  F  F14  1  0.70196159  0.11177143  0.79910124  1
  F  F15  1  0.29803841  0.88822857  0.20089876  1
  F  F16  1  0.20320116  0.22619911  0.03520626  1
  F  F17  1  0.19208105  0.56081585  0.36860843  1
