# generated using pymatgen
data_BaPr2MnS5
_symmetry_space_group_name_H-M   'P 1'
_cell_length_a   7.96970993
_cell_length_b   7.96970993
_cell_length_c   8.90016359
_cell_angle_alpha   116.59802611
_cell_angle_beta   116.59802614
_cell_angle_gamma   89.99999996
_symmetry_Int_Tables_number   1
_chemical_formula_structural   BaPr2MnS5
_chemical_formula_sum   'Ba2 Pr4 Mn2 S10'
_cell_volume   437.54727442
_cell_formula_units_Z   2
loop_
 _symmetry_equiv_pos_site_id
 _symmetry_equiv_pos_as_xyz
  1  'x, y, z'
loop_
 _atom_site_type_symbol
 _atom_site_label
 _atom_site_symmetry_multiplicity
 _atom_site_fract_x
 _atom_site_fract_y
 _atom_site_fract_z
 _atom_site_occupancy
  S  S0  1  0.48390143  0.98390143  0.26800066  1
  S  S1  1  0.21590077  0.71590077  0.73199934  1
  S  S2  1  0.51609857  0.01609857  0.73199934  1
  S  S3  1  0.71590077  0.51609857  0.73199934  1
  S  S4  1  0.01609857  0.21590077  0.73199934  1
  S  S5  1  0.28409923  0.48390143  0.26800066  1
  S  S6  1  0.98390143  0.78409923  0.26800066  1
  S  S7  1  0.78409923  0.28409923  0.26800066  1
  S  S8  1  0.00000000  0.00000000  0.00000000  1
  S  S9  1  0.50000000  0.50000000  0.00000000  1
  Mn  Mn10  1  0.75000000  0.25000000  0.50000000  1
  Mn  Mn11  1  0.25000000  0.75000000  0.50000000  1
  Ba  Ba12  1  0.75000000  0.75000000  0.50000000  1
  Ba  Ba13  1  0.25000000  0.25000000  0.50000000  1
  Pr  Pr14  1  0.66190328  0.83809672  0.00000000  1
  Pr  Pr15  1  0.16190328  0.66190328  0.00000000  1
  Pr  Pr16  1  0.83809672  0.33809672  0.00000000  1
  Pr  Pr17  1  0.33809672  0.16190328  0.00000000  1
