# generated using pymatgen
data_Pr4Si2S3O7
_symmetry_space_group_name_H-M   'P 1'
_cell_length_a   11.16533173
_cell_length_b   11.16533172
_cell_length_c   11.16533172
_cell_angle_alpha   100.13816787
_cell_angle_beta   114.32982579
_cell_angle_gamma   114.32982572
_symmetry_Int_Tables_number   1
_chemical_formula_structural   Pr4Si2S3O7
_chemical_formula_sum   'Pr16 Si8 S12 O28'
_cell_volume   1050.68662316
_cell_formula_units_Z   4
loop_
 _symmetry_equiv_pos_site_id
 _symmetry_equiv_pos_as_xyz
  1  'x, y, z'
loop_
 _atom_site_type_symbol
 _atom_site_label
 _atom_site_symmetry_multiplicity
 _atom_site_fract_x
 _atom_site_fract_y
 _atom_site_fract_z
 _atom_site_occupancy
  O  O0  1  0.25000000  0.39576298  0.14576298  1
  O  O1  1  0.75000000  0.14576298  0.39576298  1
  O  O2  1  0.75000000  0.60423702  0.85423702  1
  O  O3  1  0.25000000  0.85423702  0.60423702  1
  O  O4  1  0.02384320  0.82530005  0.34914325  1
  O  O5  1  0.47615680  0.82530005  0.80145685  1
  O  O6  1  0.47615680  0.65085675  0.17469995  1
  O  O7  1  0.97615680  0.80145685  0.82530005  1
  O  O8  1  0.52384320  0.34914325  0.82530005  1
  O  O9  1  0.52384320  0.17469995  0.19854315  1
  O  O10  1  0.97615680  0.17469995  0.65085675  1
  O  O11  1  0.02384320  0.19854315  0.17469995  1
  O  O12  1  0.77203450  0.92526884  0.43435756  1
  O  O13  1  0.72796550  0.16232306  0.15323434  1
  O  O14  1  0.72796550  0.56564244  0.07473116  1
  O  O15  1  0.99091128  0.15323434  0.92526884  1
  O  O16  1  0.50908872  0.43435756  0.16232306  1
  O  O17  1  0.50908872  0.07473116  0.84676566  1
  O  O18  1  0.99091128  0.83767694  0.56564244  1
  O  O19  1  0.77203450  0.84676566  0.83767694  1
  O  O20  1  0.22796550  0.07473116  0.56564244  1
  O  O21  1  0.27203450  0.83767694  0.84676566  1
  O  O22  1  0.27203450  0.43435756  0.92526884  1
  O  O23  1  0.00908872  0.84676566  0.07473116  1
  O  O24  1  0.49091128  0.56564244  0.83767694  1
  O  O25  1  0.49091128  0.92526884  0.15323434  1
  O  O26  1  0.00908872  0.16232306  0.43435756  1
  O  O27  1  0.22796550  0.15323434  0.16232306  1
  Si  Si28  1  0.37401665  0.90228201  0.77629867  1
  Si  Si29  1  0.12598335  0.90228201  0.52826536  1
  Si  Si30  1  0.12598335  0.22370133  0.09771799  1
  Si  Si31  1  0.62598335  0.52826536  0.90228201  1
  Si  Si32  1  0.87401665  0.77629867  0.90228201  1
  Si  Si33  1  0.87401665  0.09771799  0.47173464  1
  Si  Si34  1  0.62598335  0.09771799  0.22370133  1
  Si  Si35  1  0.37401665  0.47173464  0.09771799  1
  S  S36  1  0.25000000  0.12500000  0.87500000  1
  S  S37  1  0.75000000  0.87500000  0.12500000  1
  S  S38  1  0.75000000  0.37500000  0.62500000  1
  S  S39  1  0.25000000  0.62500000  0.37500000  1
  S  S40  1  0.85097391  0.50000000  0.35097391  1
  S  S41  1  0.85097391  0.35097391  0.00000000  1
  S  S42  1  0.64902609  0.64902609  0.50000000  1
  S  S43  1  0.64902609  0.00000000  0.64902609  1
  S  S44  1  0.14902609  0.50000000  0.64902609  1
  S  S45  1  0.14902609  0.64902609  0.00000000  1
  S  S46  1  0.35097391  0.35097391  0.50000000  1
  S  S47  1  0.35097391  0.00000000  0.35097391  1
  Pr  Pr48  1  0.09264657  0.04632328  0.29632328  1
  Pr  Pr49  1  0.25000000  0.29632328  0.70367672  1
  Pr  Pr50  1  0.25000000  0.95367672  0.04632328  1
  Pr  Pr51  1  0.40735343  0.70367672  0.95367672  1
  Pr  Pr52  1  0.90735343  0.95367672  0.70367672  1
  Pr  Pr53  1  0.75000000  0.70367672  0.29632328  1
  Pr  Pr54  1  0.75000000  0.04632328  0.95367672  1
  Pr  Pr55  1  0.59264657  0.29632328  0.04632328  1
  Pr  Pr56  1  0.01300866  0.65667440  0.16968306  1
  Pr  Pr57  1  0.48699134  0.65667440  0.64366573  1
  Pr  Pr58  1  0.48699134  0.83031694  0.34332560  1
  Pr  Pr59  1  0.98699134  0.64366573  0.65667440  1
  Pr  Pr60  1  0.51300866  0.16968306  0.65667440  1
  Pr  Pr61  1  0.51300866  0.34332560  0.35633427  1
  Pr  Pr62  1  0.98699134  0.34332560  0.83031694  1
  Pr  Pr63  1  0.01300866  0.35633427  0.34332560  1
