# generated using pymatgen
data_RbSm2CuSe4
_symmetry_space_group_name_H-M   'P 1'
_cell_length_a   4.20605853
_cell_length_b   7.57440251
_cell_length_c   14.60538874
_cell_angle_alpha   90.00000000
_cell_angle_beta   90.00000000
_cell_angle_gamma   106.11997108
_symmetry_Int_Tables_number   1
_chemical_formula_structural   RbSm2CuSe4
_chemical_formula_sum   'Rb2 Sm4 Cu2 Se8'
_cell_volume   447.00940689
_cell_formula_units_Z   2
loop_
 _symmetry_equiv_pos_site_id
 _symmetry_equiv_pos_as_xyz
  1  'x, y, z'
loop_
 _atom_site_type_symbol
 _atom_site_label
 _atom_site_symmetry_multiplicity
 _atom_site_fract_x
 _atom_site_fract_y
 _atom_site_fract_z
 _atom_site_occupancy
  Cu  Cu0  1  0.83779099  0.67558197  0.75000000  1
  Cu  Cu1  1  0.16220901  0.32441803  0.25000000  1
  Se  Se2  1  0.57061507  0.14123013  0.25000000  1
  Se  Se3  1  0.42938493  0.85876987  0.75000000  1
  Se  Se4  1  0.26228102  0.52456205  0.11196615  1
  Se  Se5  1  0.73771898  0.47543795  0.88803385  1
  Se  Se6  1  0.00000000  0.00000000  0.50000000  1
  Se  Se7  1  0.00000000  0.00000000  0.00000000  1
  Se  Se8  1  0.26228102  0.52456205  0.38803385  1
  Se  Se9  1  0.73771898  0.47543795  0.61196615  1
  Rb  Rb10  1  0.10904139  0.21808278  0.75000000  1
  Rb  Rb11  1  0.89095861  0.78191722  0.25000000  1
  Sm  Sm12  1  0.63441975  0.26883951  0.06320949  1
  Sm  Sm13  1  0.36558025  0.73116049  0.93679051  1
  Sm  Sm14  1  0.63441975  0.26883951  0.43679051  1
  Sm  Sm15  1  0.36558025  0.73116049  0.56320949  1
