# generated using pymatgen
data_Dy3Si3O10F
_symmetry_space_group_name_H-M   'P 1'
_cell_length_a   7.39099242
_cell_length_b   10.47525045
_cell_length_c   11.26885577
_cell_angle_alpha   90.00000000
_cell_angle_beta   90.00000000
_cell_angle_gamma   97.25394284
_symmetry_Int_Tables_number   1
_chemical_formula_structural   Dy3Si3O10F
_chemical_formula_sum   'Dy12 Si12 O40 F4'
_cell_volume   865.47998409
_cell_formula_units_Z   4
loop_
 _symmetry_equiv_pos_site_id
 _symmetry_equiv_pos_as_xyz
  1  'x, y, z'
loop_
 _atom_site_type_symbol
 _atom_site_label
 _atom_site_symmetry_multiplicity
 _atom_site_fract_x
 _atom_site_fract_y
 _atom_site_fract_z
 _atom_site_occupancy
  O  O0  1  0.47266539  0.13044489  0.91083557  1
  O  O1  1  0.02733461  0.36955511  0.41083557  1
  O  O2  1  0.52733461  0.86955511  0.08916443  1
  O  O3  1  0.97266539  0.63044489  0.58916443  1
  O  O4  1  0.03406575  0.13826517  0.52250837  1
  O  O5  1  0.46593425  0.36173483  0.02250837  1
  O  O6  1  0.96593425  0.86173483  0.47749163  1
  O  O7  1  0.53406575  0.63826517  0.97749163  1
  O  O8  1  0.31305330  0.80809328  0.89583253  1
  O  O9  1  0.18694670  0.69190672  0.39583253  1
  O  O10  1  0.68694670  0.19190672  0.10416747  1
  O  O11  1  0.81305330  0.30809328  0.60416747  1
  O  O12  1  0.17877678  0.37765238  0.60911846  1
  O  O13  1  0.32122322  0.12234762  0.10911846  1
  O  O14  1  0.82122322  0.62234762  0.39088154  1
  O  O15  1  0.67877678  0.87765238  0.89088154  1
  O  O16  1  0.29003767  0.80262613  0.64339216  1
  O  O17  1  0.48227028  0.37931995  0.72616202  1
  O  O18  1  0.51772972  0.62068005  0.27383798  1
  O  O19  1  0.98227028  0.87931995  0.77383798  1
  O  O20  1  0.23060681  0.51752639  0.81904606  1
  O  O21  1  0.26939319  0.98247361  0.31904606  1
  O  O22  1  0.76939319  0.48247361  0.18095394  1
  O  O23  1  0.73060681  0.01752639  0.68095394  1
  O  O24  1  0.15431426  0.26910409  0.82247927  1
  O  O25  1  0.34568574  0.23089591  0.32247927  1
  O  O26  1  0.84568574  0.73089591  0.17752073  1
  O  O27  1  0.65431426  0.76910409  0.67752073  1
  O  O28  1  0.98771725  0.63685367  0.97558325  1
  O  O29  1  0.51228275  0.86314633  0.47558325  1
  O  O30  1  0.01228275  0.36314633  0.02441675  1
  O  O31  1  0.48771725  0.13685367  0.52441675  1
  O  O32  1  0.95959897  0.10835586  0.95044096  1
  O  O33  1  0.54040103  0.39164414  0.45044096  1
  O  O34  1  0.04040103  0.89164414  0.04955904  1
  O  O35  1  0.45959897  0.60835586  0.54955904  1
  O  O36  1  0.79003767  0.30262613  0.85660784  1
  O  O37  1  0.70996233  0.19737387  0.35660784  1
  O  O38  1  0.20996233  0.69737387  0.14339216  1
  O  O39  1  0.01772972  0.12068005  0.22616202  1
  F  F40  1  0.69596090  0.94066847  0.28517192  1
  F  F41  1  0.80403910  0.55933153  0.78517192  1
  F  F42  1  0.19596090  0.44066847  0.21482808  1
  F  F43  1  0.30403910  0.05933153  0.71482808  1
  Si  Si44  1  0.00545256  0.29132522  0.53755780  1
  Si  Si45  1  0.23410618  0.11057490  0.24486782  1
  Si  Si46  1  0.73410618  0.61057490  0.25513218  1
  Si  Si47  1  0.76589382  0.88942510  0.75513218  1
  Si  Si48  1  0.47497099  0.75949946  0.58595753  1
  Si  Si49  1  0.02502901  0.74050054  0.08595753  1
  Si  Si50  1  0.52502901  0.24050054  0.41404247  1
  Si  Si51  1  0.97497099  0.25949946  0.91404247  1
  Si  Si52  1  0.50545256  0.79132522  0.96244220  1
  Si  Si53  1  0.99454744  0.70867478  0.46244220  1
  Si  Si54  1  0.26589382  0.38942510  0.74486782  1
  Si  Si55  1  0.49454744  0.20867478  0.03755780  1
  Dy  Dy56  1  0.23781221  0.98148699  0.53086170  1
  Dy  Dy57  1  0.26218779  0.51851301  0.03086170  1
  Dy  Dy58  1  0.76218779  0.01851301  0.46913830  1
  Dy  Dy59  1  0.73781221  0.48148699  0.96913830  1
  Dy  Dy60  1  0.09362858  0.68891698  0.77024384  1
  Dy  Dy61  1  0.40637142  0.81108302  0.27024384  1
  Dy  Dy62  1  0.90637142  0.31108302  0.22975616  1
  Dy  Dy63  1  0.59362858  0.18891698  0.72975616  1
  Dy  Dy64  1  0.19810535  0.00340606  0.90178381  1
  Dy  Dy65  1  0.30189465  0.49659394  0.40178381  1
  Dy  Dy66  1  0.80189465  0.99659394  0.09821619  1
  Dy  Dy67  1  0.69810535  0.50340606  0.59821619  1
