# generated using pymatgen
data_Pr3ReO8
_symmetry_space_group_name_H-M   'P 1'
_cell_length_a   6.24078537
_cell_length_b   7.56949720
_cell_length_c   14.33591054
_cell_angle_alpha   98.85185110
_cell_angle_beta   90.00000000
_cell_angle_gamma   90.00000000
_symmetry_Int_Tables_number   1
_chemical_formula_structural   Pr3ReO8
_chemical_formula_sum   'Pr12 Re4 O32'
_cell_volume   669.15674339
_cell_formula_units_Z   4
loop_
 _symmetry_equiv_pos_site_id
 _symmetry_equiv_pos_as_xyz
  1  'x, y, z'
loop_
 _atom_site_type_symbol
 _atom_site_label
 _atom_site_symmetry_multiplicity
 _atom_site_fract_x
 _atom_site_fract_y
 _atom_site_fract_z
 _atom_site_occupancy
  O  O0  1  0.30079153  0.94894520  0.97818105  1
  O  O1  1  0.80079153  0.55105480  0.52181895  1
  O  O2  1  0.69920847  0.05105480  0.02181895  1
  O  O3  1  0.19920847  0.44894520  0.47818105  1
  O  O4  1  0.53969584  0.65687298  0.90379641  1
  O  O5  1  0.03969584  0.84312702  0.59620359  1
  O  O6  1  0.46030416  0.34312702  0.09620359  1
  O  O7  1  0.96030416  0.15687298  0.40379641  1
  O  O8  1  0.15432819  0.50348373  0.83202894  1
  O  O9  1  0.65432819  0.99651627  0.66797106  1
  O  O10  1  0.84567181  0.49651627  0.16797106  1
  O  O11  1  0.34567181  0.00348373  0.33202894  1
  O  O12  1  0.45253468  0.71431451  0.58956845  1
  O  O13  1  0.95253468  0.78568549  0.91043155  1
  O  O14  1  0.54746532  0.28568549  0.41043155  1
  O  O15  1  0.04746532  0.21431451  0.08956845  1
  O  O16  1  0.03009852  0.85557677  0.17298661  1
  O  O17  1  0.53009852  0.64442323  0.32701339  1
  O  O18  1  0.96990148  0.14442323  0.82701339  1
  O  O19  1  0.46990148  0.35557677  0.67298661  1
  O  O20  1  0.53019080  0.80734632  0.16068987  1
  O  O21  1  0.03019080  0.69265368  0.33931013  1
  O  O22  1  0.46980920  0.19265368  0.83931013  1
  O  O23  1  0.96980920  0.30734632  0.66068987  1
  O  O24  1  0.20004768  0.61058489  0.01573898  1
  O  O25  1  0.70004768  0.88941511  0.48426102  1
  O  O26  1  0.79995232  0.38941511  0.98426102  1
  O  O27  1  0.29995232  0.11058489  0.51573898  1
  O  O28  1  0.20639961  0.31708117  0.29155419  1
  O  O29  1  0.70639961  0.18291883  0.20844581  1
  O  O30  1  0.79360039  0.68291883  0.70844581  1
  O  O31  1  0.29360039  0.81708117  0.79155419  1
  Pr  Pr32  1  0.26270815  0.60366483  0.20076166  1
  Pr  Pr33  1  0.76270815  0.89633517  0.29923834  1
  Pr  Pr34  1  0.73729185  0.39633517  0.79923834  1
  Pr  Pr35  1  0.23729185  0.10366483  0.70076166  1
  Pr  Pr36  1  0.20179551  0.28560048  0.94640651  1
  Pr  Pr37  1  0.70179551  0.21439952  0.55359349  1
  Pr  Pr38  1  0.79820449  0.71439952  0.05359349  1
  Pr  Pr39  1  0.29820449  0.78560048  0.44640651  1
  Pr  Pr40  1  0.18829178  0.56281157  0.66673677  1
  Pr  Pr41  1  0.68829178  0.93718843  0.83326323  1
  Pr  Pr42  1  0.81170822  0.43718843  0.33326323  1
  Pr  Pr43  1  0.31170822  0.06281157  0.16673677  1
  Re  Re44  1  0.25472964  0.22957110  0.40905865  1
  Re  Re45  1  0.75472964  0.27042890  0.09094135  1
  Re  Re46  1  0.74527036  0.77042890  0.59094135  1
  Re  Re47  1  0.24527036  0.72957110  0.90905865  1
