# generated using pymatgen
data_CeSc3(BO3)4
_symmetry_space_group_name_H-M   'P 1'
_cell_length_a   6.30525197
_cell_length_b   6.30525197
_cell_length_c   6.30525197
_cell_angle_alpha   103.21228877
_cell_angle_beta   103.21228886
_cell_angle_gamma   103.21228879
_symmetry_Int_Tables_number   1
_chemical_formula_structural   CeSc3(BO3)4
_chemical_formula_sum   'Ce1 Sc3 B4 O12'
_cell_volume   226.91111766
_cell_formula_units_Z   1
loop_
 _symmetry_equiv_pos_site_id
 _symmetry_equiv_pos_as_xyz
  1  'x, y, z'
loop_
 _atom_site_type_symbol
 _atom_site_label
 _atom_site_symmetry_multiplicity
 _atom_site_fract_x
 _atom_site_fract_y
 _atom_site_fract_z
 _atom_site_occupancy
  B  B0  1  0.50000000  0.50000000  0.50000000  1
  B  B1  1  0.04958041  0.95041959  0.50000000  1
  B  B2  1  0.95041959  0.50000000  0.04958041  1
  B  B3  1  0.50000000  0.04958041  0.95041959  1
  O  O4  1  0.90926523  0.09073477  0.50000000  1
  O  O5  1  0.50000000  0.64045205  0.35954795  1
  O  O6  1  0.35954795  0.50000000  0.64045205  1
  O  O7  1  0.64045205  0.35954795  0.50000000  1
  O  O8  1  0.62753943  0.03039942  0.79918870  1
  O  O9  1  0.79918870  0.62753943  0.03039942  1
  O  O10  1  0.03039942  0.79918870  0.62753943  1
  O  O11  1  0.96960058  0.37246057  0.20081130  1
  O  O12  1  0.20081130  0.96960058  0.37246057  1
  O  O13  1  0.37246057  0.20081130  0.96960058  1
  O  O14  1  0.50000000  0.90926523  0.09073477  1
  O  O15  1  0.09073477  0.50000000  0.90926523  1
  Sc  Sc16  1  0.54803376  0.00000000  0.45196624  1
  Sc  Sc17  1  0.00000000  0.45196624  0.54803376  1
  Sc  Sc18  1  0.45196624  0.54803376  0.00000000  1
  Ce  Ce19  1  0.00000000  0.00000000  0.00000000  1
