# generated using pymatgen
data_PPd6
_symmetry_space_group_name_H-M   'P 1'
_cell_length_a   5.73367549
_cell_length_b   8.35500767
_cell_length_c   9.64709167
_cell_angle_alpha   90.00000000
_cell_angle_beta   90.00000000
_cell_angle_gamma   110.19667131
_symmetry_Int_Tables_number   1
_chemical_formula_structural   PPd6
_chemical_formula_sum   'P4 Pd24'
_cell_volume   433.72724012
_cell_formula_units_Z   4
loop_
 _symmetry_equiv_pos_site_id
 _symmetry_equiv_pos_as_xyz
  1  'x, y, z'
loop_
 _atom_site_type_symbol
 _atom_site_label
 _atom_site_symmetry_multiplicity
 _atom_site_fract_x
 _atom_site_fract_y
 _atom_site_fract_z
 _atom_site_occupancy
  P  P0  1  0.12320673  0.74919935  0.76089565  1
  P  P1  1  0.87679327  0.75080065  0.26089565  1
  P  P2  1  0.87679327  0.25080065  0.23910435  1
  P  P3  1  0.12320673  0.24919935  0.73910435  1
  Pd  Pd4  1  0.47087462  0.93105941  0.86719187  1
  Pd  Pd5  1  0.52912538  0.56894059  0.36719187  1
  Pd  Pd6  1  0.52912538  0.06894059  0.13280813  1
  Pd  Pd7  1  0.47087462  0.43105941  0.63280813  1
  Pd  Pd8  1  0.22657903  0.43124223  0.13475485  1
  Pd  Pd9  1  0.77342097  0.06875777  0.63475485  1
  Pd  Pd10  1  0.77342097  0.56875777  0.86524515  1
  Pd  Pd11  1  0.22657903  0.93124223  0.36524515  1
  Pd  Pd12  1  0.28628819  0.56382008  0.86652707  1
  Pd  Pd13  1  0.71371181  0.93617992  0.36652707  1
  Pd  Pd14  1  0.71371181  0.43617992  0.13347293  1
  Pd  Pd15  1  0.28628819  0.06382008  0.63347293  1
  Pd  Pd16  1  0.13316434  0.24932693  0.42054033  1
  Pd  Pd17  1  0.86683566  0.25067307  0.92054033  1
  Pd  Pd18  1  0.86683566  0.75067307  0.57945967  1
  Pd  Pd19  1  0.13316434  0.74932693  0.07945967  1
  Pd  Pd20  1  0.38005329  0.74879836  0.58034237  1
  Pd  Pd21  1  0.61994671  0.75120164  0.08034237  1
  Pd  Pd22  1  0.61994671  0.25120164  0.41965763  1
  Pd  Pd23  1  0.38005329  0.24879836  0.91965763  1
  Pd  Pd24  1  0.03997432  0.56434579  0.36448611  1
  Pd  Pd25  1  0.96002568  0.93565421  0.86448611  1
  Pd  Pd26  1  0.96002568  0.43565421  0.63551389  1
  Pd  Pd27  1  0.03997432  0.06434579  0.13551389  1
