# generated using pymatgen
data_Tl(TeMo)3
_symmetry_space_group_name_H-M   'P 1'
_cell_length_a   9.73871868
_cell_length_b   9.73871869
_cell_length_c   4.62013766
_cell_angle_alpha   90.00000000
_cell_angle_beta   90.00000000
_cell_angle_gamma   119.99999999
_symmetry_Int_Tables_number   1
_chemical_formula_structural   Tl(TeMo)3
_chemical_formula_sum   'Tl2 Te6 Mo6'
_cell_volume   379.48025981
_cell_formula_units_Z   2
loop_
 _symmetry_equiv_pos_site_id
 _symmetry_equiv_pos_as_xyz
  1  'x, y, z'
loop_
 _atom_site_type_symbol
 _atom_site_label
 _atom_site_symmetry_multiplicity
 _atom_site_fract_x
 _atom_site_fract_y
 _atom_site_fract_z
 _atom_site_occupancy
  Mo  Mo0  1  0.16967809  0.14303247  0.25000000  1
  Mo  Mo1  1  0.02664561  0.16967809  0.75000000  1
  Mo  Mo2  1  0.14303247  0.97335439  0.75000000  1
  Mo  Mo3  1  0.85696753  0.02664561  0.25000000  1
  Mo  Mo4  1  0.97335439  0.83032191  0.25000000  1
  Mo  Mo5  1  0.83032191  0.85696753  0.75000000  1
  Te  Te6  1  0.05679741  0.36128101  0.25000000  1
  Te  Te7  1  0.69551640  0.05679741  0.75000000  1
  Te  Te8  1  0.36128101  0.30448360  0.75000000  1
  Te  Te9  1  0.63871899  0.69551640  0.25000000  1
  Te  Te10  1  0.30448360  0.94320259  0.25000000  1
  Te  Te11  1  0.94320259  0.63871899  0.75000000  1
  Tl  Tl12  1  0.66666667  0.33333333  0.25000000  1
  Tl  Tl13  1  0.33333333  0.66666667  0.75000000  1
