# generated using pymatgen
data_Ba3Si4
_symmetry_space_group_name_H-M   'P 1'
_cell_length_a   8.58223302
_cell_length_b   8.58223302
_cell_length_c   11.96361039
_cell_angle_alpha   90.00000000
_cell_angle_beta   90.00000000
_cell_angle_gamma   90.00000000
_symmetry_Int_Tables_number   1
_chemical_formula_structural   Ba3Si4
_chemical_formula_sum   'Ba12 Si16'
_cell_volume   881.17641665
_cell_formula_units_Z   4
loop_
 _symmetry_equiv_pos_site_id
 _symmetry_equiv_pos_as_xyz
  1  'x, y, z'
loop_
 _atom_site_type_symbol
 _atom_site_label
 _atom_site_symmetry_multiplicity
 _atom_site_fract_x
 _atom_site_fract_y
 _atom_site_fract_z
 _atom_site_occupancy
  Si  Si0  1  0.80049318  0.80049318  0.64437971  1
  Si  Si1  1  0.19950682  0.19950682  0.64437971  1
  Si  Si2  1  0.80049318  0.80049318  0.35562029  1
  Si  Si3  1  0.30049318  0.69950682  0.14437971  1
  Si  Si4  1  0.69950682  0.30049318  0.14437971  1
  Si  Si5  1  0.69950682  0.30049318  0.85562029  1
  Si  Si6  1  0.30049318  0.69950682  0.85562029  1
  Si  Si7  1  0.19950682  0.19950682  0.35562029  1
  Si  Si8  1  0.69937108  0.10070980  0.00000000  1
  Si  Si9  1  0.30062892  0.89929020  0.00000000  1
  Si  Si10  1  0.10070980  0.69937108  0.00000000  1
  Si  Si11  1  0.60070980  0.80062892  0.50000000  1
  Si  Si12  1  0.89929020  0.30062892  0.00000000  1
  Si  Si13  1  0.19937108  0.39929020  0.50000000  1
  Si  Si14  1  0.80062892  0.60070980  0.50000000  1
  Si  Si15  1  0.39929020  0.19937108  0.50000000  1
  Ba  Ba16  1  0.50000000  0.00000000  0.75000000  1
  Ba  Ba17  1  0.50000000  0.00000000  0.25000000  1
  Ba  Ba18  1  0.00000000  0.50000000  0.75000000  1
  Ba  Ba19  1  0.00000000  0.50000000  0.25000000  1
  Ba  Ba20  1  0.00000000  0.00000000  0.83092752  1
  Ba  Ba21  1  0.50000000  0.50000000  0.33092752  1
  Ba  Ba22  1  0.50000000  0.50000000  0.66907248  1
  Ba  Ba23  1  0.00000000  0.00000000  0.16907248  1
  Ba  Ba24  1  0.66386313  0.66386313  0.00000000  1
  Ba  Ba25  1  0.83613687  0.16386313  0.50000000  1
  Ba  Ba26  1  0.16386313  0.83613687  0.50000000  1
  Ba  Ba27  1  0.33613687  0.33613687  0.00000000  1
