# generated using pymatgen
data_Lu4Zn5Ge6
_symmetry_space_group_name_H-M   'P 1'
_cell_length_a   4.21340472
_cell_length_b   9.41885501
_cell_length_c   15.13830241
_cell_angle_alpha   90.00000000
_cell_angle_beta   90.00000000
_cell_angle_gamma   102.92460095
_symmetry_Int_Tables_number   1
_chemical_formula_structural   Lu4Zn5Ge6
_chemical_formula_sum   'Lu8 Zn10 Ge12'
_cell_volume   585.54994824
_cell_formula_units_Z   2
loop_
 _symmetry_equiv_pos_site_id
 _symmetry_equiv_pos_as_xyz
  1  'x, y, z'
loop_
 _atom_site_type_symbol
 _atom_site_label
 _atom_site_symmetry_multiplicity
 _atom_site_fract_x
 _atom_site_fract_y
 _atom_site_fract_z
 _atom_site_occupancy
  Zn  Zn0  1  0.43461531  0.86923062  0.31398911  1
  Zn  Zn1  1  0.56538469  0.13076938  0.81398911  1
  Zn  Zn2  1  0.15104631  0.30209261  0.37353073  1
  Zn  Zn3  1  0.84895369  0.69790739  0.87353073  1
  Zn  Zn4  1  0.65108424  0.30216849  0.51908167  1
  Zn  Zn5  1  0.34891576  0.69783151  0.01908167  1
  Zn  Zn6  1  0.30109904  0.60219808  0.37650999  1
  Zn  Zn7  1  0.69890096  0.39780192  0.87650999  1
  Zn  Zn8  1  0.34460421  0.68920842  0.72685475  1
  Zn  Zn9  1  0.65539579  0.31079158  0.22685475  1
  Ge  Ge10  1  0.77040113  0.54080226  0.73365216  1
  Ge  Ge11  1  0.43037121  0.86074242  0.59109142  1
  Ge  Ge12  1  0.77544594  0.55089187  0.01624084  1
  Ge  Ge13  1  0.22455406  0.44910813  0.51624084  1
  Ge  Ge14  1  0.43961852  0.87923704  0.14581545  1
  Ge  Ge15  1  0.56038148  0.12076296  0.64581545  1
  Ge  Ge16  1  0.43436758  0.86873517  0.87162938  1
  Ge  Ge17  1  0.56563242  0.13126483  0.37162938  1
  Ge  Ge18  1  0.11172475  0.22344949  0.88427043  1
  Ge  Ge19  1  0.88827525  0.77655051  0.38427043  1
  Ge  Ge20  1  0.56962879  0.13925758  0.09109142  1
  Ge  Ge21  1  0.22959887  0.45919774  0.23365216  1
  Lu  Lu22  1  0.96756628  0.93513256  0.73644207  1
  Lu  Lu23  1  0.03243372  0.06486744  0.23644207  1
  Lu  Lu24  1  0.16652332  0.33304664  0.69718221  1
  Lu  Lu25  1  0.83347668  0.66695336  0.19718221  1
  Lu  Lu26  1  0.82548309  0.65096618  0.55664617  1
  Lu  Lu27  1  0.17451691  0.34903382  0.05664617  1
  Lu  Lu28  1  0.01795882  0.03591764  0.50158363  1
  Lu  Lu29  1  0.98204118  0.96408236  0.00158363  1
