# generated using pymatgen
data_Tb5Sb3
_symmetry_space_group_name_H-M   'P 1'
_cell_length_a   9.03629780
_cell_length_b   9.03629780
_cell_length_c   6.33446525
_cell_angle_alpha   90.00000000
_cell_angle_beta   90.00000000
_cell_angle_gamma   120.00000000
_symmetry_Int_Tables_number   1
_chemical_formula_structural   Tb5Sb3
_chemical_formula_sum   'Tb10 Sb6'
_cell_volume   447.94187116
_cell_formula_units_Z   2
loop_
 _symmetry_equiv_pos_site_id
 _symmetry_equiv_pos_as_xyz
  1  'x, y, z'
loop_
 _atom_site_type_symbol
 _atom_site_label
 _atom_site_symmetry_multiplicity
 _atom_site_fract_x
 _atom_site_fract_y
 _atom_site_fract_z
 _atom_site_occupancy
  Sb  Sb0  1  0.38831872  0.00000000  0.75000000  1
  Sb  Sb1  1  0.38831872  0.38831872  0.25000000  1
  Sb  Sb2  1  0.00000000  0.61168128  0.25000000  1
  Sb  Sb3  1  0.00000000  0.38831872  0.75000000  1
  Sb  Sb4  1  0.61168128  0.61168128  0.75000000  1
  Sb  Sb5  1  0.61168128  0.00000000  0.25000000  1
  Tb  Tb6  1  0.00000000  0.75272841  0.75000000  1
  Tb  Tb7  1  0.00000000  0.24727159  0.25000000  1
  Tb  Tb8  1  0.75272841  0.75272841  0.25000000  1
  Tb  Tb9  1  0.75272841  0.00000000  0.75000000  1
  Tb  Tb10  1  0.24727159  0.24727159  0.75000000  1
  Tb  Tb11  1  0.24727159  0.00000000  0.25000000  1
  Tb  Tb12  1  0.33333333  0.66666667  0.50000000  1
  Tb  Tb13  1  0.66666667  0.33333333  0.00000000  1
  Tb  Tb14  1  0.66666667  0.33333333  0.50000000  1
  Tb  Tb15  1  0.33333333  0.66666667  0.00000000  1
