# generated using pymatgen
data_Na6S2O9
_symmetry_space_group_name_H-M   'P 1'
_cell_length_a   6.91765470
_cell_length_b   6.91765470
_cell_length_c   6.91765470
_cell_angle_alpha   60.00000000
_cell_angle_beta   59.99999998
_cell_angle_gamma   60.00000000
_symmetry_Int_Tables_number   1
_chemical_formula_structural   Na6S2O9
_chemical_formula_sum   'Na6 S2 O9'
_cell_volume   234.07856265
_cell_formula_units_Z   1
loop_
 _symmetry_equiv_pos_site_id
 _symmetry_equiv_pos_as_xyz
  1  'x, y, z'
loop_
 _atom_site_type_symbol
 _atom_site_label
 _atom_site_symmetry_multiplicity
 _atom_site_fract_x
 _atom_site_fract_y
 _atom_site_fract_z
 _atom_site_occupancy
  O  O0  1  0.00000000  0.00000000  0.00000000  1
  O  O1  1  0.66179187  0.66179187  0.01462438  1
  O  O2  1  0.33820813  0.33820813  0.33820813  1
  O  O3  1  0.33820813  0.98537562  0.33820813  1
  O  O4  1  0.98537562  0.33820813  0.33820813  1
  O  O5  1  0.01462438  0.66179187  0.66179187  1
  O  O6  1  0.66179187  0.66179187  0.66179187  1
  O  O7  1  0.66179187  0.01462438  0.66179187  1
  O  O8  1  0.33820813  0.33820813  0.98537562  1
  Na  Na9  1  0.23570434  0.23570434  0.76429566  1
  Na  Na10  1  0.76429566  0.23570434  0.76429566  1
  Na  Na11  1  0.23570434  0.76429566  0.23570434  1
  Na  Na12  1  0.76429566  0.23570434  0.23570434  1
  Na  Na13  1  0.23570434  0.76429566  0.76429566  1
  Na  Na14  1  0.76429566  0.76429566  0.23570434  1
  S  S15  1  0.75000000  0.75000000  0.75000000  1
  S  S16  1  0.25000000  0.25000000  0.25000000  1
