# generated using pymatgen
data_Rb2B2Se7
_symmetry_space_group_name_H-M   'P 1'
_cell_length_a   7.52261927
_cell_length_b   9.01827767
_cell_length_c   11.57354526
_cell_angle_alpha   77.66817633
_cell_angle_beta   71.03490958
_cell_angle_gamma   65.34986253
_symmetry_Int_Tables_number   1
_chemical_formula_structural   Rb2B2Se7
_chemical_formula_sum   'Rb4 B4 Se14'
_cell_volume   672.08752332
_cell_formula_units_Z   2
loop_
 _symmetry_equiv_pos_site_id
 _symmetry_equiv_pos_as_xyz
  1  'x, y, z'
loop_
 _atom_site_type_symbol
 _atom_site_label
 _atom_site_symmetry_multiplicity
 _atom_site_fract_x
 _atom_site_fract_y
 _atom_site_fract_z
 _atom_site_occupancy
  B  B0  1  0.61496851  0.88211958  0.34910913  1
  B  B1  1  0.84619722  0.61788042  0.15089087  1
  B  B2  1  0.38503149  0.11788042  0.65089087  1
  B  B3  1  0.15380278  0.38211958  0.84910913  1
  Se  Se4  1  0.16744550  0.24760007  0.01546725  1
  Se  Se5  1  0.43051281  0.25239993  0.48453275  1
  Se  Se6  1  0.83255450  0.75239993  0.98453275  1
  Se  Se7  1  0.56948719  0.74760007  0.51546725  1
  Se  Se8  1  0.14664452  0.61511178  0.83637797  1
  Se  Se9  1  0.59813427  0.88488822  0.66362203  1
  Se  Se10  1  0.85335548  0.38488822  0.16362203  1
  Se  Se11  1  0.40186573  0.11511178  0.33637797  1
  Se  Se12  1  0.93799553  0.39037737  0.77209080  1
  Se  Se13  1  0.10046371  0.10962263  0.72790920  1
  Se  Se14  1  0.06200447  0.60962263  0.22790920  1
  Se  Se15  1  0.89953629  0.89037737  0.27209080  1
  Se  Se16  1  0.44637264  0.25000000  0.75000000  1
  Se  Se17  1  0.55362736  0.75000000  0.25000000  1
  Rb  Rb18  1  0.11870237  0.68432807  0.52360644  1
  Rb  Rb19  1  0.32663688  0.81567193  0.97639356  1
  Rb  Rb20  1  0.88129763  0.31567193  0.47639356  1
  Rb  Rb21  1  0.67336312  0.18432807  0.02360644  1
