# generated using pymatgen
data_Fe4O3F5
_symmetry_space_group_name_H-M   'P 1'
_cell_length_a   4.84572696
_cell_length_b   9.65472216
_cell_length_c   6.21423924
_cell_angle_alpha   90.00000000
_cell_angle_beta   90.00000000
_cell_angle_gamma   91.98528639
_symmetry_Int_Tables_number   1
_chemical_formula_structural   Fe4O3F5
_chemical_formula_sum   'Fe8 O6 F10'
_cell_volume   290.55337741
_cell_formula_units_Z   2
loop_
 _symmetry_equiv_pos_site_id
 _symmetry_equiv_pos_as_xyz
  1  'x, y, z'
loop_
 _atom_site_type_symbol
 _atom_site_label
 _atom_site_symmetry_multiplicity
 _atom_site_fract_x
 _atom_site_fract_y
 _atom_site_fract_z
 _atom_site_occupancy
  Fe  Fe0  1  0.00000000  0.00000000  0.00000000  1
  Fe  Fe1  1  0.00000000  0.00000000  0.50000000  1
  Fe  Fe2  1  0.00000000  0.50000000  0.00000000  1
  Fe  Fe3  1  0.00000000  0.50000000  0.50000000  1
  Fe  Fe4  1  0.59134180  0.24106608  0.25000000  1
  Fe  Fe5  1  0.53934143  0.26933304  0.75000000  1
  Fe  Fe6  1  0.46065857  0.73066696  0.25000000  1
  Fe  Fe7  1  0.40865820  0.75893392  0.75000000  1
  O  O8  1  0.18103542  0.90714010  0.75000000  1
  O  O9  1  0.28638760  0.64178289  0.00280691  1
  O  O10  1  0.28638760  0.64178289  0.49719309  1
  O  O11  1  0.71361240  0.35821711  0.99719309  1
  O  O12  1  0.71361240  0.35821711  0.50280691  1
  O  O13  1  0.81896458  0.09285990  0.25000000  1
  F  F14  1  0.18243450  0.40632255  0.25000000  1
  F  F15  1  0.19971474  0.39971217  0.75000000  1
  F  F16  1  0.21551387  0.89591787  0.25000000  1
  F  F17  1  0.32768424  0.16860656  0.99737699  1
  F  F18  1  0.32768424  0.16860656  0.50262301  1
  F  F19  1  0.67231576  0.83139344  0.00262301  1
  F  F20  1  0.67231576  0.83139344  0.49737699  1
  F  F21  1  0.81756550  0.59367745  0.75000000  1
  F  F22  1  0.78448613  0.10408213  0.75000000  1
  F  F23  1  0.80028526  0.60028783  0.25000000  1
