# generated using pymatgen
data_Tm4Zn5Ge6
_symmetry_space_group_name_H-M   'P 1'
_cell_length_a   4.22873205
_cell_length_b   9.45387215
_cell_length_c   15.20613851
_cell_angle_alpha   90.00000000
_cell_angle_beta   90.00000000
_cell_angle_gamma   102.92355272
_symmetry_Int_Tables_number   1
_chemical_formula_structural   Tm4Zn5Ge6
_chemical_formula_sum   'Tm8 Zn10 Ge12'
_cell_volume   592.51062011
_cell_formula_units_Z   2
loop_
 _symmetry_equiv_pos_site_id
 _symmetry_equiv_pos_as_xyz
  1  'x, y, z'
loop_
 _atom_site_type_symbol
 _atom_site_label
 _atom_site_symmetry_multiplicity
 _atom_site_fract_x
 _atom_site_fract_y
 _atom_site_fract_z
 _atom_site_occupancy
  Zn  Zn0  1  0.43438203  0.86876405  0.31375742  1
  Zn  Zn1  1  0.56561797  0.13123595  0.81375742  1
  Zn  Zn2  1  0.15093383  0.30186765  0.37314947  1
  Zn  Zn3  1  0.84906617  0.69813235  0.87314947  1
  Zn  Zn4  1  0.65089798  0.30179596  0.51899676  1
  Zn  Zn5  1  0.34910202  0.69820404  0.01899676  1
  Zn  Zn6  1  0.30104025  0.60208049  0.37609242  1
  Zn  Zn7  1  0.69895975  0.39791951  0.87609242  1
  Zn  Zn8  1  0.34463417  0.68926835  0.72599718  1
  Zn  Zn9  1  0.65536583  0.31073165  0.22599718  1
  Ge  Ge10  1  0.77118815  0.54237629  0.73401483  1
  Ge  Ge11  1  0.43063493  0.86126986  0.59108593  1
  Ge  Ge12  1  0.77622352  0.55244705  0.01508397  1
  Ge  Ge13  1  0.22377648  0.44755295  0.51508397  1
  Ge  Ge14  1  0.43974073  0.87948146  0.14553087  1
  Ge  Ge15  1  0.56025927  0.12051854  0.64553087  1
  Ge  Ge16  1  0.43408156  0.86816311  0.87098600  1
  Ge  Ge17  1  0.56591844  0.13183689  0.37098600  1
  Ge  Ge18  1  0.11158853  0.22317706  0.88357872  1
  Ge  Ge19  1  0.88841147  0.77682294  0.38357872  1
  Ge  Ge20  1  0.56936507  0.13873014  0.09108593  1
  Ge  Ge21  1  0.22881185  0.45762371  0.23401483  1
  Tm  Tm22  1  0.96752549  0.93505099  0.73642809  1
  Tm  Tm23  1  0.03247451  0.06494901  0.23642809  1
  Tm  Tm24  1  0.16694241  0.33388482  0.69678936  1
  Tm  Tm25  1  0.83305759  0.66611518  0.19678936  1
  Tm  Tm26  1  0.82515562  0.65031123  0.55600728  1
  Tm  Tm27  1  0.17484438  0.34968877  0.05600728  1
  Tm  Tm28  1  0.01861545  0.03723090  0.50116172  1
  Tm  Tm29  1  0.98138455  0.96276910  0.00116172  1
