# generated using pymatgen
data_K3La(PS4)2
_symmetry_space_group_name_H-M   'P 1'
_cell_length_a   9.29248374
_cell_length_b   9.71115907
_cell_length_c   17.38061244
_cell_angle_alpha   90.00000000
_cell_angle_beta   90.00000000
_cell_angle_gamma   89.40541915
_symmetry_Int_Tables_number   1
_chemical_formula_structural   K3La(PS4)2
_chemical_formula_sum   'K12 La4 P8 S32'
_cell_volume   1568.35570471
_cell_formula_units_Z   4
loop_
 _symmetry_equiv_pos_site_id
 _symmetry_equiv_pos_as_xyz
  1  'x, y, z'
loop_
 _atom_site_type_symbol
 _atom_site_label
 _atom_site_symmetry_multiplicity
 _atom_site_fract_x
 _atom_site_fract_y
 _atom_site_fract_z
 _atom_site_occupancy
  P  P0  1  0.00404763  0.74287755  0.60132215  1
  P  P1  1  0.99595237  0.75712245  0.10132215  1
  P  P2  1  0.99595237  0.25712245  0.39867785  1
  P  P3  1  0.00404763  0.24287755  0.89867785  1
  P  P4  1  0.47611655  0.71941909  0.40104113  1
  P  P5  1  0.52388345  0.78058091  0.90104113  1
  P  P6  1  0.52388345  0.28058091  0.59895887  1
  P  P7  1  0.47611655  0.21941909  0.09895887  1
  S  S8  1  0.66462746  0.40679861  0.65593136  1
  S  S9  1  0.33537254  0.09320139  0.15593136  1
  S  S10  1  0.33537254  0.59320139  0.34406864  1
  S  S11  1  0.66462746  0.90679861  0.84406864  1
  S  S12  1  0.43673127  0.91922966  0.37476833  1
  S  S13  1  0.56326873  0.58077034  0.87476833  1
  S  S14  1  0.56326873  0.08077034  0.62523167  1
  S  S15  1  0.43673127  0.41922966  0.12523167  1
  S  S16  1  0.03627273  0.03536189  0.87531094  1
  S  S17  1  0.96372727  0.46463811  0.37531094  1
  S  S18  1  0.96372727  0.96463811  0.12468906  1
  S  S19  1  0.03627273  0.53536189  0.62468906  1
  S  S20  1  0.95139008  0.74878662  0.98484632  1
  S  S21  1  0.04860992  0.75121338  0.48484632  1
  S  S22  1  0.04860992  0.25121338  0.01515368  1
  S  S23  1  0.95139008  0.24878662  0.51515368  1
  S  S24  1  0.46166013  0.18050548  0.98149158  1
  S  S25  1  0.53833987  0.31949452  0.48149158  1
  S  S26  1  0.53833987  0.81949452  0.01850842  1
  S  S27  1  0.46166013  0.68050548  0.51850842  1
  S  S28  1  0.68380867  0.16865494  0.13009853  1
  S  S29  1  0.31619133  0.33134506  0.63009853  1
  S  S30  1  0.31619133  0.83134506  0.86990147  1
  S  S31  1  0.68380867  0.66865494  0.36990147  1
  S  S32  1  0.78761124  0.27615831  0.88490863  1
  S  S33  1  0.21238876  0.22384169  0.38490863  1
  S  S34  1  0.21238876  0.72384169  0.11509137  1
  S  S35  1  0.78761124  0.77615831  0.61509137  1
  S  S36  1  0.12089144  0.36324720  0.82822739  1
  S  S37  1  0.87910856  0.13675280  0.32822739  1
  S  S38  1  0.87910856  0.63675280  0.17177261  1
  S  S39  1  0.12089144  0.86324720  0.67177261  1
  K  K40  1  0.73125827  0.98805310  0.47155554  1
  K  K41  1  0.26874173  0.51194690  0.97155554  1
  K  K42  1  0.26874173  0.01194690  0.52844446  1
  K  K43  1  0.73125827  0.48805310  0.02844446  1
  K  K44  1  0.62125569  0.87188763  0.21398920  1
  K  K45  1  0.37874431  0.62811237  0.71398920  1
  K  K46  1  0.37874431  0.12811237  0.78601080  1
  K  K47  1  0.62125569  0.37188763  0.28601080  1
  K  K48  1  0.87123157  0.11790735  0.70771019  1
  K  K49  1  0.12876843  0.38209265  0.20771019  1
  K  K50  1  0.12876843  0.88209265  0.29228981  1
  K  K51  1  0.87123157  0.61790735  0.79228981  1
  La  La52  1  0.77280606  0.52727101  0.51323941  1
  La  La53  1  0.22719394  0.97272899  0.01323941  1
  La  La54  1  0.22719394  0.47272899  0.48676059  1
  La  La55  1  0.77280606  0.02727101  0.98676059  1
