# generated using pymatgen
data_Tl2B2Se7
_symmetry_space_group_name_H-M   'P 1'
_cell_length_a   7.42878150
_cell_length_b   8.66275853
_cell_length_c   11.35398587
_cell_angle_alpha   75.08027083
_cell_angle_beta   70.90446788
_cell_angle_gamma   64.61003578
_symmetry_Int_Tables_number   1
_chemical_formula_structural   Tl2B2Se7
_chemical_formula_sum   'Tl4 B4 Se14'
_cell_volume   617.86853911
_cell_formula_units_Z   2
loop_
 _symmetry_equiv_pos_site_id
 _symmetry_equiv_pos_as_xyz
  1  'x, y, z'
loop_
 _atom_site_type_symbol
 _atom_site_label
 _atom_site_symmetry_multiplicity
 _atom_site_fract_x
 _atom_site_fract_y
 _atom_site_fract_z
 _atom_site_occupancy
  B  B0  1  0.60518042  0.88315761  0.34949396  1
  B  B1  1  0.83783199  0.61684239  0.15050604  1
  B  B2  1  0.39481958  0.11684239  0.65050604  1
  B  B3  1  0.16216801  0.38315761  0.84949396  1
  Se  Se4  1  0.18283779  0.23614846  0.02134471  1
  Se  Se5  1  0.44033096  0.26385154  0.47865529  1
  Se  Se6  1  0.81716221  0.76385154  0.97865529  1
  Se  Se7  1  0.55966904  0.73614846  0.52134471  1
  Se  Se8  1  0.14280395  0.63231328  0.83162267  1
  Se  Se9  1  0.60673990  0.86768672  0.66837733  1
  Se  Se10  1  0.85719605  0.36768672  0.16837733  1
  Se  Se11  1  0.39326010  0.13231328  0.33162267  1
  Se  Se12  1  0.93985997  0.39487606  0.77344348  1
  Se  Se13  1  0.10817951  0.10512394  0.72655652  1
  Se  Se14  1  0.06014003  0.60512394  0.22655652  1
  Se  Se15  1  0.89182049  0.89487606  0.27344348  1
  Se  Se16  1  0.45835451  0.25000000  0.75000000  1
  Se  Se17  1  0.54164549  0.75000000  0.25000000  1
  Tl  Tl18  1  0.10763144  0.67677532  0.53616258  1
  Tl  Tl19  1  0.32056935  0.82322468  0.96383742  1
  Tl  Tl20  1  0.89236856  0.32322468  0.46383742  1
  Tl  Tl21  1  0.67943065  0.17677532  0.03616258  1
