# generated using pymatgen
data_Y3Si3Rh
_symmetry_space_group_name_H-M   'P 1'
_cell_length_a   4.23669052
_cell_length_b   5.70993043
_cell_length_c   12.88520173
_cell_angle_alpha   84.53231638
_cell_angle_beta   80.53753746
_cell_angle_gamma   68.22311758
_symmetry_Int_Tables_number   1
_chemical_formula_structural   Y3Si3Rh
_chemical_formula_sum   'Y6 Si6 Rh2'
_cell_volume   285.32495615
_cell_formula_units_Z   2
loop_
 _symmetry_equiv_pos_site_id
 _symmetry_equiv_pos_as_xyz
  1  'x, y, z'
loop_
 _atom_site_type_symbol
 _atom_site_label
 _atom_site_symmetry_multiplicity
 _atom_site_fract_x
 _atom_site_fract_y
 _atom_site_fract_z
 _atom_site_occupancy
  Si  Si0  1  0.95287669  0.85765483  0.23659179  1
  Si  Si1  1  0.04712331  0.14234517  0.76340821  1
  Si  Si2  1  0.86939011  0.71730747  0.54391231  1
  Si  Si3  1  0.13060989  0.28269253  0.45608769  1
  Si  Si4  1  0.11296493  0.84924262  0.92482752  1
  Si  Si5  1  0.88703507  0.15075738  0.07517248  1
  Y  Y6  1  0.60252803  0.71607565  0.07886829  1
  Y  Y7  1  0.39747197  0.28392435  0.92113171  1
  Y  Y8  1  0.52159556  0.33207704  0.62473184  1
  Y  Y9  1  0.47840444  0.66792296  0.37526816  1
  Y  Y10  1  0.25697363  0.25879568  0.22725707  1
  Y  Y11  1  0.74302637  0.74120432  0.77274293  1
  Rh  Rh12  1  0.75338928  0.07773113  0.41549032  1
  Rh  Rh13  1  0.24661072  0.92226887  0.58450968  1
