# generated using pymatgen
data_CsAg3Se2
_symmetry_space_group_name_H-M   'P 1'
_cell_length_a   4.49215927
_cell_length_b   8.75468474
_cell_length_c   9.36033757
_cell_angle_alpha   111.82579397
_cell_angle_beta   90.00000000
_cell_angle_gamma   104.86589124
_symmetry_Int_Tables_number   1
_chemical_formula_structural   CsAg3Se2
_chemical_formula_sum   'Cs2 Ag6 Se4'
_cell_volume   328.42109439
_cell_formula_units_Z   2
loop_
 _symmetry_equiv_pos_site_id
 _symmetry_equiv_pos_as_xyz
  1  'x, y, z'
loop_
 _atom_site_type_symbol
 _atom_site_label
 _atom_site_symmetry_multiplicity
 _atom_site_fract_x
 _atom_site_fract_y
 _atom_site_fract_z
 _atom_site_occupancy
  Se  Se0  1  0.47840914  0.95681829  0.77053334  1
  Se  Se1  1  0.52159086  0.04318171  0.22946666  1
  Se  Se2  1  0.80606661  0.61213321  0.31570684  1
  Se  Se3  1  0.19393339  0.38786679  0.68429316  1
  Ag  Ag4  1  0.31160157  0.62320314  0.56301474  1
  Ag  Ag5  1  0.94215403  0.88430806  0.59654057  1
  Ag  Ag6  1  0.58985196  0.17970393  0.63631529  1
  Ag  Ag7  1  0.41014804  0.82029607  0.36368471  1
  Ag  Ag8  1  0.05784597  0.11569194  0.40345943  1
  Ag  Ag9  1  0.68839843  0.37679686  0.43698526  1
  Cs  Cs10  1  0.86308036  0.72616073  0.95201940  1
  Cs  Cs11  1  0.13691964  0.27383927  0.04798060  1
