# generated using pymatgen
data_La(SiAg)2
_symmetry_space_group_name_H-M   'P 1'
_cell_length_a   4.32074948
_cell_length_b   4.32074948
_cell_length_c   6.16969731
_cell_angle_alpha   110.49703757
_cell_angle_beta   110.49703766
_cell_angle_gamma   89.99999998
_symmetry_Int_Tables_number   1
_chemical_formula_structural   La(SiAg)2
_chemical_formula_sum   'La1 Si2 Ag2'
_cell_volume   100.06713818
_cell_formula_units_Z   1
loop_
 _symmetry_equiv_pos_site_id
 _symmetry_equiv_pos_as_xyz
  1  'x, y, z'
loop_
 _atom_site_type_symbol
 _atom_site_label
 _atom_site_symmetry_multiplicity
 _atom_site_fract_x
 _atom_site_fract_y
 _atom_site_fract_z
 _atom_site_occupancy
  Si  Si0  1  0.60955887  0.60955887  0.21911774  1
  Si  Si1  1  0.39044113  0.39044113  0.78088226  1
  Ag  Ag2  1  0.75000000  0.25000000  0.50000000  1
  Ag  Ag3  1  0.25000000  0.75000000  0.50000000  1
  La  La4  1  0.00000000  0.00000000  0.00000000  1
