# generated using pymatgen
data_LiV(CO3)2
_symmetry_space_group_name_H-M   'P 1'
_cell_length_a   7.95652741
_cell_length_b   7.70755074
_cell_length_c   8.52834892
_cell_angle_alpha   103.09794296
_cell_angle_beta   100.69480049
_cell_angle_gamma   105.15015520
_symmetry_Int_Tables_number   1
_chemical_formula_structural   LiV(CO3)2
_chemical_formula_sum   'Li4 V4 C8 O24'
_cell_volume   474.73094976
_cell_formula_units_Z   4
loop_
 _symmetry_equiv_pos_site_id
 _symmetry_equiv_pos_as_xyz
  1  'x, y, z'
loop_
 _atom_site_type_symbol
 _atom_site_label
 _atom_site_symmetry_multiplicity
 _atom_site_fract_x
 _atom_site_fract_y
 _atom_site_fract_z
 _atom_site_occupancy
  Li  Li0  1  0.33374868  0.29888416  0.49458706  1
  Li  Li1  1  0.78290812  0.98125351  0.15857075  1
  Li  Li2  1  0.21709188  0.01874649  0.84142925  1
  Li  Li3  1  0.66625132  0.70111584  0.50541294  1
  V  V4  1  0.27922541  0.73923416  0.55569500  1
  V  V5  1  0.20708755  0.47005607  0.04489897  1
  V  V6  1  0.79291245  0.52994393  0.95510103  1
  V  V7  1  0.72077459  0.26076584  0.44430500  1
  C  C8  1  0.00758021  0.73807622  0.24199196  1
  C  C9  1  0.05877738  0.31952042  0.29541981  1
  C  C10  1  0.46931136  0.84374399  0.27016813  1
  C  C11  1  0.46148296  0.62267407  0.76995731  1
  C  C12  1  0.53851704  0.37732593  0.23004269  1
  C  C13  1  0.53068864  0.15625601  0.72983187  1
  C  C14  1  0.94122262  0.68047958  0.70458019  1
  C  C15  1  0.99241979  0.26192378  0.75800804  1
  O  O16  1  0.07942256  0.78798834  0.67590512  1
  O  O17  1  0.11753345  0.83194139  0.38136161  1
  O  O18  1  0.02229970  0.58616106  0.14501929  1
  O  O19  1  0.17585710  0.45659678  0.41599475  1
  O  O20  1  0.29425316  0.60659979  0.76021700  1
  O  O21  1  0.13664160  0.22632553  0.82387057  1
  O  O22  1  0.08408571  0.27356167  0.14829231  1
  O  O23  1  0.40921248  0.00688363  0.73011177  1
  O  O24  1  0.47072240  0.79592161  0.40699033  1
  O  O25  1  0.35461383  0.74321108  0.13139276  1
  O  O26  1  0.52052531  0.68729172  0.65495127  1
  O  O27  1  0.55690643  0.57641920  0.88049209  1
  O  O28  1  0.44309357  0.42358080  0.11950791  1
  O  O29  1  0.47947469  0.31270828  0.34504873  1
  O  O30  1  0.64538617  0.25678892  0.86860724  1
  O  O31  1  0.52927760  0.20407839  0.59300967  1
  O  O32  1  0.59078752  0.99311637  0.26988823  1
  O  O33  1  0.91591429  0.72643833  0.85170769  1
  O  O34  1  0.86335840  0.77367447  0.17612943  1
  O  O35  1  0.70574684  0.39340021  0.23978300  1
  O  O36  1  0.82414290  0.54340322  0.58400525  1
  O  O37  1  0.97770030  0.41383894  0.85498071  1
  O  O38  1  0.88246655  0.16805861  0.61863839  1
  O  O39  1  0.92057744  0.21201166  0.32409488  1
