# generated using pymatgen
data_BaCaGe
_symmetry_space_group_name_H-M   'P 1'
_cell_length_a   5.11124572
_cell_length_b   8.63430661
_cell_length_c   9.25700058
_cell_angle_alpha   90.00000000
_cell_angle_beta   90.00000000
_cell_angle_gamma   90.00000000
_symmetry_Int_Tables_number   1
_chemical_formula_structural   BaCaGe
_chemical_formula_sum   'Ba4 Ca4 Ge4'
_cell_volume   408.53053006
_cell_formula_units_Z   4
loop_
 _symmetry_equiv_pos_site_id
 _symmetry_equiv_pos_as_xyz
  1  'x, y, z'
loop_
 _atom_site_type_symbol
 _atom_site_label
 _atom_site_symmetry_multiplicity
 _atom_site_fract_x
 _atom_site_fract_y
 _atom_site_fract_z
 _atom_site_occupancy
  Ca  Ca0  1  0.75000000  0.85861364  0.57413820  1
  Ca  Ca1  1  0.25000000  0.64138636  0.07413820  1
  Ca  Ca2  1  0.75000000  0.35861364  0.92586180  1
  Ca  Ca3  1  0.25000000  0.14138636  0.42586180  1
  Ge  Ge4  1  0.25000000  0.28095167  0.10838937  1
  Ge  Ge5  1  0.75000000  0.21904833  0.60838937  1
  Ge  Ge6  1  0.25000000  0.78095167  0.39161063  1
  Ge  Ge7  1  0.75000000  0.71904833  0.89161063  1
  Ba  Ba8  1  0.25000000  0.02837137  0.82411474  1
  Ba  Ba9  1  0.75000000  0.97162863  0.17588526  1
  Ba  Ba10  1  0.25000000  0.52837137  0.67588526  1
  Ba  Ba11  1  0.75000000  0.47162863  0.32411474  1
