# generated using pymatgen
data_Ca2Sb2O7
_symmetry_space_group_name_H-M   'P 1'
_cell_length_a   7.40481474
_cell_length_b   7.40036268
_cell_length_c   7.40036268
_cell_angle_alpha   61.43730508
_cell_angle_beta   59.98009723
_cell_angle_gamma   59.98009726
_symmetry_Int_Tables_number   1
_chemical_formula_structural   Ca2Sb2O7
_chemical_formula_sum   'Ca4 Sb4 O14'
_cell_volume   289.64627178
_cell_formula_units_Z   2
loop_
 _symmetry_equiv_pos_site_id
 _symmetry_equiv_pos_as_xyz
  1  'x, y, z'
loop_
 _atom_site_type_symbol
 _atom_site_label
 _atom_site_symmetry_multiplicity
 _atom_site_fract_x
 _atom_site_fract_y
 _atom_site_fract_z
 _atom_site_occupancy
  O  O0  1  0.32830632  0.31987741  0.44375777  1
  O  O1  1  0.09194151  0.68012259  0.55624223  1
  O  O2  1  0.17169368  0.05624223  0.18012259  1
  O  O3  1  0.40805849  0.94375777  0.81987741  1
  O  O4  1  0.67169368  0.68012259  0.55624223  1
  O  O5  1  0.90805849  0.31987741  0.44375777  1
  O  O6  1  0.82830632  0.94375777  0.81987741  1
  O  O7  1  0.59194151  0.05624223  0.18012259  1
  O  O8  1  0.25000000  0.90137749  0.59862251  1
  O  O9  1  0.75000000  0.09862251  0.40137749  1
  O  O10  1  0.09416283  0.63499145  0.17668290  1
  O  O11  1  0.90583717  0.36500855  0.82331710  1
  O  O12  1  0.40583717  0.32331710  0.86500855  1
  O  O13  1  0.59416283  0.67668290  0.13499145  1
  Ca  Ca14  1  0.50000000  0.50000000  0.00000000  1
  Ca  Ca15  1  0.00000000  0.50000000  0.00000000  1
  Ca  Ca16  1  0.00000000  0.00000000  0.00000000  1
  Ca  Ca17  1  0.50000000  0.50000000  0.50000000  1
  Sb  Sb18  1  0.50000000  0.00000000  0.50000000  1
  Sb  Sb19  1  0.00000000  0.00000000  0.50000000  1
  Sb  Sb20  1  0.00000000  0.50000000  0.50000000  1
  Sb  Sb21  1  0.50000000  0.00000000  0.00000000  1
