# generated using pymatgen
data_Li2VO2F
_symmetry_space_group_name_H-M   'P 1'
_cell_length_a   3.03221550
_cell_length_b   10.33938365
_cell_length_c   7.37142478
_cell_angle_alpha   91.54846532
_cell_angle_beta   90.15275351
_cell_angle_gamma   89.80417512
_symmetry_Int_Tables_number   1
_chemical_formula_structural   Li2VO2F
_chemical_formula_sum   'Li8 V4 O8 F4'
_cell_volume   231.01679464
_cell_formula_units_Z   4
loop_
 _symmetry_equiv_pos_site_id
 _symmetry_equiv_pos_as_xyz
  1  'x, y, z'
loop_
 _atom_site_type_symbol
 _atom_site_label
 _atom_site_symmetry_multiplicity
 _atom_site_fract_x
 _atom_site_fract_y
 _atom_site_fract_z
 _atom_site_occupancy
  Li  Li0  1  0.00057788  0.67715414  0.12722723  1
  Li  Li1  1  0.00007714  0.17149879  0.15763118  1
  Li  Li2  1  -0.00025113  0.33456367  0.84090785  1
  Li  Li3  1  0.99974419  0.81225450  0.87180131  1
  Li  Li4  1  0.49894203  0.42014816  0.15820784  1
  Li  Li5  1  0.49916748  0.91501180  0.11983575  1
  Li  Li6  1  0.50059619  0.08627223  0.84333484  1
  Li  Li7  1  0.50071877  0.59182503  0.86559627  1
  V  V8  1  -0.00147649  0.00715289  0.50058084  1
  V  V9  1  0.99899710  0.49636777  0.50196686  1
  V  V10  1  0.49732386  0.25102901  0.49926313  1
  V  V11  1  0.51191404  0.74011006  0.51849260  1
  O  O12  1  0.99621783  0.66604129  0.65479419  1
  O  O13  1  0.98500533  0.16942780  0.65312218  1
  O  O14  1  0.01041598  0.33128202  0.34791630  1
  O  O15  1  0.50711660  0.41477484  0.65225370  1
  O  O16  1  0.50458248  0.91904997  0.62989335  1
  O  O17  1  0.48901931  0.08325393  0.34457102  1
  O  O18  1  0.48980171  0.58110582  0.35989821  1
  O  O19  1  0.50010416  0.75140873  0.00381221  1
  F  F20  1  0.01182379  0.82812733  0.34827628  1
  F  F21  1  0.99977979  0.01050294  0.99703899  1
  F  F22  1  0.99985069  0.49100779  0.00315832  1
  F  F23  1  0.49987129  0.25062748  0.00042056  1
