# generated using pymatgen
data_BaLa2ZnS5
_symmetry_space_group_name_H-M   'P 1'
_cell_length_a   8.01760104
_cell_length_b   8.01760104
_cell_length_c   8.91471446
_cell_angle_alpha   116.72338319
_cell_angle_beta   116.72338320
_cell_angle_gamma   89.99999999
_symmetry_Int_Tables_number   1
_chemical_formula_structural   BaLa2ZnS5
_chemical_formula_sum   'Ba2 La4 Zn2 S10'
_cell_volume   442.24456766
_cell_formula_units_Z   2
loop_
 _symmetry_equiv_pos_site_id
 _symmetry_equiv_pos_as_xyz
  1  'x, y, z'
loop_
 _atom_site_type_symbol
 _atom_site_label
 _atom_site_symmetry_multiplicity
 _atom_site_fract_x
 _atom_site_fract_y
 _atom_site_fract_z
 _atom_site_occupancy
  S  S0  1  0.48595748  0.98595748  0.27087292  1
  S  S1  1  0.21508457  0.71508457  0.72912708  1
  S  S2  1  0.51404252  0.01404252  0.72912708  1
  S  S3  1  0.71508457  0.51404252  0.72912708  1
  S  S4  1  0.01404252  0.21508457  0.72912708  1
  S  S5  1  0.28491543  0.48595748  0.27087292  1
  S  S6  1  0.98595748  0.78491543  0.27087292  1
  S  S7  1  0.78491543  0.28491543  0.27087292  1
  S  S8  1  0.00000000  0.00000000  0.00000000  1
  S  S9  1  0.50000000  0.50000000  0.00000000  1
  Zn  Zn10  1  0.75000000  0.25000000  0.50000000  1
  Zn  Zn11  1  0.25000000  0.75000000  0.50000000  1
  Ba  Ba12  1  0.75000000  0.75000000  0.50000000  1
  Ba  Ba13  1  0.25000000  0.25000000  0.50000000  1
  La  La14  1  0.66348202  0.83651798  0.00000000  1
  La  La15  1  0.16348202  0.66348202  0.00000000  1
  La  La16  1  0.83651798  0.33651798  0.00000000  1
  La  La17  1  0.33651798  0.16348202  0.00000000  1
