# generated using pymatgen
data_SnHgP14
_symmetry_space_group_name_H-M   'P 1'
_cell_length_a   9.87327281
_cell_length_b   11.09709403
_cell_length_c   13.50772699
_cell_angle_alpha   90.00000000
_cell_angle_beta   90.00000000
_cell_angle_gamma   90.00000000
_symmetry_Int_Tables_number   1
_chemical_formula_structural   SnHgP14
_chemical_formula_sum   'Sn4 Hg4 P56'
_cell_volume   1479.96920106
_cell_formula_units_Z   4
loop_
 _symmetry_equiv_pos_site_id
 _symmetry_equiv_pos_as_xyz
  1  'x, y, z'
loop_
 _atom_site_type_symbol
 _atom_site_label
 _atom_site_symmetry_multiplicity
 _atom_site_fract_x
 _atom_site_fract_y
 _atom_site_fract_z
 _atom_site_occupancy
  P  P0  1  0.25000000  0.83772756  0.97453106  1
  P  P1  1  0.75000000  0.16227244  0.02546894  1
  P  P2  1  0.75000000  0.33772756  0.52546894  1
  P  P3  1  0.25000000  0.66227244  0.47453106  1
  P  P4  1  0.25000000  0.39218541  0.90887889  1
  P  P5  1  0.75000000  0.60781459  0.09112111  1
  P  P6  1  0.75000000  0.89218541  0.59112111  1
  P  P7  1  0.25000000  0.10781459  0.40887889  1
  P  P8  1  0.07611389  0.15253682  0.02343028  1
  P  P9  1  0.57611389  0.84746318  0.97656972  1
  P  P10  1  0.92388611  0.65253682  0.47656972  1
  P  P11  1  0.42388611  0.34746318  0.52343028  1
  P  P12  1  0.92388611  0.84746318  0.97656972  1
  P  P13  1  0.42388611  0.15253682  0.02343028  1
  P  P14  1  0.07611389  0.34746318  0.52343028  1
  P  P15  1  0.57611389  0.65253682  0.47656972  1
  P  P16  1  0.58224714  0.28896928  0.05664823  1
  P  P17  1  0.08224714  0.71103072  0.94335177  1
  P  P18  1  0.41775286  0.78896928  0.44335177  1
  P  P19  1  0.91775286  0.21103072  0.55664823  1
  P  P20  1  0.41775286  0.71103072  0.94335177  1
  P  P21  1  0.91775286  0.28896928  0.05664823  1
  P  P22  1  0.58224714  0.21103072  0.55664823  1
  P  P23  1  0.08224714  0.78896928  0.44335177  1
  P  P24  1  0.07736189  0.58966952  0.08154466  1
  P  P25  1  0.57736189  0.41033048  0.91845534  1
  P  P26  1  0.92263811  0.08966952  0.41845534  1
  P  P27  1  0.42263811  0.91033048  0.58154466  1
  P  P28  1  0.92263811  0.41033048  0.91845534  1
  P  P29  1  0.42263811  0.58966952  0.08154466  1
  P  P30  1  0.07736189  0.91033048  0.58154466  1
  P  P31  1  0.57736189  0.08966952  0.41845534  1
  P  P32  1  0.07638435  0.17665464  0.32071229  1
  P  P33  1  0.57638435  0.82334536  0.67928771  1
  P  P34  1  0.92361565  0.67665464  0.17928771  1
  P  P35  1  0.42361565  0.32334536  0.82071229  1
  P  P36  1  0.92361565  0.82334536  0.67928771  1
  P  P37  1  0.42361565  0.17665464  0.32071229  1
  P  P38  1  0.07638435  0.32334536  0.82071229  1
  P  P39  1  0.57638435  0.67665464  0.17928771  1
  P  P40  1  0.04510047  0.36588612  0.36293245  1
  P  P41  1  0.54510047  0.63411388  0.63706755  1
  P  P42  1  0.95489953  0.86588612  0.13706755  1
  P  P43  1  0.45489953  0.13411388  0.86293245  1
  P  P44  1  0.95489953  0.63411388  0.63706755  1
  P  P45  1  0.45489953  0.36588612  0.36293245  1
  P  P46  1  0.04510047  0.13411388  0.86293245  1
  P  P47  1  0.54510047  0.86588612  0.13706755  1
  P  P48  1  0.25000000  0.27711410  0.04583197  1
  P  P49  1  0.75000000  0.72288590  0.95416803  1
  P  P50  1  0.75000000  0.77711410  0.45416803  1
  P  P51  1  0.25000000  0.22288590  0.54583197  1
  P  P52  1  0.25000000  0.65623598  0.17144697  1
  P  P53  1  0.75000000  0.34376402  0.82855303  1
  P  P54  1  0.75000000  0.15623598  0.32855303  1
  P  P55  1  0.25000000  0.84376402  0.67144697  1
  Sn  Sn56  1  0.25000000  0.90261251  0.16668966  1
  Sn  Sn57  1  0.75000000  0.09738749  0.83331034  1
  Sn  Sn58  1  0.75000000  0.40261251  0.33331034  1
  Sn  Sn59  1  0.25000000  0.59738749  0.66668966  1
  Hg  Hg60  1  0.25000000  0.99641040  0.81659495  1
  Hg  Hg61  1  0.75000000  0.00358960  0.18340505  1
  Hg  Hg62  1  0.75000000  0.49641040  0.68340505  1
  Hg  Hg63  1  0.25000000  0.50358960  0.31659495  1
