# generated using pymatgen
data_Al9Rh2
_symmetry_space_group_name_H-M   'P 1'
_cell_length_a   6.36952793
_cell_length_b   6.45469437
_cell_length_c   8.76594650
_cell_angle_alpha   90.00000000
_cell_angle_beta   94.95387319
_cell_angle_gamma   90.00000000
_symmetry_Int_Tables_number   1
_chemical_formula_structural   Al9Rh2
_chemical_formula_sum   'Al18 Rh4'
_cell_volume   359.05122967
_cell_formula_units_Z   2
loop_
 _symmetry_equiv_pos_site_id
 _symmetry_equiv_pos_as_xyz
  1  'x, y, z'
loop_
 _atom_site_type_symbol
 _atom_site_label
 _atom_site_symmetry_multiplicity
 _atom_site_fract_x
 _atom_site_fract_y
 _atom_site_fract_z
 _atom_site_occupancy
  Al  Al0  1  0.00000000  0.50000000  0.50000000  1
  Al  Al1  1  0.00000000  0.00000000  0.00000000  1
  Al  Al2  1  0.78782060  0.39432170  0.95999122  1
  Al  Al3  1  0.21217940  0.89432170  0.54000878  1
  Al  Al4  1  0.59990301  0.47873244  0.23074745  1
  Al  Al5  1  0.40009699  0.97873244  0.26925255  1
  Al  Al6  1  0.40009699  0.52126756  0.76925255  1
  Al  Al7  1  0.59990301  0.02126756  0.73074745  1
  Al  Al8  1  0.61175527  0.69631258  0.50283400  1
  Al  Al9  1  0.38824473  0.19631258  0.99716600  1
  Al  Al10  1  0.38824473  0.30368742  0.49716600  1
  Al  Al11  1  0.61175527  0.80368742  0.00283400  1
  Al  Al12  1  0.90364225  0.78674016  0.27276307  1
  Al  Al13  1  0.09635775  0.28674016  0.22723693  1
  Al  Al14  1  0.09635775  0.21325984  0.72723693  1
  Al  Al15  1  0.90364225  0.71325984  0.77276307  1
  Al  Al16  1  0.78782060  0.10567830  0.45999122  1
  Al  Al17  1  0.21217940  0.60567830  0.04000878  1
  Rh  Rh18  1  0.73576293  0.37713301  0.66830230  1
  Rh  Rh19  1  0.26423707  0.87713301  0.83169770  1
  Rh  Rh20  1  0.26423707  0.62286699  0.33169770  1
  Rh  Rh21  1  0.73576293  0.12286699  0.16830230  1
