# generated using pymatgen
data_Li2VO2F
_symmetry_space_group_name_H-M   'P 1'
_cell_length_a   3.02438502
_cell_length_b   10.39391371
_cell_length_c   7.97322082
_cell_angle_alpha   70.41693982
_cell_angle_beta   79.15399326
_cell_angle_gamma   90.11785680
_symmetry_Int_Tables_number   1
_chemical_formula_structural   Li2VO2F
_chemical_formula_sum   'Li8 V4 O8 F4'
_cell_volume   231.34843327
_cell_formula_units_Z   4
loop_
 _symmetry_equiv_pos_site_id
 _symmetry_equiv_pos_as_xyz
  1  'x, y, z'
loop_
 _atom_site_type_symbol
 _atom_site_label
 _atom_site_symmetry_multiplicity
 _atom_site_fract_x
 _atom_site_fract_y
 _atom_site_fract_z
 _atom_site_occupancy
  Li  Li0  1  0.92555477  0.30150309  0.14902711  1
  Li  Li1  1  0.92885427  0.80829000  0.14206882  1
  Li  Li2  1  0.56384088  0.96197603  0.87219353  1
  Li  Li3  1  0.58077837  0.45679189  0.83820712  1
  Li  Li4  1  0.07605236  0.70363955  0.84840712  1
  Li  Li5  1  0.41994922  0.54657116  0.15939904  1
  Li  Li6  1  0.43655169  0.02922155  0.12427742  1
  Li  Li7  1  0.06714911  0.19052171  0.86629691  1
  V  V8  1  0.74874017  0.86811526  0.49906104  1
  V  V9  1  0.74793352  0.37748272  0.50028373  1
  V  V10  1  0.24954058  0.62294720  0.49868632  1
  V  V11  1  0.25031279  0.12921465  0.52065691  1
  O  O12  1  0.67035179  0.17301531  0.65361538  1
  O  O13  1  0.66115404  0.66740995  0.65310819  1
  O  O14  1  0.83710376  0.57777220  0.34673574  1
  O  O15  1  0.18796068  0.92555892  0.62854633  1
  O  O16  1  0.31734456  0.82569142  0.35023769  1
  O  O17  1  0.18199589  0.42069800  0.65074503  1
  O  O18  1  0.31479928  0.32531035  0.35122449  1
  O  O19  1  0.99919990  0.99929250  0.99957237  1
  F  F20  1  0.83592316  0.08888679  0.34601063  1
  F  F21  1  0.50236829  0.74083478  0.99588635  1
  F  F22  1  0.49831802  0.25965506  0.00447120  1
  F  F23  1  0.99830390  0.49960192  0.00128353  1
