# generated using pymatgen
data_Nd2Te3
_symmetry_space_group_name_H-M   'P 1'
_cell_length_a   4.43893166
_cell_length_b   12.02886846
_cell_length_c   12.37020839
_cell_angle_alpha   90.00000000
_cell_angle_beta   90.00000000
_cell_angle_gamma   90.00000000
_symmetry_Int_Tables_number   1
_chemical_formula_structural   Nd2Te3
_chemical_formula_sum   'Nd8 Te12'
_cell_volume   660.51129781
_cell_formula_units_Z   4
loop_
 _symmetry_equiv_pos_site_id
 _symmetry_equiv_pos_as_xyz
  1  'x, y, z'
loop_
 _atom_site_type_symbol
 _atom_site_label
 _atom_site_symmetry_multiplicity
 _atom_site_fract_x
 _atom_site_fract_y
 _atom_site_fract_z
 _atom_site_occupancy
  Te  Te0  1  0.25000000  0.87714280  0.95786090  1
  Te  Te1  1  0.75000000  0.12285720  0.04213910  1
  Te  Te2  1  0.75000000  0.37714280  0.54213910  1
  Te  Te3  1  0.25000000  0.62285720  0.45786090  1
  Te  Te4  1  0.25000000  0.19777970  0.77476896  1
  Te  Te5  1  0.75000000  0.80222030  0.22523104  1
  Te  Te6  1  0.75000000  0.69777970  0.72523104  1
  Te  Te7  1  0.25000000  0.30222030  0.27476896  1
  Te  Te8  1  0.25000000  0.55718821  0.11926944  1
  Te  Te9  1  0.75000000  0.44281179  0.88073056  1
  Te  Te10  1  0.75000000  0.05718821  0.38073056  1
  Te  Te11  1  0.25000000  0.94281179  0.61926944  1
  Nd  Nd12  1  0.25000000  0.49721708  0.69652194  1
  Nd  Nd13  1  0.75000000  0.50278292  0.30347806  1
  Nd  Nd14  1  0.75000000  0.99721708  0.80347806  1
  Nd  Nd15  1  0.25000000  0.00278292  0.19652194  1
  Nd  Nd16  1  0.25000000  0.18762646  0.51662077  1
  Nd  Nd17  1  0.75000000  0.81237354  0.48337923  1
  Nd  Nd18  1  0.75000000  0.68762646  0.98337923  1
  Nd  Nd19  1  0.25000000  0.31237354  0.01662077  1
