# generated using pymatgen
data_Pr(FeP3)4
_symmetry_space_group_name_H-M   'P 1'
_cell_length_a   6.77132692
_cell_length_b   6.77132692
_cell_length_c   6.77132692
_cell_angle_alpha   109.47122061
_cell_angle_beta   109.47122059
_cell_angle_gamma   109.47122065
_symmetry_Int_Tables_number   1
_chemical_formula_structural   Pr(FeP3)4
_chemical_formula_sum   'Pr1 Fe4 P12'
_cell_volume   239.00085576
_cell_formula_units_Z   1
loop_
 _symmetry_equiv_pos_site_id
 _symmetry_equiv_pos_as_xyz
  1  'x, y, z'
loop_
 _atom_site_type_symbol
 _atom_site_label
 _atom_site_symmetry_multiplicity
 _atom_site_fract_x
 _atom_site_fract_y
 _atom_site_fract_z
 _atom_site_occupancy
  P  P0  1  0.49474036  0.84816950  0.64657086  1
  P  P1  1  0.20159864  0.84816950  0.35342914  1
  P  P2  1  0.79840136  0.15183050  0.64657086  1
  P  P3  1  0.15183050  0.35342914  0.50525964  1
  P  P4  1  0.35342914  0.50525964  0.15183050  1
  P  P5  1  0.50525964  0.15183050  0.35342914  1
  P  P6  1  0.15183050  0.64657086  0.79840136  1
  P  P7  1  0.35342914  0.20159864  0.84816950  1
  P  P8  1  0.84816950  0.64657086  0.49474036  1
  P  P9  1  0.64657086  0.79840136  0.15183050  1
  P  P10  1  0.84816950  0.35342914  0.20159864  1
  P  P11  1  0.64657086  0.49474036  0.84816950  1
  Fe  Fe12  1  0.50000000  0.00000000  0.00000000  1
  Fe  Fe13  1  0.00000000  0.00000000  0.50000000  1
  Fe  Fe14  1  0.00000000  0.50000000  0.00000000  1
  Fe  Fe15  1  0.50000000  0.50000000  0.50000000  1
  Pr  Pr16  1  0.00000000  0.00000000  0.00000000  1
