# generated using pymatgen
data_Nd(FeP3)4
_symmetry_space_group_name_H-M   'P 1'
_cell_length_a   6.76454252
_cell_length_b   6.76454252
_cell_length_c   6.76454252
_cell_angle_alpha   109.47122065
_cell_angle_beta   109.47122066
_cell_angle_gamma   109.47122064
_symmetry_Int_Tables_number   1
_chemical_formula_structural   Nd(FeP3)4
_chemical_formula_sum   'Nd1 Fe4 P12'
_cell_volume   238.28318819
_cell_formula_units_Z   1
loop_
 _symmetry_equiv_pos_site_id
 _symmetry_equiv_pos_as_xyz
  1  'x, y, z'
loop_
 _atom_site_type_symbol
 _atom_site_label
 _atom_site_symmetry_multiplicity
 _atom_site_fract_x
 _atom_site_fract_y
 _atom_site_fract_z
 _atom_site_occupancy
  P  P0  1  0.49527037  0.84841801  0.64685236  1
  P  P1  1  0.20156565  0.84841801  0.35314764  1
  P  P2  1  0.79843435  0.15158199  0.64685236  1
  P  P3  1  0.15158199  0.35314764  0.50472963  1
  P  P4  1  0.35314764  0.50472963  0.15158199  1
  P  P5  1  0.50472963  0.15158199  0.35314764  1
  P  P6  1  0.15158199  0.64685236  0.79843435  1
  P  P7  1  0.35314764  0.20156565  0.84841801  1
  P  P8  1  0.84841801  0.64685236  0.49527037  1
  P  P9  1  0.64685236  0.79843435  0.15158199  1
  P  P10  1  0.84841801  0.35314764  0.20156565  1
  P  P11  1  0.64685236  0.49527037  0.84841801  1
  Fe  Fe12  1  0.50000000  0.00000000  0.00000000  1
  Fe  Fe13  1  0.00000000  0.00000000  0.50000000  1
  Fe  Fe14  1  0.00000000  0.50000000  0.00000000  1
  Fe  Fe15  1  0.50000000  0.50000000  0.50000000  1
  Nd  Nd16  1  0.00000000  0.00000000  0.00000000  1
