# generated using pymatgen
data_Sr3(BO3)2
_symmetry_space_group_name_H-M   'P 1'
_cell_length_a   6.78843567
_cell_length_b   6.78843567
_cell_length_c   6.78843567
_cell_angle_alpha   84.29785818
_cell_angle_beta   84.29785823
_cell_angle_gamma   84.29785820
_symmetry_Int_Tables_number   1
_chemical_formula_structural   Sr3(BO3)2
_chemical_formula_sum   'Sr6 B4 O12'
_cell_volume   308.47473099
_cell_formula_units_Z   2
loop_
 _symmetry_equiv_pos_site_id
 _symmetry_equiv_pos_as_xyz
  1  'x, y, z'
loop_
 _atom_site_type_symbol
 _atom_site_label
 _atom_site_symmetry_multiplicity
 _atom_site_fract_x
 _atom_site_fract_y
 _atom_site_fract_z
 _atom_site_occupancy
  B  B0  1  0.38394859  0.38394859  0.38394859  1
  B  B1  1  0.61605141  0.61605141  0.61605141  1
  B  B2  1  0.88394859  0.88394859  0.88394859  1
  B  B3  1  0.11605141  0.11605141  0.11605141  1
  O  O4  1  0.89403900  0.72726720  0.03394977  1
  O  O5  1  0.72726720  0.03394977  0.89403900  1
  O  O6  1  0.03394977  0.89403900  0.72726720  1
  O  O7  1  0.77273280  0.60596100  0.46605023  1
  O  O8  1  0.46605023  0.77273280  0.60596100  1
  O  O9  1  0.60596100  0.46605023  0.77273280  1
  O  O10  1  0.27273280  0.96605023  0.10596100  1
  O  O11  1  0.10596100  0.27273280  0.96605023  1
  O  O12  1  0.96605023  0.10596100  0.27273280  1
  O  O13  1  0.53394977  0.22726720  0.39403900  1
  O  O14  1  0.39403900  0.53394977  0.22726720  1
  O  O15  1  0.22726720  0.39403900  0.53394977  1
  Sr  Sr16  1  0.10247283  0.75000000  0.39752717  1
  Sr  Sr17  1  0.75000000  0.39752717  0.10247283  1
  Sr  Sr18  1  0.39752717  0.10247283  0.75000000  1
  Sr  Sr19  1  0.89752717  0.25000000  0.60247283  1
  Sr  Sr20  1  0.25000000  0.60247283  0.89752717  1
  Sr  Sr21  1  0.60247283  0.89752717  0.25000000  1
