# generated using pymatgen
data_Al3Au8
_symmetry_space_group_name_H-M   'P 1'
_cell_length_a   14.99805455
_cell_length_b   14.99805455
_cell_length_c   14.99805454
_cell_angle_alpha   30.31668329
_cell_angle_beta   30.31668330
_cell_angle_gamma   30.31668329
_symmetry_Int_Tables_number   1
_chemical_formula_structural   Al3Au8
_chemical_formula_sum   'Al12 Au32'
_cell_volume   761.79668016
_cell_formula_units_Z   4
loop_
 _symmetry_equiv_pos_site_id
 _symmetry_equiv_pos_as_xyz
  1  'x, y, z'
loop_
 _atom_site_type_symbol
 _atom_site_label
 _atom_site_symmetry_multiplicity
 _atom_site_fract_x
 _atom_site_fract_y
 _atom_site_fract_z
 _atom_site_occupancy
  Al  Al0  1  0.00000000  0.00000000  0.00000000  1
  Al  Al1  1  0.50000000  0.50000000  0.50000000  1
  Al  Al2  1  0.84373317  0.84373317  0.84373317  1
  Al  Al3  1  0.65626683  0.65626683  0.65626683  1
  Al  Al4  1  0.15626683  0.15626683  0.15626683  1
  Al  Al5  1  0.34373317  0.34373317  0.34373317  1
  Al  Al6  1  0.93372565  0.56627435  0.25000000  1
  Al  Al7  1  0.25000000  0.93372565  0.56627435  1
  Al  Al8  1  0.56627435  0.25000000  0.93372565  1
  Al  Al9  1  0.06627435  0.43372565  0.75000000  1
  Al  Al10  1  0.75000000  0.06627435  0.43372565  1
  Al  Al11  1  0.43372565  0.75000000  0.06627435  1
  Au  Au12  1  0.78249103  0.78249103  0.78249103  1
  Au  Au13  1  0.71750897  0.71750897  0.71750897  1
  Au  Au14  1  0.21750897  0.21750897  0.21750897  1
  Au  Au15  1  0.28249103  0.28249103  0.28249103  1
  Au  Au16  1  0.06285771  0.06285771  0.06285771  1
  Au  Au17  1  0.43714229  0.43714229  0.43714229  1
  Au  Au18  1  0.93714229  0.93714229  0.93714229  1
  Au  Au19  1  0.56285771  0.56285771  0.56285771  1
  Au  Au20  1  0.35106594  0.70391040  0.99620493  1
  Au  Au21  1  0.99620493  0.35106594  0.70391040  1
  Au  Au22  1  0.70391040  0.99620493  0.35106594  1
  Au  Au23  1  0.79608960  0.14893406  0.50379507  1
  Au  Au24  1  0.50379507  0.79608960  0.14893406  1
  Au  Au25  1  0.14893406  0.50379507  0.79608960  1
  Au  Au26  1  0.64893406  0.29608960  0.00379507  1
  Au  Au27  1  0.00379507  0.64893406  0.29608960  1
  Au  Au28  1  0.29608960  0.00379507  0.64893406  1
  Au  Au29  1  0.20391040  0.85106594  0.49620493  1
  Au  Au30  1  0.49620493  0.20391040  0.85106594  1
  Au  Au31  1  0.85106594  0.49620493  0.20391040  1
  Au  Au32  1  0.38489726  0.12500611  0.64722868  1
  Au  Au33  1  0.64722868  0.38489726  0.12500611  1
  Au  Au34  1  0.12500611  0.64722868  0.38489726  1
  Au  Au35  1  0.37499389  0.11510274  0.85277132  1
  Au  Au36  1  0.85277132  0.37499389  0.11510274  1
  Au  Au37  1  0.11510274  0.85277132  0.37499389  1
  Au  Au38  1  0.61510274  0.87499389  0.35277132  1
  Au  Au39  1  0.35277132  0.61510274  0.87499389  1
  Au  Au40  1  0.87499389  0.35277132  0.61510274  1
  Au  Au41  1  0.62500611  0.88489726  0.14722868  1
  Au  Au42  1  0.14722868  0.62500611  0.88489726  1
  Au  Au43  1  0.88489726  0.14722868  0.62500611  1
