# generated using pymatgen
data_Tb2Si5Ru3
_symmetry_space_group_name_H-M   'P 1'
_cell_length_a   5.62647336
_cell_length_b   8.25549514
_cell_length_c   8.25549514
_cell_angle_alpha   71.58952351
_cell_angle_beta   70.07612077
_cell_angle_gamma   70.07612078
_symmetry_Int_Tables_number   1
_chemical_formula_structural   Tb2Si5Ru3
_chemical_formula_sum   'Tb4 Si10 Ru6'
_cell_volume   330.16865161
_cell_formula_units_Z   2
loop_
 _symmetry_equiv_pos_site_id
 _symmetry_equiv_pos_as_xyz
  1  'x, y, z'
loop_
 _atom_site_type_symbol
 _atom_site_label
 _atom_site_symmetry_multiplicity
 _atom_site_fract_x
 _atom_site_fract_y
 _atom_site_fract_z
 _atom_site_occupancy
  Si  Si0  1  0.25000000  0.00000000  0.00000000  1
  Si  Si1  1  0.75000000  0.00000000  0.00000000  1
  Si  Si2  1  0.95806425  0.29193575  0.29193575  1
  Si  Si3  1  0.54193575  0.70806425  0.70806425  1
  Si  Si4  1  0.04193575  0.70806425  0.70806425  1
  Si  Si5  1  0.45806425  0.29193575  0.29193575  1
  Si  Si6  1  0.40420836  0.42727118  0.76431211  1
  Si  Si7  1  0.90420836  0.76431211  0.42727118  1
  Si  Si8  1  0.09579164  0.23568789  0.57272882  1
  Si  Si9  1  0.59579164  0.57272882  0.23568789  1
  Ru  Ru10  1  0.85399916  0.05323069  0.23877100  1
  Ru  Ru11  1  0.75000000  0.50000000  0.50000000  1
  Ru  Ru12  1  0.35399916  0.23877100  0.05323069  1
  Ru  Ru13  1  0.64600084  0.76122900  0.94676931  1
  Ru  Ru14  1  0.14600084  0.94676931  0.76122900  1
  Ru  Ru15  1  0.25000000  0.50000000  0.50000000  1
  Tb  Tb16  1  0.13494624  0.63252499  0.09758253  1
  Tb  Tb17  1  0.86505376  0.36747501  0.90241747  1
  Tb  Tb18  1  0.36505376  0.90241747  0.36747501  1
  Tb  Tb19  1  0.63494624  0.09758253  0.63252499  1
