# generated using pymatgen
data_Sr11Sb10
_symmetry_space_group_name_H-M   'P 1'
_cell_length_a   12.56727314
_cell_length_b   12.56727314
_cell_length_c   12.82213972
_cell_angle_alpha   119.34462154
_cell_angle_beta   119.34462154
_cell_angle_gamma   90.00000000
_symmetry_Int_Tables_number   1
_chemical_formula_structural   Sr11Sb10
_chemical_formula_sum   'Sr22 Sb20'
_cell_volume   1459.85733208
_cell_formula_units_Z   2
loop_
 _symmetry_equiv_pos_site_id
 _symmetry_equiv_pos_as_xyz
  1  'x, y, z'
loop_
 _atom_site_type_symbol
 _atom_site_label
 _atom_site_symmetry_multiplicity
 _atom_site_fract_x
 _atom_site_fract_y
 _atom_site_fract_z
 _atom_site_occupancy
  Sr  Sr0  1  0.93937875  0.18972312  0.37944623  1
  Sr  Sr1  1  0.44006749  0.18972312  0.37944623  1
  Sr  Sr2  1  0.18972312  0.44006749  0.37944623  1
  Sr  Sr3  1  0.18972312  0.93937875  0.37944623  1
  Sr  Sr4  1  0.06062125  0.81027688  0.62055377  1
  Sr  Sr5  1  0.55993251  0.81027688  0.62055377  1
  Sr  Sr6  1  0.81027688  0.55993251  0.62055377  1
  Sr  Sr7  1  0.81027688  0.06062125  0.62055377  1
  Sr  Sr8  1  0.83089436  0.16910564  0.00000000  1
  Sr  Sr9  1  0.16910564  0.83089436  0.00000000  1
  Sr  Sr10  1  0.16910564  0.16910564  0.00000000  1
  Sr  Sr11  1  0.83089436  0.83089436  0.00000000  1
  Sr  Sr12  1  0.34472522  0.34472522  0.68945045  1
  Sr  Sr13  1  0.65527478  0.65527478  0.31054955  1
  Sr  Sr14  1  0.06041895  0.39513015  0.79026031  1
  Sr  Sr15  1  0.72984135  0.39513015  0.79026031  1
  Sr  Sr16  1  0.39513015  0.72984135  0.79026031  1
  Sr  Sr17  1  0.39513015  0.06041895  0.79026031  1
  Sr  Sr18  1  0.93958105  0.60486985  0.20973969  1
  Sr  Sr19  1  0.27015865  0.60486985  0.20973969  1
  Sr  Sr20  1  0.60486985  0.27015865  0.20973969  1
  Sr  Sr21  1  0.60486985  0.93958105  0.20973969  1
  Sb  Sb22  1  0.00000000  0.35368951  0.00000000  1
  Sb  Sb23  1  0.00000000  0.64631049  0.00000000  1
  Sb  Sb24  1  0.35368951  0.00000000  0.00000000  1
  Sb  Sb25  1  0.64631049  0.00000000  0.00000000  1
  Sb  Sb26  1  0.12190102  0.12190102  0.24380203  1
  Sb  Sb27  1  0.87809898  0.87809898  0.75619797  1
  Sb  Sb28  1  0.62119596  0.37880404  0.00000000  1
  Sb  Sb29  1  0.37880404  0.62119596  0.00000000  1
  Sb  Sb30  1  0.37880404  0.37880404  0.00000000  1
  Sb  Sb31  1  0.62119596  0.62119596  0.00000000  1
  Sb  Sb32  1  0.75000000  0.25000000  0.50000000  1
  Sb  Sb33  1  0.25000000  0.75000000  0.50000000  1
  Sb  Sb34  1  0.11091068  0.53038296  0.64129363  1
  Sb  Sb35  1  0.53038296  0.11091068  0.64129363  1
  Sb  Sb36  1  0.53038296  0.53038296  0.64129363  1
  Sb  Sb37  1  0.11091068  0.11091068  0.64129363  1
  Sb  Sb38  1  0.88908932  0.46961704  0.35870637  1
  Sb  Sb39  1  0.46961704  0.88908932  0.35870637  1
  Sb  Sb40  1  0.46961704  0.46961704  0.35870637  1
  Sb  Sb41  1  0.88908932  0.88908932  0.35870637  1
