# generated using pymatgen
data_Li2VO2F
_symmetry_space_group_name_H-M   'P 1'
_cell_length_a   3.02350456
_cell_length_b   10.41386343
_cell_length_c   7.36270147
_cell_angle_alpha   90.99041414
_cell_angle_beta   90.06420288
_cell_angle_gamma   89.88370983
_symmetry_Int_Tables_number   1
_chemical_formula_structural   Li2VO2F
_chemical_formula_sum   'Li8 V4 O8 F4'
_cell_volume   231.78944668
_cell_formula_units_Z   4
loop_
 _symmetry_equiv_pos_site_id
 _symmetry_equiv_pos_as_xyz
  1  'x, y, z'
loop_
 _atom_site_type_symbol
 _atom_site_label
 _atom_site_symmetry_multiplicity
 _atom_site_fract_x
 _atom_site_fract_y
 _atom_site_fract_z
 _atom_site_occupancy
  Li  Li0  1  0.00009139  0.66307633  0.14828736  1
  Li  Li1  1  0.99945742  0.15501379  0.14224681  1
  Li  Li2  1  0.00016002  0.32576508  0.84390520  1
  Li  Li3  1  0.00203182  0.84496611  0.86259169  1
  Li  Li4  1  0.49943803  0.41128530  0.16085579  1
  Li  Li5  1  0.49989292  0.94151692  0.12190146  1
  Li  Li6  1  0.49798280  0.07492529  0.86885710  1
  Li  Li7  1  0.50013384  0.57665533  0.84914879  1
  V  V8  1  0.99895559  0.00876494  0.50534834  1
  V  V9  1  0.99144418  0.49887196  0.49945144  1
  V  V10  1  0.50735150  0.25319661  0.49697171  1
  V  V11  1  0.50374973  0.74114778  0.51925312  1
  O  O12  1  0.99398842  0.66624151  0.65893533  1
  O  O13  1  0.01744612  0.17380023  0.64723910  1
  O  O14  1  0.99643882  0.33669212  0.34532119  1
  O  O15  1  0.99930079  0.00053404  0.99637063  1
  O  O16  1  0.49654330  0.42040253  0.65001076  1
  O  O17  1  0.49233293  0.91416527  0.63055806  1
  O  O18  1  0.51367909  0.08500440  0.35189338  1
  O  O19  1  0.48838856  0.58665742  0.35114410  1
  F  F20  1  0.00189553  0.82305056  0.34668286  1
  F  F21  1  0.99982067  0.49935395  0.00067351  1
  F  F22  1  0.49981465  0.26012683  0.99885189  1
  F  F23  1  0.49958088  0.73878472  0.00350240  1
