# generated using pymatgen
data_Ho2Al
_symmetry_space_group_name_H-M   'P 1'
_cell_length_a   5.07785626
_cell_length_b   6.52911648
_cell_length_c   9.41207285
_cell_angle_alpha   90.00000000
_cell_angle_beta   90.00000000
_cell_angle_gamma   90.00000000
_symmetry_Int_Tables_number   1
_chemical_formula_structural   Ho2Al
_chemical_formula_sum   'Ho8 Al4'
_cell_volume   312.04706315
_cell_formula_units_Z   4
loop_
 _symmetry_equiv_pos_site_id
 _symmetry_equiv_pos_as_xyz
  1  'x, y, z'
loop_
 _atom_site_type_symbol
 _atom_site_label
 _atom_site_symmetry_multiplicity
 _atom_site_fract_x
 _atom_site_fract_y
 _atom_site_fract_z
 _atom_site_occupancy
  Al  Al0  1  0.75000000  0.70842947  0.89727551  1
  Al  Al1  1  0.25000000  0.29157053  0.10272449  1
  Al  Al2  1  0.75000000  0.20842947  0.60272449  1
  Al  Al3  1  0.25000000  0.79157053  0.39727551  1
  Ho  Ho4  1  0.75000000  0.18782256  0.92720469  1
  Ho  Ho5  1  0.25000000  0.81217744  0.07279531  1
  Ho  Ho6  1  0.75000000  0.68782256  0.57279531  1
  Ho  Ho7  1  0.25000000  0.31217744  0.42720469  1
  Ho  Ho8  1  0.75000000  0.02699085  0.28991125  1
  Ho  Ho9  1  0.25000000  0.97300915  0.71008875  1
  Ho  Ho10  1  0.75000000  0.52699085  0.21008875  1
  Ho  Ho11  1  0.25000000  0.47300915  0.78991125  1
