# generated using pymatgen
data_Lu2Al3Co
_symmetry_space_group_name_H-M   'P 1'
_cell_length_a   5.43992140
_cell_length_b   5.43973607
_cell_length_c   8.48856623
_cell_angle_alpha   90.00000000
_cell_angle_beta   90.00000000
_cell_angle_gamma   120.00112700
_symmetry_Int_Tables_number   1
_chemical_formula_structural   Lu2Al3Co
_chemical_formula_sum   'Lu4 Al6 Co2'
_cell_volume   217.53567757
_cell_formula_units_Z   2
loop_
 _symmetry_equiv_pos_site_id
 _symmetry_equiv_pos_as_xyz
  1  'x, y, z'
loop_
 _atom_site_type_symbol
 _atom_site_label
 _atom_site_symmetry_multiplicity
 _atom_site_fract_x
 _atom_site_fract_y
 _atom_site_fract_z
 _atom_site_occupancy
  Lu  Lu0  1  0.66666943  0.33333786  0.94450241  1
  Lu  Lu1  1  0.33333057  0.66666014  0.05549759  1
  Lu  Lu2  1  0.33333057  0.66666014  0.44450141  1
  Lu  Lu3  1  0.66666943  0.33333786  0.55549859  1
  Al  Al4  1  0.32514232  0.16258019  0.25000000  1
  Al  Al5  1  0.83743887  0.16258019  0.25000000  1
  Al  Al6  1  0.83743133  0.67486365  0.25000000  1
  Al  Al7  1  0.16256867  0.32513735  0.74999900  1
  Al  Al8  1  0.16256213  0.83741981  0.74999900  1
  Al  Al9  1  0.67485868  0.83741981  0.74999900  1
  Co  Co10  1  -0.00000000  0.00000000  0.00000000  1
  Co  Co11  1  -0.00000000  -0.00000000  0.50000000  1
