# generated using pymatgen
data_HoAl4Ni
_symmetry_space_group_name_H-M   'P 1'
_cell_length_a   4.04763479
_cell_length_b   6.62939909
_cell_length_c   7.94316031
_cell_angle_alpha   90.00000000
_cell_angle_beta   104.76098964
_cell_angle_gamma   90.00000000
_symmetry_Int_Tables_number   1
_chemical_formula_structural   HoAl4Ni
_chemical_formula_sum   'Ho2 Al8 Ni2'
_cell_volume   206.10758648
_cell_formula_units_Z   2
loop_
 _symmetry_equiv_pos_site_id
 _symmetry_equiv_pos_as_xyz
  1  'x, y, z'
loop_
 _atom_site_type_symbol
 _atom_site_label
 _atom_site_symmetry_multiplicity
 _atom_site_fract_x
 _atom_site_fract_y
 _atom_site_fract_z
 _atom_site_occupancy
  Al  Al0  1  0.50000000  0.00000000  0.00000000  1
  Al  Al1  1  0.50000000  0.50000000  0.00000000  1
  Al  Al2  1  0.07601128  0.25000000  0.15202256  1
  Al  Al3  1  0.92398872  0.75000000  0.84797744  1
  Al  Al4  1  0.68824726  0.05298640  0.37649452  1
  Al  Al5  1  0.31175274  0.94701360  0.62350548  1
  Al  Al6  1  0.31175274  0.55298640  0.62350548  1
  Al  Al7  1  0.68824726  0.44701360  0.37649452  1
  Ni  Ni8  1  0.77301270  0.75000000  0.54602540  1
  Ni  Ni9  1  0.22698730  0.25000000  0.45397460  1
  Ho  Ho10  1  0.11800015  0.75000000  0.23600029  1
  Ho  Ho11  1  0.88199985  0.25000000  0.76399971  1
