# generated using pymatgen
data_Lu3Al2
_symmetry_space_group_name_H-M   'P 1'
_cell_length_a   7.44594733
_cell_length_b   8.05501192
_cell_length_c   8.05501192
_cell_angle_alpha   90.00000000
_cell_angle_beta   90.00000000
_cell_angle_gamma   90.00000000
_symmetry_Int_Tables_number   1
_chemical_formula_structural   Lu3Al2
_chemical_formula_sum   'Lu12 Al8'
_cell_volume   483.11701662
_cell_formula_units_Z   4
loop_
 _symmetry_equiv_pos_site_id
 _symmetry_equiv_pos_as_xyz
  1  'x, y, z'
loop_
 _atom_site_type_symbol
 _atom_site_label
 _atom_site_symmetry_multiplicity
 _atom_site_fract_x
 _atom_site_fract_y
 _atom_site_fract_z
 _atom_site_occupancy
  Al  Al0  1  0.19758809  0.11979345  0.11979345  1
  Al  Al1  1  0.69758809  0.38020655  0.61979345  1
  Al  Al2  1  0.69758809  0.61979345  0.38020655  1
  Al  Al3  1  0.19758809  0.88020655  0.88020655  1
  Al  Al4  1  0.30241191  0.61979345  0.38020655  1
  Al  Al5  1  0.30241191  0.38020655  0.61979345  1
  Al  Al6  1  0.80241191  0.11979345  0.11979345  1
  Al  Al7  1  0.80241191  0.88020655  0.88020655  1
  Lu  Lu8  1  0.25000000  0.00000000  0.50000000  1
  Lu  Lu9  1  0.75000000  0.00000000  0.50000000  1
  Lu  Lu10  1  0.25000000  0.50000000  0.00000000  1
  Lu  Lu11  1  0.75000000  0.50000000  0.00000000  1
  Lu  Lu12  1  0.00000000  0.34957168  0.34957168  1
  Lu  Lu13  1  0.50000000  0.15042832  0.84957168  1
  Lu  Lu14  1  0.50000000  0.84957168  0.15042832  1
  Lu  Lu15  1  0.00000000  0.65042832  0.65042832  1
  Lu  Lu16  1  0.00000000  0.20253741  0.79746259  1
  Lu  Lu17  1  0.50000000  0.70253741  0.70253741  1
  Lu  Lu18  1  0.50000000  0.29746259  0.29746259  1
  Lu  Lu19  1  0.00000000  0.79746259  0.20253741  1
