# generated using pymatgen
data_LuAl4Ni
_symmetry_space_group_name_H-M   'P 1'
_cell_length_a   4.00686486
_cell_length_b   6.68005697
_cell_length_c   7.83473520
_cell_angle_alpha   90.00000000
_cell_angle_beta   104.81575303
_cell_angle_gamma   90.00000000
_symmetry_Int_Tables_number   1
_chemical_formula_structural   LuAl4Ni
_chemical_formula_sum   'Lu2 Al8 Ni2'
_cell_volume   202.73314929
_cell_formula_units_Z   2
loop_
 _symmetry_equiv_pos_site_id
 _symmetry_equiv_pos_as_xyz
  1  'x, y, z'
loop_
 _atom_site_type_symbol
 _atom_site_label
 _atom_site_symmetry_multiplicity
 _atom_site_fract_x
 _atom_site_fract_y
 _atom_site_fract_z
 _atom_site_occupancy
  Al  Al0  1  0.50000000  0.00000000  0.00000000  1
  Al  Al1  1  0.50000000  0.50000000  0.00000000  1
  Al  Al2  1  0.07452191  0.25000000  0.14904381  1
  Al  Al3  1  0.92547809  0.75000000  0.85095619  1
  Al  Al4  1  0.68705414  0.05361187  0.37410828  1
  Al  Al5  1  0.31294586  0.94638813  0.62589172  1
  Al  Al6  1  0.31294586  0.55361187  0.62589172  1
  Al  Al7  1  0.68705414  0.44638813  0.37410828  1
  Ni  Ni8  1  0.77140063  0.75000000  0.54280125  1
  Ni  Ni9  1  0.22859937  0.25000000  0.45719875  1
  Lu  Lu10  1  0.12066645  0.75000000  0.24133290  1
  Lu  Lu11  1  0.87933355  0.25000000  0.75866710  1
