# generated using pymatgen
data_NpAl4
_symmetry_space_group_name_H-M   'P 1'
_cell_length_a   4.42214332
_cell_length_b   6.14395920
_cell_length_c   7.88104545
_cell_angle_alpha   112.94164556
_cell_angle_beta   106.29336917
_cell_angle_gamma   90.00000000
_symmetry_Int_Tables_number   1
_chemical_formula_structural   NpAl4
_chemical_formula_sum   'Np2 Al8'
_cell_volume   187.81351694
_cell_formula_units_Z   2
loop_
 _symmetry_equiv_pos_site_id
 _symmetry_equiv_pos_as_xyz
  1  'x, y, z'
loop_
 _atom_site_type_symbol
 _atom_site_label
 _atom_site_symmetry_multiplicity
 _atom_site_fract_x
 _atom_site_fract_y
 _atom_site_fract_z
 _atom_site_occupancy
  Al  Al0  1  0.50000000  0.50000000  0.00000000  1
  Al  Al1  1  0.50000000  0.00000000  0.00000000  1
  Al  Al2  1  0.11345308  0.86345308  0.22690617  1
  Al  Al3  1  0.88654692  0.13654692  0.77309383  1
  Al  Al4  1  0.69896256  0.71862027  0.39792512  1
  Al  Al5  1  0.30103744  0.28137973  0.60207488  1
  Al  Al6  1  0.30103744  0.82069515  0.60207488  1
  Al  Al7  1  0.69896256  0.17930485  0.39792512  1
  Np  Np8  1  0.89112549  0.64112549  0.78225097  1
  Np  Np9  1  0.10887451  0.35887451  0.21774903  1
