# generated using pymatgen
data_Al3Pd5
_symmetry_space_group_name_H-M   'P 1'
_cell_length_a   4.07487978
_cell_length_b   5.44614319
_cell_length_c   10.65003441
_cell_angle_alpha   90.00000000
_cell_angle_beta   90.00000000
_cell_angle_gamma   90.00000000
_symmetry_Int_Tables_number   1
_chemical_formula_structural   Al3Pd5
_chemical_formula_sum   'Al6 Pd10'
_cell_volume   236.34959748
_cell_formula_units_Z   2
loop_
 _symmetry_equiv_pos_site_id
 _symmetry_equiv_pos_as_xyz
  1  'x, y, z'
loop_
 _atom_site_type_symbol
 _atom_site_label
 _atom_site_symmetry_multiplicity
 _atom_site_fract_x
 _atom_site_fract_y
 _atom_site_fract_z
 _atom_site_occupancy
  Al  Al0  1  -0.00000000  -0.00000000  -0.00000000  1
  Al  Al1  1  -0.00000000  0.50000000  0.50000000  1
  Al  Al2  1  0.50000000  0.16087717  0.35691227  1
  Al  Al3  1  0.50000000  0.83912283  0.64308773  1
  Al  Al4  1  0.50000000  0.66087717  0.14308773  1
  Al  Al5  1  0.50000000  0.33912283  0.85691227  1
  Pd  Pd6  1  0.50000000  0.18672980  0.10551862  1
  Pd  Pd7  1  0.50000000  0.81327020  0.89448138  1
  Pd  Pd8  1  0.50000000  0.68672980  0.39448138  1
  Pd  Pd9  1  0.50000000  0.31327020  0.60551862  1
  Pd  Pd10  1  0.00000000  0.00000000  0.50000000  1
  Pd  Pd11  1  -0.00000000  0.50000000  0.00000000  1
  Pd  Pd12  1  -0.00000000  0.90359871  0.23223569  1
  Pd  Pd13  1  0.00000000  0.09640129  0.76776431  1
  Pd  Pd14  1  -0.00000000  0.40359871  0.26776431  1
  Pd  Pd15  1  0.00000000  0.59640129  0.73223569  1
