# generated using pymatgen
data_TbAl2Ni
_symmetry_space_group_name_H-M   'P 1'
_cell_length_a   4.05226948
_cell_length_b   5.54406422
_cell_length_c   6.88461120
_cell_angle_alpha   90.00000000
_cell_angle_beta   90.00000000
_cell_angle_gamma   111.43590607
_symmetry_Int_Tables_number   1
_chemical_formula_structural   TbAl2Ni
_chemical_formula_sum   'Tb2 Al4 Ni2'
_cell_volume   143.97097608
_cell_formula_units_Z   2
loop_
 _symmetry_equiv_pos_site_id
 _symmetry_equiv_pos_as_xyz
  1  'x, y, z'
loop_
 _atom_site_type_symbol
 _atom_site_label
 _atom_site_symmetry_multiplicity
 _atom_site_fract_x
 _atom_site_fract_y
 _atom_site_fract_z
 _atom_site_occupancy
  Al  Al0  1  0.34088891  0.68177782  0.94513345  1
  Al  Al1  1  0.65911109  0.31822218  0.05486655  1
  Al  Al2  1  0.65911109  0.31822218  0.44513345  1
  Al  Al3  1  0.34088891  0.68177782  0.55486655  1
  Ni  Ni4  1  0.78343394  0.56686789  0.75000000  1
  Ni  Ni5  1  0.21656606  0.43313211  0.25000000  1
  Tb  Tb6  1  0.05988778  0.11977557  0.75000000  1
  Tb  Tb7  1  0.94011222  0.88022443  0.25000000  1
