# generated using pymatgen
data_TmAl4Ni
_symmetry_space_group_name_H-M   'P 1'
_cell_length_a   4.02439169
_cell_length_b   6.65822302
_cell_length_c   7.88136741
_cell_angle_alpha   90.00000000
_cell_angle_beta   104.79198452
_cell_angle_gamma   90.00000000
_symmetry_Int_Tables_number   1
_chemical_formula_structural   TmAl4Ni
_chemical_formula_sum   'Tm2 Al8 Ni2'
_cell_volume   204.18477308
_cell_formula_units_Z   2
loop_
 _symmetry_equiv_pos_site_id
 _symmetry_equiv_pos_as_xyz
  1  'x, y, z'
loop_
 _atom_site_type_symbol
 _atom_site_label
 _atom_site_symmetry_multiplicity
 _atom_site_fract_x
 _atom_site_fract_y
 _atom_site_fract_z
 _atom_site_occupancy
  Al  Al0  1  0.50000000  0.00000000  0.00000000  1
  Al  Al1  1  0.50000000  0.50000000  0.00000000  1
  Al  Al2  1  0.07527081  0.25000000  0.15054161  1
  Al  Al3  1  0.92472919  0.75000000  0.84945839  1
  Al  Al4  1  0.68754525  0.05338976  0.37509049  1
  Al  Al5  1  0.31245475  0.94661024  0.62490951  1
  Al  Al6  1  0.31245475  0.55338976  0.62490951  1
  Al  Al7  1  0.68754525  0.44661024  0.37509049  1
  Ni  Ni8  1  0.22795882  0.25000000  0.45591764  1
  Ni  Ni9  1  0.77204118  0.75000000  0.54408236  1
  Tm  Tm10  1  0.88052722  0.25000000  0.76105445  1
  Tm  Tm11  1  0.11947278  0.75000000  0.23894555  1
