# generated using pymatgen
data_FeOF
_symmetry_space_group_name_H-M   'P 1'
_cell_length_a   7.40620234
_cell_length_b   9.50074654
_cell_length_c   6.23529667
_cell_angle_alpha   90.00000000
_cell_angle_beta   114.89464317
_cell_angle_gamma   50.10334781
_symmetry_Int_Tables_number   1
_chemical_formula_structural   FeOF
_chemical_formula_sum   'Fe8 O8 F8'
_cell_volume   281.41201542
_cell_formula_units_Z   8
loop_
 _symmetry_equiv_pos_site_id
 _symmetry_equiv_pos_as_xyz
  1  'x, y, z'
loop_
 _atom_site_type_symbol
 _atom_site_label
 _atom_site_symmetry_multiplicity
 _atom_site_fract_x
 _atom_site_fract_y
 _atom_site_fract_z
 _atom_site_occupancy
  Fe  Fe0  1  0.98200548  0.99908521  0.00911284  1
  Fe  Fe1  1  0.01799452  0.00091479  0.49088716  1
  Fe  Fe2  1  0.01799452  0.50091479  0.02710737  1
  Fe  Fe3  1  0.98200548  0.49908521  0.47289263  1
  Fe  Fe4  1  0.48017589  0.01890932  0.50819805  1
  Fe  Fe5  1  0.51982411  0.98109068  0.99180195  1
  Fe  Fe6  1  0.48017589  0.51890932  0.47197784  1
  Fe  Fe7  1  0.51982411  0.48109068  0.02802216  1
  O  O8  1  0.19381862  0.30626453  0.34443033  1
  O  O9  1  0.19381862  0.80626453  0.34938829  1
  O  O10  1  0.30634867  -0.00008314  0.65565382  1
  O  O11  1  0.30634867  0.49991686  0.15069485  1
  O  O12  1  0.69365133  0.00008314  0.84434618  1
  O  O13  1  0.69365133  0.50008314  0.34930515  1
  O  O14  1  0.80618138  0.69373547  0.15556967  1
  O  O15  1  0.80618138  0.19373547  0.15061171  1
  F  F16  1  0.19188699  0.30700078  0.84976794  1
  F  F17  1  0.19188699  0.80700078  0.84211904  1
  F  F18  1  0.30588855  0.00111223  0.14911982  1
  F  F19  1  0.30588855  0.50111223  0.65676873  1
  F  F20  1  0.69411145  0.99888777  0.35088018  1
  F  F21  1  0.69411145  0.49888777  0.84323127  1
  F  F22  1  0.80811301  0.69299922  0.65023206  1
  F  F23  1  0.80811301  0.19299922  0.65788096  1
