# generated using pymatgen
data_LuAl
_symmetry_space_group_name_H-M   'P 1'
_cell_length_a   5.52384536
_cell_length_b   5.76383516
_cell_length_c   11.20538506
_cell_angle_alpha   90.00000000
_cell_angle_beta   90.00000000
_cell_angle_gamma   90.00000000
_symmetry_Int_Tables_number   1
_chemical_formula_structural   LuAl
_chemical_formula_sum   'Lu8 Al8'
_cell_volume   356.76303439
_cell_formula_units_Z   8
loop_
 _symmetry_equiv_pos_site_id
 _symmetry_equiv_pos_as_xyz
  1  'x, y, z'
loop_
 _atom_site_type_symbol
 _atom_site_label
 _atom_site_symmetry_multiplicity
 _atom_site_fract_x
 _atom_site_fract_y
 _atom_site_fract_z
 _atom_site_occupancy
  Al  Al0  1  0.00000000  0.92918849  0.25000000  1
  Al  Al1  1  0.50000000  0.07081151  0.75000000  1
  Al  Al2  1  0.00000000  0.07081151  0.75000000  1
  Al  Al3  1  0.50000000  0.92918849  0.25000000  1
  Al  Al4  1  0.25000000  0.65616869  0.09594889  1
  Al  Al5  1  0.75000000  0.34383131  0.90405111  1
  Al  Al6  1  0.75000000  0.65616869  0.40405111  1
  Al  Al7  1  0.25000000  0.34383131  0.59594889  1
  Lu  Lu8  1  0.25000000  0.39456317  0.33043937  1
  Lu  Lu9  1  0.75000000  0.60543683  0.66956063  1
  Lu  Lu10  1  0.75000000  0.39456317  0.16956063  1
  Lu  Lu11  1  0.25000000  0.60543683  0.83043937  1
  Lu  Lu12  1  0.25000000  0.15887685  0.01816740  1
  Lu  Lu13  1  0.75000000  0.84112315  0.98183260  1
  Lu  Lu14  1  0.75000000  0.15887685  0.48183260  1
  Lu  Lu15  1  0.25000000  0.84112315  0.51816740  1
