# generated using pymatgen
data_Sr2TmTaO6
_symmetry_space_group_name_H-M   'P 1'
_cell_length_a   5.82650051
_cell_length_b   5.89135936
_cell_length_c   8.26604516
_cell_angle_alpha   90.00000000
_cell_angle_beta   90.16690090
_cell_angle_gamma   90.00000000
_symmetry_Int_Tables_number   1
_chemical_formula_structural   Sr2TmTaO6
_chemical_formula_sum   'Sr4 Tm2 Ta2 O12'
_cell_volume   283.73913125
_cell_formula_units_Z   2
loop_
 _symmetry_equiv_pos_site_id
 _symmetry_equiv_pos_as_xyz
  1  'x, y, z'
loop_
 _atom_site_type_symbol
 _atom_site_label
 _atom_site_symmetry_multiplicity
 _atom_site_fract_x
 _atom_site_fract_y
 _atom_site_fract_z
 _atom_site_occupancy
  O  O0  1  0.42323264  0.02083262  0.73695684  1
  O  O1  1  0.07676736  0.52083262  0.76304316  1
  O  O2  1  0.57676736  0.97916738  0.26304316  1
  O  O3  1  0.92323264  0.47916738  0.23695684  1
  O  O4  1  0.70040645  0.72658318  0.54218133  1
  O  O5  1  0.79959355  0.22658318  0.95781867  1
  O  O6  1  0.29959355  0.27341682  0.45781867  1
  O  O7  1  0.20040645  0.77341682  0.04218133  1
  O  O8  1  0.27265358  0.29744438  0.03919529  1
  O  O9  1  0.22734642  0.79744438  0.46080471  1
  O  O10  1  0.72734642  0.70255562  0.96080471  1
  O  O11  1  0.77265358  0.20255562  0.53919529  1
  Sr  Sr12  1  0.00775840  0.03321679  0.25025540  1
  Sr  Sr13  1  0.49224160  0.53321679  0.24974460  1
  Sr  Sr14  1  0.50775840  0.46678321  0.75025540  1
  Sr  Sr15  1  0.99224160  0.96678321  0.74974460  1
  Tm  Tm16  1  0.00000000  0.50000000  0.50000000  1
  Tm  Tm17  1  0.50000000  0.00000000  0.00000000  1
  Ta  Ta18  1  0.50000000  0.00000000  0.50000000  1
  Ta  Ta19  1  0.00000000  0.50000000  0.00000000  1
