# generated using pymatgen
data_KEr2CuSe4
_symmetry_space_group_name_H-M   'P 1'
_cell_length_a   4.08845061
_cell_length_b   7.28608840
_cell_length_c   14.30799567
_cell_angle_alpha   90.00000000
_cell_angle_beta   90.00000000
_cell_angle_gamma   106.29396058
_symmetry_Int_Tables_number   1
_chemical_formula_structural   KEr2CuSe4
_chemical_formula_sum   'K2 Er4 Cu2 Se8'
_cell_volume   409.09909217
_cell_formula_units_Z   2
loop_
 _symmetry_equiv_pos_site_id
 _symmetry_equiv_pos_as_xyz
  1  'x, y, z'
loop_
 _atom_site_type_symbol
 _atom_site_label
 _atom_site_symmetry_multiplicity
 _atom_site_fract_x
 _atom_site_fract_y
 _atom_site_fract_z
 _atom_site_occupancy
  K  K0  1  0.88715431  0.77430862  0.25000000  1
  K  K1  1  0.11284569  0.22569138  0.75000000  1
  Cu  Cu2  1  0.16053160  0.32106320  0.25000000  1
  Cu  Cu3  1  0.83946840  0.67893680  0.75000000  1
  Se  Se4  1  0.43614795  0.87229590  0.75000000  1
  Se  Se5  1  0.56385205  0.12770410  0.25000000  1
  Se  Se6  1  0.73522577  0.47045153  0.88946841  1
  Se  Se7  1  0.26477423  0.52954847  0.11053159  1
  Se  Se8  1  0.26477423  0.52954847  0.38946841  1
  Se  Se9  1  0.73522577  0.47045153  0.61053159  1
  Se  Se10  1  0.00000000  0.00000000  0.00000000  1
  Se  Se11  1  0.00000000  0.00000000  0.50000000  1
  Er  Er12  1  0.63407701  0.26815403  0.43486451  1
  Er  Er13  1  0.36592299  0.73184597  0.56513549  1
  Er  Er14  1  0.36592299  0.73184597  0.93486451  1
  Er  Er15  1  0.63407701  0.26815403  0.06513549  1
