# generated using pymatgen
data_KHo2CuSe4
_symmetry_space_group_name_H-M   'P 1'
_cell_length_a   4.10036806
_cell_length_b   7.30742678
_cell_length_c   14.33595802
_cell_angle_alpha   90.00000000
_cell_angle_beta   90.00000000
_cell_angle_gamma   106.29373116
_symmetry_Int_Tables_number   1
_chemical_formula_structural   KHo2CuSe4
_chemical_formula_sum   'K2 Ho4 Cu2 Se8'
_cell_volume   412.29784717
_cell_formula_units_Z   2
loop_
 _symmetry_equiv_pos_site_id
 _symmetry_equiv_pos_as_xyz
  1  'x, y, z'
loop_
 _atom_site_type_symbol
 _atom_site_label
 _atom_site_symmetry_multiplicity
 _atom_site_fract_x
 _atom_site_fract_y
 _atom_site_fract_z
 _atom_site_occupancy
  K  K0  1  0.88738031  0.77476062  0.25000000  1
  K  K1  1  0.11261969  0.22523938  0.75000000  1
  Cu  Cu2  1  0.16023968  0.32047936  0.25000000  1
  Cu  Cu3  1  0.83976032  0.67952064  0.75000000  1
  Se  Se4  1  0.43611647  0.87223294  0.75000000  1
  Se  Se5  1  0.56388353  0.12776706  0.25000000  1
  Se  Se6  1  0.73510272  0.47020543  0.88883017  1
  Se  Se7  1  0.26489728  0.52979457  0.11116983  1
  Se  Se8  1  0.26489728  0.52979457  0.38883017  1
  Se  Se9  1  0.73510272  0.47020543  0.61116983  1
  Se  Se10  1  0.00000000  0.00000000  0.00000000  1
  Se  Se11  1  0.00000000  0.00000000  0.50000000  1
  Ho  Ho12  1  0.63420769  0.26841537  0.43494622  1
  Ho  Ho13  1  0.36579231  0.73158463  0.56505378  1
  Ho  Ho14  1  0.36579231  0.73158463  0.93494622  1
  Ho  Ho15  1  0.63420769  0.26841537  0.06505378  1
