# generated using pymatgen
data_Si3Os2
_symmetry_space_group_name_H-M   'P 1'
_cell_length_a   5.62463424
_cell_length_b   9.02389789
_cell_length_c   11.24109064
_cell_angle_alpha   90.00000000
_cell_angle_beta   90.00000000
_cell_angle_gamma   90.00000000
_symmetry_Int_Tables_number   1
_chemical_formula_structural   Si3Os2
_chemical_formula_sum   'Si24 Os16'
_cell_volume   570.55420223
_cell_formula_units_Z   8
loop_
 _symmetry_equiv_pos_site_id
 _symmetry_equiv_pos_as_xyz
  1  'x, y, z'
loop_
 _atom_site_type_symbol
 _atom_site_label
 _atom_site_symmetry_multiplicity
 _atom_site_fract_x
 _atom_site_fract_y
 _atom_site_fract_z
 _atom_site_occupancy
  Si  Si0  1  0.60418985  0.10712807  0.63026467  1
  Si  Si1  1  0.10418985  0.39287193  0.86973533  1
  Si  Si2  1  0.89581015  0.10712807  0.36973533  1
  Si  Si3  1  0.39581015  0.39287193  0.13026467  1
  Si  Si4  1  0.39581015  0.89287193  0.36973533  1
  Si  Si5  1  0.89581015  0.60712807  0.13026467  1
  Si  Si6  1  0.10418985  0.89287193  0.63026467  1
  Si  Si7  1  0.60418985  0.60712807  0.86973533  1
  Si  Si8  1  0.90936934  0.06344846  0.81849872  1
  Si  Si9  1  0.40936934  0.43655154  0.68150128  1
  Si  Si10  1  0.59063066  0.06344846  0.18150128  1
  Si  Si11  1  0.09063066  0.43655154  0.31849872  1
  Si  Si12  1  0.09063066  0.93655154  0.18150128  1
  Si  Si13  1  0.59063066  0.56344846  0.31849872  1
  Si  Si14  1  0.40936934  0.93655154  0.81849872  1
  Si  Si15  1  0.90936934  0.56344846  0.68150128  1
  Si  Si16  1  0.55631422  0.70546560  0.57380225  1
  Si  Si17  1  0.05631422  0.79453440  0.92619775  1
  Si  Si18  1  0.94368578  0.70546560  0.42619775  1
  Si  Si19  1  0.44368578  0.79453440  0.07380225  1
  Si  Si20  1  0.44368578  0.29453440  0.42619775  1
  Si  Si21  1  0.94368578  0.20546560  0.07380225  1
  Si  Si22  1  0.05631422  0.29453440  0.57380225  1
  Si  Si23  1  0.55631422  0.20546560  0.92619775  1
  Os  Os24  1  0.75000000  0.92396147  0.50000000  1
  Os  Os25  1  0.25000000  0.57603853  0.00000000  1
  Os  Os26  1  0.25000000  0.07603853  0.50000000  1
  Os  Os27  1  0.75000000  0.42396147  0.00000000  1
  Os  Os28  1  0.75000000  0.46224459  0.50000000  1
  Os  Os29  1  0.25000000  0.03775541  0.00000000  1
  Os  Os30  1  0.25000000  0.53775541  0.50000000  1
  Os  Os31  1  0.75000000  0.96224459  0.00000000  1
  Os  Os32  1  0.76246097  0.31321435  0.74511055  1
  Os  Os33  1  0.26246097  0.18678565  0.75488945  1
  Os  Os34  1  0.73753903  0.31321435  0.25488945  1
  Os  Os35  1  0.23753903  0.18678565  0.24511055  1
  Os  Os36  1  0.23753903  0.68678565  0.25488945  1
  Os  Os37  1  0.73753903  0.81321435  0.24511055  1
  Os  Os38  1  0.26246097  0.68678565  0.74511055  1
  Os  Os39  1  0.76246097  0.81321435  0.75488945  1
