# generated using pymatgen
data_LiCoSiO4
_symmetry_space_group_name_H-M   'P 1'
_cell_length_a   5.38404225
_cell_length_b   5.54626337
_cell_length_c   6.19355988
_cell_angle_alpha   86.92051874
_cell_angle_beta   89.98931804
_cell_angle_gamma   89.99546936
_symmetry_Int_Tables_number   1
_chemical_formula_structural   LiCoSiO4
_chemical_formula_sum   'Li2 Co2 Si2 O8'
_cell_volume   184.68077707
_cell_formula_units_Z   2
loop_
 _symmetry_equiv_pos_site_id
 _symmetry_equiv_pos_as_xyz
  1  'x, y, z'
loop_
 _atom_site_type_symbol
 _atom_site_label
 _atom_site_symmetry_multiplicity
 _atom_site_fract_x
 _atom_site_fract_y
 _atom_site_fract_z
 _atom_site_occupancy
  Li  Li0  1  0.32722524  0.32679306  0.27830352  1
  Li  Li1  1  0.67278225  0.82679529  0.77826604  1
  Co  Co2  1  0.17077572  0.99482542  0.99633788  1
  Co  Co3  1  0.82927354  0.49471236  0.49633841  1
  Si  Si4  1  0.68138199  0.99618174  0.26015284  1
  Si  Si5  1  0.31862460  0.49624738  0.76015730  1
  O  O6  1  0.70207284  0.28560969  0.30560230  1
  O  O7  1  0.21252068  0.33041902  0.96693162  1
  O  O8  1  0.16978294  0.43955585  0.53578126  1
  O  O9  1  0.61894872  0.45293513  0.73520913  1
  O  O10  1  0.29792127  0.78570050  0.80552437  1
  O  O11  1  0.78740537  0.83032409  0.46689666  1
  O  O12  1  0.83023477  0.93959358  0.03569597  1
  O  O13  1  0.38104907  0.95299389  0.23516970  1
