# generated using pymatgen
data_H2CBrCl
_symmetry_space_group_name_H-M   'P 1'
_cell_length_a   4.86739614
_cell_length_b   6.85111333
_cell_length_c   15.90552790
_cell_angle_alpha   91.99901086
_cell_angle_beta   81.19862536
_cell_angle_gamma   110.80733268
_symmetry_Int_Tables_number   1
_chemical_formula_structural   H2CBrCl
_chemical_formula_sum   'H8 C4 Br4 Cl4'
_cell_volume   489.86303194
_cell_formula_units_Z   4
loop_
 _symmetry_equiv_pos_site_id
 _symmetry_equiv_pos_as_xyz
  1  'x, y, z'
loop_
 _atom_site_type_symbol
 _atom_site_label
 _atom_site_symmetry_multiplicity
 _atom_site_fract_x
 _atom_site_fract_y
 _atom_site_fract_z
 _atom_site_occupancy
  H  H0  1  0.01466022  0.79661677  0.53996126  1
  H  H1  1  0.25800471  0.70338323  0.96003874  1
  H  H2  1  0.98533978  0.20338323  0.46003874  1
  H  H3  1  0.74199529  0.29661677  0.03996126  1
  H  H4  1  0.82886127  0.78886562  0.64859034  1
  H  H5  1  0.18858600  0.71113438  0.85140966  1
  H  H6  1  0.17113873  0.21113438  0.35140966  1
  H  H7  1  0.81141400  0.28886562  0.14859034  1
  C  C8  1  0.03166058  0.79225745  0.60746610  1
  C  C9  1  0.34686923  0.70774255  0.89253390  1
  C  C10  1  0.96833942  0.20774255  0.39253390  1
  C  C11  1  0.65313077  0.29225745  0.10746610  1
  Br  Br12  1  0.34525300  0.05287136  0.63085859  1
  Br  Br13  1  0.42324024  0.44712864  0.86914141  1
  Br  Br14  1  0.65474700  0.94712864  0.36914141  1
  Br  Br15  1  0.57675976  0.55287136  0.13085859  1
  Cl  Cl16  1  0.10949203  0.56756179  0.62923923  1
  Cl  Cl17  1  0.67116947  0.93243821  0.87076077  1
  Cl  Cl18  1  0.89050797  0.43243821  0.37076077  1
  Cl  Cl19  1  0.32883053  0.06756179  0.12923923  1
