# generated using pymatgen
data_YbAl7Au3
_symmetry_space_group_name_H-M   'P 1'
_cell_length_a   8.53492539
_cell_length_b   8.53492540
_cell_length_c   8.53492539
_cell_angle_alpha   56.51442014
_cell_angle_beta   56.51442015
_cell_angle_gamma   56.51442015
_symmetry_Int_Tables_number   1
_chemical_formula_structural   YbAl7Au3
_chemical_formula_sum   'Yb2 Al14 Au6'
_cell_volume   404.21107191
_cell_formula_units_Z   2
loop_
 _symmetry_equiv_pos_site_id
 _symmetry_equiv_pos_as_xyz
  1  'x, y, z'
loop_
 _atom_site_type_symbol
 _atom_site_label
 _atom_site_symmetry_multiplicity
 _atom_site_fract_x
 _atom_site_fract_y
 _atom_site_fract_z
 _atom_site_occupancy
  Al  Al0  1  0.64785445  0.43047423  0.83425000  1
  Al  Al1  1  0.43047423  0.83425000  0.64785445  1
  Al  Al2  1  0.83425000  0.64785445  0.43047423  1
  Al  Al3  1  0.66575000  0.06952577  0.85214555  1
  Al  Al4  1  0.06952577  0.85214555  0.66575000  1
  Al  Al5  1  0.85214555  0.66575000  0.06952577  1
  Al  Al6  1  0.35214555  0.56952577  0.16575000  1
  Al  Al7  1  0.56952577  0.16575000  0.35214555  1
  Al  Al8  1  0.25000000  0.25000000  0.25000000  1
  Al  Al9  1  0.75000000  0.75000000  0.75000000  1
  Al  Al10  1  0.14785445  0.33425000  0.93047423  1
  Al  Al11  1  0.93047423  0.14785445  0.33425000  1
  Al  Al12  1  0.33425000  0.93047423  0.14785445  1
  Al  Al13  1  0.16575000  0.35214555  0.56952577  1
  Yb  Yb14  1  0.50000000  0.50000000  0.50000000  1
  Yb  Yb15  1  0.00000000  0.00000000  0.00000000  1
  Au  Au16  1  0.07487730  0.75000000  0.42512270  1
  Au  Au17  1  0.75000000  0.42512270  0.07487730  1
  Au  Au18  1  0.42512270  0.07487730  0.75000000  1
  Au  Au19  1  0.92512270  0.25000000  0.57487730  1
  Au  Au20  1  0.25000000  0.57487730  0.92512270  1
  Au  Au21  1  0.57487730  0.92512270  0.25000000  1
