# generated using pymatgen
data_TmAl7Au3
_symmetry_space_group_name_H-M   'P 1'
_cell_length_a   8.44318642
_cell_length_b   8.44318642
_cell_length_c   8.44318641
_cell_angle_alpha   57.16657427
_cell_angle_beta   57.16657428
_cell_angle_gamma   57.16657425
_symmetry_Int_Tables_number   1
_chemical_formula_structural   TmAl7Au3
_chemical_formula_sum   'Tm2 Al14 Au6'
_cell_volume   397.81995959
_cell_formula_units_Z   2
loop_
 _symmetry_equiv_pos_site_id
 _symmetry_equiv_pos_as_xyz
  1  'x, y, z'
loop_
 _atom_site_type_symbol
 _atom_site_label
 _atom_site_symmetry_multiplicity
 _atom_site_fract_x
 _atom_site_fract_y
 _atom_site_fract_z
 _atom_site_occupancy
  Al  Al0  1  0.64722940  0.43022418  0.83310956  1
  Al  Al1  1  0.43022418  0.83310956  0.64722940  1
  Al  Al2  1  0.83310956  0.64722940  0.43022418  1
  Al  Al3  1  0.66689044  0.06977582  0.85277060  1
  Al  Al4  1  0.06977582  0.85277060  0.66689044  1
  Al  Al5  1  0.85277060  0.66689044  0.06977582  1
  Al  Al6  1  0.35277060  0.56977582  0.16689044  1
  Al  Al7  1  0.56977582  0.16689044  0.35277060  1
  Al  Al8  1  0.25000000  0.25000000  0.25000000  1
  Al  Al9  1  0.75000000  0.75000000  0.75000000  1
  Al  Al10  1  0.14722940  0.33310956  0.93022418  1
  Al  Al11  1  0.93022418  0.14722940  0.33310956  1
  Al  Al12  1  0.33310956  0.93022418  0.14722940  1
  Al  Al13  1  0.16689044  0.35277060  0.56977582  1
  Tm  Tm14  1  0.50000000  0.50000000  0.50000000  1
  Tm  Tm15  1  0.00000000  0.00000000  0.00000000  1
  Au  Au16  1  0.07490121  0.75000000  0.42509879  1
  Au  Au17  1  0.75000000  0.42509879  0.07490121  1
  Au  Au18  1  0.42509879  0.07490121  0.75000000  1
  Au  Au19  1  0.92509879  0.25000000  0.57490121  1
  Au  Au20  1  0.25000000  0.57490121  0.92509879  1
  Au  Au21  1  0.57490121  0.92509879  0.25000000  1
