# generated using pymatgen
data_HoAl7Au3
_symmetry_space_group_name_H-M   'P 1'
_cell_length_a   8.45346449
_cell_length_b   8.45346448
_cell_length_c   8.45346449
_cell_angle_alpha   57.20219585
_cell_angle_beta   57.20219587
_cell_angle_gamma   57.20219585
_symmetry_Int_Tables_number   1
_chemical_formula_structural   HoAl7Au3
_chemical_formula_sum   'Ho2 Al14 Au6'
_cell_volume   399.63004064
_cell_formula_units_Z   2
loop_
 _symmetry_equiv_pos_site_id
 _symmetry_equiv_pos_as_xyz
  1  'x, y, z'
loop_
 _atom_site_type_symbol
 _atom_site_label
 _atom_site_symmetry_multiplicity
 _atom_site_fract_x
 _atom_site_fract_y
 _atom_site_fract_z
 _atom_site_occupancy
  Al  Al0  1  0.64721988  0.43024749  0.83289387  1
  Al  Al1  1  0.43024749  0.83289387  0.64721988  1
  Al  Al2  1  0.83289387  0.64721988  0.43024749  1
  Al  Al3  1  0.66710613  0.06975251  0.85278012  1
  Al  Al4  1  0.06975251  0.85278012  0.66710613  1
  Al  Al5  1  0.85278012  0.66710613  0.06975251  1
  Al  Al6  1  0.35278012  0.56975251  0.16710613  1
  Al  Al7  1  0.56975251  0.16710613  0.35278012  1
  Al  Al8  1  0.25000000  0.25000000  0.25000000  1
  Al  Al9  1  0.75000000  0.75000000  0.75000000  1
  Al  Al10  1  0.14721988  0.33289387  0.93024749  1
  Al  Al11  1  0.93024749  0.14721988  0.33289387  1
  Al  Al12  1  0.33289387  0.93024749  0.14721988  1
  Al  Al13  1  0.16710613  0.35278012  0.56975251  1
  Ho  Ho14  1  0.50000000  0.50000000  0.50000000  1
  Ho  Ho15  1  0.00000000  0.00000000  0.00000000  1
  Au  Au16  1  0.07419078  0.75000000  0.42580922  1
  Au  Au17  1  0.75000000  0.42580922  0.07419078  1
  Au  Au18  1  0.42580922  0.07419078  0.75000000  1
  Au  Au19  1  0.92580922  0.25000000  0.57419078  1
  Au  Au20  1  0.25000000  0.57419078  0.92580922  1
  Au  Au21  1  0.57419078  0.92580922  0.25000000  1
