# generated using pymatgen
data_ErAl7Au3
_symmetry_space_group_name_H-M   'P 1'
_cell_length_a   8.44830504
_cell_length_b   8.44830504
_cell_length_c   8.44830503
_cell_angle_alpha   57.18665645
_cell_angle_beta   57.18665645
_cell_angle_gamma   57.18665647
_symmetry_Int_Tables_number   1
_chemical_formula_structural   ErAl7Au3
_chemical_formula_sum   'Er2 Al14 Au6'
_cell_volume   398.74398300
_cell_formula_units_Z   2
loop_
 _symmetry_equiv_pos_site_id
 _symmetry_equiv_pos_as_xyz
  1  'x, y, z'
loop_
 _atom_site_type_symbol
 _atom_site_label
 _atom_site_symmetry_multiplicity
 _atom_site_fract_x
 _atom_site_fract_y
 _atom_site_fract_z
 _atom_site_occupancy
  Al  Al0  1  0.64724161  0.43023078  0.83298626  1
  Al  Al1  1  0.43023078  0.83298626  0.64724161  1
  Al  Al2  1  0.83298626  0.64724161  0.43023078  1
  Al  Al3  1  0.66701374  0.06976922  0.85275839  1
  Al  Al4  1  0.06976922  0.85275839  0.66701374  1
  Al  Al5  1  0.85275839  0.66701374  0.06976922  1
  Al  Al6  1  0.35275839  0.56976922  0.16701374  1
  Al  Al7  1  0.56976922  0.16701374  0.35275839  1
  Al  Al8  1  0.25000000  0.25000000  0.25000000  1
  Al  Al9  1  0.75000000  0.75000000  0.75000000  1
  Al  Al10  1  0.14724161  0.33298626  0.93023078  1
  Al  Al11  1  0.93023078  0.14724161  0.33298626  1
  Al  Al12  1  0.33298626  0.93023078  0.14724161  1
  Al  Al13  1  0.16701374  0.35275839  0.56976922  1
  Er  Er14  1  0.50000000  0.50000000  0.50000000  1
  Er  Er15  1  0.00000000  0.00000000  0.00000000  1
  Au  Au16  1  0.07451412  0.75000000  0.42548588  1
  Au  Au17  1  0.75000000  0.42548588  0.07451412  1
  Au  Au18  1  0.42548588  0.07451412  0.75000000  1
  Au  Au19  1  0.92548588  0.25000000  0.57451412  1
  Au  Au20  1  0.25000000  0.57451412  0.92548588  1
  Au  Au21  1  0.57451412  0.92548588  0.25000000  1
