# generated using pymatgen
data_LuAl7Au3
_symmetry_space_group_name_H-M   'P 1'
_cell_length_a   8.43711849
_cell_length_b   8.43711849
_cell_length_c   8.43711848
_cell_angle_alpha   57.13149226
_cell_angle_beta   57.13149227
_cell_angle_gamma   57.13149228
_symmetry_Int_Tables_number   1
_chemical_formula_structural   LuAl7Au3
_chemical_formula_sum   'Lu2 Al14 Au6'
_cell_volume   396.61467861
_cell_formula_units_Z   2
loop_
 _symmetry_equiv_pos_site_id
 _symmetry_equiv_pos_as_xyz
  1  'x, y, z'
loop_
 _atom_site_type_symbol
 _atom_site_label
 _atom_site_symmetry_multiplicity
 _atom_site_fract_x
 _atom_site_fract_y
 _atom_site_fract_z
 _atom_site_occupancy
  Al  Al0  1  0.64722892  0.43026620  0.83329580  1
  Al  Al1  1  0.43026620  0.83329580  0.64722892  1
  Al  Al2  1  0.83329580  0.64722892  0.43026620  1
  Al  Al3  1  0.66670420  0.06973380  0.85277108  1
  Al  Al4  1  0.06973380  0.85277108  0.66670420  1
  Al  Al5  1  0.85277108  0.66670420  0.06973380  1
  Al  Al6  1  0.35277108  0.56973380  0.16670420  1
  Al  Al7  1  0.56973380  0.16670420  0.35277108  1
  Al  Al8  1  0.25000000  0.25000000  0.25000000  1
  Al  Al9  1  0.75000000  0.75000000  0.75000000  1
  Al  Al10  1  0.14722892  0.33329580  0.93026620  1
  Al  Al11  1  0.93026620  0.14722892  0.33329580  1
  Al  Al12  1  0.33329580  0.93026620  0.14722892  1
  Al  Al13  1  0.16670420  0.35277108  0.56973380  1
  Lu  Lu14  1  0.50000000  0.50000000  0.50000000  1
  Lu  Lu15  1  0.00000000  0.00000000  0.00000000  1
  Au  Au16  1  0.07553647  0.75000000  0.42446353  1
  Au  Au17  1  0.75000000  0.42446353  0.07553647  1
  Au  Au18  1  0.42446353  0.07553647  0.75000000  1
  Au  Au19  1  0.92446353  0.25000000  0.57553647  1
  Au  Au20  1  0.25000000  0.57553647  0.92446353  1
  Au  Au21  1  0.57553647  0.92446353  0.25000000  1
