# generated using pymatgen
data_CoOF
_symmetry_space_group_name_H-M   'P 1'
_cell_length_a   4.48037004
_cell_length_b   4.48037498
_cell_length_c   6.08598290
_cell_angle_alpha   89.99670383
_cell_angle_beta   89.99410476
_cell_angle_gamma   89.99946690
_symmetry_Int_Tables_number   1
_chemical_formula_structural   CoOF
_chemical_formula_sum   'Co4 O4 F4'
_cell_volume   122.16842426
_cell_formula_units_Z   4
loop_
 _symmetry_equiv_pos_site_id
 _symmetry_equiv_pos_as_xyz
  1  'x, y, z'
loop_
 _atom_site_type_symbol
 _atom_site_label
 _atom_site_symmetry_multiplicity
 _atom_site_fract_x
 _atom_site_fract_y
 _atom_site_fract_z
 _atom_site_occupancy
  Co  Co0  1  0.97193652  0.97193111  -0.00000147  1
  Co  Co1  1  0.02806940  0.02806431  0.50000130  1
  Co  Co2  1  0.52806371  0.47193777  0.25000110  1
  Co  Co3  1  0.47194569  0.52805656  0.74999843  1
  O  O4  1  0.18004375  0.81995890  0.74999914  1
  O  O5  1  0.31995337  0.31996655  0.49999007  1
  O  O6  1  0.68003869  0.68005225  0.00000999  1
  O  O7  1  0.81995563  0.18004732  0.25000053  1
  F  F8  1  0.22166207  0.77832399  0.25000573  1
  F  F9  1  0.27832746  0.27831815  0.99998012  1
  F  F10  1  0.72167622  0.72167318  0.50002096  1
  F  F11  1  0.77832749  0.22166993  0.74999412  1
