# generated using pymatgen
data_NdAl7Au3
_symmetry_space_group_name_H-M   'P 1'
_cell_length_a   8.51177761
_cell_length_b   8.51177761
_cell_length_c   8.51177761
_cell_angle_alpha   57.28468828
_cell_angle_beta   57.28468825
_cell_angle_gamma   57.28468831
_symmetry_Int_Tables_number   1
_chemical_formula_structural   NdAl7Au3
_chemical_formula_sum   'Nd2 Al14 Au6'
_cell_volume   408.79728031
_cell_formula_units_Z   2
loop_
 _symmetry_equiv_pos_site_id
 _symmetry_equiv_pos_as_xyz
  1  'x, y, z'
loop_
 _atom_site_type_symbol
 _atom_site_label
 _atom_site_symmetry_multiplicity
 _atom_site_fract_x
 _atom_site_fract_y
 _atom_site_fract_z
 _atom_site_occupancy
  Al  Al0  1  0.64730498  0.43088688  0.83179155  1
  Al  Al1  1  0.43088688  0.83179155  0.64730498  1
  Al  Al2  1  0.83179155  0.64730498  0.43088688  1
  Al  Al3  1  0.66820845  0.06911312  0.85269502  1
  Al  Al4  1  0.06911312  0.85269502  0.66820845  1
  Al  Al5  1  0.85269502  0.66820845  0.06911312  1
  Al  Al6  1  0.35269502  0.56911312  0.16820845  1
  Al  Al7  1  0.56911312  0.16820845  0.35269502  1
  Al  Al8  1  0.25000000  0.25000000  0.25000000  1
  Al  Al9  1  0.75000000  0.75000000  0.75000000  1
  Al  Al10  1  0.14730498  0.33179155  0.93088688  1
  Al  Al11  1  0.93088688  0.14730498  0.33179155  1
  Al  Al12  1  0.33179155  0.93088688  0.14730498  1
  Al  Al13  1  0.16820845  0.35269502  0.56911312  1
  Nd  Nd14  1  0.50000000  0.50000000  0.50000000  1
  Nd  Nd15  1  0.00000000  0.00000000  0.00000000  1
  Au  Au16  1  0.07096587  0.75000000  0.42903413  1
  Au  Au17  1  0.75000000  0.42903413  0.07096587  1
  Au  Au18  1  0.42903413  0.07096587  0.75000000  1
  Au  Au19  1  0.92903413  0.25000000  0.57096587  1
  Au  Au20  1  0.25000000  0.57096587  0.92903413  1
  Au  Au21  1  0.57096587  0.92903413  0.25000000  1
