# generated using pymatgen
data_Th2S5
_symmetry_space_group_name_H-M   'P 1'
_cell_length_a   7.62854131
_cell_length_b   7.66887102
_cell_length_c   10.23166416
_cell_angle_alpha   90.00000000
_cell_angle_beta   90.00000000
_cell_angle_gamma   90.00000000
_symmetry_Int_Tables_number   1
_chemical_formula_structural   Th2S5
_chemical_formula_sum   'Th8 S20'
_cell_volume   598.57587981
_cell_formula_units_Z   4
loop_
 _symmetry_equiv_pos_site_id
 _symmetry_equiv_pos_as_xyz
  1  'x, y, z'
loop_
 _atom_site_type_symbol
 _atom_site_label
 _atom_site_symmetry_multiplicity
 _atom_site_fract_x
 _atom_site_fract_y
 _atom_site_fract_z
 _atom_site_occupancy
  Th  Th0  1  0.76690017  0.48020851  0.14652810  1
  Th  Th1  1  0.73309983  0.98020851  0.35347190  1
  Th  Th2  1  0.26690017  0.51979149  0.35347190  1
  Th  Th3  1  0.23309983  0.01979149  0.14652810  1
  Th  Th4  1  0.23309983  0.51979149  0.85347190  1
  Th  Th5  1  0.26690017  0.01979149  0.64652810  1
  Th  Th6  1  0.73309983  0.48020851  0.64652810  1
  Th  Th7  1  0.76690017  0.98020851  0.85347190  1
  S  S8  1  0.63779582  0.11163977  0.60834899  1
  S  S9  1  0.86220418  0.61163977  0.89165101  1
  S  S10  1  0.13779582  0.88836023  0.89165101  1
  S  S11  1  0.36220418  0.38836023  0.60834899  1
  S  S12  1  0.36220418  0.88836023  0.39165101  1
  S  S13  1  0.13779582  0.38836023  0.10834899  1
  S  S14  1  0.86220418  0.11163977  0.10834899  1
  S  S15  1  0.63779582  0.61163977  0.39165101  1
  S  S16  1  0.09907718  0.64957040  0.60077747  1
  S  S17  1  0.40092282  0.14957040  0.89922253  1
  S  S18  1  0.59907718  0.35042960  0.89922253  1
  S  S19  1  0.90092282  0.85042960  0.60077747  1
  S  S20  1  0.90092282  0.35042960  0.39922253  1
  S  S21  1  0.59907718  0.85042960  0.10077747  1
  S  S22  1  0.40092282  0.64957040  0.10077747  1
  S  S23  1  0.09907718  0.14957040  0.39922253  1
  S  S24  1  0.00000000  0.25000000  0.75267547  1
  S  S25  1  0.50000000  0.75000000  0.74732453  1
  S  S26  1  0.00000000  0.75000000  0.24732453  1
  S  S27  1  0.50000000  0.25000000  0.25267547  1
