# generated using pymatgen
data_Ba6Y2Ti4O17
_symmetry_space_group_name_H-M   'P 1'
_cell_length_a   6.00232883
_cell_length_b   6.00232883
_cell_length_c   30.01966948
_cell_angle_alpha   90.00000000
_cell_angle_beta   90.00000000
_cell_angle_gamma   119.99999995
_symmetry_Int_Tables_number   1
_chemical_formula_structural   Ba6Y2Ti4O17
_chemical_formula_sum   'Ba12 Y4 Ti8 O34'
_cell_volume   936.64734440
_cell_formula_units_Z   2
loop_
 _symmetry_equiv_pos_site_id
 _symmetry_equiv_pos_as_xyz
  1  'x, y, z'
loop_
 _atom_site_type_symbol
 _atom_site_label
 _atom_site_symmetry_multiplicity
 _atom_site_fract_x
 _atom_site_fract_y
 _atom_site_fract_z
 _atom_site_occupancy
  O  O0  1  0.48160271  0.96320543  0.75000000  1
  O  O1  1  0.51839729  0.48160271  0.25000000  1
  O  O2  1  0.96320543  0.48160271  0.25000000  1
  O  O3  1  0.03679457  0.51839729  0.75000000  1
  O  O4  1  0.48160271  0.51839729  0.75000000  1
  O  O5  1  0.51839729  0.03679457  0.25000000  1
  O  O6  1  0.35159213  0.17579606  0.33027317  1
  O  O7  1  0.82420394  0.17579606  0.33027317  1
  O  O8  1  0.82420394  0.64840787  0.33027317  1
  O  O9  1  0.17579606  0.35159213  0.83027317  1
  O  O10  1  0.64840787  0.82420394  0.66972683  1
  O  O11  1  0.64840787  0.82420394  0.83027317  1
  O  O12  1  0.17579606  0.82420394  0.83027317  1
  O  O13  1  0.82420394  0.64840787  0.16972683  1
  O  O14  1  0.82420394  0.17579606  0.16972683  1
  O  O15  1  0.17579606  0.82420394  0.66972683  1
  O  O16  1  0.17579606  0.35159213  0.66972683  1
  O  O17  1  0.35159213  0.17579606  0.16972683  1
  O  O18  1  0.66369513  0.83184757  0.42256668  1
  O  O19  1  0.16815243  0.83184757  0.42256668  1
  O  O20  1  0.16815243  0.33630487  0.42256668  1
  O  O21  1  0.83184757  0.66369513  0.92256668  1
  O  O22  1  0.33630487  0.16815243  0.57743332  1
  O  O23  1  0.33630487  0.16815243  0.92256668  1
  O  O24  1  0.33333333  0.66666667  0.99557422  1
  O  O25  1  0.66666667  0.33333333  0.49557422  1
  O  O26  1  0.66666667  0.33333333  0.00442578  1
  O  O27  1  0.33333333  0.66666667  0.50442578  1
  O  O28  1  0.66369513  0.83184757  0.07743332  1
  O  O29  1  0.83184757  0.66369513  0.57743332  1
  O  O30  1  0.83184757  0.16815243  0.57743332  1
  O  O31  1  0.16815243  0.83184757  0.07743332  1
  O  O32  1  0.16815243  0.33630487  0.07743332  1
  O  O33  1  0.83184757  0.16815243  0.92256668  1
  Ti  Ti34  1  0.66666667  0.33333333  0.29615622  1
  Ti  Ti35  1  0.33333333  0.66666667  0.79615622  1
  Ti  Ti36  1  0.33333333  0.66666667  0.70384378  1
  Ti  Ti37  1  0.66666667  0.33333333  0.20384378  1
  Ti  Ti38  1  0.66666667  0.33333333  0.55473904  1
  Ti  Ti39  1  0.66666667  0.33333333  0.94526096  1
  Ti  Ti40  1  0.33333333  0.66666667  0.05473904  1
  Ti  Ti41  1  0.33333333  0.66666667  0.44526096  1
  Y  Y42  1  0.00000000  0.00000000  0.62687316  1
  Y  Y43  1  0.00000000  0.00000000  0.87312684  1
  Y  Y44  1  0.00000000  0.00000000  0.37312684  1
  Y  Y45  1  0.00000000  0.00000000  0.12687316  1
  Ba  Ba46  1  0.66666667  0.33333333  0.81547830  1
  Ba  Ba47  1  0.33333333  0.66666667  0.18452170  1
  Ba  Ba48  1  0.66666667  0.33333333  0.41038914  1
  Ba  Ba49  1  0.33333333  0.66666667  0.91038914  1
  Ba  Ba50  1  0.33333333  0.66666667  0.58961086  1
  Ba  Ba51  1  0.66666667  0.33333333  0.08961086  1
  Ba  Ba52  1  0.00000000  0.00000000  0.50000000  1
  Ba  Ba53  1  0.00000000  0.00000000  0.00000000  1
  Ba  Ba54  1  0.33333333  0.66666667  0.31547830  1
  Ba  Ba55  1  0.00000000  0.00000000  0.25000000  1
  Ba  Ba56  1  0.00000000  0.00000000  0.75000000  1
  Ba  Ba57  1  0.66666667  0.33333333  0.68452170  1
