# generated using pymatgen
data_LiMnF3
_symmetry_space_group_name_H-M   'P 1'
_cell_length_a   3.06171122
_cell_length_b   5.17689795
_cell_length_c   7.71820248
_cell_angle_alpha   90.00000000
_cell_angle_beta   90.00000000
_cell_angle_gamma   107.20006617
_symmetry_Int_Tables_number   1
_chemical_formula_structural   LiMnF3
_chemical_formula_sum   'Li2 Mn2 F6'
_cell_volume   116.86374060
_cell_formula_units_Z   2
loop_
 _symmetry_equiv_pos_site_id
 _symmetry_equiv_pos_as_xyz
  1  'x, y, z'
loop_
 _atom_site_type_symbol
 _atom_site_label
 _atom_site_symmetry_multiplicity
 _atom_site_fract_x
 _atom_site_fract_y
 _atom_site_fract_z
 _atom_site_occupancy
  Li  Li0  1  0.26147225  0.52294350  0.25000000  1
  Li  Li1  1  0.73852775  0.47705650  0.75000000  1
  Mn  Mn2  1  0.00000000  0.00000000  0.00000000  1
  Mn  Mn3  1  0.00000000  0.00000000  0.50000000  1
  F  F4  1  0.10592967  0.21185935  0.75000000  1
  F  F5  1  0.36447204  0.72894408  0.57618540  1
  F  F6  1  0.36447204  0.72894408  0.92381460  1
  F  F7  1  0.63552796  0.27105592  0.42381460  1
  F  F8  1  0.63552796  0.27105592  0.07618540  1
  F  F9  1  0.89407033  0.78814065  0.25000000  1
