# generated using pymatgen
data_K2ZnP2O7
_symmetry_space_group_name_H-M   'P 1'
_cell_length_a   7.98389880
_cell_length_b   7.98389880
_cell_length_c   11.49374961
_cell_angle_alpha   90.00000000
_cell_angle_beta   90.00000000
_cell_angle_gamma   90.00000000
_symmetry_Int_Tables_number   1
_chemical_formula_structural   K2ZnP2O7
_chemical_formula_sum   'K8 Zn4 P8 O28'
_cell_volume   732.64194420
_cell_formula_units_Z   4
loop_
 _symmetry_equiv_pos_site_id
 _symmetry_equiv_pos_as_xyz
  1  'x, y, z'
loop_
 _atom_site_type_symbol
 _atom_site_label
 _atom_site_symmetry_multiplicity
 _atom_site_fract_x
 _atom_site_fract_y
 _atom_site_fract_z
 _atom_site_occupancy
  O  O0  1  0.07864684  0.30161500  0.33966492  1
  O  O1  1  0.92135316  0.69838500  0.33966492  1
  O  O2  1  0.30161500  0.07864684  0.66033508  1
  O  O3  1  0.80161500  0.42135316  0.83966492  1
  O  O4  1  0.19838500  0.57864684  0.83966492  1
  O  O5  1  0.42135316  0.80161500  0.16033508  1
  O  O6  1  0.57864684  0.19838500  0.16033508  1
  O  O7  1  0.69838500  0.92135316  0.66033508  1
  O  O8  1  0.92135316  0.69838500  0.66033508  1
  O  O9  1  0.07864684  0.30161500  0.66033508  1
  O  O10  1  0.69838500  0.92135316  0.33966492  1
  O  O11  1  0.19838500  0.57864684  0.16033508  1
  O  O12  1  0.80161500  0.42135316  0.16033508  1
  O  O13  1  0.57864684  0.19838500  0.83966492  1
  O  O14  1  0.42135316  0.80161500  0.83966492  1
  O  O15  1  0.30161500  0.07864684  0.33966492  1
  O  O16  1  0.86421322  0.86421322  0.85001779  1
  O  O17  1  0.13578678  0.13578678  0.85001779  1
  O  O18  1  0.86421322  0.86421322  0.14998221  1
  O  O19  1  0.36421322  0.63578678  0.35001779  1
  O  O20  1  0.00000000  0.00000000  0.33181538  1
  O  O21  1  0.50000000  0.50000000  0.83181538  1
  O  O22  1  0.50000000  0.50000000  0.16818462  1
  O  O23  1  0.00000000  0.00000000  0.66818462  1
  O  O24  1  0.13578678  0.13578678  0.14998221  1
  O  O25  1  0.36421322  0.63578678  0.64998221  1
  O  O26  1  0.63578678  0.36421322  0.64998221  1
  O  O27  1  0.63578678  0.36421322  0.35001779  1
  P  P28  1  0.86365849  0.86365849  0.71894740  1
  P  P29  1  0.13634151  0.13634151  0.71894740  1
  P  P30  1  0.86365849  0.86365849  0.28105260  1
  P  P31  1  0.36365849  0.63634151  0.21894740  1
  P  P32  1  0.63634151  0.36365849  0.21894740  1
  P  P33  1  0.63634151  0.36365849  0.78105260  1
  P  P34  1  0.36365849  0.63634151  0.78105260  1
  P  P35  1  0.13634151  0.13634151  0.28105260  1
  K  K36  1  0.31551487  0.31551487  0.00000000  1
  K  K37  1  0.68448513  0.68448513  0.00000000  1
  K  K38  1  0.81551487  0.18448513  0.50000000  1
  K  K39  1  0.18448513  0.81551487  0.50000000  1
  K  K40  1  0.15139783  0.84860217  0.00000000  1
  K  K41  1  0.65139783  0.65139783  0.50000000  1
  K  K42  1  0.34860217  0.34860217  0.50000000  1
  K  K43  1  0.84860217  0.15139783  0.00000000  1
  Zn  Zn44  1  0.50000000  0.00000000  0.25000000  1
  Zn  Zn45  1  0.00000000  0.50000000  0.25000000  1
  Zn  Zn46  1  0.00000000  0.50000000  0.75000000  1
  Zn  Zn47  1  0.50000000  0.00000000  0.75000000  1
