# generated using pymatgen
data_Pr2O3
_symmetry_space_group_name_H-M   'P 1'
_cell_length_a   9.77718310
_cell_length_b   9.77718310
_cell_length_c   9.77718310
_cell_angle_alpha   109.47122062
_cell_angle_beta   109.47122061
_cell_angle_gamma   109.47122064
_symmetry_Int_Tables_number   1
_chemical_formula_structural   Pr2O3
_chemical_formula_sum   'Pr16 O24'
_cell_volume   719.48104118
_cell_formula_units_Z   8
loop_
 _symmetry_equiv_pos_site_id
 _symmetry_equiv_pos_as_xyz
  1  'x, y, z'
loop_
 _atom_site_type_symbol
 _atom_site_label
 _atom_site_symmetry_multiplicity
 _atom_site_fract_x
 _atom_site_fract_y
 _atom_site_fract_z
 _atom_site_occupancy
  O  O0  1  0.02770484  0.48799703  0.75878401  1
  O  O1  1  0.22921303  0.26892083  0.74121599  1
  O  O2  1  0.27078697  0.01200297  0.03970780  1
  O  O3  1  0.23107917  0.46029220  0.47229516  1
  O  O4  1  0.46029220  0.47229516  0.23107917  1
  O  O5  1  0.75878401  0.02770484  0.48799703  1
  O  O6  1  0.26892083  0.74121599  0.22921303  1
  O  O7  1  0.03970780  0.27078697  0.01200297  1
  O  O8  1  0.48799703  0.75878401  0.02770484  1
  O  O9  1  0.74121599  0.22921303  0.26892083  1
  O  O10  1  0.01200297  0.03970780  0.27078697  1
  O  O11  1  0.47229516  0.23107917  0.46029220  1
  O  O12  1  0.97229516  0.51200297  0.24121599  1
  O  O13  1  0.77078697  0.73107917  0.25878401  1
  O  O14  1  0.72921303  0.98799703  0.96029220  1
  O  O15  1  0.76892083  0.53970780  0.52770484  1
  O  O16  1  0.52770484  0.76892083  0.53970780  1
  O  O17  1  0.98799703  0.96029220  0.72921303  1
  O  O18  1  0.25878401  0.77078697  0.73107917  1
  O  O19  1  0.51200297  0.24121599  0.97229516  1
  O  O20  1  0.96029220  0.72921303  0.98799703  1
  O  O21  1  0.73107917  0.25878401  0.77078697  1
  O  O22  1  0.24121599  0.97229516  0.51200297  1
  O  O23  1  0.53970780  0.52770484  0.76892083  1
  Pr  Pr24  1  0.25000000  0.71951617  0.46951617  1
  Pr  Pr25  1  0.03048383  0.75000000  0.78048383  1
  Pr  Pr26  1  0.78048383  0.03048383  0.75000000  1
  Pr  Pr27  1  0.46951617  0.25000000  0.71951617  1
  Pr  Pr28  1  0.71951617  0.46951617  0.25000000  1
  Pr  Pr29  1  0.75000000  0.78048383  0.03048383  1
  Pr  Pr30  1  0.75000000  0.28048383  0.53048383  1
  Pr  Pr31  1  0.96951617  0.25000000  0.21951617  1
  Pr  Pr32  1  0.21951617  0.96951617  0.25000000  1
  Pr  Pr33  1  0.53048383  0.75000000  0.28048383  1
  Pr  Pr34  1  0.28048383  0.53048383  0.75000000  1
  Pr  Pr35  1  0.25000000  0.21951617  0.96951617  1
  Pr  Pr36  1  0.00000000  0.50000000  0.00000000  1
  Pr  Pr37  1  0.50000000  0.00000000  0.00000000  1
  Pr  Pr38  1  0.00000000  0.00000000  0.50000000  1
  Pr  Pr39  1  0.50000000  0.50000000  0.50000000  1
