# generated using pymatgen
data_PrMgRh
_symmetry_space_group_name_H-M   'P 1'
_cell_length_a   4.22015077
_cell_length_b   7.30276532
_cell_length_c   8.75504976
_cell_angle_alpha   90.00000000
_cell_angle_beta   90.00000000
_cell_angle_gamma   90.00000000
_symmetry_Int_Tables_number   1
_chemical_formula_structural   PrMgRh
_chemical_formula_sum   'Pr4 Mg4 Rh4'
_cell_volume   269.81987092
_cell_formula_units_Z   4
loop_
 _symmetry_equiv_pos_site_id
 _symmetry_equiv_pos_as_xyz
  1  'x, y, z'
loop_
 _atom_site_type_symbol
 _atom_site_label
 _atom_site_symmetry_multiplicity
 _atom_site_fract_x
 _atom_site_fract_y
 _atom_site_fract_z
 _atom_site_occupancy
  Mg  Mg0  1  0.25000000  0.63341809  0.44261433  1
  Mg  Mg1  1  0.75000000  0.36658191  0.55738567  1
  Mg  Mg2  1  0.25000000  0.13341809  0.05738567  1
  Mg  Mg3  1  0.75000000  0.86658191  0.94261433  1
  Rh  Rh4  1  0.75000000  0.74654561  0.62645784  1
  Rh  Rh5  1  0.25000000  0.25345439  0.37354216  1
  Rh  Rh6  1  0.75000000  0.24654561  0.87354216  1
  Rh  Rh7  1  0.25000000  0.75345439  0.12645784  1
  Pr  Pr8  1  0.25000000  0.53826714  0.82097313  1
  Pr  Pr9  1  0.75000000  0.46173286  0.17902687  1
  Pr  Pr10  1  0.25000000  0.03826714  0.67902687  1
  Pr  Pr11  1  0.75000000  0.96173286  0.32097313  1
