# generated using pymatgen
data_Pr2B5
_symmetry_space_group_name_H-M   'P 1'
_cell_length_a   7.33669957
_cell_length_b   7.36122215
_cell_length_c   8.48855357
_cell_angle_alpha   107.50094869
_cell_angle_beta   115.60424193
_cell_angle_gamma   90.00000003
_symmetry_Int_Tables_number   1
_chemical_formula_structural   Pr2B5
_chemical_formula_sum   'Pr8 B20'
_cell_volume   389.75944567
_cell_formula_units_Z   4
loop_
 _symmetry_equiv_pos_site_id
 _symmetry_equiv_pos_as_xyz
  1  'x, y, z'
loop_
 _atom_site_type_symbol
 _atom_site_label
 _atom_site_symmetry_multiplicity
 _atom_site_fract_x
 _atom_site_fract_y
 _atom_site_fract_z
 _atom_site_occupancy
  B  B0  1  0.28944353  0.84999795  0.08646343  1
  B  B1  1  0.20298010  0.65000205  0.91353657  1
  B  B2  1  0.71055647  0.15000205  0.91353657  1
  B  B3  1  0.79701990  0.34999795  0.08646343  1
  B  B4  1  0.09314679  0.09277962  0.50141502  1
  B  B5  1  0.59173177  0.40722038  0.49858498  1
  B  B6  1  0.90685321  0.90722038  0.49858498  1
  B  B7  1  0.40826823  0.59277962  0.50141502  1
  B  B8  1  0.53866144  0.17023360  0.49775491  1
  B  B9  1  0.04090653  0.32976640  0.50224509  1
  B  B10  1  0.46133856  0.82976640  0.50224509  1
  B  B11  1  0.95909347  0.67023360  0.49775491  1
  B  B12  1  0.67103979  0.95989428  0.49976997  1
  B  B13  1  0.17126982  0.54010572  0.50023003  1
  B  B14  1  0.32896021  0.04010572  0.50023003  1
  B  B15  1  0.82873018  0.45989428  0.49976997  1
  B  B16  1  0.59013835  0.06157225  0.67947209  1
  B  B17  1  0.91066626  0.43842775  0.32052791  1
  B  B18  1  0.40986165  0.93842775  0.32052791  1
  B  B19  1  0.08933374  0.56157225  0.67947209  1
  Pr  Pr20  1  0.81906332  0.77770428  0.76278044  1
  Pr  Pr21  1  0.05628288  0.72229572  0.23721956  1
  Pr  Pr22  1  0.18093668  0.22229572  0.23721956  1
  Pr  Pr23  1  0.94371712  0.27770428  0.76278044  1
  Pr  Pr24  1  0.31032831  0.90404011  0.76212588  1
  Pr  Pr25  1  0.54820243  0.59595989  0.23787412  1
  Pr  Pr26  1  0.68967169  0.09595989  0.23787412  1
  Pr  Pr27  1  0.45179757  0.40404011  0.76212588  1
