# generated using pymatgen
data_PrCuS2
_symmetry_space_group_name_H-M   'P 1'
_cell_length_a   6.54688669
_cell_length_b   6.92018926
_cell_length_c   7.25073705
_cell_angle_alpha   90.00000000
_cell_angle_beta   90.00000000
_cell_angle_gamma   97.59680999
_symmetry_Int_Tables_number   1
_chemical_formula_structural   PrCuS2
_chemical_formula_sum   'Pr4 Cu4 S8'
_cell_volume   325.61640719
_cell_formula_units_Z   4
loop_
 _symmetry_equiv_pos_site_id
 _symmetry_equiv_pos_as_xyz
  1  'x, y, z'
loop_
 _atom_site_type_symbol
 _atom_site_label
 _atom_site_symmetry_multiplicity
 _atom_site_fract_x
 _atom_site_fract_y
 _atom_site_fract_z
 _atom_site_occupancy
  S  S0  1  0.91299888  0.00119293  0.72579678  1
  S  S1  1  0.08700112  0.49880707  0.22579678  1
  S  S2  1  0.08700112  0.99880707  0.27420322  1
  S  S3  1  0.91299888  0.50119293  0.77420322  1
  S  S4  1  0.58921122  0.77691166  0.11467762  1
  S  S5  1  0.58921122  0.27691166  0.38532238  1
  S  S6  1  0.41078878  0.22308834  0.88532238  1
  S  S7  1  0.41078878  0.72308834  0.61467762  1
  Cu  Cu8  1  0.57311374  0.04805940  0.66472784  1
  Cu  Cu9  1  0.42688626  0.95194060  0.33527216  1
  Cu  Cu10  1  0.42688626  0.45194060  0.16472784  1
  Cu  Cu11  1  0.57311374  0.54805940  0.83527216  1
  Pr  Pr12  1  0.19049198  0.79977703  0.94931824  1
  Pr  Pr13  1  0.80950802  0.70022297  0.44931824  1
  Pr  Pr14  1  0.80950802  0.20022297  0.05068176  1
  Pr  Pr15  1  0.19049198  0.29977703  0.55068176  1
