# generated using pymatgen
data_K2NdP2S7
_symmetry_space_group_name_H-M   'P 1'
_cell_length_a   6.94957187
_cell_length_b   9.22699815
_cell_length_c   20.26244738
_cell_angle_alpha   95.65988411
_cell_angle_beta   90.00000000
_cell_angle_gamma   90.00000000
_symmetry_Int_Tables_number   1
_chemical_formula_structural   K2NdP2S7
_chemical_formula_sum   'K8 Nd4 P8 S28'
_cell_volume   1292.96855236
_cell_formula_units_Z   4
loop_
 _symmetry_equiv_pos_site_id
 _symmetry_equiv_pos_as_xyz
  1  'x, y, z'
loop_
 _atom_site_type_symbol
 _atom_site_label
 _atom_site_symmetry_multiplicity
 _atom_site_fract_x
 _atom_site_fract_y
 _atom_site_fract_z
 _atom_site_occupancy
  P  P0  1  0.01073462  0.91877913  0.95579165  1
  P  P1  1  0.98926538  0.08122087  0.04420835  1
  P  P2  1  0.48926538  0.41877913  0.45579165  1
  P  P3  1  0.51073462  0.58122087  0.54420835  1
  P  P4  1  0.51255102  0.39791071  0.82884189  1
  P  P5  1  0.01255102  0.10208929  0.67115811  1
  P  P6  1  0.48744898  0.60208929  0.17115811  1
  P  P7  1  0.98744898  0.89791071  0.32884189  1
  S  S8  1  0.96345807  0.27394936  0.00598786  1
  S  S9  1  0.46345807  0.22605064  0.49401214  1
  S  S10  1  0.03654193  0.72605064  0.99401214  1
  S  S11  1  0.53654193  0.77394936  0.50598786  1
  S  S12  1  0.74089459  0.52036966  0.59710884  1
  S  S13  1  0.24089459  0.97963034  0.90289116  1
  S  S14  1  0.25910541  0.47963034  0.40289116  1
  S  S15  1  0.75910541  0.02036966  0.09710884  1
  S  S16  1  0.76743286  0.94594110  0.90159943  1
  S  S17  1  0.73256714  0.44594110  0.40159943  1
  S  S18  1  0.26743286  0.55405890  0.59840057  1
  S  S19  1  0.23256714  0.05405890  0.09840057  1
  S  S20  1  0.72393816  0.60183797  0.11063907  1
  S  S21  1  0.22393816  0.89816203  0.38936093  1
  S  S22  1  0.27606184  0.39816203  0.88936093  1
  S  S23  1  0.77606184  0.10183797  0.61063907  1
  S  S24  1  0.75829947  0.95340450  0.38959971  1
  S  S25  1  0.25829947  0.54659550  0.11040029  1
  S  S26  1  0.24170053  0.04659550  0.61040029  1
  S  S27  1  0.74170053  0.45340450  0.88959971  1
  S  S28  1  0.97453183  0.95888090  0.74142795  1
  S  S29  1  0.47453183  0.54111910  0.75857205  1
  S  S30  1  0.02546817  0.04111910  0.25857205  1
  S  S31  1  0.52546817  0.45888090  0.24142795  1
  S  S32  1  0.92099162  0.69736861  0.27927860  1
  S  S33  1  0.42099162  0.80263139  0.22072140  1
  S  S34  1  0.07900838  0.30263139  0.72072140  1
  S  S35  1  0.57900838  0.19736861  0.77927860  1
  K  K36  1  0.51286178  0.74301090  0.99034089  1
  K  K37  1  0.01286178  0.75698910  0.50965911  1
  K  K38  1  0.48713822  0.25698910  0.00965911  1
  K  K39  1  0.98713822  0.24301090  0.49034089  1
  K  K40  1  0.95749908  0.34570347  0.18352680  1
  K  K41  1  0.45749908  0.15429653  0.31647320  1
  K  K42  1  0.04250092  0.65429653  0.81647320  1
  K  K43  1  0.54250092  0.84570347  0.68352680  1
  Nd  Nd44  1  0.53292040  0.69025261  0.34886710  1
  Nd  Nd45  1  0.03292040  0.80974739  0.15113290  1
  Nd  Nd46  1  0.46707960  0.30974739  0.65113290  1
  Nd  Nd47  1  0.96707960  0.19025261  0.84886710  1
