# generated using pymatgen
data_Tb5Ge4
_symmetry_space_group_name_H-M   'P 1'
_cell_length_a   7.69941315
_cell_length_b   7.77576934
_cell_length_c   14.78772456
_cell_angle_alpha   90.00000000
_cell_angle_beta   90.00000000
_cell_angle_gamma   90.00000000
_symmetry_Int_Tables_number   1
_chemical_formula_structural   Tb5Ge4
_chemical_formula_sum   'Tb20 Ge16'
_cell_volume   885.32422187
_cell_formula_units_Z   4
loop_
 _symmetry_equiv_pos_site_id
 _symmetry_equiv_pos_as_xyz
  1  'x, y, z'
loop_
 _atom_site_type_symbol
 _atom_site_label
 _atom_site_symmetry_multiplicity
 _atom_site_fract_x
 _atom_site_fract_y
 _atom_site_fract_z
 _atom_site_occupancy
  Ge  Ge0  1  0.16937225  0.63707747  0.25000000  1
  Ge  Ge1  1  0.66937225  0.86292253  0.25000000  1
  Ge  Ge2  1  0.33062775  0.13707747  0.75000000  1
  Ge  Ge3  1  0.83062775  0.36292253  0.75000000  1
  Ge  Ge4  1  0.91741717  0.11570868  0.25000000  1
  Ge  Ge5  1  0.41741717  0.38429132  0.25000000  1
  Ge  Ge6  1  0.58258283  0.61570868  0.75000000  1
  Ge  Ge7  1  0.08258283  0.88429132  0.75000000  1
  Ge  Ge8  1  0.78096313  0.46672259  0.45590654  1
  Ge  Ge9  1  0.28096313  0.03327741  0.04409346  1
  Ge  Ge10  1  0.71903687  0.96672259  0.54409346  1
  Ge  Ge11  1  0.21903687  0.53327741  0.95590654  1
  Ge  Ge12  1  0.21903687  0.53327741  0.54409346  1
  Ge  Ge13  1  0.71903687  0.96672259  0.95590654  1
  Ge  Ge14  1  0.28096313  0.03327741  0.45590654  1
  Ge  Ge15  1  0.78096313  0.46672259  0.04409346  1
  Tb  Tb16  1  0.71290613  0.99810611  0.75000000  1
  Tb  Tb17  1  0.21290613  0.50189389  0.75000000  1
  Tb  Tb18  1  0.78709387  0.49810611  0.25000000  1
  Tb  Tb19  1  0.28709387  0.00189389  0.25000000  1
  Tb  Tb20  1  0.02528028  0.17726269  0.60128605  1
  Tb  Tb21  1  0.52528028  0.32273731  0.89871395  1
  Tb  Tb22  1  0.47471972  0.67726269  0.39871395  1
  Tb  Tb23  1  0.97471972  0.82273731  0.10128605  1
  Tb  Tb24  1  0.97471972  0.82273731  0.39871395  1
  Tb  Tb25  1  0.47471972  0.67726269  0.10128605  1
  Tb  Tb26  1  0.52528028  0.32273731  0.60128605  1
  Tb  Tb27  1  0.02528028  0.17726269  0.89871395  1
  Tb  Tb28  1  0.87701852  0.66044832  0.61681856  1
  Tb  Tb29  1  0.37701852  0.83955168  0.88318144  1
  Tb  Tb30  1  0.62298148  0.16044832  0.38318144  1
  Tb  Tb31  1  0.12298148  0.33955168  0.11681856  1
  Tb  Tb32  1  0.12298148  0.33955168  0.38318144  1
  Tb  Tb33  1  0.62298148  0.16044832  0.11681856  1
  Tb  Tb34  1  0.37701852  0.83955168  0.61681856  1
  Tb  Tb35  1  0.87701852  0.66044832  0.88318144  1
