# generated using pymatgen
data_Na2BeB2O5
_symmetry_space_group_name_H-M   'P 1'
_cell_length_a   5.04032059
_cell_length_b   5.04032058
_cell_length_c   9.12378249
_cell_angle_alpha   94.76656051
_cell_angle_beta   94.76656049
_cell_angle_gamma   108.21509685
_symmetry_Int_Tables_number   1
_chemical_formula_structural   Na2BeB2O5
_chemical_formula_sum   'Na4 Be2 B4 O10'
_cell_volume   217.95035881
_cell_formula_units_Z   2
loop_
 _symmetry_equiv_pos_site_id
 _symmetry_equiv_pos_as_xyz
  1  'x, y, z'
loop_
 _atom_site_type_symbol
 _atom_site_label
 _atom_site_symmetry_multiplicity
 _atom_site_fract_x
 _atom_site_fract_y
 _atom_site_fract_z
 _atom_site_occupancy
  Be  Be0  1  0.71074168  0.28925832  0.25000000  1
  Be  Be1  1  0.28925832  0.71074168  0.75000000  1
  B  B2  1  0.16039722  0.17215506  0.17826208  1
  B  B3  1  0.82784494  0.83960278  0.32173792  1
  B  B4  1  0.17215506  0.16039722  0.67826208  1
  B  B5  1  0.83960278  0.82784494  0.82173792  1
  O  O6  1  0.32306976  0.98136341  0.65617347  1
  O  O7  1  0.98136341  0.32306976  0.15617347  1
  O  O8  1  0.24504121  0.42439075  0.63301778  1
  O  O9  1  0.57560925  0.75495879  0.86698222  1
  O  O10  1  0.75495879  0.57560925  0.36698222  1
  O  O11  1  0.42439075  0.24504121  0.13301778  1
  O  O12  1  0.92433812  0.07566188  0.75000000  1
  O  O13  1  0.07566188  0.92433812  0.25000000  1
  O  O14  1  0.67693024  0.01863659  0.34382653  1
  O  O15  1  0.01863659  0.67693024  0.84382653  1
  Na  Na16  1  0.31551454  0.70542344  0.07154288  1
  Na  Na17  1  0.29457656  0.68448546  0.42845712  1
  Na  Na18  1  0.68448546  0.29457656  0.92845712  1
  Na  Na19  1  0.70542344  0.31551454  0.57154288  1
