# generated using pymatgen
data_LuAgPb
_symmetry_space_group_name_H-M   'P 1'
_cell_length_a   7.46249621
_cell_length_b   7.46249622
_cell_length_c   4.53460931
_cell_angle_alpha   90.00000000
_cell_angle_beta   90.00000000
_cell_angle_gamma   120.00000001
_symmetry_Int_Tables_number   1
_chemical_formula_structural   LuAgPb
_chemical_formula_sum   'Lu3 Ag3 Pb3'
_cell_volume   218.69494999
_cell_formula_units_Z   3
loop_
 _symmetry_equiv_pos_site_id
 _symmetry_equiv_pos_as_xyz
  1  'x, y, z'
loop_
 _atom_site_type_symbol
 _atom_site_label
 _atom_site_symmetry_multiplicity
 _atom_site_fract_x
 _atom_site_fract_y
 _atom_site_fract_z
 _atom_site_occupancy
  Ag  Ag0  1  0.75392112  0.75392112  0.00000000  1
  Ag  Ag1  1  0.00000000  0.24607888  0.00000000  1
  Ag  Ag2  1  0.24607888  0.00000000  0.00000000  1
  Lu  Lu3  1  0.56782824  0.00000000  0.50000000  1
  Lu  Lu4  1  0.43217176  0.43217176  0.50000000  1
  Lu  Lu5  1  0.00000000  0.56782824  0.50000000  1
  Pb  Pb6  1  0.00000000  0.00000000  0.50000000  1
  Pb  Pb7  1  0.33333333  0.66666667  0.00000000  1
  Pb  Pb8  1  0.66666667  0.33333333  0.00000000  1
