# generated using pymatgen
data_Sm3Si6N11
_symmetry_space_group_name_H-M   'P 1'
_cell_length_a   4.89353902
_cell_length_b   10.07025773
_cell_length_c   10.07025773
_cell_angle_alpha   90.00000000
_cell_angle_beta   90.00000000
_cell_angle_gamma   90.00000000
_symmetry_Int_Tables_number   1
_chemical_formula_structural   Sm3Si6N11
_chemical_formula_sum   'Sm6 Si12 N22'
_cell_volume   496.25423610
_cell_formula_units_Z   2
loop_
 _symmetry_equiv_pos_site_id
 _symmetry_equiv_pos_as_xyz
  1  'x, y, z'
loop_
 _atom_site_type_symbol
 _atom_site_label
 _atom_site_symmetry_multiplicity
 _atom_site_fract_x
 _atom_site_fract_y
 _atom_site_fract_z
 _atom_site_occupancy
  N  N0  1  0.07195638  0.00000000  0.50000000  1
  N  N1  1  0.07195638  0.50000000  0.00000000  1
  N  N2  1  0.69764679  0.84620508  0.34620508  1
  N  N3  1  0.69764679  0.65379492  0.84620508  1
  N  N4  1  0.69764679  0.34620508  0.15379492  1
  N  N5  1  0.69764679  0.15379492  0.65379492  1
  N  N6  1  0.17897698  0.57779956  0.72661469  1
  N  N7  1  0.17897698  0.42220044  0.27338531  1
  N  N8  1  0.17897698  0.72661469  0.42220044  1
  N  N9  1  0.17897698  0.27338531  0.57779956  1
  N  N10  1  0.17897698  0.77338531  0.92220044  1
  N  N11  1  0.17897698  0.07779956  0.77338531  1
  N  N12  1  0.17897698  0.92220044  0.22661469  1
  N  N13  1  0.17897698  0.22661469  0.07779956  1
  N  N14  1  0.64896875  0.68034339  0.57901381  1
  N  N15  1  0.64896875  0.31965661  0.42098619  1
  N  N16  1  0.64896875  0.57901381  0.31965661  1
  N  N17  1  0.64896875  0.42098619  0.68034339  1
  N  N18  1  0.64896875  0.07901381  0.18034339  1
  N  N19  1  0.64896875  0.81965661  0.07901381  1
  N  N20  1  0.64896875  0.18034339  0.92098619  1
  N  N21  1  0.64896875  0.92098619  0.81965661  1
  Si  Si22  1  0.04414846  0.88180899  0.38180899  1
  Si  Si23  1  0.04414846  0.61819101  0.88180899  1
  Si  Si24  1  0.04414846  0.38180899  0.11819101  1
  Si  Si25  1  0.04414846  0.11819101  0.61819101  1
  Si  Si26  1  0.53238777  0.57983780  0.70832749  1
  Si  Si27  1  0.53238777  0.42016220  0.29167251  1
  Si  Si28  1  0.53238777  0.70832749  0.42016220  1
  Si  Si29  1  0.53238777  0.29167251  0.57983780  1
  Si  Si30  1  0.53238777  0.79167251  0.92016220  1
  Si  Si31  1  0.53238777  0.07983780  0.79167251  1
  Si  Si32  1  0.53238777  0.92016220  0.20832749  1
  Si  Si33  1  0.53238777  0.20832749  0.07983780  1
  Sm  Sm34  1  0.98164537  0.50000000  0.50000000  1
  Sm  Sm35  1  0.98164537  0.00000000  0.00000000  1
  Sm  Sm36  1  0.99500686  0.31756914  0.81756914  1
  Sm  Sm37  1  0.99500686  0.18243086  0.31756914  1
  Sm  Sm38  1  0.99500686  0.81756914  0.68243086  1
  Sm  Sm39  1  0.99500686  0.68243086  0.18243086  1
