# generated using pymatgen
data_LiFe2(CO3)4
_symmetry_space_group_name_H-M   'P 1'
_cell_length_a   8.31993840
_cell_length_b   6.34410462
_cell_length_c   5.58868305
_cell_angle_alpha   63.82236087
_cell_angle_beta   107.31065472
_cell_angle_gamma   96.72923488
_symmetry_Int_Tables_number   1
_chemical_formula_structural   LiFe2(CO3)4
_chemical_formula_sum   'Li1 Fe2 C4 O12'
_cell_volume   252.70363645
_cell_formula_units_Z   1
loop_
 _symmetry_equiv_pos_site_id
 _symmetry_equiv_pos_as_xyz
  1  'x, y, z'
loop_
 _atom_site_type_symbol
 _atom_site_label
 _atom_site_symmetry_multiplicity
 _atom_site_fract_x
 _atom_site_fract_y
 _atom_site_fract_z
 _atom_site_occupancy
  Li  Li0  1  0.15925686  0.43772544  0.27529666  1
  Fe  Fe1  1  0.50375264  0.50958328  0.84830509  1
  Fe  Fe2  1  0.99779873  0.98891376  0.09897904  1
  C  C3  1  0.79164815  0.59937517  0.04547389  1
  C  C4  1  0.70959198  0.10377935  0.99926362  1
  C  C5  1  0.28649211  0.89849554  0.39263838  1
  C  C6  1  0.20630157  0.39083082  0.85592208  1
  O  O7  1  0.94472029  0.65144650  0.14775924  1
  O  O8  1  0.74602252  0.58587570  0.81055698  1
  O  O9  1  0.76192064  0.07321840  0.82078429  1
  O  O10  1  0.82296272  0.05456384  0.23783449  1
  O  O11  1  0.56194396  0.17583529  0.95137983  1
  O  O12  1  0.67457549  0.55746804  0.17021846  1
  O  O13  1  0.43212352  0.83629229  0.56154968  1
  O  O14  1  0.25986541  0.41697115  0.64914116  1
  O  O15  1  0.17071191  0.98200893  0.44607189  1
  O  O16  1  0.23745609  0.88295652  0.15777201  1
  O  O17  1  0.31383246  0.44507614  0.04449565  1
  O  O18  1  0.05877195  0.31989984  0.87903756  1
