# generated using pymatgen
data_Sr3P14
_symmetry_space_group_name_H-M   'P 1'
_cell_length_a   6.38560753
_cell_length_b   9.96760240
_cell_length_c   12.87291611
_cell_angle_alpha   90.00000000
_cell_angle_beta   90.00000000
_cell_angle_gamma   89.93481197
_symmetry_Int_Tables_number   1
_chemical_formula_structural   Sr3P14
_chemical_formula_sum   'Sr6 P28'
_cell_volume   819.35024311
_cell_formula_units_Z   2
loop_
 _symmetry_equiv_pos_site_id
 _symmetry_equiv_pos_as_xyz
  1  'x, y, z'
loop_
 _atom_site_type_symbol
 _atom_site_label
 _atom_site_symmetry_multiplicity
 _atom_site_fract_x
 _atom_site_fract_y
 _atom_site_fract_z
 _atom_site_occupancy
  P  P0  1  0.33839917  0.04866964  0.67625211  1
  P  P1  1  0.16160083  0.45133036  0.17625211  1
  P  P2  1  0.66160083  0.95133036  0.32374789  1
  P  P3  1  0.83839917  0.54866964  0.82374789  1
  P  P4  1  0.58003114  0.14040711  0.58259440  1
  P  P5  1  0.91996886  0.35959289  0.08259440  1
  P  P6  1  0.41996886  0.85959289  0.41740560  1
  P  P7  1  0.08003114  0.64040711  0.91740560  1
  P  P8  1  0.15125462  0.22937393  0.70922957  1
  P  P9  1  0.34874538  0.27062607  0.20922957  1
  P  P10  1  0.84874538  0.77062607  0.29077043  1
  P  P11  1  0.65125462  0.72937393  0.79077043  1
  P  P12  1  0.10792638  0.31951432  0.55337161  1
  P  P13  1  0.39207362  0.18048568  0.05337161  1
  P  P14  1  0.89207362  0.68048568  0.44662839  1
  P  P15  1  0.60792638  0.81951432  0.94662839  1
  P  P16  1  0.39603875  0.36127272  0.77409886  1
  P  P17  1  0.10396125  0.13872728  0.27409886  1
  P  P18  1  0.60396125  0.63872728  0.22590114  1
  P  P19  1  0.89603875  0.86127272  0.72590114  1
  P  P20  1  0.06702495  0.18311110  0.00369533  1
  P  P21  1  0.43297505  0.31688890  0.50369533  1
  P  P22  1  0.93297505  0.81688890  0.99630467  1
  P  P23  1  0.56702495  0.68311110  0.49630467  1
  P  P24  1  0.62343982  0.35276424  0.64853943  1
  P  P25  1  0.87656018  0.14723576  0.14853943  1
  P  P26  1  0.37656018  0.64723576  0.35146057  1
  P  P27  1  0.12343982  0.85276424  0.85146057  1
  Sr  Sr28  1  0.50000000  0.50000000  0.00000000  1
  Sr  Sr29  1  0.00000000  0.00000000  0.50000000  1
  Sr  Sr30  1  0.69273526  0.11028187  0.84130096  1
  Sr  Sr31  1  0.80726474  0.38971813  0.34130096  1
  Sr  Sr32  1  0.30726474  0.88971813  0.15869904  1
  Sr  Sr33  1  0.19273526  0.61028187  0.65869904  1
