# generated using pymatgen
data_Cr3Fe3(TeO8)2
_symmetry_space_group_name_H-M   'P 1'
_cell_length_a   6.02146911
_cell_length_b   6.02656247
_cell_length_c   9.20709147
_cell_angle_alpha   89.99790942
_cell_angle_beta   90.42846489
_cell_angle_gamma   120.02971542
_symmetry_Int_Tables_number   1
_chemical_formula_structural   Cr3Fe3(TeO8)2
_chemical_formula_sum   'Cr3 Fe3 Te2 O16'
_cell_volume   289.25373312
_cell_formula_units_Z   1
loop_
 _symmetry_equiv_pos_site_id
 _symmetry_equiv_pos_as_xyz
  1  'x, y, z'
loop_
 _atom_site_type_symbol
 _atom_site_label
 _atom_site_symmetry_multiplicity
 _atom_site_fract_x
 _atom_site_fract_y
 _atom_site_fract_z
 _atom_site_occupancy
  Cr  Cr0  1  0.17335076  0.83245109  0.21314509  1
  Cr  Cr1  1  0.17332370  0.34088549  0.21313607  1
  Cr  Cr2  1  0.34461818  0.17233434  0.71734155  1
  Fe  Fe3  1  0.66419320  0.83207077  0.20508357  1
  Fe  Fe4  1  0.83559207  0.66397300  0.70588069  1
  Fe  Fe5  1  0.83555513  0.17160236  0.70592549  1
  Te  Te6  1  0.33652901  0.66828269  0.48754137  1
  Te  Te7  1  0.66481367  0.33241382  0.98995059  1
  O  O8  1  0.17702638  0.82575276  0.59848329  1
  O  O9  1  0.04610914  0.52306090  0.34376895  1
  O  O10  1  0.32571695  0.66291455  0.10925814  1
  O  O11  1  0.00955277  0.00470249  0.29516304  1
  O  O12  1  0.01477914  0.00738812  0.79483903  1
  O  O13  1  0.17701473  0.35131527  0.59851061  1
  O  O14  1  0.47677216  0.95570762  0.34622081  1
  O  O15  1  0.47677600  0.52114713  0.34623521  1
  O  O16  1  0.34651212  0.17328924  0.09972844  1
  O  O17  1  0.65314525  0.82659189  0.59862440  1
  O  O18  1  0.51195167  0.46869991  0.84659805  1
  O  O19  1  0.51181437  0.04321071  0.84664210  1
  O  O20  1  0.64915769  0.32457436  0.60733652  1
  O  O21  1  0.82386012  0.65189140  0.09861068  1
  O  O22  1  0.94801759  0.47399476  0.84907317  1
  O  O23  1  0.82382221  0.17194534  0.09862214  1
