# generated using pymatgen
data_SrGa4
_symmetry_space_group_name_H-M   'P 1'
_cell_length_a   4.48713338
_cell_length_b   4.48713338
_cell_length_c   6.28376346
_cell_angle_alpha   110.91863831
_cell_angle_beta   110.91863828
_cell_angle_gamma   89.99999998
_symmetry_Int_Tables_number   1
_chemical_formula_structural   SrGa4
_chemical_formula_sum   'Sr1 Ga4'
_cell_volume   109.20643303
_cell_formula_units_Z   1
loop_
 _symmetry_equiv_pos_site_id
 _symmetry_equiv_pos_as_xyz
  1  'x, y, z'
loop_
 _atom_site_type_symbol
 _atom_site_label
 _atom_site_symmetry_multiplicity
 _atom_site_fract_x
 _atom_site_fract_y
 _atom_site_fract_z
 _atom_site_occupancy
  Ga  Ga0  1  0.61728569  0.61728569  0.23457139  1
  Ga  Ga1  1  0.25000000  0.75000000  0.50000000  1
  Ga  Ga2  1  0.75000000  0.25000000  0.50000000  1
  Ga  Ga3  1  0.38271431  0.38271431  0.76542861  1
  Sr  Sr4  1  0.00000000  0.00000000  0.00000000  1
