# generated using pymatgen
data_CaMnP2O7
_symmetry_space_group_name_H-M   'P 1'
_cell_length_a   6.62701624
_cell_length_b   6.80468895
_cell_length_c   6.67828816
_cell_angle_alpha   65.91190640
_cell_angle_beta   82.84552857
_cell_angle_gamma   86.61300252
_symmetry_Int_Tables_number   1
_chemical_formula_structural   CaMnP2O7
_chemical_formula_sum   'Ca2 Mn2 P4 O14'
_cell_volume   272.77907682
_cell_formula_units_Z   2
loop_
 _symmetry_equiv_pos_site_id
 _symmetry_equiv_pos_as_xyz
  1  'x, y, z'
loop_
 _atom_site_type_symbol
 _atom_site_label
 _atom_site_symmetry_multiplicity
 _atom_site_fract_x
 _atom_site_fract_y
 _atom_site_fract_z
 _atom_site_occupancy
  O  O0  1  0.92027550  0.08514358  0.74175646  1
  O  O1  1  0.07972502  0.91485742  0.25824362  1
  O  O2  1  0.24552421  0.23698665  0.79221439  1
  O  O3  1  0.75447632  0.76301275  0.20778636  1
  O  O4  1  0.13678700  0.34746007  0.40276159  1
  O  O5  1  0.86321200  0.65253934  0.59723934  1
  O  O6  1  0.48390823  0.21144904  0.10781265  1
  O  O7  1  0.51609077  0.78855037  0.89218828  1
  O  O8  1  0.73298515  0.02060237  0.39583324  1
  O  O9  1  0.26701538  0.97939865  0.60416534  1
  O  O10  1  0.82803131  0.36290180  0.05546731  1
  O  O11  1  0.42631027  0.64008104  0.61788599  1
  O  O12  1  0.57369027  0.35991837  0.38211325  1
  O  O13  1  0.17196922  0.63709920  0.94453277  1
  P  P14  1  0.86536911  0.82434172  0.36036776  1
  P  P15  1  0.13462988  0.17565930  0.63963251  1
  P  P16  1  0.64931853  0.24737719  0.23191865  1
  P  P17  1  0.35068047  0.75262222  0.76808227  1
  Ca  Ca18  1  0.36088470  0.67209062  0.27029937  1
  Ca  Ca19  1  0.63911583  0.32791039  0.72969921  1
  Mn  Mn20  1  0.84752893  0.73483333  0.89546935  1
  Mn  Mn21  1  0.15247007  0.26516768  0.10453091  1
