# generated using pymatgen
data_LiV2(CO4)2
_symmetry_space_group_name_H-M   'P 1'
_cell_length_a   6.28782930
_cell_length_b   9.46930795
_cell_length_c   9.41678358
_cell_angle_alpha   90.00000000
_cell_angle_beta   90.87985390
_cell_angle_gamma   90.00000000
_symmetry_Int_Tables_number   1
_chemical_formula_structural   LiV2(CO4)2
_chemical_formula_sum   'Li4 V8 C8 O32'
_cell_volume   560.62229364
_cell_formula_units_Z   4
loop_
 _symmetry_equiv_pos_site_id
 _symmetry_equiv_pos_as_xyz
  1  'x, y, z'
loop_
 _atom_site_type_symbol
 _atom_site_label
 _atom_site_symmetry_multiplicity
 _atom_site_fract_x
 _atom_site_fract_y
 _atom_site_fract_z
 _atom_site_occupancy
  Li  Li0  1  0.11532124  0.31238142  0.90237390  1
  Li  Li1  1  0.38467876  0.68761858  0.09762610  1
  Li  Li2  1  0.61532124  0.18761858  0.40237390  1
  Li  Li3  1  0.88467876  0.81238142  0.59762610  1
  V  V4  1  0.12132266  0.55545834  0.36553625  1
  V  V5  1  0.12147898  0.93077480  0.88739533  1
  V  V6  1  0.37852102  0.06922520  0.11260467  1
  V  V7  1  0.37867734  0.44454166  0.63446375  1
  V  V8  1  0.62147898  0.56922520  0.38739533  1
  V  V9  1  0.62132266  0.94454166  0.86553625  1
  V  V10  1  0.87867734  0.05545834  0.13446375  1
  V  V11  1  0.87852102  0.43077480  0.61260467  1
  C  C12  1  0.12840812  0.86262625  0.33173788  1
  C  C13  1  0.11979995  0.63499293  0.83865038  1
  C  C14  1  0.38020005  0.36500707  0.16134962  1
  C  C15  1  0.37159188  0.13737375  0.66826212  1
  C  C16  1  0.61979995  0.86500707  0.33865038  1
  C  C17  1  0.62840812  0.63737375  0.83173788  1
  C  C18  1  0.87159188  0.36262625  0.16826212  1
  C  C19  1  0.88020005  0.13499293  0.66134962  1
  O  O20  1  0.15563912  0.74103161  0.26730346  1
  O  O21  1  0.13512777  0.97614379  0.24048062  1
  O  O22  1  0.10739302  0.75542518  0.76747715  1
  O  O23  1  0.13512716  0.11126550  0.00835601  1
  O  O24  1  0.11137333  0.51580647  0.75749194  1
  O  O25  1  0.11839773  0.39567708  0.51153158  1
  O  O26  1  0.09881264  0.87945712  0.45875179  1
  O  O27  1  0.14123821  0.62813522  0.96828753  1
  O  O28  1  0.35876179  0.37186478  0.03171347  1
  O  O29  1  0.40118736  0.12054288  0.54124821  1
  O  O30  1  0.38160227  0.60432292  0.48846842  1
  O  O31  1  0.38862667  0.48419353  0.24250806  1
  O  O32  1  0.36487284  0.88873450  0.99164399  1
  O  O33  1  0.39260698  0.24457482  0.23252285  1
  O  O34  1  0.36487223  0.02385621  0.75951938  1
  O  O35  1  0.34436088  0.25896839  0.73269654  1
  O  O36  1  0.60739302  0.74457482  0.26747715  1
  O  O37  1  0.61137333  0.98419353  0.25749194  1
  O  O38  1  0.65563912  0.75896839  0.76730346  1
  O  O39  1  0.61839773  0.10432292  0.01153158  1
  O  O40  1  0.63512777  0.52385621  0.74048062  1
  O  O41  1  0.63512716  0.38873450  0.50835601  1
  O  O42  1  0.64123821  0.87186478  0.46828653  1
  O  O43  1  0.59881264  0.62054288  0.95875179  1
  O  O44  1  0.90118736  0.37945712  0.04124821  1
  O  O45  1  0.85876179  0.12813522  0.53171247  1
  O  O46  1  0.86487284  0.61126550  0.49164399  1
  O  O47  1  0.86487223  0.47614379  0.25951938  1
  O  O48  1  0.88160227  0.89567708  0.98846842  1
  O  O49  1  0.84436088  0.24103161  0.23269654  1
  O  O50  1  0.88862667  0.01580647  0.74250806  1
  O  O51  1  0.89260698  0.25542518  0.73252285  1
