# generated using pymatgen
data_PPbSe3
_symmetry_space_group_name_H-M   'P 1'
_cell_length_a   7.12695804
_cell_length_b   7.81131208
_cell_length_c   9.85360145
_cell_angle_alpha   90.00000000
_cell_angle_beta   91.88828172
_cell_angle_gamma   90.00000000
_symmetry_Int_Tables_number   1
_chemical_formula_structural   PPbSe3
_chemical_formula_sum   'P4 Pb4 Se12'
_cell_volume   548.26091536
_cell_formula_units_Z   4
loop_
 _symmetry_equiv_pos_site_id
 _symmetry_equiv_pos_as_xyz
  1  'x, y, z'
loop_
 _atom_site_type_symbol
 _atom_site_label
 _atom_site_symmetry_multiplicity
 _atom_site_fract_x
 _atom_site_fract_y
 _atom_site_fract_z
 _atom_site_occupancy
  P  P0  1  0.83585469  0.14387107  0.71612961  1
  P  P1  1  0.33585469  0.85612893  0.21612961  1
  P  P2  1  0.71659817  0.35786650  0.84278285  1
  P  P3  1  0.21659817  0.64213350  0.34278285  1
  Se  Se4  1  0.95993589  0.54752151  0.23337149  1
  Se  Se5  1  0.93770977  0.55703346  0.83724179  1
  Se  Se6  1  0.43770977  0.44296654  0.33724179  1
  Se  Se7  1  0.09321816  0.04916280  0.82481723  1
  Se  Se8  1  0.88653019  0.25312151  0.51351752  1
  Se  Se9  1  0.38653019  0.74687849  0.01351752  1
  Se  Se10  1  0.61555547  0.94413312  0.72225317  1
  Se  Se11  1  0.59321816  0.95083720  0.32481723  1
  Se  Se12  1  0.66561605  0.24823937  0.04508345  1
  Se  Se13  1  0.11555547  0.05586688  0.22225317  1
  Se  Se14  1  0.16561605  0.75176063  0.54508345  1
  Se  Se15  1  0.45993589  0.45247849  0.73337149  1
  Pb  Pb16  1  0.74147414  0.63320354  0.52785829  1
  Pb  Pb17  1  0.31020746  0.13246252  0.52794459  1
  Pb  Pb18  1  0.81020746  0.86753748  0.02794459  1
  Pb  Pb19  1  0.24147414  0.36679646  0.02785829  1
