# generated using pymatgen
data_EuGePt
_symmetry_space_group_name_H-M   'P 1'
_cell_length_a   6.58927752
_cell_length_b   6.58927752
_cell_length_c   6.58927752
_cell_angle_alpha   90.00000000
_cell_angle_beta   90.00000000
_cell_angle_gamma   90.00000000
_symmetry_Int_Tables_number   1
_chemical_formula_structural   EuGePt
_chemical_formula_sum   'Eu4 Ge4 Pt4'
_cell_volume   286.09706152
_cell_formula_units_Z   4
loop_
 _symmetry_equiv_pos_site_id
 _symmetry_equiv_pos_as_xyz
  1  'x, y, z'
loop_
 _atom_site_type_symbol
 _atom_site_label
 _atom_site_symmetry_multiplicity
 _atom_site_fract_x
 _atom_site_fract_y
 _atom_site_fract_z
 _atom_site_occupancy
  Ge  Ge0  1  0.32602645  0.67397355  0.17397355  1
  Ge  Ge1  1  0.17397355  0.32602645  0.67397355  1
  Ge  Ge2  1  0.67397355  0.17397355  0.32602645  1
  Ge  Ge3  1  0.82602645  0.82602645  0.82602645  1
  Eu  Eu4  1  0.12848491  0.12848491  0.12848491  1
  Eu  Eu5  1  0.62848491  0.37151509  0.87151509  1
  Eu  Eu6  1  0.37151509  0.87151509  0.62848491  1
  Eu  Eu7  1  0.87151509  0.62848491  0.37151509  1
  Pt  Pt8  1  0.42377844  0.42377844  0.42377844  1
  Pt  Pt9  1  0.07622156  0.57622156  0.92377844  1
  Pt  Pt10  1  0.92377844  0.07622156  0.57622156  1
  Pt  Pt11  1  0.57622156  0.92377844  0.07622156  1
