# generated using pymatgen
data_Ni3B
_symmetry_space_group_name_H-M   'P 1'
_cell_length_a   4.38439698
_cell_length_b   5.17722114
_cell_length_c   6.62045902
_cell_angle_alpha   90.00000000
_cell_angle_beta   90.00000000
_cell_angle_gamma   90.00000000
_symmetry_Int_Tables_number   1
_chemical_formula_structural   Ni3B
_chemical_formula_sum   'Ni12 B4'
_cell_volume   150.27775117
_cell_formula_units_Z   4
loop_
 _symmetry_equiv_pos_site_id
 _symmetry_equiv_pos_as_xyz
  1  'x, y, z'
loop_
 _atom_site_type_symbol
 _atom_site_label
 _atom_site_symmetry_multiplicity
 _atom_site_fract_x
 _atom_site_fract_y
 _atom_site_fract_z
 _atom_site_occupancy
  B  B0  1  0.56070634  0.11832427  0.75000000  1
  B  B1  1  0.06070634  0.38167573  0.25000000  1
  B  B2  1  0.93929366  0.61832427  0.75000000  1
  B  B3  1  0.43929366  0.88167573  0.25000000  1
  Ni  Ni4  1  0.65584223  0.81998181  0.93718378  1
  Ni  Ni5  1  0.15584223  0.68001819  0.06281622  1
  Ni  Ni6  1  0.84415777  0.31998181  0.56281622  1
  Ni  Ni7  1  0.34415777  0.18001819  0.43718378  1
  Ni  Ni8  1  0.86672933  0.02795467  0.25000000  1
  Ni  Ni9  1  0.36672933  0.47204533  0.75000000  1
  Ni  Ni10  1  0.63327067  0.52795467  0.25000000  1
  Ni  Ni11  1  0.13327067  0.97204533  0.75000000  1
  Ni  Ni12  1  0.65584223  0.81998181  0.56281622  1
  Ni  Ni13  1  0.15584223  0.68001819  0.43718378  1
  Ni  Ni14  1  0.84415777  0.31998181  0.93718378  1
  Ni  Ni15  1  0.34415777  0.18001819  0.06281622  1
