# generated using pymatgen
data_HoNi3
_symmetry_space_group_name_H-M   'P 1'
_cell_length_a   8.56610164
_cell_length_b   8.56610164
_cell_length_c   8.56610163
_cell_angle_alpha   33.50133816
_cell_angle_beta   33.50133816
_cell_angle_gamma   33.50133817
_symmetry_Int_Tables_number   1
_chemical_formula_structural   HoNi3
_chemical_formula_sum   'Ho3 Ni9'
_cell_volume   170.55415311
_cell_formula_units_Z   3
loop_
 _symmetry_equiv_pos_site_id
 _symmetry_equiv_pos_as_xyz
  1  'x, y, z'
loop_
 _atom_site_type_symbol
 _atom_site_label
 _atom_site_symmetry_multiplicity
 _atom_site_fract_x
 _atom_site_fract_y
 _atom_site_fract_z
 _atom_site_occupancy
  Ni  Ni0  1  0.41726769  0.41726769  0.91896014  1
  Ni  Ni1  1  0.41726769  0.91896014  0.41726769  1
  Ni  Ni2  1  0.91896014  0.41726769  0.41726769  1
  Ni  Ni3  1  0.50000000  0.50000000  0.50000000  1
  Ni  Ni4  1  0.33308493  0.33308493  0.33308493  1
  Ni  Ni5  1  0.66691507  0.66691507  0.66691507  1
  Ni  Ni6  1  0.58273231  0.08103986  0.58273231  1
  Ni  Ni7  1  0.58273231  0.58273231  0.08103986  1
  Ni  Ni8  1  0.08103986  0.58273231  0.58273231  1
  Ho  Ho9  1  0.86106226  0.86106226  0.86106226  1
  Ho  Ho10  1  0.13893774  0.13893774  0.13893774  1
  Ho  Ho11  1  0.00000000  0.00000000  0.00000000  1
