# generated using pymatgen
data_LiFe(PO3)4
_symmetry_space_group_name_H-M   'P 1'
_cell_length_a   7.28117261
_cell_length_b   13.15797099
_cell_length_c   9.53576467
_cell_angle_alpha   90.00000000
_cell_angle_beta   92.24051508
_cell_angle_gamma   90.00000000
_symmetry_Int_Tables_number   1
_chemical_formula_structural   LiFe(PO3)4
_chemical_formula_sum   'Li4 Fe4 P16 O48'
_cell_volume   912.87989087
_cell_formula_units_Z   4
loop_
 _symmetry_equiv_pos_site_id
 _symmetry_equiv_pos_as_xyz
  1  'x, y, z'
loop_
 _atom_site_type_symbol
 _atom_site_label
 _atom_site_symmetry_multiplicity
 _atom_site_fract_x
 _atom_site_fract_y
 _atom_site_fract_z
 _atom_site_occupancy
  Li  Li0  1  0.97131223  0.20046002  0.02691178  1
  Li  Li1  1  0.52868777  0.70046002  0.47308822  1
  Li  Li2  1  0.47131223  0.29953998  0.52691178  1
  Li  Li3  1  0.02868777  0.79953998  0.97308822  1
  Fe  Fe4  1  0.98316624  0.29040463  0.43780606  1
  Fe  Fe5  1  0.51683376  0.79040463  0.06219394  1
  Fe  Fe6  1  0.48316624  0.20959537  0.93780606  1
  Fe  Fe7  1  0.01683376  0.70959537  0.56219394  1
  P  P8  1  0.07871738  0.61831494  0.25958307  1
  P  P9  1  0.11255998  0.13025689  0.69334257  1
  P  P10  1  0.16576844  0.91197753  0.70748055  1
  P  P11  1  0.29098127  0.89968789  0.22197077  1
  P  P12  1  0.20901873  0.39968789  0.27802923  1
  P  P13  1  0.33423156  0.41197753  0.79251945  1
  P  P14  1  0.38744002  0.63025689  0.80665743  1
  P  P15  1  0.42128262  0.11831494  0.24041693  1
  P  P16  1  0.57871738  0.88168506  0.75958307  1
  P  P17  1  0.61255998  0.36974311  0.19334257  1
  P  P18  1  0.66576844  0.58802247  0.20748055  1
  P  P19  1  0.79098127  0.60031211  0.72197077  1
  P  P20  1  0.70901873  0.10031211  0.77802923  1
  P  P21  1  0.83423156  0.08802247  0.29251945  1
  P  P22  1  0.88744002  0.86974311  0.30665743  1
  P  P23  1  0.92128262  0.38168506  0.74041693  1
  O  O24  1  0.10675266  0.87761436  0.29531601  1
  O  O25  1  0.03387290  0.90178034  0.82100504  1
  O  O26  1  0.12960192  0.41609676  0.72845655  1
  O  O27  1  0.05738297  0.32682186  0.22674032  1
  O  O28  1  0.10876210  0.69202624  0.14492177  1
  O  O29  1  0.20409975  0.14457344  0.83509774  1
  O  O30  1  0.14067092  0.64507924  0.40973115  1
  O  O31  1  0.28062152  0.88965517  0.06266785  1
  O  O32  1  0.17413699  0.51200544  0.22175235  1
  O  O33  1  0.15621508  0.02057484  0.62726616  1
  O  O34  1  0.14496119  0.20831978  0.57998541  1
  O  O35  1  0.34511189  0.33431420  0.91052810  1
  O  O36  1  0.15488811  0.83431420  0.58947190  1
  O  O37  1  0.32586301  0.01200544  0.27824765  1
  O  O38  1  0.35503881  0.70831978  0.92001459  1
  O  O39  1  0.21937848  0.38965517  0.43733215  1
  O  O40  1  0.34378492  0.52057484  0.87273384  1
  O  O41  1  0.35932908  0.14507924  0.09026885  1
  O  O42  1  0.29590025  0.64457344  0.66490226  1
  O  O43  1  0.39123790  0.19202624  0.35507823  1
  O  O44  1  0.44261703  0.82682186  0.27325968  1
  O  O45  1  0.37039808  0.91609676  0.77154345  1
  O  O46  1  0.39324734  0.37761436  0.20468399  1
  O  O47  1  0.46612710  0.40178034  0.67899496  1
  O  O48  1  0.53387290  0.59821966  0.32100504  1
  O  O49  1  0.60675266  0.62238564  0.79531601  1
  O  O50  1  0.62960192  0.08390324  0.22845655  1
  O  O51  1  0.55738297  0.17317814  0.72674032  1
  O  O52  1  0.60876210  0.80797376  0.64492177  1
  O  O53  1  0.70409975  0.35542656  0.33509774  1
  O  O54  1  0.64067092  0.85492076  0.90973115  1
  O  O55  1  0.65621508  0.47942516  0.12726616  1
  O  O56  1  0.78062152  0.61034483  0.56266785  1
  O  O57  1  0.64496119  0.29168022  0.07998541  1
  O  O58  1  0.67413699  0.98799456  0.72175235  1
  O  O59  1  0.84511189  0.16568580  0.41052810  1
  O  O60  1  0.65488811  0.66568580  0.08947190  1
  O  O61  1  0.85503881  0.79168022  0.42001459  1
  O  O62  1  0.84378492  0.97942516  0.37273384  1
  O  O63  1  0.82586301  0.48799456  0.77824765  1
  O  O64  1  0.71937848  0.11034483  0.93733215  1
  O  O65  1  0.85932908  0.35492076  0.59026885  1
  O  O66  1  0.79590025  0.85542656  0.16490226  1
  O  O67  1  0.89123790  0.30797376  0.85507823  1
  O  O68  1  0.94261703  0.67317814  0.77325968  1
  O  O69  1  0.87039808  0.58390324  0.27154345  1
  O  O70  1  0.96612710  0.09821966  0.17899496  1
  O  O71  1  0.89324734  0.12238564  0.70468399  1
