# generated using pymatgen
data_Sb2Se3
_symmetry_space_group_name_H-M   'P 1'
_cell_length_a   4.02993740
_cell_length_b   11.54142749
_cell_length_c   12.84294570
_cell_angle_alpha   90.00000000
_cell_angle_beta   90.00000000
_cell_angle_gamma   90.00000000
_symmetry_Int_Tables_number   1
_chemical_formula_structural   Sb2Se3
_chemical_formula_sum   'Sb8 Se12'
_cell_volume   597.34120507
_cell_formula_units_Z   4
loop_
 _symmetry_equiv_pos_site_id
 _symmetry_equiv_pos_as_xyz
  1  'x, y, z'
loop_
 _atom_site_type_symbol
 _atom_site_label
 _atom_site_symmetry_multiplicity
 _atom_site_fract_x
 _atom_site_fract_y
 _atom_site_fract_z
 _atom_site_occupancy
  Se  Se0  1  0.75000000  0.13286006  0.95268852  1
  Se  Se1  1  0.25000000  0.86713994  0.04731148  1
  Se  Se2  1  0.25000000  0.63286006  0.54731148  1
  Se  Se3  1  0.75000000  0.36713994  0.45268852  1
  Se  Se4  1  0.25000000  0.19062524  0.20417149  1
  Se  Se5  1  0.75000000  0.80937476  0.79582851  1
  Se  Se6  1  0.75000000  0.69062524  0.29582851  1
  Se  Se7  1  0.25000000  0.30937476  0.70417149  1
  Se  Se8  1  0.75000000  0.04747015  0.62748783  1
  Se  Se9  1  0.25000000  0.95252985  0.37251217  1
  Se  Se10  1  0.25000000  0.54747015  0.87251217  1
  Se  Se11  1  0.75000000  0.45252985  0.12748783  1
  Sb  Sb12  1  0.75000000  0.03644246  0.13758856  1
  Sb  Sb13  1  0.25000000  0.96355754  0.86241144  1
  Sb  Sb14  1  0.25000000  0.53644246  0.36241144  1
  Sb  Sb15  1  0.75000000  0.46355754  0.63758856  1
  Sb  Sb16  1  0.25000000  0.33179865  0.03578334  1
  Sb  Sb17  1  0.75000000  0.66820135  0.96421666  1
  Sb  Sb18  1  0.75000000  0.83179865  0.46421666  1
  Sb  Sb19  1  0.25000000  0.16820135  0.53578334  1
