# generated using pymatgen
data_SrGe
_symmetry_space_group_name_H-M   'P 1'
_cell_length_a   4.22177979
_cell_length_b   4.85360112
_cell_length_c   6.23106319
_cell_angle_alpha   112.92140929
_cell_angle_beta   90.00000000
_cell_angle_gamma   90.00000000
_symmetry_Int_Tables_number   1
_chemical_formula_structural   SrGe
_chemical_formula_sum   'Sr2 Ge2'
_cell_volume   117.59809264
_cell_formula_units_Z   2
loop_
 _symmetry_equiv_pos_site_id
 _symmetry_equiv_pos_as_xyz
  1  'x, y, z'
loop_
 _atom_site_type_symbol
 _atom_site_label
 _atom_site_symmetry_multiplicity
 _atom_site_fract_x
 _atom_site_fract_y
 _atom_site_fract_z
 _atom_site_occupancy
  Ge  Ge0  1  0.75000000  0.42920624  0.85841249  1
  Ge  Ge1  1  0.25000000  0.57079376  0.14158751  1
  Sr  Sr2  1  0.75000000  0.13684730  0.27369460  1
  Sr  Sr3  1  0.25000000  0.86315270  0.72630540  1
