# generated using pymatgen
data_Co2C2O7
_symmetry_space_group_name_H-M   'P 1'
_cell_length_a   4.88980855
_cell_length_b   4.89739091
_cell_length_c   15.93355675
_cell_angle_alpha   91.67890927
_cell_angle_beta   90.70289292
_cell_angle_gamma   59.93728823
_symmetry_Int_Tables_number   1
_chemical_formula_structural   Co2C2O7
_chemical_formula_sum   'Co4 C4 O14'
_cell_volume   330.09355016
_cell_formula_units_Z   2
loop_
 _symmetry_equiv_pos_site_id
 _symmetry_equiv_pos_as_xyz
  1  'x, y, z'
loop_
 _atom_site_type_symbol
 _atom_site_label
 _atom_site_symmetry_multiplicity
 _atom_site_fract_x
 _atom_site_fract_y
 _atom_site_fract_z
 _atom_site_occupancy
  Co  Co0  1  0.67143014  0.65756249  0.36212597  1
  Co  Co1  1  0.67103334  0.67083766  0.13785646  1
  Co  Co2  1  0.33014126  0.33824670  0.63783781  1
  Co  Co3  1  0.33293560  0.32867840  0.86196503  1
  C  C4  1  0.33327023  0.33131055  0.40290623  1
  C  C5  1  0.33294916  0.33597721  0.09710145  1
  C  C6  1  0.66751513  0.66526210  0.90152033  1
  C  C7  1  0.66545992  0.66746658  0.59850483  1
  O  O8  1  0.40779476  0.93622973  0.90266278  1
  O  O9  1  0.06219250  0.58909083  0.40680699  1
  O  O10  1  0.40684352  0.65721370  0.59869919  1
  O  O11  1  0.34303774  0.59369938  0.09976552  1
  O  O12  1  0.65743537  0.93493498  0.59846740  1
  O  O13  1  0.06308862  0.34868024  0.09298418  1
  O  O14  1  0.66720068  0.66661764  0.24999361  1
  O  O15  1  0.33362988  0.33513462  0.74995301  1
  O  O16  1  0.34284927  0.06322722  0.40025007  1
  O  O17  1  0.93560793  0.65540936  0.90308329  1
  O  O18  1  0.59049482  0.34462353  0.40378657  1
  O  O19  1  0.65853344  0.40688665  0.90101768  1
  O  O20  1  0.59110482  0.06457050  0.09647883  1
  O  O21  1  0.93539288  0.40841694  0.59622975  1
