# generated using pymatgen
data_HfSb2
_symmetry_space_group_name_H-M   'P 1'
_cell_length_a   3.90256277
_cell_length_b   9.99321237
_cell_length_c   15.11902339
_cell_angle_alpha   90.00000000
_cell_angle_beta   90.00000000
_cell_angle_gamma   90.00000000
_symmetry_Int_Tables_number   1
_chemical_formula_structural   HfSb2
_chemical_formula_sum   'Hf8 Sb16'
_cell_volume   589.62888790
_cell_formula_units_Z   8
loop_
 _symmetry_equiv_pos_site_id
 _symmetry_equiv_pos_as_xyz
  1  'x, y, z'
loop_
 _atom_site_type_symbol
 _atom_site_label
 _atom_site_symmetry_multiplicity
 _atom_site_fract_x
 _atom_site_fract_y
 _atom_site_fract_z
 _atom_site_occupancy
  Sb  Sb0  1  0.00000000  0.51267363  0.10469048  1
  Sb  Sb1  1  0.00000000  0.48732637  0.89530952  1
  Sb  Sb2  1  0.50000000  0.01267363  0.39530952  1
  Sb  Sb3  1  0.50000000  0.98732637  0.60469048  1
  Sb  Sb4  1  0.00000000  0.73247551  0.30204362  1
  Sb  Sb5  1  0.00000000  0.26752449  0.69795638  1
  Sb  Sb6  1  0.50000000  0.23247551  0.19795638  1
  Sb  Sb7  1  0.50000000  0.76752449  0.80204362  1
  Sb  Sb8  1  0.00000000  0.88090874  0.94273140  1
  Sb  Sb9  1  0.00000000  0.11909126  0.05726860  1
  Sb  Sb10  1  0.50000000  0.38090874  0.55726860  1
  Sb  Sb11  1  0.50000000  0.61909126  0.44273140  1
  Sb  Sb12  1  0.00000000  0.65950261  0.65520432  1
  Sb  Sb13  1  0.00000000  0.34049739  0.34479568  1
  Sb  Sb14  1  0.50000000  0.15950261  0.84479568  1
  Sb  Sb15  1  0.50000000  0.84049739  0.15520432  1
  Hf  Hf16  1  0.50000000  0.52155606  0.25174860  1
  Hf  Hf17  1  0.50000000  0.47844394  0.74825140  1
  Hf  Hf18  1  0.00000000  0.02155606  0.24825140  1
  Hf  Hf19  1  0.00000000  0.97844394  0.75174860  1
  Hf  Hf20  1  0.00000000  0.83349574  0.49334218  1
  Hf  Hf21  1  0.00000000  0.16650426  0.50665782  1
  Hf  Hf22  1  0.50000000  0.33349574  0.00665782  1
  Hf  Hf23  1  0.50000000  0.66650426  0.99334218  1
