# generated using pymatgen
data_LiP3W2O13
_symmetry_space_group_name_H-M   'P 1'
_cell_length_a   8.90718930
_cell_length_b   8.93393985
_cell_length_c   8.93432160
_cell_angle_alpha   105.28857557
_cell_angle_beta   69.16706434
_cell_angle_gamma   69.18400374
_symmetry_Int_Tables_number   1
_chemical_formula_structural   LiP3W2O13
_chemical_formula_sum   'Li2 P6 W4 O26'
_cell_volume   555.75668385
_cell_formula_units_Z   2
loop_
 _symmetry_equiv_pos_site_id
 _symmetry_equiv_pos_as_xyz
  1  'x, y, z'
loop_
 _atom_site_type_symbol
 _atom_site_label
 _atom_site_symmetry_multiplicity
 _atom_site_fract_x
 _atom_site_fract_y
 _atom_site_fract_z
 _atom_site_occupancy
  Li  Li0  1  0.50000000  0.00000000  0.00000000  1
  Li  Li1  1  0.00000000  0.50000000  0.50000000  1
  P  P2  1  0.75004685  0.51164932  0.98821293  1
  P  P3  1  0.93967495  0.15161174  0.23994472  1
  P  P4  1  0.43968725  0.73994592  0.65164628  1
  P  P5  1  0.56031275  0.26005408  0.34835372  1
  P  P6  1  0.06032505  0.84838826  0.76005528  1
  P  P7  1  0.24995315  0.48835068  0.01178707  1
  W  W8  1  0.82907940  0.82794033  0.16101833  1
  W  W9  1  0.67074620  0.33899572  0.67212961  1
  W  W10  1  0.32925380  0.66100428  0.32787039  1
  W  W11  1  0.17092060  0.17205967  0.83898167  1
  O  O12  1  0.90311003  0.84842138  0.90006109  1
  O  O13  1  0.91771009  0.39677159  0.99862441  1
  O  O14  1  0.96709823  0.96302430  0.20073830  1
  O  O15  1  0.79344148  0.44431672  0.79045361  1
  O  O16  1  0.76776127  0.80227319  0.35637584  1
  O  O17  1  0.90580116  0.25435355  0.42960712  1
  O  O18  1  0.59688935  0.59983578  0.65147601  1
  O  O19  1  0.73176326  0.14379899  0.69805970  1
  O  O20  1  0.40589343  0.92954264  0.75450916  1
  O  O21  1  0.70650675  0.70945030  0.05567584  1
  O  O22  1  0.75001818  0.26111124  0.23889835  1
  O  O23  1  0.41751352  0.49894565  0.89686499  1
  O  O24  1  0.46709021  0.70089582  0.46308436  1
  O  O25  1  0.53290979  0.29910418  0.53691564  1
  O  O26  1  0.58248648  0.50105435  0.10313501  1
  O  O27  1  0.24998182  0.73888876  0.76110165  1
  O  O28  1  0.29349325  0.29054970  0.94432416  1
  O  O29  1  0.59410657  0.07045736  0.24549084  1
  O  O30  1  0.26823674  0.85620101  0.30194030  1
  O  O31  1  0.40311065  0.40016422  0.34852399  1
  O  O32  1  0.09419884  0.74564645  0.57039288  1
  O  O33  1  0.23223873  0.19772681  0.64362416  1
  O  O34  1  0.20655852  0.55568328  0.20954639  1
  O  O35  1  0.03290177  0.03697570  0.79926170  1
  O  O36  1  0.08228991  0.60322841  0.00137559  1
  O  O37  1  0.09688997  0.15157862  0.09993891  1
