# generated using pymatgen
data_YbGa2
_symmetry_space_group_name_H-M   'P 1'
_cell_length_a   4.46099497
_cell_length_b   4.46099497
_cell_length_c   7.18104413
_cell_angle_alpha   90.00000000
_cell_angle_beta   90.00000000
_cell_angle_gamma   119.99999995
_symmetry_Int_Tables_number   1
_chemical_formula_structural   YbGa2
_chemical_formula_sum   'Yb2 Ga4'
_cell_volume   123.76039716
_cell_formula_units_Z   2
loop_
 _symmetry_equiv_pos_site_id
 _symmetry_equiv_pos_as_xyz
  1  'x, y, z'
loop_
 _atom_site_type_symbol
 _atom_site_label
 _atom_site_symmetry_multiplicity
 _atom_site_fract_x
 _atom_site_fract_y
 _atom_site_fract_z
 _atom_site_occupancy
  Ga  Ga0  1  0.33333333  0.66666667  0.04533778  1
  Ga  Ga1  1  0.66666667  0.33333333  0.54533778  1
  Ga  Ga2  1  0.33333333  0.66666667  0.45466222  1
  Ga  Ga3  1  0.66666667  0.33333333  0.95466222  1
  Yb  Yb4  1  0.00000000  0.00000000  0.75000000  1
  Yb  Yb5  1  0.00000000  0.00000000  0.25000000  1
