# generated using pymatgen
data_Er3Co29(Si2B5)2
_symmetry_space_group_name_H-M   'P 1'
_cell_length_a   7.79926166
_cell_length_b   11.13549920
_cell_length_c   11.13549920
_cell_angle_alpha   90.00000000
_cell_angle_beta   90.00000000
_cell_angle_gamma   90.00000000
_symmetry_Int_Tables_number   1
_chemical_formula_structural   Er3Co29(Si2B5)2
_chemical_formula_sum   'Er6 Co58 Si8 B20'
_cell_volume   967.10331730
_cell_formula_units_Z   2
loop_
 _symmetry_equiv_pos_site_id
 _symmetry_equiv_pos_as_xyz
  1  'x, y, z'
loop_
 _atom_site_type_symbol
 _atom_site_label
 _atom_site_symmetry_multiplicity
 _atom_site_fract_x
 _atom_site_fract_y
 _atom_site_fract_z
 _atom_site_occupancy
  Er  Er0  1  0.50000000  0.25000000  0.75000000  1
  Er  Er1  1  0.50000000  0.75000000  0.25000000  1
  Er  Er2  1  -0.00000000  0.50000000  0.50000000  1
  Er  Er3  1  -0.00000000  0.00000000  0.50000000  1
  Er  Er4  1  -0.00000000  0.50000000  -0.00000000  1
  Er  Er5  1  -0.00000000  0.00000000  -0.00000000  1
  Co  Co6  1  0.53729019  0.75000000  0.75000000  1
  Co  Co7  1  0.46270981  0.25000000  0.25000000  1
  Co  Co8  1  0.11280567  0.14032521  0.75000000  1
  Co  Co9  1  0.11280567  0.35967479  0.75000000  1
  Co  Co10  1  0.11280567  0.75000000  0.14032521  1
  Co  Co11  1  0.11280567  0.75000000  0.35967479  1
  Co  Co12  1  0.88719433  0.85967479  0.25000000  1
  Co  Co13  1  0.88719433  0.64032521  0.25000000  1
  Co  Co14  1  0.88719433  0.25000000  0.85967479  1
  Co  Co15  1  0.88719433  0.25000000  0.64032521  1
  Co  Co16  1  0.52853035  0.52004323  0.75000000  1
  Co  Co17  1  0.52853035  0.97995677  0.75000000  1
  Co  Co18  1  0.52853035  0.75000000  0.52004323  1
  Co  Co19  1  0.52853035  0.75000000  0.97995677  1
  Co  Co20  1  0.47146965  0.47995677  0.25000000  1
  Co  Co21  1  0.47146965  0.02004323  0.25000000  1
  Co  Co22  1  0.47146965  0.25000000  0.47995677  1
  Co  Co23  1  0.47146965  0.25000000  0.02004323  1
  Co  Co24  1  0.03268910  0.58548946  0.75000000  1
  Co  Co25  1  0.03268910  0.91451054  0.75000000  1
  Co  Co26  1  0.03268910  0.75000000  0.58548946  1
  Co  Co27  1  0.03268910  0.75000000  0.91451054  1
  Co  Co28  1  0.96731090  0.41451054  0.25000000  1
  Co  Co29  1  0.96731090  0.08548946  0.25000000  1
  Co  Co30  1  0.96731090  0.25000000  0.41451054  1
  Co  Co31  1  0.96731090  0.25000000  0.08548946  1
  Co  Co32  1  0.75271844  0.63379469  0.63379469  1
  Co  Co33  1  0.75271844  0.86620531  0.63379469  1
  Co  Co34  1  0.75271844  0.63379469  0.86620531  1
  Co  Co35  1  0.75271844  0.86620531  0.86620531  1
  Co  Co36  1  0.24728156  0.36620531  0.36620531  1
  Co  Co37  1  0.24728156  0.13379469  0.36620531  1
  Co  Co38  1  0.24728156  0.36620531  0.13379469  1
  Co  Co39  1  0.24728156  0.13379469  0.13379469  1
  Co  Co40  1  0.30487112  0.64005642  0.64005642  1
  Co  Co41  1  0.30487112  0.85994358  0.64005642  1
  Co  Co42  1  0.30487112  0.64005642  0.85994358  1
  Co  Co43  1  0.30487112  0.85994358  0.85994358  1
  Co  Co44  1  0.69512888  0.35994358  0.35994358  1
  Co  Co45  1  0.69512888  0.14005642  0.35994358  1
  Co  Co46  1  0.69512888  0.35994358  0.14005642  1
  Co  Co47  1  0.69512888  0.14005642  0.14005642  1
  Co  Co48  1  0.66511576  0.08799581  0.57508468  1
  Co  Co49  1  0.66511576  0.41200419  0.57508468  1
  Co  Co50  1  0.66511576  0.08799581  0.92491532  1
  Co  Co51  1  0.66511576  0.41200419  0.92491532  1
  Co  Co52  1  0.66511576  0.57508468  0.08799581  1
  Co  Co53  1  0.66511576  0.92491532  0.08799581  1
  Co  Co54  1  0.66511576  0.57508468  0.41200419  1
  Co  Co55  1  0.66511576  0.92491532  0.41200419  1
  Co  Co56  1  0.33488424  0.91200419  0.42491532  1
  Co  Co57  1  0.33488424  0.58799581  0.42491532  1
  Co  Co58  1  0.33488424  0.91200419  0.07508468  1
  Co  Co59  1  0.33488424  0.58799581  0.07508468  1
  Co  Co60  1  0.33488424  0.42491532  0.91200419  1
  Co  Co61  1  0.33488424  0.07508468  0.91200419  1
  Co  Co62  1  0.33488424  0.42491532  0.58799581  1
  Co  Co63  1  0.33488424  0.07508468  0.58799581  1
  Si  Si64  1  0.82744212  0.06753895  0.75000000  1
  Si  Si65  1  0.82744212  0.43246105  0.75000000  1
  Si  Si66  1  0.82744212  0.75000000  0.06753895  1
  Si  Si67  1  0.82744212  0.75000000  0.43246105  1
  Si  Si68  1  0.17255788  0.93246105  0.25000000  1
  Si  Si69  1  0.17255788  0.56753895  0.25000000  1
  Si  Si70  1  0.17255788  0.25000000  0.93246105  1
  Si  Si71  1  0.17255788  0.25000000  0.56753895  1
  B  B72  1  0.89855508  0.75000000  0.75000000  1
  B  B73  1  0.10144492  0.25000000  0.25000000  1
  B  B74  1  0.15000097  0.75000000  0.75000000  1
  B  B75  1  0.84999903  0.25000000  0.25000000  1
  B  B76  1  0.26502215  0.49338784  0.75000000  1
  B  B77  1  0.26502215  0.00661216  0.75000000  1
  B  B78  1  0.26502215  0.75000000  0.49338784  1
  B  B79  1  0.26502215  0.75000000  0.00661216  1
  B  B80  1  0.73497785  0.50661216  0.25000000  1
  B  B81  1  0.73497785  0.99338784  0.25000000  1
  B  B82  1  0.73497785  0.25000000  0.50661216  1
  B  B83  1  0.73497785  0.25000000  0.99338784  1
  B  B84  1  0.51968883  0.56408965  0.56408965  1
  B  B85  1  0.51968883  0.93591035  0.56408965  1
  B  B86  1  0.51968883  0.56408965  0.93591035  1
  B  B87  1  0.51968883  0.93591035  0.93591035  1
  B  B88  1  0.48031117  0.43591035  0.43591035  1
  B  B89  1  0.48031117  0.06408965  0.43591035  1
  B  B90  1  0.48031117  0.43591035  0.06408965  1
  B  B91  1  0.48031117  0.06408965  0.06408965  1
