# generated using pymatgen
data_SbIF5
_symmetry_space_group_name_H-M   'P 1'
_cell_length_a   8.56084419
_cell_length_b   16.45767772
_cell_length_c   17.05865584
_cell_angle_alpha   90.00000000
_cell_angle_beta   99.65972326
_cell_angle_gamma   90.00000000
_symmetry_Int_Tables_number   1
_chemical_formula_structural   SbIF5
_chemical_formula_sum   'Sb16 I16 F80'
_cell_volume   2369.34505546
_cell_formula_units_Z   16
loop_
 _symmetry_equiv_pos_site_id
 _symmetry_equiv_pos_as_xyz
  1  'x, y, z'
loop_
 _atom_site_type_symbol
 _atom_site_label
 _atom_site_symmetry_multiplicity
 _atom_site_fract_x
 _atom_site_fract_y
 _atom_site_fract_z
 _atom_site_occupancy
  F  F0  1  0.71986944  0.82570536  0.18259310  1
  F  F1  1  0.28013056  0.32570536  0.31740690  1
  F  F2  1  0.28013056  0.17429464  0.81740690  1
  F  F3  1  0.71986944  0.67429464  0.68259310  1
  F  F4  1  0.00475583  0.75029169  0.64749933  1
  F  F5  1  0.99524417  0.25029169  0.85250067  1
  F  F6  1  0.99524417  0.24970831  0.35250067  1
  F  F7  1  0.00475583  0.74970831  0.14749933  1
  F  F8  1  0.19476988  0.71917154  0.31166634  1
  F  F9  1  0.80523012  0.21917154  0.18833366  1
  F  F10  1  0.80523012  0.28082846  0.68833366  1
  F  F11  1  0.19476988  0.78082846  0.81166634  1
  F  F12  1  0.75455490  0.75705812  0.52474558  1
  F  F13  1  0.24544510  0.25705812  0.97525442  1
  F  F14  1  0.24544510  0.24294188  0.47525442  1
  F  F15  1  0.75455490  0.74294188  0.02474558  1
  F  F16  1  0.94443580  0.62401157  0.54452700  1
  F  F17  1  0.05556420  0.12401157  0.95547300  1
  F  F18  1  0.05556420  0.37598843  0.45547300  1
  F  F19  1  0.94443580  0.87598843  0.04452700  1
  F  F20  1  0.77592037  0.86025182  0.34203785  1
  F  F21  1  0.22407963  0.36025182  0.15796215  1
  F  F22  1  0.22407963  0.13974818  0.65796215  1
  F  F23  1  0.77592037  0.63974818  0.84203785  1
  F  F24  1  0.64620417  0.71043788  0.29663042  1
  F  F25  1  0.35379583  0.21043788  0.20336958  1
  F  F26  1  0.35379583  0.28956212  0.70336958  1
  F  F27  1  0.64620417  0.78956212  0.79663042  1
  F  F28  1  0.02576379  0.88699326  0.26072003  1
  F  F29  1  0.97423621  0.38699326  0.23927997  1
  F  F30  1  0.97423621  0.11300674  0.73927997  1
  F  F31  1  0.02576379  0.61300674  0.76072003  1
  F  F32  1  0.95012674  0.72328922  0.41908084  1
  F  F33  1  0.04987326  0.22328922  0.08091916  1
  F  F34  1  0.04987326  0.27671078  0.58091916  1
  F  F35  1  0.95012674  0.77671078  0.91908084  1
  F  F36  1  0.01304931  0.85332302  0.52045474  1
  F  F37  1  0.98695069  0.35332302  0.97954526  1
  F  F38  1  0.98695069  0.14667698  0.47954526  1
  F  F39  1  0.01304931  0.64667698  0.02045474  1
  F  F40  1  0.19967537  0.71931941  0.54057012  1
  F  F41  1  0.80032463  0.21931941  0.95942988  1
  F  F42  1  0.80032463  0.28068059  0.45942988  1
  F  F43  1  0.19967537  0.78068059  0.04057012  1
  F  F44  1  0.89906429  0.02510307  0.31170710  1
  F  F45  1  0.10093571  0.52510307  0.18829290  1
  F  F46  1  0.10093571  0.97489693  0.68829290  1
  F  F47  1  0.89906429  0.47489693  0.81170710  1
  F  F48  1  0.20102405  0.98175832  0.37256120  1
  F  F49  1  0.79897595  0.48175832  0.12743880  1
  F  F50  1  0.79897595  0.01824168  0.62743880  1
  F  F51  1  0.20102405  0.51824168  0.87256120  1
  F  F52  1  0.27059774  0.97815350  0.22427356  1
  F  F53  1  0.72940226  0.47815350  0.27572644  1
  F  F54  1  0.72940226  0.02184650  0.77572644  1
  F  F55  1  0.27059774  0.52184650  0.72427356  1
  F  F56  1  0.44737603  0.62132670  0.37076287  1
  F  F57  1  0.55262397  0.12132670  0.12923713  1
  F  F58  1  0.55262397  0.37867330  0.62923713  1
  F  F59  1  0.44737603  0.87867330  0.87076287  1
  F  F60  1  0.97218090  0.02018227  0.16405579  1
  F  F61  1  0.02781910  0.52018227  0.33594421  1
  F  F62  1  0.02781910  0.97981773  0.83594421  1
  F  F63  1  0.97218090  0.47981773  0.66405579  1
  F  F64  1  0.85170806  0.61754134  0.22140057  1
  F  F65  1  0.14829194  0.11754134  0.27859943  1
  F  F66  1  0.14829194  0.38245866  0.77859943  1
  F  F67  1  0.85170806  0.88245866  0.72140057  1
  F  F68  1  0.59987881  0.30805931  0.26318374  1
  F  F69  1  0.40012119  0.80805931  0.23681626  1
  F  F70  1  0.40012119  0.69194069  0.73681626  1
  F  F71  1  0.59987881  0.19194069  0.76318374  1
  F  F72  1  0.52898005  0.28212400  0.10518377  1
  F  F73  1  0.47101995  0.78212400  0.39481623  1
  F  F74  1  0.47101995  0.71787600  0.89481623  1
  F  F75  1  0.52898005  0.21787600  0.60518377  1
  F  F76  1  0.61963124  0.14549784  0.28845331  1
  F  F77  1  0.38036876  0.64549784  0.21154669  1
  F  F78  1  0.38036876  0.85450216  0.71154669  1
  F  F79  1  0.61963124  0.35450216  0.78845331  1
  Sb  Sb80  1  0.86305901  0.78076589  0.27485044  1
  Sb  Sb81  1  0.13694099  0.28076589  0.22514956  1
  Sb  Sb82  1  0.13694099  0.21923411  0.72514956  1
  Sb  Sb83  1  0.86305901  0.71923411  0.77485044  1
  Sb  Sb84  1  0.97759548  0.75984221  0.03335119  1
  Sb  Sb85  1  0.02240452  0.25984221  0.46664881  1
  Sb  Sb86  1  0.02240452  0.24015779  0.96664881  1
  Sb  Sb87  1  0.97759548  0.74015779  0.53335119  1
  Sb  Sb88  1  0.08746568  0.00516667  0.26896697  1
  Sb  Sb89  1  0.91253432  0.50516667  0.23103303  1
  Sb  Sb90  1  0.91253432  0.99483333  0.73103303  1
  Sb  Sb91  1  0.08746568  0.49483333  0.76896697  1
  Sb  Sb92  1  0.41394365  0.71394461  0.30280487  1
  Sb  Sb93  1  0.58605635  0.21394461  0.19719513  1
  Sb  Sb94  1  0.58605635  0.28605539  0.69719513  1
  Sb  Sb95  1  0.41394365  0.78605539  0.80280487  1
  I  I96  1  0.26996873  0.49235271  0.52000216  1
  I  I97  1  0.73003127  0.99235271  0.97999784  1
  I  I98  1  0.73003127  0.50764729  0.47999784  1
  I  I99  1  0.26996873  0.00764729  0.02000216  1
  I  I100  1  0.50183837  0.41541009  0.40565518  1
  I  I101  1  0.49816163  0.91541009  0.09434482  1
  I  I102  1  0.49816163  0.58458991  0.59434482  1
  I  I103  1  0.50183837  0.08458991  0.90565518  1
  I  I104  1  0.34786894  0.48109407  0.08553760  1
  I  I105  1  0.65213106  0.98109407  0.41446240  1
  I  I106  1  0.65213106  0.51890593  0.91446240  1
  I  I107  1  0.34786894  0.01890593  0.58553760  1
  I  I108  1  0.43029085  0.61585536  0.02193225  1
  I  I109  1  0.56970915  0.11585536  0.47806775  1
  I  I110  1  0.56970915  0.38414464  0.97806775  1
  I  I111  1  0.43029085  0.88414464  0.52193225  1
