# generated using pymatgen
data_Fe13Cu5O24
_symmetry_space_group_name_H-M   'P 1'
_cell_length_a   6.01039520
_cell_length_b   6.06777025
_cell_length_c   13.39044854
_cell_angle_alpha   103.47708571
_cell_angle_beta   102.81761667
_cell_angle_gamma   88.39286547
_symmetry_Int_Tables_number   1
_chemical_formula_structural   Fe13Cu5O24
_chemical_formula_sum   'Fe13 Cu5 O24'
_cell_volume   462.92009747
_cell_formula_units_Z   1
loop_
 _symmetry_equiv_pos_site_id
 _symmetry_equiv_pos_as_xyz
  1  'x, y, z'
loop_
 _atom_site_type_symbol
 _atom_site_label
 _atom_site_symmetry_multiplicity
 _atom_site_fract_x
 _atom_site_fract_y
 _atom_site_fract_z
 _atom_site_occupancy
  Fe  Fe0  1  0.99369911  0.00681135  0.00260954  1
  Fe  Fe1  1  0.58941180  0.07703634  0.16407976  1
  Fe  Fe2  1  0.12423543  0.37896862  0.25079886  1
  Fe  Fe3  1  0.12007955  0.87340016  0.24769043  1
  Fe  Fe4  1  0.66219681  0.65499794  0.33664452  1
  Fe  Fe5  1  0.45774369  0.21055498  0.41974525  1
  Fe  Fe6  1  0.26918817  0.76407123  0.49965744  1
  Fe  Fe7  1  0.79228173  0.04183068  0.58337976  1
  Fe  Fe8  1  0.31470843  0.31946907  0.66688467  1
  Fe  Fe9  1  0.12528235  0.87281285  0.74722269  1
  Fe  Fe10  1  0.92141375  0.42760869  0.83030106  1
  Fe  Fe11  1  0.46248081  0.20909375  0.91814730  1
  Fe  Fe12  1  0.45942278  0.70382539  0.91590466  1
  Cu  Cu13  1  0.79041541  0.54081792  0.08300456  1
  Cu  Cu14  1  0.29208124  0.54159519  0.08295638  1
  Cu  Cu15  1  0.95779239  0.21082279  0.41736520  1
  Cu  Cu16  1  0.79165533  0.54188832  0.58407926  1
  Cu  Cu17  1  0.62598175  0.87203927  0.74951044  1
  O  O18  1  0.55967577  0.28597649  0.07585107  1
  O  O19  1  0.53897996  0.77498722  0.07612293  1
  O  O20  1  0.04385288  0.30809807  0.09002631  1
  O  O21  1  0.02428649  0.80020679  0.09020636  1
  O  O22  1  0.35581591  0.62124265  0.24455081  1
  O  O23  1  0.90095725  0.63694891  0.26082399  1
  O  O24  1  0.36080073  0.12206045  0.25402819  1
  O  O25  1  0.89517899  0.13567783  0.25642838  1
  O  O26  1  0.23410680  0.46124994  0.41121569  1
  O  O27  1  0.20521555  0.97855545  0.40900881  1
  O  O28  1  0.68483612  0.95600990  0.42460064  1
  O  O29  1  0.70766857  0.43522376  0.42220359  1
  O  O30  1  0.53051530  0.26388313  0.57858743  1
  O  O31  1  0.01345954  0.28950350  0.57646768  1
  O  O32  1  0.57106261  0.79450388  0.59092338  1
  O  O33  1  0.05239199  0.81996896  0.58828420  1
  O  O34  1  0.87634158  0.64720876  0.74535811  1
  O  O35  1  0.89831195  0.12702757  0.74261879  1
  O  O36  1  0.37818437  0.10325470  0.75693707  1
  O  O37  1  0.34963687  0.62285108  0.75560889  1
  O  O38  1  0.22251311  0.96011672  0.91225864  1
  O  O39  1  0.68800822  0.94645152  0.90959150  1
  O  O40  1  0.68099177  0.44782528  0.90571202  1
  O  O41  1  0.22713410  0.46351990  0.92260174  1
