# generated using pymatgen
data_CuW3Br7
_symmetry_space_group_name_H-M   'P 1'
_cell_length_a   13.77470386
_cell_length_b   13.77470386
_cell_length_c   13.77470386
_cell_angle_alpha   90.00000000
_cell_angle_beta   90.00000000
_cell_angle_gamma   90.00000000
_symmetry_Int_Tables_number   1
_chemical_formula_structural   CuW3Br7
_chemical_formula_sum   'Cu8 W24 Br56'
_cell_volume   2613.64628475
_cell_formula_units_Z   8
loop_
 _symmetry_equiv_pos_site_id
 _symmetry_equiv_pos_as_xyz
  1  'x, y, z'
loop_
 _atom_site_type_symbol
 _atom_site_label
 _atom_site_symmetry_multiplicity
 _atom_site_fract_x
 _atom_site_fract_y
 _atom_site_fract_z
 _atom_site_occupancy
  Cu  Cu0  1  0.93799421  0.93799421  0.93799421  1
  Cu  Cu1  1  0.56200579  0.56200579  0.93799421  1
  Cu  Cu2  1  0.93799421  0.56200579  0.56200579  1
  Cu  Cu3  1  0.56200579  0.93799421  0.56200579  1
  Cu  Cu4  1  0.06200579  0.06200579  0.06200579  1
  Cu  Cu5  1  0.43799421  0.43799421  0.06200579  1
  Cu  Cu6  1  0.06200579  0.43799421  0.43799421  1
  Cu  Cu7  1  0.43799421  0.06200579  0.43799421  1
  Br  Br8  1  0.42409539  0.18393016  0.87465240  1
  Br  Br9  1  0.87465240  0.42409539  0.18393016  1
  Br  Br10  1  0.18393016  0.87465240  0.42409539  1
  Br  Br11  1  0.31606984  0.62534760  0.42409539  1
  Br  Br12  1  0.87465240  0.07590461  0.31606984  1
  Br  Br13  1  0.31606984  0.87465240  0.07590461  1
  Br  Br14  1  0.62534760  0.07590461  0.18393016  1
  Br  Br15  1  0.62534760  0.42409539  0.31606984  1
  Br  Br16  1  0.18393016  0.62534760  0.07590461  1
  Br  Br17  1  0.42409539  0.31606984  0.62534760  1
  Br  Br18  1  0.07590461  0.18393016  0.62534760  1
  Br  Br19  1  0.07590461  0.31606984  0.87465240  1
  Br  Br20  1  0.57590461  0.81606984  0.12534760  1
  Br  Br21  1  0.12534760  0.57590461  0.81606984  1
  Br  Br22  1  0.81606984  0.12534760  0.57590461  1
  Br  Br23  1  0.68393016  0.37465240  0.57590461  1
  Br  Br24  1  0.12534760  0.92409539  0.68393016  1
  Br  Br25  1  0.68393016  0.12534760  0.92409539  1
  Br  Br26  1  0.37465240  0.92409539  0.81606984  1
  Br  Br27  1  0.37465240  0.57590461  0.68393016  1
  Br  Br28  1  0.81606984  0.37465240  0.92409539  1
  Br  Br29  1  0.57590461  0.68393016  0.37465240  1
  Br  Br30  1  0.92409539  0.81606984  0.37465240  1
  Br  Br31  1  0.92409539  0.68393016  0.12534760  1
  Br  Br32  1  0.81464130  0.92350509  0.06053729  1
  Br  Br33  1  0.06053729  0.81464130  0.92350509  1
  Br  Br34  1  0.92350509  0.06053729  0.81464130  1
  Br  Br35  1  0.57649491  0.43946271  0.81464130  1
  Br  Br36  1  0.06053729  0.68535870  0.57649491  1
  Br  Br37  1  0.57649491  0.06053729  0.68535870  1
  Br  Br38  1  0.43946271  0.68535870  0.92350509  1
  Br  Br39  1  0.43946271  0.81464130  0.57649491  1
  Br  Br40  1  0.92350509  0.43946271  0.68535870  1
  Br  Br41  1  0.81464130  0.57649491  0.43946271  1
  Br  Br42  1  0.68535870  0.92350509  0.43946271  1
  Br  Br43  1  0.68535870  0.57649491  0.06053729  1
  Br  Br44  1  0.18535870  0.07649491  0.93946271  1
  Br  Br45  1  0.93946271  0.18535870  0.07649491  1
  Br  Br46  1  0.07649491  0.93946271  0.18535870  1
  Br  Br47  1  0.42350509  0.56053729  0.18535870  1
  Br  Br48  1  0.93946271  0.31464130  0.42350509  1
  Br  Br49  1  0.42350509  0.93946271  0.31464130  1
  Br  Br50  1  0.56053729  0.31464130  0.07649491  1
  Br  Br51  1  0.56053729  0.18535870  0.42350509  1
  Br  Br52  1  0.07649491  0.56053729  0.31464130  1
  Br  Br53  1  0.18535870  0.42350509  0.56053729  1
  Br  Br54  1  0.31464130  0.07649491  0.56053729  1
  Br  Br55  1  0.31464130  0.42350509  0.93946271  1
  Br  Br56  1  0.63663050  0.63663050  0.63663050  1
  Br  Br57  1  0.86336950  0.86336950  0.63663050  1
  Br  Br58  1  0.63663050  0.86336950  0.86336950  1
  Br  Br59  1  0.86336950  0.63663050  0.86336950  1
  Br  Br60  1  0.36336950  0.36336950  0.36336950  1
  Br  Br61  1  0.13663050  0.13663050  0.36336950  1
  Br  Br62  1  0.36336950  0.13663050  0.13663050  1
  Br  Br63  1  0.13663050  0.36336950  0.13663050  1
  W  W64  1  0.52394385  0.13084365  0.02979503  1
  W  W65  1  0.02979503  0.52394385  0.13084365  1
  W  W66  1  0.13084365  0.02979503  0.52394385  1
  W  W67  1  0.36915635  0.47020497  0.52394385  1
  W  W68  1  0.02979503  0.97605615  0.36915635  1
  W  W69  1  0.36915635  0.02979503  0.97605615  1
  W  W70  1  0.47020497  0.97605615  0.13084365  1
  W  W71  1  0.47020497  0.52394385  0.36915635  1
  W  W72  1  0.13084365  0.47020497  0.97605615  1
  W  W73  1  0.52394385  0.36915635  0.47020497  1
  W  W74  1  0.97605615  0.13084365  0.47020497  1
  W  W75  1  0.97605615  0.36915635  0.02979503  1
  W  W76  1  0.47605615  0.86915635  0.97020497  1
  W  W77  1  0.97020497  0.47605615  0.86915635  1
  W  W78  1  0.86915635  0.97020497  0.47605615  1
  W  W79  1  0.63084365  0.52979503  0.47605615  1
  W  W80  1  0.97020497  0.02394385  0.63084365  1
  W  W81  1  0.63084365  0.97020497  0.02394385  1
  W  W82  1  0.52979503  0.02394385  0.86915635  1
  W  W83  1  0.52979503  0.47605615  0.63084365  1
  W  W84  1  0.86915635  0.52979503  0.02394385  1
  W  W85  1  0.47605615  0.63084365  0.52979503  1
  W  W86  1  0.02394385  0.86915635  0.52979503  1
  W  W87  1  0.02394385  0.63084365  0.97020497  1
