# generated using pymatgen
data_NaB15
_symmetry_space_group_name_H-M   'P 1'
_cell_length_a   5.84737691
_cell_length_b   7.26529105
_cell_length_c   7.26529105
_cell_angle_alpha   70.79258513
_cell_angle_beta   66.27053414
_cell_angle_gamma   66.27053410
_symmetry_Int_Tables_number   1
_chemical_formula_structural   NaB15
_chemical_formula_sum   'Na2 B30'
_cell_volume   253.47679862
_cell_formula_units_Z   2
loop_
 _symmetry_equiv_pos_site_id
 _symmetry_equiv_pos_as_xyz
  1  'x, y, z'
loop_
 _atom_site_type_symbol
 _atom_site_label
 _atom_site_symmetry_multiplicity
 _atom_site_fract_x
 _atom_site_fract_y
 _atom_site_fract_z
 _atom_site_occupancy
  B  B0  1  0.25000000  0.49699579  0.00300421  1
  B  B1  1  0.75000000  0.50300421  0.99699579  1
  B  B2  1  0.10122330  0.74577697  0.05177644  1
  B  B3  1  0.89877670  0.25422303  0.94822356  1
  B  B4  1  0.39877670  0.44822356  0.75422303  1
  B  B5  1  0.60122330  0.55177644  0.24577697  1
  B  B6  1  0.16480359  0.88148999  0.78890284  1
  B  B7  1  0.83519641  0.11851001  0.21109716  1
  B  B8  1  0.33519641  0.71109716  0.61851001  1
  B  B9  1  0.66480359  0.28890284  0.38148999  1
  B  B10  1  0.14528950  0.46089030  0.24853070  1
  B  B11  1  0.85471050  0.53910970  0.75146930  1
  B  B12  1  0.35471050  0.25146930  0.03910970  1
  B  B13  1  0.64528950  0.74853070  0.96089030  1
  B  B14  1  0.20854991  0.11751033  0.78673114  1
  B  B15  1  0.11279138  0.88248967  0.21326886  1
  B  B16  1  0.29145009  0.71326886  0.38248967  1
  B  B17  1  0.38720862  0.28673114  0.61751033  1
  B  B18  1  0.79145009  0.88248967  0.21326886  1
  B  B19  1  0.88720862  0.11751033  0.78673114  1
  B  B20  1  0.70854991  0.28673114  0.61751033  1
  B  B21  1  0.61279138  0.71326886  0.38248967  1
  B  B22  1  0.32870359  0.88224281  0.95564700  1
  B  B23  1  0.16659341  0.11775719  0.04435300  1
  B  B24  1  0.17129641  0.54435300  0.61775719  1
  B  B25  1  0.33340659  0.45564700  0.38224281  1
  B  B26  1  0.67129641  0.11775719  0.04435300  1
  B  B27  1  0.83340659  0.88224281  0.95564700  1
  B  B28  1  0.82870359  0.45564700  0.38224281  1
  B  B29  1  0.66659341  0.54435300  0.61775719  1
  Na  Na30  1  0.25000000  0.08878189  0.41121811  1
  Na  Na31  1  0.75000000  0.91121811  0.58878189  1
