# generated using pymatgen
data_ZnSiO3
_symmetry_space_group_name_H-M   'P 1'
_cell_length_a   4.80722995
_cell_length_b   4.80723014
_cell_length_c   5.43233422
_cell_angle_alpha   63.73876775
_cell_angle_beta   63.73877152
_cell_angle_gamma   59.99999867
_symmetry_Int_Tables_number   1
_chemical_formula_structural   ZnSiO3
_chemical_formula_sum   'Zn2 Si2 O6'
_cell_volume   93.45863149
_cell_formula_units_Z   2
loop_
 _symmetry_equiv_pos_site_id
 _symmetry_equiv_pos_as_xyz
  1  'x, y, z'
loop_
 _atom_site_type_symbol
 _atom_site_label
 _atom_site_symmetry_multiplicity
 _atom_site_fract_x
 _atom_site_fract_y
 _atom_site_fract_z
 _atom_site_occupancy
  Zn  Zn0  1  0.63051931  0.63051931  0.10844207  1
  Zn  Zn1  1  0.36948069  0.36948069  0.89155793  1
  Si  Si2  1  0.83912512  0.83912512  0.48262464  1
  Si  Si3  1  0.16087488  0.16087488  0.51737536  1
  O  O4  1  0.56264383  0.95395385  0.28588892  1
  O  O5  1  0.19751340  0.56264383  0.28588892  1
  O  O6  1  0.95395385  0.19751340  0.28588892  1
  O  O7  1  0.43735617  0.04604615  0.71411108  1
  O  O8  1  0.80248660  0.43735617  0.71411108  1
  O  O9  1  0.04604615  0.80248660  0.71411108  1
