# generated using pymatgen
data_Ho(CuS)3
_symmetry_space_group_name_H-M   'P 1'
_cell_length_a   3.88782613
_cell_length_b   3.88830724
_cell_length_c   19.97411315
_cell_angle_alpha   90.00015399
_cell_angle_beta   90.00235553
_cell_angle_gamma   59.99707269
_symmetry_Int_Tables_number   1
_chemical_formula_structural   Ho(CuS)3
_chemical_formula_sum   'Ho2 Cu6 S6'
_cell_volume   261.48858466
_cell_formula_units_Z   2
loop_
 _symmetry_equiv_pos_site_id
 _symmetry_equiv_pos_as_xyz
  1  'x, y, z'
loop_
 _atom_site_type_symbol
 _atom_site_label
 _atom_site_symmetry_multiplicity
 _atom_site_fract_x
 _atom_site_fract_y
 _atom_site_fract_z
 _atom_site_occupancy
  Ho  Ho0  1  -0.00002023  0.00002860  0.00161918  1
  Ho  Ho1  1  0.00002023  0.99997140  0.33171382  1
  Cu  Cu2  1  0.66667693  0.66667692  0.21268430  1
  Cu  Cu3  1  0.66664705  0.66669526  0.57482456  1
  Cu  Cu4  1  0.66661582  0.66688171  0.87843239  1
  Cu  Cu5  1  0.33332307  0.33332308  0.12064870  1
  Cu  Cu6  1  0.33338418  0.33311829  0.45490061  1
  Cu  Cu7  1  0.33335295  0.33330474  0.75850944  1
  S  S8  1  0.66669699  0.66668478  0.08835430  1
  S  S9  1  0.66666514  0.66661290  0.40859773  1
  S  S10  1  0.66688787  0.66665248  0.76479437  1
  S  S11  1  0.33330301  0.33331522  0.24497870  1
  S  S12  1  0.33311213  0.33334752  0.56853863  1
  S  S13  1  0.33333486  0.33338710  0.92473627  1
