# generated using pymatgen
data_Ge19(PI)4
_symmetry_space_group_name_H-M   'P 1'
_cell_length_a   10.68904600
_cell_length_b   10.68904600
_cell_length_c   10.68904600
_cell_angle_alpha   90.00000000
_cell_angle_beta   90.00000000
_cell_angle_gamma   90.00000000
_symmetry_Int_Tables_number   1
_chemical_formula_structural   Ge19(PI)4
_chemical_formula_sum   'Ge38 P8 I8'
_cell_volume   1221.28447999
_cell_formula_units_Z   2
loop_
 _symmetry_equiv_pos_site_id
 _symmetry_equiv_pos_as_xyz
  1  'x, y, z'
loop_
 _atom_site_type_symbol
 _atom_site_label
 _atom_site_symmetry_multiplicity
 _atom_site_fract_x
 _atom_site_fract_y
 _atom_site_fract_z
 _atom_site_occupancy
  P  P0  1  0.81583630  0.81583630  0.81583630  1
  P  P1  1  0.68416370  0.31583630  0.68416370  1
  P  P2  1  0.68416370  0.68416370  0.31583630  1
  P  P3  1  0.31583630  0.68416370  0.68416370  1
  P  P4  1  0.18416370  0.18416370  0.81583630  1
  P  P5  1  0.81583630  0.18416370  0.18416370  1
  P  P6  1  0.18416370  0.81583630  0.18416370  1
  P  P7  1  0.31583630  0.31583630  0.31583630  1
  Ge  Ge8  1  0.99833582  0.11897382  0.30605439  1
  Ge  Ge9  1  0.50166418  0.80605439  0.38102618  1
  Ge  Ge10  1  0.50166418  0.19394561  0.61897382  1
  Ge  Ge11  1  0.19394561  0.38102618  0.49833582  1
  Ge  Ge12  1  0.80605439  0.38102618  0.50166418  1
  Ge  Ge13  1  0.61897382  0.50166418  0.19394561  1
  Ge  Ge14  1  0.38102618  0.49833582  0.19394561  1
  Ge  Ge15  1  0.30605439  0.99833582  0.11897382  1
  Ge  Ge16  1  0.11897382  0.30605439  0.99833582  1
  Ge  Ge17  1  0.88102618  0.69394561  0.99833582  1
  Ge  Ge18  1  0.30605439  0.00166418  0.88102618  1
  Ge  Ge19  1  0.88102618  0.30605439  0.00166418  1
  Ge  Ge20  1  0.69394561  0.00166418  0.11897382  1
  Ge  Ge21  1  0.69394561  0.99833582  0.88102618  1
  Ge  Ge22  1  0.11897382  0.69394561  0.00166418  1
  Ge  Ge23  1  0.99833582  0.88102618  0.69394561  1
  Ge  Ge24  1  0.00166418  0.11897382  0.69394561  1
  Ge  Ge25  1  0.00166418  0.88102618  0.30605439  1
  Ge  Ge26  1  0.38102618  0.50166418  0.80605439  1
  Ge  Ge27  1  0.61897382  0.49833582  0.80605439  1
  Ge  Ge28  1  0.19394561  0.61897382  0.50166418  1
  Ge  Ge29  1  0.80605439  0.61897382  0.49833582  1
  Ge  Ge30  1  0.49833582  0.19394561  0.38102618  1
  Ge  Ge31  1  0.49833582  0.80605439  0.61897382  1
  Ge  Ge32  1  0.18584076  0.18584076  0.18584076  1
  Ge  Ge33  1  0.31415924  0.68584076  0.31415924  1
  Ge  Ge34  1  0.31415924  0.31415924  0.68584076  1
  Ge  Ge35  1  0.68584076  0.31415924  0.31415924  1
  Ge  Ge36  1  0.81415924  0.81415924  0.18584076  1
  Ge  Ge37  1  0.18584076  0.81415924  0.81415924  1
  Ge  Ge38  1  0.81415924  0.18584076  0.81415924  1
  Ge  Ge39  1  0.68584076  0.68584076  0.68584076  1
  Ge  Ge40  1  0.00000000  0.25000000  0.50000000  1
  Ge  Ge41  1  0.50000000  0.00000000  0.25000000  1
  Ge  Ge42  1  0.50000000  0.00000000  0.75000000  1
  Ge  Ge43  1  0.75000000  0.50000000  0.00000000  1
  Ge  Ge44  1  0.25000000  0.50000000  0.00000000  1
  Ge  Ge45  1  0.00000000  0.75000000  0.50000000  1
  I  I46  1  0.00000000  0.50000000  0.25000000  1
  I  I47  1  0.50000000  0.75000000  0.00000000  1
  I  I48  1  0.50000000  0.25000000  0.00000000  1
  I  I49  1  0.25000000  0.00000000  0.50000000  1
  I  I50  1  0.75000000  0.00000000  0.50000000  1
  I  I51  1  0.00000000  0.50000000  0.75000000  1
  I  I52  1  0.00000000  0.00000000  0.00000000  1
  I  I53  1  0.50000000  0.50000000  0.50000000  1
