# generated using pymatgen
data_Na4Al3Ge3IO12
_symmetry_space_group_name_H-M   'P 1'
_cell_length_a   9.28416078
_cell_length_b   9.28416078
_cell_length_c   9.28416078
_cell_angle_alpha   90.00000000
_cell_angle_beta   90.00000000
_cell_angle_gamma   90.00000000
_symmetry_Int_Tables_number   1
_chemical_formula_structural   Na4Al3Ge3IO12
_chemical_formula_sum   'Na8 Al6 Ge6 I2 O24'
_cell_volume   800.25419319
_cell_formula_units_Z   2
loop_
 _symmetry_equiv_pos_site_id
 _symmetry_equiv_pos_as_xyz
  1  'x, y, z'
loop_
 _atom_site_type_symbol
 _atom_site_label
 _atom_site_symmetry_multiplicity
 _atom_site_fract_x
 _atom_site_fract_y
 _atom_site_fract_z
 _atom_site_occupancy
  O  O0  1  0.64667633  0.93724696  0.64697574  1
  O  O1  1  0.64667633  0.06275304  0.35302426  1
  O  O2  1  0.93724696  0.64697574  0.64667633  1
  O  O3  1  0.06275304  0.64697574  0.35332367  1
  O  O4  1  0.64697574  0.64667633  0.93724696  1
  O  O5  1  0.35302426  0.35332367  0.93724696  1
  O  O6  1  0.85332367  0.85302426  0.43724696  1
  O  O7  1  0.85332367  0.14697574  0.56275304  1
  O  O8  1  0.14667633  0.85302426  0.56275304  1
  O  O9  1  0.14697574  0.56275304  0.85332367  1
  O  O10  1  0.56275304  0.14667633  0.85302426  1
  O  O11  1  0.56275304  0.85332367  0.14697574  1
  O  O12  1  0.85302426  0.43724696  0.85332367  1
  O  O13  1  0.43724696  0.85332367  0.85302426  1
  O  O14  1  0.85302426  0.56275304  0.14667633  1
  O  O15  1  0.14697574  0.43724696  0.14667633  1
  O  O16  1  0.43724696  0.14667633  0.14697574  1
  O  O17  1  0.35302426  0.64667633  0.06275304  1
  O  O18  1  0.64697574  0.35332367  0.06275304  1
  O  O19  1  0.93724696  0.35302426  0.35332367  1
  O  O20  1  0.06275304  0.35302426  0.64667633  1
  O  O21  1  0.35332367  0.06275304  0.64697574  1
  O  O22  1  0.14667633  0.14697574  0.43724696  1
  O  O23  1  0.35332367  0.93724696  0.35302426  1
  Na  Na24  1  0.19306454  0.19306454  0.19306454  1
  Na  Na25  1  0.30693546  0.69306454  0.30693546  1
  Na  Na26  1  0.30693546  0.30693546  0.69306454  1
  Na  Na27  1  0.69306454  0.30693546  0.30693546  1
  Na  Na28  1  0.80693546  0.80693546  0.19306454  1
  Na  Na29  1  0.19306454  0.80693546  0.80693546  1
  Na  Na30  1  0.80693546  0.19306454  0.80693546  1
  Na  Na31  1  0.69306454  0.69306454  0.69306454  1
  Al  Al32  1  0.50000000  0.25000000  0.00000000  1
  Al  Al33  1  0.00000000  0.50000000  0.25000000  1
  Al  Al34  1  0.00000000  0.50000000  0.75000000  1
  Al  Al35  1  0.25000000  0.00000000  0.50000000  1
  Al  Al36  1  0.75000000  0.00000000  0.50000000  1
  Al  Al37  1  0.50000000  0.75000000  0.00000000  1
  Ge  Ge38  1  0.75000000  0.50000000  0.00000000  1
  Ge  Ge39  1  0.00000000  0.75000000  0.50000000  1
  Ge  Ge40  1  0.25000000  0.50000000  0.00000000  1
  Ge  Ge41  1  0.50000000  0.00000000  0.75000000  1
  Ge  Ge42  1  0.50000000  0.00000000  0.25000000  1
  Ge  Ge43  1  0.00000000  0.25000000  0.50000000  1
  I  I44  1  0.50000000  0.50000000  0.50000000  1
  I  I45  1  0.00000000  0.00000000  0.00000000  1
