# generated using pymatgen
data_Li13Mn2O12
_symmetry_space_group_name_H-M   'P 1'
_cell_length_a   5.64186291
_cell_length_b   5.68946288
_cell_length_c   9.68090794
_cell_angle_alpha   107.44182458
_cell_angle_beta   89.16678509
_cell_angle_gamma   60.40300311
_symmetry_Int_Tables_number   1
_chemical_formula_structural   Li13Mn2O12
_chemical_formula_sum   'Li13 Mn2 O12'
_cell_volume   252.78003026
_cell_formula_units_Z   1
loop_
 _symmetry_equiv_pos_site_id
 _symmetry_equiv_pos_as_xyz
  1  'x, y, z'
loop_
 _atom_site_type_symbol
 _atom_site_label
 _atom_site_symmetry_multiplicity
 _atom_site_fract_x
 _atom_site_fract_y
 _atom_site_fract_z
 _atom_site_occupancy
  Li  Li0  1  0.00800428  0.35336983  0.87334157  1
  Li  Li1  1  0.99920437  0.69066232  0.74501158  1
  Li  Li2  1  0.01330024  0.73978314  0.46386290  1
  Li  Li3  1  0.48847230  0.97503019  0.11752263  1
  Li  Li4  1  0.45953262  0.37538472  0.03914856  1
  Li  Li5  1  0.53594931  0.32441802  0.75300510  1
  Li  Li6  1  0.55609509  0.30322297  0.36507949  1
  Li  Li7  1  0.45216053  0.66381474  0.62255231  1
  Li  Li8  1  0.46037626  0.69487714  0.26112090  1
  Li  Li9  1  0.50908519  0.92759163  0.86134289  1
  Li  Li10  1  0.97903159  0.26816670  0.54125319  1
  Li  Li11  1  0.00015785  0.32452232  0.25628521  1
  Li  Li12  1  0.97631631  0.67441055  0.13562643  1
  Mn  Mn13  1  0.01154006  0.99879873  0.00046986  1
  Mn  Mn14  1  0.49533718  0.00330672  0.50478128  1
  O  O15  1  0.18766703  0.23999398  0.04105325  1
  O  O16  1  0.23353779  0.25167229  0.68590064  1
  O  O17  1  0.25094976  0.23985034  0.39561180  1
  O  O18  1  0.25045941  0.79161400  0.11393965  1
  O  O19  1  0.28531975  0.75349415  0.82010142  1
  O  O20  1  0.32593273  0.77492527  0.46023562  1
  O  O21  1  0.66649386  0.23029570  0.54414290  1
  O  O22  1  0.71305596  0.25749012  0.17471249  1
  O  O23  1  0.77297216  0.19810134  0.88350763  1
  O  O24  1  0.73846516  0.76327605  0.61064571  1
  O  O25  1  0.75918975  0.76305855  0.31825293  1
  O  O26  1  0.83336248  0.77167649  0.96053406  1
