# generated using pymatgen
data_Re3As7
_symmetry_space_group_name_H-M   'P 1'
_cell_length_a   7.67679742
_cell_length_b   7.67679741
_cell_length_c   7.67679742
_cell_angle_alpha   109.47122062
_cell_angle_beta   109.47122061
_cell_angle_gamma   109.47122068
_symmetry_Int_Tables_number   1
_chemical_formula_structural   Re3As7
_chemical_formula_sum   'Re6 As14'
_cell_volume   348.27183162
_cell_formula_units_Z   2
loop_
 _symmetry_equiv_pos_site_id
 _symmetry_equiv_pos_as_xyz
  1  'x, y, z'
loop_
 _atom_site_type_symbol
 _atom_site_label
 _atom_site_symmetry_multiplicity
 _atom_site_fract_x
 _atom_site_fract_y
 _atom_site_fract_z
 _atom_site_occupancy
  As  As0  1  0.50000000  0.75000000  0.25000000  1
  As  As1  1  0.75000000  0.50000000  0.25000000  1
  As  As2  1  0.25000000  0.50000000  0.75000000  1
  As  As3  1  0.75000000  0.25000000  0.50000000  1
  As  As4  1  0.25000000  0.75000000  0.50000000  1
  As  As5  1  0.50000000  0.25000000  0.75000000  1
  As  As6  1  0.33183751  0.33183751  0.33183751  1
  As  As7  1  0.33183751  0.00000000  0.00000000  1
  As  As8  1  0.00000000  0.33183751  0.00000000  1
  As  As9  1  0.00000000  0.00000000  0.33183751  1
  As  As10  1  0.00000000  0.66816249  0.00000000  1
  As  As11  1  0.00000000  0.00000000  0.66816249  1
  As  As12  1  0.66816249  0.00000000  1.00000000  1
  As  As13  1  0.66816249  0.66816249  0.66816249  1
  Re  Re14  1  0.00000000  0.34036539  0.34036539  1
  Re  Re15  1  0.34036539  0.00000000  0.34036539  1
  Re  Re16  1  0.65963461  0.00000000  0.65963461  1
  Re  Re17  1  0.65963461  0.65963461  0.00000000  1
  Re  Re18  1  0.34036539  0.34036539  0.00000000  1
  Re  Re19  1  0.00000000  0.65963461  0.65963461  1
