# generated using pymatgen
data_Mg3P2
_symmetry_space_group_name_H-M   'P 1'
_cell_length_a   10.45233933
_cell_length_b   10.45233934
_cell_length_c   10.45233934
_cell_angle_alpha   109.47122062
_cell_angle_beta   109.47122063
_cell_angle_gamma   109.47122066
_symmetry_Int_Tables_number   1
_chemical_formula_structural   Mg3P2
_chemical_formula_sum   'Mg24 P16'
_cell_volume   879.06018752
_cell_formula_units_Z   8
loop_
 _symmetry_equiv_pos_site_id
 _symmetry_equiv_pos_as_xyz
  1  'x, y, z'
loop_
 _atom_site_type_symbol
 _atom_site_label
 _atom_site_symmetry_multiplicity
 _atom_site_fract_x
 _atom_site_fract_y
 _atom_site_fract_z
 _atom_site_occupancy
  Mg  Mg0  1  0.52598526  0.76621393  0.53276690  1
  Mg  Mg1  1  0.99321836  0.96723310  0.73344703  1
  Mg  Mg2  1  0.25977133  0.76655297  0.73378607  1
  Mg  Mg3  1  0.50678164  0.24022867  0.97401474  1
  Mg  Mg4  1  0.96723310  0.73344703  0.99321836  1
  Mg  Mg5  1  0.73378607  0.25977133  0.76655297  1
  Mg  Mg6  1  0.24022867  0.97401474  0.50678164  1
  Mg  Mg7  1  0.53276690  0.52598526  0.76621393  1
  Mg  Mg8  1  0.76621393  0.53276690  0.52598526  1
  Mg  Mg9  1  0.73344703  0.99321836  0.96723310  1
  Mg  Mg10  1  0.76655297  0.73378607  0.25977133  1
  Mg  Mg11  1  0.97401474  0.50678164  0.24022867  1
  Mg  Mg12  1  0.47401474  0.23378607  0.46723310  1
  Mg  Mg13  1  0.00678164  0.03276690  0.26655297  1
  Mg  Mg14  1  0.74022867  0.23344703  0.26621393  1
  Mg  Mg15  1  0.49321836  0.75977133  0.02598526  1
  Mg  Mg16  1  0.03276690  0.26655297  0.00678164  1
  Mg  Mg17  1  0.26621393  0.74022867  0.23344703  1
  Mg  Mg18  1  0.75977133  0.02598526  0.49321836  1
  Mg  Mg19  1  0.46723310  0.47401474  0.23378607  1
  Mg  Mg20  1  0.23378607  0.46723310  0.47401474  1
  Mg  Mg21  1  0.26655297  0.00678164  0.03276690  1
  Mg  Mg22  1  0.23344703  0.26621393  0.74022867  1
  Mg  Mg23  1  0.02598526  0.49321836  0.75977133  1
  P  P24  1  0.50000000  0.50000000  0.50000000  1
  P  P25  1  0.00000000  0.00000000  0.50000000  1
  P  P26  1  0.50000000  0.00000000  0.00000000  1
  P  P27  1  0.00000000  0.50000000  0.00000000  1
  P  P28  1  0.25000000  0.22620911  0.97620911  1
  P  P29  1  0.27379089  0.52379089  0.75000000  1
  P  P30  1  0.52379089  0.75000000  0.27379089  1
  P  P31  1  0.22620911  0.97620911  0.25000000  1
  P  P32  1  0.97620911  0.25000000  0.22620911  1
  P  P33  1  0.75000000  0.27379089  0.52379089  1
  P  P34  1  0.75000000  0.77379089  0.02379089  1
  P  P35  1  0.72620911  0.47620911  0.25000000  1
  P  P36  1  0.47620911  0.25000000  0.72620911  1
  P  P37  1  0.77379089  0.02379089  0.75000000  1
  P  P38  1  0.02379089  0.75000000  0.77379089  1
  P  P39  1  0.25000000  0.72620911  0.47620911  1
