# generated using pymatgen
data_Li4Nb3V3(CoO8)2
_symmetry_space_group_name_H-M   'P 1'
_cell_length_a   6.10225501
_cell_length_b   6.02957070
_cell_length_c   9.78738764
_cell_angle_alpha   90.30370392
_cell_angle_beta   89.85924097
_cell_angle_gamma   120.41204862
_symmetry_Int_Tables_number   1
_chemical_formula_structural   Li4Nb3V3(CoO8)2
_chemical_formula_sum   'Li4 Nb3 V3 Co2 O16'
_cell_volume   310.56306915
_cell_formula_units_Z   1
loop_
 _symmetry_equiv_pos_site_id
 _symmetry_equiv_pos_as_xyz
  1  'x, y, z'
loop_
 _atom_site_type_symbol
 _atom_site_label
 _atom_site_symmetry_multiplicity
 _atom_site_fract_x
 _atom_site_fract_y
 _atom_site_fract_z
 _atom_site_occupancy
  Li  Li0  1  0.32823305  0.66410863  0.89971602  1
  Li  Li1  1  0.01452109  0.00821771  0.00042198  1
  Li  Li2  1  0.02411023  0.01132026  0.49226669  1
  Li  Li3  1  0.66523967  0.33314249  0.38457975  1
  Nb  Nb4  1  0.65719650  0.82906254  0.21818653  1
  Nb  Nb5  1  0.82325110  0.65855730  0.71566551  1
  Nb  Nb6  1  0.82455060  0.16550564  0.71541635  1
  V  V7  1  0.16633507  0.82377404  0.21442291  1
  V  V8  1  0.16829504  0.34175027  0.21313063  1
  V  V9  1  0.33773964  0.16795620  0.71171722  1
  Co  Co10  1  0.31394801  0.65671518  0.48112119  1
  Co  Co11  1  0.65969392  0.32973829  0.01887726  1
  O  O12  1  0.15650296  0.84001041  0.60656191  1
  O  O13  1  0.03205749  0.52115053  0.33086115  1
  O  O14  1  0.35140698  0.67770598  0.09714610  1
  O  O15  1  0.99053306  0.99448672  0.31291014  1
  O  O16  1  0.99664060  0.99823517  0.82068846  1
  O  O17  1  0.15671485  0.31504839  0.60646718  1
  O  O18  1  0.48432538  0.96564866  0.33617347  1
  O  O19  1  0.48382604  0.51954216  0.33616215  1
  O  O20  1  0.31751852  0.15597436  0.10967700  1
  O  O21  1  0.68429935  0.84180947  0.59847090  1
  O  O22  1  0.51744787  0.48771461  0.82698008  1
  O  O23  1  0.51815955  0.02976833  0.82709254  1
  O  O24  1  0.67711636  0.33818824  0.59615130  1
  O  O25  1  0.83931286  0.68081743  0.10213353  1
  O  O26  1  0.97080058  0.48553617  0.83254265  1
  O  O27  1  0.84022461  0.15881280  0.10229939  1
