# generated using pymatgen
data_Y2Ti2S2O5
_symmetry_space_group_name_H-M   'P 1'
_cell_length_a   11.85324741
_cell_length_b   11.85324740
_cell_length_c   11.85324741
_cell_angle_alpha   161.57991908
_cell_angle_beta   161.56346072
_cell_angle_gamma   26.17643947
_symmetry_Int_Tables_number   1
_chemical_formula_structural   Y2Ti2S2O5
_chemical_formula_sum   'Y2 Ti2 S2 O5'
_cell_volume   166.36407763
_cell_formula_units_Z   1
loop_
 _symmetry_equiv_pos_site_id
 _symmetry_equiv_pos_as_xyz
  1  'x, y, z'
loop_
 _atom_site_type_symbol
 _atom_site_label
 _atom_site_symmetry_multiplicity
 _atom_site_fract_x
 _atom_site_fract_y
 _atom_site_fract_z
 _atom_site_occupancy
  O  O0  1  0.00000000  0.00000000  0.00000000  1
  O  O1  1  0.59919451  0.09919451  0.50000000  1
  O  O2  1  0.90033659  0.40033659  0.50000000  1
  O  O3  1  0.09966341  0.59966341  0.50000000  1
  O  O4  1  0.40080549  0.90080549  0.50000000  1
  S  S5  1  0.20524795  0.20524795  0.00000000  1
  S  S6  1  0.79475205  0.79475205  0.00000000  1
  Ti  Ti7  1  0.07850687  0.07850687  0.00000000  1
  Ti  Ti8  1  0.92149313  0.92149313  0.00000000  1
  Y  Y9  1  0.33330206  0.33330206  0.00000000  1
  Y  Y10  1  0.66669794  0.66669794  0.00000000  1
