# generated using pymatgen
data_Pd7Se4
_symmetry_space_group_name_H-M   'P 1'
_cell_length_a   5.43502758
_cell_length_b   7.02426631
_cell_length_c   10.32102683
_cell_angle_alpha   90.00000000
_cell_angle_beta   90.00000000
_cell_angle_gamma   90.00000000
_symmetry_Int_Tables_number   1
_chemical_formula_structural   Pd7Se4
_chemical_formula_sum   'Pd14 Se8'
_cell_volume   394.02667857
_cell_formula_units_Z   2
loop_
 _symmetry_equiv_pos_site_id
 _symmetry_equiv_pos_as_xyz
  1  'x, y, z'
loop_
 _atom_site_type_symbol
 _atom_site_label
 _atom_site_symmetry_multiplicity
 _atom_site_fract_x
 _atom_site_fract_y
 _atom_site_fract_z
 _atom_site_occupancy
  Pd  Pd0  1  0.34916533  0.18887528  0.58381408  1
  Pd  Pd1  1  0.34916533  0.81112472  0.41618592  1
  Pd  Pd2  1  0.65083467  0.31112472  0.08381408  1
  Pd  Pd3  1  0.65083467  0.68887528  0.91618592  1
  Pd  Pd4  1  0.00355473  0.08418460  0.77445034  1
  Pd  Pd5  1  0.00355473  0.91581540  0.22554966  1
  Pd  Pd6  1  0.99644527  0.41581540  0.27445034  1
  Pd  Pd7  1  0.99644527  0.58418460  0.72554966  1
  Pd  Pd8  1  0.33810179  0.37196114  0.86876934  1
  Pd  Pd9  1  0.33810179  0.62803886  0.13123066  1
  Pd  Pd10  1  0.66189821  0.12803886  0.36876934  1
  Pd  Pd11  1  0.66189821  0.87196114  0.63123066  1
  Pd  Pd12  1  0.67593914  0.50000000  0.50000000  1
  Pd  Pd13  1  0.32406086  0.00000000  0.00000000  1
  Se  Se14  1  0.68268521  0.32413735  0.72067175  1
  Se  Se15  1  0.68268521  0.67586265  0.27932825  1
  Se  Se16  1  0.31731479  0.17586265  0.22067175  1
  Se  Se17  1  0.31731479  0.82413735  0.77932825  1
  Se  Se18  1  0.17031324  0.50000000  0.50000000  1
  Se  Se19  1  0.82968676  0.00000000  0.00000000  1
  Se  Se20  1  0.99923460  0.00000000  0.50000000  1
  Se  Se21  1  0.00076540  0.50000000  0.00000000  1
