# generated using pymatgen
data_Y5Si3
_symmetry_space_group_name_H-M   'P 1'
_cell_length_a   8.45936543
_cell_length_b   8.45936544
_cell_length_c   6.38759650
_cell_angle_alpha   90.00000000
_cell_angle_beta   90.00000000
_cell_angle_gamma   120.00000000
_symmetry_Int_Tables_number   1
_chemical_formula_structural   Y5Si3
_chemical_formula_sum   'Y10 Si6'
_cell_volume   395.86187620
_cell_formula_units_Z   2
loop_
 _symmetry_equiv_pos_site_id
 _symmetry_equiv_pos_as_xyz
  1  'x, y, z'
loop_
 _atom_site_type_symbol
 _atom_site_label
 _atom_site_symmetry_multiplicity
 _atom_site_fract_x
 _atom_site_fract_y
 _atom_site_fract_z
 _atom_site_occupancy
  Si  Si0  1  0.39438922  0.00000000  0.75000000  1
  Si  Si1  1  0.39438922  0.39438922  0.25000000  1
  Si  Si2  1  0.00000000  0.60561078  0.25000000  1
  Si  Si3  1  0.00000000  0.39438922  0.75000000  1
  Si  Si4  1  0.60561078  0.60561078  0.75000000  1
  Si  Si5  1  0.60561078  0.00000000  0.25000000  1
  Y  Y6  1  0.00000000  0.75663299  0.75000000  1
  Y  Y7  1  0.00000000  0.24336701  0.25000000  1
  Y  Y8  1  0.75663299  0.75663299  0.25000000  1
  Y  Y9  1  0.75663299  0.00000000  0.75000000  1
  Y  Y10  1  0.24336701  0.24336701  0.75000000  1
  Y  Y11  1  0.24336701  0.00000000  0.25000000  1
  Y  Y12  1  0.33333333  0.66666667  0.50000000  1
  Y  Y13  1  0.66666667  0.33333333  0.00000000  1
  Y  Y14  1  0.66666667  0.33333333  0.50000000  1
  Y  Y15  1  0.33333333  0.66666667  0.00000000  1
