# generated using pymatgen
data_Er2Co17
_symmetry_space_group_name_H-M   'P 1'
_cell_length_a   8.26937714
_cell_length_b   8.26937714
_cell_length_c   8.07481157
_cell_angle_alpha   90.00000000
_cell_angle_beta   90.00000000
_cell_angle_gamma   119.99999999
_symmetry_Int_Tables_number   1
_chemical_formula_structural   Er2Co17
_chemical_formula_sum   'Er4 Co34'
_cell_volume   478.19895956
_cell_formula_units_Z   2
loop_
 _symmetry_equiv_pos_site_id
 _symmetry_equiv_pos_as_xyz
  1  'x, y, z'
loop_
 _atom_site_type_symbol
 _atom_site_label
 _atom_site_symmetry_multiplicity
 _atom_site_fract_x
 _atom_site_fract_y
 _atom_site_fract_z
 _atom_site_occupancy
  Co  Co0  1  0.50000000  0.00000000  0.00000000  1
  Co  Co1  1  0.50000000  0.50000000  0.50000000  1
  Co  Co2  1  0.00000000  0.50000000  0.50000000  1
  Co  Co3  1  0.00000000  0.50000000  0.00000000  1
  Co  Co4  1  0.50000000  0.50000000  0.00000000  1
  Co  Co5  1  0.50000000  0.00000000  0.50000000  1
  Co  Co6  1  0.32817209  0.95431107  0.25000000  1
  Co  Co7  1  0.37386101  0.32817209  0.75000000  1
  Co  Co8  1  0.95431107  0.62613899  0.75000000  1
  Co  Co9  1  0.04568893  0.37386101  0.25000000  1
  Co  Co10  1  0.62613899  0.67182791  0.25000000  1
  Co  Co11  1  0.37386101  0.04568893  0.75000000  1
  Co  Co12  1  0.67182791  0.62613899  0.75000000  1
  Co  Co13  1  0.67182791  0.04568893  0.75000000  1
  Co  Co14  1  0.95431107  0.32817209  0.75000000  1
  Co  Co15  1  0.04568893  0.67182791  0.25000000  1
  Co  Co16  1  0.62613899  0.95431107  0.25000000  1
  Co  Co17  1  0.32817209  0.37386101  0.25000000  1
  Co  Co18  1  0.16649794  0.33299588  0.97758270  1
  Co  Co19  1  0.83350206  0.16649794  0.47758270  1
  Co  Co20  1  0.33299588  0.16649794  0.47758270  1
  Co  Co21  1  0.66700412  0.83350206  0.97758270  1
  Co  Co22  1  0.16649794  0.83350206  0.97758270  1
  Co  Co23  1  0.83350206  0.66700412  0.02241730  1
  Co  Co24  1  0.83350206  0.16649794  0.02241730  1
  Co  Co25  1  0.83350206  0.66700412  0.47758270  1
  Co  Co26  1  0.33299588  0.16649794  0.02241730  1
  Co  Co27  1  0.66700412  0.83350206  0.52241730  1
  Co  Co28  1  0.16649794  0.33299588  0.52241730  1
  Co  Co29  1  0.16649794  0.83350206  0.52241730  1
  Co  Co30  1  0.33333333  0.66666667  0.10628014  1
  Co  Co31  1  0.66666667  0.33333333  0.60628014  1
  Co  Co32  1  0.66666667  0.33333333  0.89371986  1
  Co  Co33  1  0.33333333  0.66666667  0.39371986  1
  Er  Er34  1  0.00000000  0.00000000  0.25000000  1
  Er  Er35  1  0.00000000  0.00000000  0.75000000  1
  Er  Er36  1  0.33333333  0.66666667  0.75000000  1
  Er  Er37  1  0.66666667  0.33333333  0.25000000  1
