# generated using pymatgen
data_Zr2Be17
_symmetry_space_group_name_H-M   'P 1'
_cell_length_a   5.67458345
_cell_length_b   5.67458344
_cell_length_c   5.67458344
_cell_angle_alpha   82.93918511
_cell_angle_beta   82.93918513
_cell_angle_gamma   82.93918512
_symmetry_Int_Tables_number   1
_chemical_formula_structural   Zr2Be17
_chemical_formula_sum   'Zr2 Be17'
_cell_volume   178.88416408
_cell_formula_units_Z   1
loop_
 _symmetry_equiv_pos_site_id
 _symmetry_equiv_pos_as_xyz
  1  'x, y, z'
loop_
 _atom_site_type_symbol
 _atom_site_label
 _atom_site_symmetry_multiplicity
 _atom_site_fract_x
 _atom_site_fract_y
 _atom_site_fract_z
 _atom_site_occupancy
  Be  Be0  1  0.40346333  0.40346333  0.40346333  1
  Be  Be1  1  0.59653667  0.59653667  0.59653667  1
  Be  Be2  1  0.50000000  0.50000000  0.00000000  1
  Be  Be3  1  0.00000000  0.50000000  0.50000000  1
  Be  Be4  1  0.50000000  0.00000000  0.50000000  1
  Be  Be5  1  0.78669194  0.21330806  0.50000000  1
  Be  Be6  1  0.50000000  0.78669194  0.21330806  1
  Be  Be7  1  0.21330806  0.50000000  0.78669194  1
  Be  Be8  1  0.21330806  0.78669194  0.50000000  1
  Be  Be9  1  0.50000000  0.21330806  0.78669194  1
  Be  Be10  1  0.78669194  0.50000000  0.21330806  1
  Be  Be11  1  0.15709706  0.65943875  0.15709706  1
  Be  Be12  1  0.15709706  0.15709706  0.65943875  1
  Be  Be13  1  0.65943875  0.15709706  0.15709706  1
  Be  Be14  1  0.34056125  0.84290294  0.84290294  1
  Be  Be15  1  0.84290294  0.34056125  0.84290294  1
  Be  Be16  1  0.84290294  0.84290294  0.34056125  1
  Zr  Zr17  1  0.16262906  0.16262906  0.16262906  1
  Zr  Zr18  1  0.83737094  0.83737094  0.83737094  1
