# generated using pymatgen
data_TaCl4F
_symmetry_space_group_name_H-M   'P 1'
_cell_length_a   8.61587268
_cell_length_b   10.23735470
_cell_length_c   10.23735470
_cell_angle_alpha   79.80042933
_cell_angle_beta   65.11454022
_cell_angle_gamma   65.11454025
_symmetry_Int_Tables_number   1
_chemical_formula_structural   TaCl4F
_chemical_formula_sum   'Ta4 Cl16 F4'
_cell_volume   743.07693668
_cell_formula_units_Z   4
loop_
 _symmetry_equiv_pos_site_id
 _symmetry_equiv_pos_as_xyz
  1  'x, y, z'
loop_
 _atom_site_type_symbol
 _atom_site_label
 _atom_site_symmetry_multiplicity
 _atom_site_fract_x
 _atom_site_fract_y
 _atom_site_fract_z
 _atom_site_occupancy
  F  F0  1  0.12268126  0.95580217  0.79507298  1
  F  F1  1  0.87355641  0.04419783  0.20492702  1
  F  F2  1  0.92151657  0.20492702  0.95580217  1
  F  F3  1  0.08224576  0.79507298  0.04419783  1
  Cl  Cl4  1  0.70246667  0.83153089  0.25311287  1
  Cl  Cl5  1  0.78711044  0.16846911  0.74688713  1
  Cl  Cl6  1  0.46600243  0.74688713  0.83153089  1
  Cl  Cl7  1  0.04442046  0.25311287  0.16846911  1
  Cl  Cl8  1  0.22284362  0.10324297  0.49653878  1
  Cl  Cl9  1  0.28061760  0.49653878  0.89675703  1
  Cl  Cl10  1  0.67391341  0.50346122  0.10324297  1
  Cl  Cl11  1  0.82262537  0.89675703  0.50346122  1
  Cl  Cl12  1  0.61043773  0.30697684  0.41492544  1
  Cl  Cl13  1  0.97463683  0.41492544  0.69302316  1
  Cl  Cl14  1  0.08258543  0.58507456  0.30697684  1
  Cl  Cl15  1  0.33234001  0.69302316  0.58507456  1
  Cl  Cl16  1  0.31764273  0.14359684  0.77394438  1
  Cl  Cl17  1  0.90841289  0.77394438  0.85640316  1
  Cl  Cl18  1  0.53876043  0.22605562  0.14359684  1
  Cl  Cl19  1  0.23518395  0.85640316  0.22605562  1
  Ta  Ta20  1  0.96522297  0.82667802  0.26947982  1
  Ta  Ta21  1  0.76529721  0.26947982  0.17332198  1
  Ta  Ta22  1  0.20809901  0.73052018  0.82667802  1
  Ta  Ta23  1  0.06138081  0.17332198  0.73052018  1
