# generated using pymatgen
data_Na2LiVPO6
_symmetry_space_group_name_H-M   'P 1'
_cell_length_a   5.97118600
_cell_length_b   7.93996658
_cell_length_c   12.59234413
_cell_angle_alpha   89.99990139
_cell_angle_beta   89.99830203
_cell_angle_gamma   69.74113703
_symmetry_Int_Tables_number   1
_chemical_formula_structural   Na2LiVPO6
_chemical_formula_sum   'Na8 Li4 V4 P4 O24'
_cell_volume   560.08312254
_cell_formula_units_Z   4
loop_
 _symmetry_equiv_pos_site_id
 _symmetry_equiv_pos_as_xyz
  1  'x, y, z'
loop_
 _atom_site_type_symbol
 _atom_site_label
 _atom_site_symmetry_multiplicity
 _atom_site_fract_x
 _atom_site_fract_y
 _atom_site_fract_z
 _atom_site_occupancy
  Na  Na0  1  0.86280712  0.93181536  0.90759378  1
  Na  Na1  1  0.63720637  0.56819464  0.40759780  1
  Na  Na2  1  0.80934381  0.04699141  0.66375149  1
  Na  Na3  1  0.69067389  0.45300582  0.16375709  1
  Na  Na4  1  0.30934153  0.54699364  0.83624796  1
  Na  Na5  1  0.19063485  0.95302673  0.33624618  1
  Na  Na6  1  0.36278825  0.43182833  0.59240487  1
  Na  Na7  1  0.13719351  0.06818539  0.09241757  1
  Li  Li8  1  0.95104051  0.74911139  0.47612886  1
  Li  Li9  1  0.54898059  0.75086583  0.97612431  1
  Li  Li10  1  0.45101979  0.24912637  0.02387787  1
  Li  Li11  1  0.04896504  0.25089177  0.52386168  1
  V  V12  1  0.69046613  0.89596904  0.21557927  1
  V  V13  1  0.80952519  0.60403310  0.71558343  1
  V  V14  1  0.19049247  0.39595731  0.28441502  1
  V  V15  1  0.30951200  0.10403893  0.78442303  1
  P  P16  1  0.90624264  0.31794175  0.90373486  1
  P  P17  1  0.40626715  0.81794821  0.59627475  1
  P  P18  1  0.59372596  0.18206218  0.40371795  1
  P  P19  1  0.09375037  0.68204804  0.09626845  1
  O  O20  1  0.94399477  0.74836951  0.76318514  1
  O  O21  1  0.97059312  0.44689742  0.62269034  1
  O  O22  1  0.84594152  0.67567173  0.06448008  1
  O  O23  1  0.96252629  0.16540931  0.81642310  1
  O  O24  1  0.65405452  0.82431783  0.56447409  1
  O  O25  1  0.74071837  0.49738382  0.85269762  1
  O  O26  1  0.77357027  0.26641324  0.99631888  1
  O  O27  1  0.55600273  0.75162909  0.26318836  1
  O  O28  1  0.47058883  0.94689394  0.87730188  1
  O  O29  1  0.72643460  0.23359644  0.49631780  1
  O  O30  1  0.75927405  0.00262799  0.35268802  1
  O  O31  1  0.46254589  0.66540576  0.68357706  1
  O  O32  1  0.53747157  0.33460369  0.31642189  1
  O  O33  1  0.24072678  0.99737767  0.64731074  1
  O  O34  1  0.27357029  0.76641117  0.50368387  1
  O  O35  1  0.52940462  0.05310961  0.12269545  1
  O  O36  1  0.44397622  0.24838190  0.73681361  1
  O  O37  1  0.22642797  0.73358082  0.00368359  1
  O  O38  1  0.25928299  0.50260753  0.14729958  1
  O  O39  1  0.34594129  0.17570294  0.43551269  1
  O  O40  1  0.03745459  0.83458353  0.18357824  1
  O  O41  1  0.15405864  0.32431032  0.93552110  1
  O  O42  1  0.02940359  0.55310304  0.37729811  1
  O  O43  1  0.05601331  0.25161946  0.23681752  1
