# generated using pymatgen
data_Hg(Mo3Cl7)2
_symmetry_space_group_name_H-M   'P 1'
_cell_length_a   13.07792512
_cell_length_b   13.07792512
_cell_length_c   13.07792512
_cell_angle_alpha   90.00000000
_cell_angle_beta   90.00000000
_cell_angle_gamma   90.00000000
_symmetry_Int_Tables_number   1
_chemical_formula_structural   Hg(Mo3Cl7)2
_chemical_formula_sum   'Hg4 Mo24 Cl56'
_cell_volume   2236.74532968
_cell_formula_units_Z   4
loop_
 _symmetry_equiv_pos_site_id
 _symmetry_equiv_pos_as_xyz
  1  'x, y, z'
loop_
 _atom_site_type_symbol
 _atom_site_label
 _atom_site_symmetry_multiplicity
 _atom_site_fract_x
 _atom_site_fract_y
 _atom_site_fract_z
 _atom_site_occupancy
  Cl  Cl0  1  0.63488415  0.63488415  0.63488415  1
  Cl  Cl1  1  0.86511585  0.86511585  0.63488415  1
  Cl  Cl2  1  0.63488415  0.86511585  0.86511585  1
  Cl  Cl3  1  0.86511585  0.63488415  0.86511585  1
  Cl  Cl4  1  0.36511585  0.36511585  0.36511585  1
  Cl  Cl5  1  0.13488415  0.13488415  0.36511585  1
  Cl  Cl6  1  0.36511585  0.13488415  0.13488415  1
  Cl  Cl7  1  0.13488415  0.36511585  0.13488415  1
  Cl  Cl8  1  0.62401468  0.31884628  0.42388487  1
  Cl  Cl9  1  0.42388487  0.62401468  0.31884628  1
  Cl  Cl10  1  0.31884628  0.42388487  0.62401468  1
  Cl  Cl11  1  0.18115372  0.07611513  0.62401468  1
  Cl  Cl12  1  0.42388487  0.87598532  0.18115372  1
  Cl  Cl13  1  0.18115372  0.42388487  0.87598532  1
  Cl  Cl14  1  0.07611513  0.87598532  0.31884628  1
  Cl  Cl15  1  0.07611513  0.62401468  0.18115372  1
  Cl  Cl16  1  0.31884628  0.07611513  0.87598532  1
  Cl  Cl17  1  0.62401468  0.18115372  0.07611513  1
  Cl  Cl18  1  0.87598532  0.31884628  0.07611513  1
  Cl  Cl19  1  0.87598532  0.18115372  0.42388487  1
  Cl  Cl20  1  0.37598532  0.68115372  0.57611513  1
  Cl  Cl21  1  0.57611513  0.37598532  0.68115372  1
  Cl  Cl22  1  0.68115372  0.57611513  0.37598532  1
  Cl  Cl23  1  0.81884628  0.92388487  0.37598532  1
  Cl  Cl24  1  0.57611513  0.12401468  0.81884628  1
  Cl  Cl25  1  0.81884628  0.57611513  0.12401468  1
  Cl  Cl26  1  0.92388487  0.12401468  0.68115372  1
  Cl  Cl27  1  0.92388487  0.37598532  0.81884628  1
  Cl  Cl28  1  0.68115372  0.92388487  0.12401468  1
  Cl  Cl29  1  0.37598532  0.81884628  0.92388487  1
  Cl  Cl30  1  0.12401468  0.68115372  0.92388487  1
  Cl  Cl31  1  0.12401468  0.81884628  0.57611513  1
  Cl  Cl32  1  0.81595207  0.43726708  0.57856936  1
  Cl  Cl33  1  0.57856936  0.81595207  0.43726708  1
  Cl  Cl34  1  0.43726708  0.57856936  0.81595207  1
  Cl  Cl35  1  0.06273292  0.92143064  0.81595207  1
  Cl  Cl36  1  0.57856936  0.68404793  0.06273292  1
  Cl  Cl37  1  0.06273292  0.57856936  0.68404793  1
  Cl  Cl38  1  0.92143064  0.68404793  0.43726708  1
  Cl  Cl39  1  0.92143064  0.81595207  0.06273292  1
  Cl  Cl40  1  0.43726708  0.92143064  0.68404793  1
  Cl  Cl41  1  0.81595207  0.06273292  0.92143064  1
  Cl  Cl42  1  0.68404793  0.43726708  0.92143064  1
  Cl  Cl43  1  0.68404793  0.06273292  0.57856936  1
  Cl  Cl44  1  0.18404793  0.56273292  0.42143064  1
  Cl  Cl45  1  0.42143064  0.18404793  0.56273292  1
  Cl  Cl46  1  0.56273292  0.42143064  0.18404793  1
  Cl  Cl47  1  0.93726708  0.07856936  0.18404793  1
  Cl  Cl48  1  0.42143064  0.31595207  0.93726708  1
  Cl  Cl49  1  0.93726708  0.42143064  0.31595207  1
  Cl  Cl50  1  0.07856936  0.31595207  0.56273292  1
  Cl  Cl51  1  0.07856936  0.18404793  0.93726708  1
  Cl  Cl52  1  0.56273292  0.07856936  0.31595207  1
  Cl  Cl53  1  0.18404793  0.93726708  0.07856936  1
  Cl  Cl54  1  0.31595207  0.56273292  0.07856936  1
  Cl  Cl55  1  0.31595207  0.93726708  0.42143064  1
  Mo  Mo56  1  0.63665539  0.47527468  0.53053580  1
  Mo  Mo57  1  0.53053580  0.63665539  0.47527468  1
  Mo  Mo58  1  0.47527468  0.53053580  0.63665539  1
  Mo  Mo59  1  0.02472532  0.96946420  0.63665539  1
  Mo  Mo60  1  0.53053580  0.86334461  0.02472532  1
  Mo  Mo61  1  0.02472532  0.53053580  0.86334461  1
  Mo  Mo62  1  0.96946420  0.86334461  0.47527468  1
  Mo  Mo63  1  0.96946420  0.63665539  0.02472532  1
  Mo  Mo64  1  0.47527468  0.96946420  0.86334461  1
  Mo  Mo65  1  0.63665539  0.02472532  0.96946420  1
  Mo  Mo66  1  0.86334461  0.47527468  0.96946420  1
  Mo  Mo67  1  0.86334461  0.02472532  0.53053580  1
  Mo  Mo68  1  0.36334461  0.52472532  0.46946420  1
  Mo  Mo69  1  0.46946420  0.36334461  0.52472532  1
  Mo  Mo70  1  0.52472532  0.46946420  0.36334461  1
  Mo  Mo71  1  0.97527468  0.03053580  0.36334461  1
  Mo  Mo72  1  0.46946420  0.13665539  0.97527468  1
  Mo  Mo73  1  0.97527468  0.46946420  0.13665539  1
  Mo  Mo74  1  0.03053580  0.13665539  0.52472532  1
  Mo  Mo75  1  0.03053580  0.36334461  0.97527468  1
  Mo  Mo76  1  0.52472532  0.03053580  0.13665539  1
  Mo  Mo77  1  0.36334461  0.97527468  0.03053580  1
  Mo  Mo78  1  0.13665539  0.52472532  0.03053580  1
  Mo  Mo79  1  0.13665539  0.97527468  0.46946420  1
  Hg  Hg80  1  0.00000000  0.00000000  0.00000000  1
  Hg  Hg81  1  0.50000000  0.50000000  0.00000000  1
  Hg  Hg82  1  0.00000000  0.50000000  0.50000000  1
  Hg  Hg83  1  0.50000000  0.00000000  0.50000000  1
