# generated using pymatgen
data_NO2
_symmetry_space_group_name_H-M   'P 1'
_cell_length_a   7.10229921
_cell_length_b   7.10229921
_cell_length_c   7.10229921
_cell_angle_alpha   109.47122065
_cell_angle_beta   109.47122064
_cell_angle_gamma   109.47122060
_symmetry_Int_Tables_number   1
_chemical_formula_structural   NO2
_chemical_formula_sum   'N6 O12'
_cell_volume   275.78776974
_cell_formula_units_Z   6
loop_
 _symmetry_equiv_pos_site_id
 _symmetry_equiv_pos_as_xyz
  1  'x, y, z'
loop_
 _atom_site_type_symbol
 _atom_site_label
 _atom_site_symmetry_multiplicity
 _atom_site_fract_x
 _atom_site_fract_y
 _atom_site_fract_z
 _atom_site_occupancy
  N  N0  1  0.38720321  0.00000000  0.38720321  1
  N  N1  1  0.00000000  0.61279679  0.61279679  1
  N  N2  1  0.38720321  0.38720321  0.00000000  1
  N  N3  1  0.61279679  0.61279679  0.00000000  1
  N  N4  1  0.00000000  0.38720321  0.38720321  1
  N  N5  1  0.61279679  0.00000000  0.61279679  1
  O  O6  1  0.46578707  0.13539157  0.33039550  1
  O  O7  1  0.13539157  0.66960450  0.80499608  1
  O  O8  1  0.33039550  0.19500392  0.86460843  1
  O  O9  1  0.86460843  0.66960450  0.53421293  1
  O  O10  1  0.66960450  0.80499608  0.13539157  1
  O  O11  1  0.86460843  0.33039550  0.19500392  1
  O  O12  1  0.66960450  0.53421293  0.86460843  1
  O  O13  1  0.33039550  0.46578707  0.13539157  1
  O  O14  1  0.13539157  0.33039550  0.46578707  1
  O  O15  1  0.80499608  0.13539157  0.66960450  1
  O  O16  1  0.19500392  0.86460843  0.33039550  1
  O  O17  1  0.53421293  0.86460843  0.66960450  1
