# generated using pymatgen
data_Li7Co(OF)3
_symmetry_space_group_name_H-M   'P 1'
_cell_length_a   5.30647408
_cell_length_b   6.22630161
_cell_length_c   5.70295199
_cell_angle_alpha   118.68051501
_cell_angle_beta   118.43058391
_cell_angle_gamma   59.43427471
_symmetry_Int_Tables_number   1
_chemical_formula_structural   Li7Co(OF)3
_chemical_formula_sum   'Li7 Co1 O3 F3'
_cell_volume   135.45477876
_cell_formula_units_Z   1
loop_
 _symmetry_equiv_pos_site_id
 _symmetry_equiv_pos_as_xyz
  1  'x, y, z'
loop_
 _atom_site_type_symbol
 _atom_site_label
 _atom_site_symmetry_multiplicity
 _atom_site_fract_x
 _atom_site_fract_y
 _atom_site_fract_z
 _atom_site_occupancy
  Li  Li0  1  0.49861136  0.39614828  0.77670779  1
  Li  Li1  1  0.23257327  0.35674550  0.12983913  1
  Li  Li2  1  0.68570709  0.02165035  0.32289832  1
  Li  Li3  1  0.32915657  0.96923157  0.71483618  1
  Li  Li4  1  0.77838804  0.63423210  0.89554814  1
  Li  Li5  1  0.46137659  0.65356652  0.22281076  1
  Li  Li6  1  0.90749948  0.34601340  0.46081829  1
  Co  Co7  1  0.97381145  0.01620817  0.93608593  1
  O  O8  1  0.39689398  0.77902300  0.95191517  1
  O  O9  1  0.92694659  0.24767668  0.75007480  1
  O  O10  1  0.62324778  0.24417926  0.08888826  1
  F  F11  1  0.28141834  0.24921581  0.41472953  1
  F  F12  1  0.07224654  0.73475918  0.24144734  1
  F  F13  1  0.71058891  0.73832318  0.59906935  1
