# generated using pymatgen
data_Li3P7
_symmetry_space_group_name_H-M   'P 1'
_cell_length_a   7.62868168
_cell_length_b   9.84787485
_cell_length_c   10.59724957
_cell_angle_alpha   90.00000000
_cell_angle_beta   90.00000000
_cell_angle_gamma   90.00000000
_symmetry_Int_Tables_number   1
_chemical_formula_structural   Li3P7
_chemical_formula_sum   'Li12 P28'
_cell_volume   796.13217639
_cell_formula_units_Z   4
loop_
 _symmetry_equiv_pos_site_id
 _symmetry_equiv_pos_as_xyz
  1  'x, y, z'
loop_
 _atom_site_type_symbol
 _atom_site_label
 _atom_site_symmetry_multiplicity
 _atom_site_fract_x
 _atom_site_fract_y
 _atom_site_fract_z
 _atom_site_occupancy
  Li  Li0  1  0.85053168  0.30784805  0.81605005  1
  Li  Li1  1  0.35053168  0.19215195  0.18394995  1
  Li  Li2  1  0.14946832  0.80784805  0.68394995  1
  Li  Li3  1  0.64946832  0.69215195  0.31605005  1
  Li  Li4  1  0.56894852  0.02594978  0.01479536  1
  Li  Li5  1  0.06894852  0.47405022  0.98520464  1
  Li  Li6  1  0.43105148  0.52594978  0.48520464  1
  Li  Li7  1  0.93105148  0.97405022  0.51479536  1
  Li  Li8  1  0.40223789  0.30137088  0.69212391  1
  Li  Li9  1  0.90223789  0.19862912  0.30787609  1
  Li  Li10  1  0.59776211  0.80137088  0.80787609  1
  Li  Li11  1  0.09776211  0.69862912  0.19212391  1
  P  P12  1  0.28076784  0.87549134  0.31884848  1
  P  P13  1  0.78076784  0.62450866  0.68115152  1
  P  P14  1  0.71923216  0.37549134  0.18115152  1
  P  P15  1  0.21923216  0.12450866  0.81884848  1
  P  P16  1  0.63764618  0.04852181  0.38740191  1
  P  P17  1  0.13764618  0.45147819  0.61259809  1
  P  P18  1  0.36235382  0.54852181  0.11259809  1
  P  P19  1  0.86235382  0.95147819  0.88740191  1
  P  P20  1  0.53379742  0.94352770  0.56513210  1
  P  P21  1  0.03379742  0.55647230  0.43486790  1
  P  P22  1  0.46620258  0.44352770  0.93486790  1
  P  P23  1  0.96620258  0.05647230  0.06513210  1
  P  P24  1  0.40605346  0.13484100  0.49428835  1
  P  P25  1  0.90605346  0.36515900  0.50571165  1
  P  P26  1  0.59394654  0.63484100  0.00571165  1
  P  P27  1  0.09394654  0.86515900  0.99428835  1
  P  P28  1  0.31626494  0.92702726  0.88128979  1
  P  P29  1  0.81626494  0.57297274  0.11871021  1
  P  P30  1  0.68373506  0.42702726  0.61871021  1
  P  P31  1  0.18373506  0.07297274  0.38128979  1
  P  P32  1  0.12872518  0.21803137  0.99461681  1
  P  P33  1  0.62872518  0.28196863  0.00538319  1
  P  P34  1  0.87127482  0.71803137  0.50538319  1
  P  P35  1  0.37127482  0.78196863  0.49461681  1
  P  P36  1  0.96649286  0.07050312  0.73419223  1
  P  P37  1  0.46649286  0.42949688  0.26580777  1
  P  P38  1  0.03350714  0.57050312  0.76580777  1
  P  P39  1  0.53350714  0.92949688  0.23419223  1
