# generated using pymatgen
data_Na4IrO4
_symmetry_space_group_name_H-M   'P 1'
_cell_length_a   4.76657682
_cell_length_b   5.63035623
_cell_length_c   5.63035609
_cell_angle_alpha   79.67818975
_cell_angle_beta   64.95736476
_cell_angle_gamma   64.95735577
_symmetry_Int_Tables_number   1
_chemical_formula_structural   Na4IrO4
_chemical_formula_sum   'Na4 Ir1 O4'
_cell_volume   124.03036948
_cell_formula_units_Z   1
loop_
 _symmetry_equiv_pos_site_id
 _symmetry_equiv_pos_as_xyz
  1  'x, y, z'
loop_
 _atom_site_type_symbol
 _atom_site_label
 _atom_site_symmetry_multiplicity
 _atom_site_fract_x
 _atom_site_fract_y
 _atom_site_fract_z
 _atom_site_occupancy
  Na  Na0  1  0.40742012  0.78989722  0.39526254  1
  Na  Na1  1  0.80268266  0.60473746  0.78989722  1
  Na  Na2  1  0.59257988  0.21010278  0.60473746  1
  Na  Na3  1  0.19731734  0.39526254  0.21010278  1
  Ir  Ir4  1  -0.00000000  0.00000000  -0.00000000  1
  O  O5  1  0.91645136  0.82764513  0.33945215  1
  O  O6  1  0.08354864  0.17235487  0.66054785  1
  O  O7  1  0.74409649  0.33945215  0.17235487  1
  O  O8  1  0.25590351  0.66054785  0.82764513  1
