# generated using pymatgen
data_SiP
_symmetry_space_group_name_H-M   'P 1'
_cell_length_a   3.53057042
_cell_length_b   10.43413300
_cell_length_c   15.61111898
_cell_angle_alpha   90.00000000
_cell_angle_beta   90.00000000
_cell_angle_gamma   99.74036096
_symmetry_Int_Tables_number   1
_chemical_formula_structural   SiP
_chemical_formula_sum   'Si12 P12'
_cell_volume   566.79911102
_cell_formula_units_Z   12
loop_
 _symmetry_equiv_pos_site_id
 _symmetry_equiv_pos_as_xyz
  1  'x, y, z'
loop_
 _atom_site_type_symbol
 _atom_site_label
 _atom_site_symmetry_multiplicity
 _atom_site_fract_x
 _atom_site_fract_y
 _atom_site_fract_z
 _atom_site_occupancy
  Si  Si0  1  0.17121994  0.34243989  0.73995791  1
  Si  Si1  1  0.82878006  0.65756011  0.23995791  1
  Si  Si2  1  0.05987476  0.11974952  0.77715401  1
  Si  Si3  1  0.94012524  0.88025048  0.27715401  1
  Si  Si4  1  0.43565525  0.87131051  0.69024943  1
  Si  Si5  1  0.56434475  0.12868949  0.19024943  1
  Si  Si6  1  0.43272918  0.86545836  0.84090202  1
  Si  Si7  1  0.56727082  0.13454164  0.34090202  1
  Si  Si8  1  0.79534854  0.59069708  0.82692342  1
  Si  Si9  1  0.20465146  0.40930292  0.32692342  1
  Si  Si10  1  0.79832900  0.59665799  0.67628861  1
  Si  Si11  1  0.20167100  0.40334201  0.17628861  1
  P  P12  1  0.99987669  0.99975338  0.65236082  1
  P  P13  1  0.00012331  0.00024662  0.15236082  1
  P  P14  1  0.23114247  0.46228494  0.86484930  1
  P  P15  1  0.76885753  0.53771506  0.36484930  1
  P  P16  1  0.34482299  0.68964598  0.60711351  1
  P  P17  1  0.65517701  0.31035402  0.10711351  1
  P  P18  1  0.54142549  0.08285099  0.86735556  1
  P  P19  1  0.45857451  0.91714901  0.36735556  1
  P  P20  1  0.68965512  0.37931024  0.64976168  1
  P  P21  1  0.31034488  0.62068976  0.14976168  1
  P  P22  1  0.88619692  0.77239384  0.91004373  1
  P  P23  1  0.11380308  0.22760616  0.41004373  1
