# generated using pymatgen
data_Ti2PCl13
_symmetry_space_group_name_H-M   'P 1'
_cell_length_a   11.13969066
_cell_length_b   12.12928630
_cell_length_c   30.16591942
_cell_angle_alpha   90.00000000
_cell_angle_beta   90.00000000
_cell_angle_gamma   90.00000000
_symmetry_Int_Tables_number   1
_chemical_formula_structural   Ti2PCl13
_chemical_formula_sum   'Ti16 P8 Cl104'
_cell_volume   4075.91337012
_cell_formula_units_Z   8
loop_
 _symmetry_equiv_pos_site_id
 _symmetry_equiv_pos_as_xyz
  1  'x, y, z'
loop_
 _atom_site_type_symbol
 _atom_site_label
 _atom_site_symmetry_multiplicity
 _atom_site_fract_x
 _atom_site_fract_y
 _atom_site_fract_z
 _atom_site_occupancy
  P  P0  1  0.25000000  0.73134324  0.30409175  1
  P  P1  1  0.75000000  0.26865676  0.69590825  1
  P  P2  1  0.75000000  0.23134324  0.19590825  1
  P  P3  1  0.25000000  0.76865676  0.80409175  1
  P  P4  1  0.25000000  0.30729953  0.45788006  1
  P  P5  1  0.75000000  0.69270047  0.54211994  1
  P  P6  1  0.75000000  0.80729953  0.04211994  1
  P  P7  1  0.25000000  0.19270047  0.95788006  1
  Cl  Cl8  1  0.25000000  0.13603943  0.34224412  1
  Cl  Cl9  1  0.75000000  0.86396057  0.65775588  1
  Cl  Cl10  1  0.75000000  0.63603943  0.15775588  1
  Cl  Cl11  1  0.25000000  0.36396057  0.84224412  1
  Cl  Cl12  1  0.25000000  0.29373308  0.20029749  1
  Cl  Cl13  1  0.75000000  0.70626692  0.79970251  1
  Cl  Cl14  1  0.75000000  0.79373308  0.29970251  1
  Cl  Cl15  1  0.25000000  0.20626692  0.70029749  1
  Cl  Cl16  1  0.09843235  0.35068629  0.29545806  1
  Cl  Cl17  1  0.59843235  0.64931371  0.70454194  1
  Cl  Cl18  1  0.90156765  0.85068629  0.20454194  1
  Cl  Cl19  1  0.40156765  0.14931371  0.79545806  1
  Cl  Cl20  1  0.90156765  0.64931371  0.70454194  1
  Cl  Cl21  1  0.40156765  0.35068629  0.29545806  1
  Cl  Cl22  1  0.09843235  0.14931371  0.79545806  1
  Cl  Cl23  1  0.59843235  0.85068629  0.20454194  1
  Cl  Cl24  1  0.10646658  0.09937105  0.24553728  1
  Cl  Cl25  1  0.60646658  0.90062895  0.75446272  1
  Cl  Cl26  1  0.89353342  0.59937105  0.25446272  1
  Cl  Cl27  1  0.39353342  0.40062895  0.74553728  1
  Cl  Cl28  1  0.89353342  0.90062895  0.75446272  1
  Cl  Cl29  1  0.39353342  0.09937105  0.24553728  1
  Cl  Cl30  1  0.10646658  0.40062895  0.74553728  1
  Cl  Cl31  1  0.60646658  0.59937105  0.25446272  1
  Cl  Cl32  1  0.09837174  0.11373374  0.13333302  1
  Cl  Cl33  1  0.59837174  0.88626626  0.86666698  1
  Cl  Cl34  1  0.90162826  0.61373374  0.36666698  1
  Cl  Cl35  1  0.40162826  0.38626626  0.63333302  1
  Cl  Cl36  1  0.90162826  0.88626626  0.86666698  1
  Cl  Cl37  1  0.40162826  0.11373374  0.13333302  1
  Cl  Cl38  1  0.09837174  0.38626626  0.63333302  1
  Cl  Cl39  1  0.59837174  0.61373374  0.36666698  1
  Cl  Cl40  1  0.25000000  0.90698871  0.18495743  1
  Cl  Cl41  1  0.75000000  0.09301129  0.81504257  1
  Cl  Cl42  1  0.75000000  0.40698871  0.31504257  1
  Cl  Cl43  1  0.25000000  0.59301129  0.68495743  1
  Cl  Cl44  1  0.25000000  0.40503816  0.08717049  1
  Cl  Cl45  1  0.75000000  0.59496184  0.91282951  1
  Cl  Cl46  1  0.75000000  0.90503816  0.41282951  1
  Cl  Cl47  1  0.25000000  0.09496184  0.58717049  1
  Cl  Cl48  1  0.25000000  0.79236744  0.06937357  1
  Cl  Cl49  1  0.75000000  0.20763256  0.93062643  1
  Cl  Cl50  1  0.75000000  0.29236744  0.43062643  1
  Cl  Cl51  1  0.25000000  0.70763256  0.56937357  1
  Cl  Cl52  1  0.09778745  0.61449481  0.13722917  1
  Cl  Cl53  1  0.59778745  0.38550519  0.86277083  1
  Cl  Cl54  1  0.90221255  0.11449481  0.36277083  1
  Cl  Cl55  1  0.40221255  0.88550519  0.63722917  1
  Cl  Cl56  1  0.90221255  0.38550519  0.86277083  1
  Cl  Cl57  1  0.40221255  0.61449481  0.13722917  1
  Cl  Cl58  1  0.09778745  0.88550519  0.63722917  1
  Cl  Cl59  1  0.59778745  0.11449481  0.36277083  1
  Cl  Cl60  1  0.10688253  0.59590261  0.02539842  1
  Cl  Cl61  1  0.60688253  0.40409739  0.97460158  1
  Cl  Cl62  1  0.89311747  0.09590261  0.47460158  1
  Cl  Cl63  1  0.39311747  0.90409739  0.52539842  1
  Cl  Cl64  1  0.89311747  0.40409739  0.97460158  1
  Cl  Cl65  1  0.39311747  0.59590261  0.02539842  1
  Cl  Cl66  1  0.10688253  0.90409739  0.52539842  1
  Cl  Cl67  1  0.60688253  0.09590261  0.47460158  1
  Cl  Cl68  1  0.09871592  0.84369174  0.97350519  1
  Cl  Cl69  1  0.59871592  0.15630826  0.02649481  1
  Cl  Cl70  1  0.90128408  0.34369174  0.52649481  1
  Cl  Cl71  1  0.40128408  0.65630826  0.47350519  1
  Cl  Cl72  1  0.90128408  0.15630826  0.02649481  1
  Cl  Cl73  1  0.40128408  0.84369174  0.97350519  1
  Cl  Cl74  1  0.09871592  0.65630826  0.47350519  1
  Cl  Cl75  1  0.59871592  0.34369174  0.52649481  1
  Cl  Cl76  1  0.25000000  0.62648021  0.92847052  1
  Cl  Cl77  1  0.75000000  0.37351979  0.07152948  1
  Cl  Cl78  1  0.75000000  0.12648021  0.57152948  1
  Cl  Cl79  1  0.25000000  0.87351979  0.42847052  1
  Cl  Cl80  1  0.10679503  0.82349518  0.30766129  1
  Cl  Cl81  1  0.60679503  0.17650482  0.69233871  1
  Cl  Cl82  1  0.89320497  0.32349518  0.19233871  1
  Cl  Cl83  1  0.39320497  0.67650482  0.80766129  1
  Cl  Cl84  1  0.89320497  0.17650482  0.69233871  1
  Cl  Cl85  1  0.39320497  0.82349518  0.30766129  1
  Cl  Cl86  1  0.10679503  0.67650482  0.80766129  1
  Cl  Cl87  1  0.60679503  0.32349518  0.19233871  1
  Cl  Cl88  1  0.25000000  0.62637114  0.35344538  1
  Cl  Cl89  1  0.75000000  0.37362886  0.64655462  1
  Cl  Cl90  1  0.75000000  0.12637114  0.14655462  1
  Cl  Cl91  1  0.25000000  0.87362886  0.85344538  1
  Cl  Cl92  1  0.25000000  0.64943778  0.24832242  1
  Cl  Cl93  1  0.75000000  0.35056222  0.75167758  1
  Cl  Cl94  1  0.75000000  0.14943778  0.25167758  1
  Cl  Cl95  1  0.25000000  0.85056222  0.74832242  1
  Cl  Cl96  1  0.10672296  0.35165194  0.42473363  1
  Cl  Cl97  1  0.60672296  0.64834806  0.57526637  1
  Cl  Cl98  1  0.89327704  0.85165194  0.07526637  1
  Cl  Cl99  1  0.39327704  0.14834806  0.92473363  1
  Cl  Cl100  1  0.89327704  0.64834806  0.57526637  1
  Cl  Cl101  1  0.39327704  0.35165194  0.42473363  1
  Cl  Cl102  1  0.10672296  0.14834806  0.92473363  1
  Cl  Cl103  1  0.60672296  0.85165194  0.07526637  1
  Cl  Cl104  1  0.25000000  0.37948620  0.51590421  1
  Cl  Cl105  1  0.75000000  0.62051380  0.48409579  1
  Cl  Cl106  1  0.75000000  0.87948620  0.98409579  1
  Cl  Cl107  1  0.25000000  0.12051380  0.01590421  1
  Cl  Cl108  1  0.25000000  0.14787517  0.46587029  1
  Cl  Cl109  1  0.75000000  0.85212483  0.53412971  1
  Cl  Cl110  1  0.75000000  0.64787517  0.03412971  1
  Cl  Cl111  1  0.25000000  0.35212483  0.96587029  1
  Ti  Ti112  1  0.25000000  0.23591624  0.27961916  1
  Ti  Ti113  1  0.75000000  0.76408376  0.72038084  1
  Ti  Ti114  1  0.75000000  0.73591624  0.22038084  1
  Ti  Ti115  1  0.25000000  0.26408376  0.77961916  1
  Ti  Ti116  1  0.25000000  0.09023265  0.18152483  1
  Ti  Ti117  1  0.75000000  0.90976735  0.81847517  1
  Ti  Ti118  1  0.75000000  0.59023265  0.31847517  1
  Ti  Ti119  1  0.25000000  0.40976735  0.68152483  1
  Ti  Ti120  1  0.25000000  0.58823302  0.09026462  1
  Ti  Ti121  1  0.75000000  0.41176698  0.90973538  1
  Ti  Ti122  1  0.75000000  0.08823302  0.40973538  1
  Ti  Ti123  1  0.25000000  0.91176698  0.59026462  1
  Ti  Ti124  1  0.25000000  0.72792686  0.99108148  1
  Ti  Ti125  1  0.75000000  0.27207314  0.00891852  1
  Ti  Ti126  1  0.75000000  0.22792686  0.50891852  1
  Ti  Ti127  1  0.25000000  0.77207314  0.49108148  1
