# generated using pymatgen
data_K(SnSe2)2
_symmetry_space_group_name_H-M   'P 1'
_cell_length_a   6.63515264
_cell_length_b   7.61575193
_cell_length_c   10.26388823
_cell_angle_alpha   88.21231261
_cell_angle_beta   71.14174505
_cell_angle_gamma   84.46154472
_symmetry_Int_Tables_number   1
_chemical_formula_structural   K(SnSe2)2
_chemical_formula_sum   'K2 Sn4 Se8'
_cell_volume   488.51956510
_cell_formula_units_Z   2
loop_
 _symmetry_equiv_pos_site_id
 _symmetry_equiv_pos_as_xyz
  1  'x, y, z'
loop_
 _atom_site_type_symbol
 _atom_site_label
 _atom_site_symmetry_multiplicity
 _atom_site_fract_x
 _atom_site_fract_y
 _atom_site_fract_z
 _atom_site_occupancy
  K  K0  1  0.96926029  0.03434399  0.68593342  1
  K  K1  1  0.65519371  0.03434399  0.31406658  1
  Se  Se2  1  0.88624584  0.54030288  0.61877198  1
  Se  Se3  1  0.50501782  0.54030288  0.38122802  1
  Se  Se4  1  0.63268022  0.87846385  0.00000000  1
  Se  Se5  1  0.04393896  0.64812125  0.19511969  1
  Se  Se6  1  0.62768018  0.33123117  0.00000000  1
  Se  Se7  1  0.46982221  0.12276086  0.67339870  1
  Se  Se8  1  0.14322091  0.12276086  0.32660130  1
  Se  Se9  1  0.23905865  0.64812125  0.80488031  1
  Sn  Sn10  1  0.41123973  0.62375794  0.00000000  1
  Sn  Sn11  1  0.14035667  0.44351626  0.37679993  1
  Sn  Sn12  1  0.51715661  0.44351626  0.62320007  1
  Sn  Sn13  1  0.31212820  0.13185653  0.00000000  1
