# generated using pymatgen
data_Tl2S5
_symmetry_space_group_name_H-M   'P 1'
_cell_length_a   6.85989000
_cell_length_b   6.98707670
_cell_length_c   17.07764905
_cell_angle_alpha   90.00000000
_cell_angle_beta   90.00000000
_cell_angle_gamma   90.00000000
_symmetry_Int_Tables_number   1
_chemical_formula_structural   Tl2S5
_chemical_formula_sum   'Tl8 S20'
_cell_volume   818.54158274
_cell_formula_units_Z   4
loop_
 _symmetry_equiv_pos_site_id
 _symmetry_equiv_pos_as_xyz
  1  'x, y, z'
loop_
 _atom_site_type_symbol
 _atom_site_label
 _atom_site_symmetry_multiplicity
 _atom_site_fract_x
 _atom_site_fract_y
 _atom_site_fract_z
 _atom_site_occupancy
  S  S0  1  0.95527195  0.74743675  0.83024258  1
  S  S1  1  0.45527195  0.75256325  0.16975742  1
  S  S2  1  0.04472805  0.24743675  0.66975742  1
  S  S3  1  0.54472805  0.25256325  0.33024258  1
  S  S4  1  0.24031757  0.81759517  0.85562730  1
  S  S5  1  0.74031757  0.68240483  0.14437270  1
  S  S6  1  0.75968243  0.31759517  0.64437270  1
  S  S7  1  0.25968243  0.18240483  0.35562730  1
  S  S8  1  0.92363477  0.57805646  0.47462396  1
  S  S9  1  0.42363477  0.92194354  0.52537604  1
  S  S10  1  0.07636523  0.07805646  0.02537604  1
  S  S11  1  0.57636523  0.42194354  0.97462396  1
  S  S12  1  0.07718092  0.62817474  0.37343936  1
  S  S13  1  0.57718092  0.87182526  0.62656064  1
  S  S14  1  0.92281908  0.12817474  0.12656064  1
  S  S15  1  0.42281908  0.37182526  0.87343936  1
  S  S16  1  0.07424295  0.37972901  0.30461975  1
  S  S17  1  0.57424295  0.12027099  0.69538025  1
  S  S18  1  0.92575705  0.87972901  0.19538025  1
  S  S19  1  0.42575705  0.62027099  0.80461975  1
  Tl  Tl20  1  0.43070077  0.19164447  0.14766425  1
  Tl  Tl21  1  0.93070077  0.30835553  0.85233575  1
  Tl  Tl22  1  0.56929923  0.69164447  0.35233575  1
  Tl  Tl23  1  0.06929923  0.80835553  0.64766425  1
  Tl  Tl24  1  0.20190032  0.61019248  0.03199321  1
  Tl  Tl25  1  0.70190032  0.88980752  0.96800679  1
  Tl  Tl26  1  0.79809968  0.11019248  0.46800679  1
  Tl  Tl27  1  0.29809968  0.38980752  0.53199321  1
