# generated using pymatgen
data_CsHgCl3
_symmetry_space_group_name_H-M   'P 1'
_cell_length_a   13.71152014
_cell_length_b   13.71152014
_cell_length_c   9.69073734
_cell_angle_alpha   90.00000000
_cell_angle_beta   90.00000000
_cell_angle_gamma   120.00000000
_symmetry_Int_Tables_number   1
_chemical_formula_structural   CsHgCl3
_chemical_formula_sum   'Cs9 Hg9 Cl27'
_cell_volume   1577.82439392
_cell_formula_units_Z   9
loop_
 _symmetry_equiv_pos_site_id
 _symmetry_equiv_pos_as_xyz
  1  'x, y, z'
loop_
 _atom_site_type_symbol
 _atom_site_label
 _atom_site_symmetry_multiplicity
 _atom_site_fract_x
 _atom_site_fract_y
 _atom_site_fract_z
 _atom_site_occupancy
  Cl  Cl0  1  0.22800003  0.28359734  0.13938754  1
  Cl  Cl1  1  0.05559731  0.77199997  0.47272088  1
  Cl  Cl2  1  0.71640266  0.94440269  0.80605421  1
  Cl  Cl3  1  0.04773652  0.44632659  0.16370533  1
  Cl  Cl4  1  0.39859007  0.95226348  0.49703866  1
  Cl  Cl5  1  0.55367341  0.60140993  0.83037200  1
  Cl  Cl6  1  0.39587662  0.25560899  0.79813274  1
  Cl  Cl7  1  0.85973237  0.60412338  0.13146607  1
  Cl  Cl8  1  0.74439101  0.14026763  0.46479941  1
  Cl  Cl9  1  0.07342483  0.08713956  0.82935679  1
  Cl  Cl10  1  0.01371473  0.92657517  0.16269012  1
  Cl  Cl11  1  0.91286044  0.98628527  0.49602346  1
  Cl  Cl12  1  0.34202092  0.07873254  0.13268716  1
  Cl  Cl13  1  0.73671162  0.65797908  0.46602049  1
  Cl  Cl14  1  0.92126746  0.26328838  0.79935382  1
  Cl  Cl15  1  0.42467929  0.44901471  0.48717735  1
  Cl  Cl16  1  0.02433542  0.57532071  0.82051069  1
  Cl  Cl17  1  0.55098529  0.97566458  0.15384402  1
  Cl  Cl18  1  0.39547137  0.76746038  0.86687612  1
  Cl  Cl19  1  0.23253962  0.62801099  0.53354279  1
  Cl  Cl20  1  0.37198901  0.60452863  0.20020946  1
  Cl  Cl21  1  0.68765372  0.79066869  0.15360658  1
  Cl  Cl22  1  0.20933131  0.89698503  0.82027325  1
  Cl  Cl23  1  0.10301497  0.31234628  0.48693991  1
  Cl  Cl24  1  0.55700477  0.27276248  0.41278524  1
  Cl  Cl25  1  0.72723752  0.28424228  0.07945191  1
  Cl  Cl26  1  0.71575772  0.44299523  0.74611858  1
  Cs  Cs27  1  0.55060772  0.44759707  0.13559583  1
  Cs  Cs28  1  0.89698934  0.44939228  0.46892917  1
  Cs  Cs29  1  0.55240293  0.10301066  0.80226250  1
  Cs  Cs30  1  0.23132822  0.44526245  0.82790650  1
  Cs  Cs31  1  0.21393423  0.76867178  0.16123983  1
  Cs  Cs32  1  0.55473755  0.78606577  0.49457316  1
  Cs  Cs33  1  0.22757889  0.11022992  0.47665330  1
  Cs  Cs34  1  0.88265103  0.77242111  0.80998663  1
  Cs  Cs35  1  0.88977008  0.11734897  0.14331996  1
  Hg  Hg36  1  0.22685275  0.11626871  0.97801157  1
  Hg  Hg37  1  0.88941596  0.77314725  0.31134490  1
  Hg  Hg38  1  0.88373129  0.11058404  0.64467823  1
  Hg  Hg39  1  0.55180954  0.44104804  0.65246051  1
  Hg  Hg40  1  0.88923850  0.44819046  0.98579384  1
  Hg  Hg41  1  0.55895196  0.11076150  0.31912718  1
  Hg  Hg42  1  0.21856887  0.43994302  0.30750744  1
  Hg  Hg43  1  0.22137415  0.78143113  0.64084077  1
  Hg  Hg44  1  0.56005698  0.77862585  0.97417410  1
