# generated using pymatgen
data_Er2(SeO3)3
_symmetry_space_group_name_H-M   'P 1'
_cell_length_a   7.05326903
_cell_length_b   8.09715481
_cell_length_c   9.04767746
_cell_angle_alpha   71.55650043
_cell_angle_beta   70.04556666
_cell_angle_gamma   66.06132850
_symmetry_Int_Tables_number   1
_chemical_formula_structural   Er2(SeO3)3
_chemical_formula_sum   'Er4 Se6 O18'
_cell_volume   434.30210444
_cell_formula_units_Z   2
loop_
 _symmetry_equiv_pos_site_id
 _symmetry_equiv_pos_as_xyz
  1  'x, y, z'
loop_
 _atom_site_type_symbol
 _atom_site_label
 _atom_site_symmetry_multiplicity
 _atom_site_fract_x
 _atom_site_fract_y
 _atom_site_fract_z
 _atom_site_occupancy
  O  O0  1  0.65054899  0.79139140  0.04982260  1
  O  O1  1  0.34945101  0.20860860  0.95017740  1
  O  O2  1  0.36015283  0.94462683  0.30488591  1
  O  O3  1  0.63984717  0.05537317  0.69511409  1
  O  O4  1  0.51759951  0.59392153  0.35225905  1
  O  O5  1  0.48240049  0.40607847  0.64774095  1
  O  O6  1  0.16702444  0.56528367  0.12094971  1
  O  O7  1  0.83297556  0.43471633  0.87905029  1
  O  O8  1  0.40898615  0.71080340  0.84855395  1
  O  O9  1  0.59101385  0.28919660  0.15144605  1
  O  O10  1  0.34493115  0.25316991  0.43530725  1
  O  O11  1  0.65506885  0.74683009  0.56469275  1
  O  O12  1  0.96675872  0.29327303  0.44455040  1
  O  O13  1  0.03324128  0.70672697  0.55544960  1
  O  O14  1  0.15987473  0.01110747  0.65366837  1
  O  O15  1  0.84012527  0.98889253  0.34633163  1
  O  O16  1  0.93289381  0.30608544  0.16892355  1
  O  O17  1  0.06710619  0.69391456  0.83107645  1
  Se  Se18  1  0.42728360  0.77524756  0.19806455  1
  Se  Se19  1  0.57271640  0.22475244  0.80193545  1
  Se  Se20  1  0.14735406  0.75008009  0.96529690  1
  Se  Se21  1  0.85264594  0.24991991  0.03470310  1
  Se  Se22  1  0.88627459  0.76001761  0.41448091  1
  Se  Se23  1  0.11372541  0.23998239  0.58551909  1
  Er  Er24  1  0.33450760  0.72667350  0.59079201  1
  Er  Er25  1  0.66549240  0.27332650  0.40920799  1
  Er  Er26  1  0.74195093  0.73588425  0.79738067  1
  Er  Er27  1  0.25804907  0.26411575  0.20261933  1
