# generated using pymatgen
data_TmAg2
_symmetry_space_group_name_H-M   'P 1'
_cell_length_a   3.71193807
_cell_length_b   3.71193807
_cell_length_c   5.28630172
_cell_angle_alpha   110.55401460
_cell_angle_beta   110.55401463
_cell_angle_gamma   89.99999995
_symmetry_Int_Tables_number   1
_chemical_formula_structural   TmAg2
_chemical_formula_sum   'Tm1 Ag2'
_cell_volume   63.22469414
_cell_formula_units_Z   1
loop_
 _symmetry_equiv_pos_site_id
 _symmetry_equiv_pos_as_xyz
  1  'x, y, z'
loop_
 _atom_site_type_symbol
 _atom_site_label
 _atom_site_symmetry_multiplicity
 _atom_site_fract_x
 _atom_site_fract_y
 _atom_site_fract_z
 _atom_site_occupancy
  Ag  Ag0  1  0.33164379  0.33164379  0.66328757  1
  Ag  Ag1  1  0.66835621  0.66835621  0.33671243  1
  Tm  Tm2  1  0.00000000  0.00000000  0.00000000  1
