# generated using pymatgen
data_Li3CoO2F
_symmetry_space_group_name_H-M   'P 1'
_cell_length_a   5.18730197
_cell_length_b   5.35511268
_cell_length_c   5.91941071
_cell_angle_alpha   63.05202226
_cell_angle_beta   91.41571436
_cell_angle_gamma   93.53101208
_symmetry_Int_Tables_number   1
_chemical_formula_structural   Li3CoO2F
_chemical_formula_sum   'Li6 Co2 O4 F2'
_cell_volume   146.29926076
_cell_formula_units_Z   2
loop_
 _symmetry_equiv_pos_site_id
 _symmetry_equiv_pos_as_xyz
  1  'x, y, z'
loop_
 _atom_site_type_symbol
 _atom_site_label
 _atom_site_symmetry_multiplicity
 _atom_site_fract_x
 _atom_site_fract_y
 _atom_site_fract_z
 _atom_site_occupancy
  Li  Li0  1  0.06816142  0.72186503  0.51158175  1
  Li  Li1  1  0.14905813  0.79588508  0.00357943  1
  Li  Li2  1  0.40273557  0.28671527  0.69792831  1
  Li  Li3  1  0.59726443  0.71328473  0.30207169  1
  Li  Li4  1  0.85094187  0.20411492  0.99642057  1
  Li  Li5  1  0.93183858  0.27813497  0.48841825  1
  Co  Co6  1  0.38347949  0.22003888  0.30471886  1
  Co  Co7  1  0.61652051  0.77996112  0.69528114  1
  O  O8  1  0.25054721  0.53114676  0.34152768  1
  O  O9  1  0.27522028  0.93009234  0.65925435  1
  O  O10  1  0.72477972  0.06990766  0.34074565  1
  O  O11  1  0.74945279  0.46885324  0.65847232  1
  F  F12  1  0.22134395  0.17856868  0.00429389  1
  F  F13  1  0.77865605  0.82143132  0.99570611  1
