# generated using pymatgen
data_EuSbO4
_symmetry_space_group_name_H-M   'P 1'
_cell_length_a   5.50787688
_cell_length_b   7.66061701
_cell_length_c   7.79584055
_cell_angle_alpha   99.90408501
_cell_angle_beta   90.00000000
_cell_angle_gamma   90.00000000
_symmetry_Int_Tables_number   1
_chemical_formula_structural   EuSbO4
_chemical_formula_sum   'Eu4 Sb4 O16'
_cell_volume   324.03352649
_cell_formula_units_Z   4
loop_
 _symmetry_equiv_pos_site_id
 _symmetry_equiv_pos_as_xyz
  1  'x, y, z'
loop_
 _atom_site_type_symbol
 _atom_site_label
 _atom_site_symmetry_multiplicity
 _atom_site_fract_x
 _atom_site_fract_y
 _atom_site_fract_z
 _atom_site_occupancy
  Eu  Eu0  1  0.22770578  0.60475204  0.85219664  1
  Eu  Eu1  1  0.27229422  0.10475204  0.85219664  1
  Eu  Eu2  1  0.72770578  0.89524796  0.14780336  1
  Eu  Eu3  1  0.77229422  0.39524796  0.14780336  1
  Sb  Sb4  1  0.23165945  0.69695291  0.33841747  1
  Sb  Sb5  1  0.26834055  0.19695291  0.33841747  1
  Sb  Sb6  1  0.73165945  0.80304709  0.66158253  1
  Sb  Sb7  1  0.76834055  0.30304709  0.66158253  1
  O  O8  1  0.36594863  0.94233089  0.33106498  1
  O  O9  1  0.00226092  0.87185382  0.82825409  1
  O  O10  1  0.63405137  0.05766911  0.66893502  1
  O  O11  1  0.50226092  0.62814618  0.17174591  1
  O  O12  1  0.86594863  0.55766911  0.66893502  1
  O  O13  1  0.47658776  0.17263225  0.12056172  1
  O  O14  1  0.02341224  0.67263225  0.12056172  1
  O  O15  1  0.49773908  0.37185382  0.82825409  1
  O  O16  1  0.99773908  0.12814618  0.17174591  1
  O  O17  1  0.52341224  0.82736775  0.87943828  1
  O  O18  1  0.97658776  0.32736775  0.87943828  1
  O  O19  1  0.41024581  0.69842600  0.56215025  1
  O  O20  1  0.13405137  0.44233089  0.33106498  1
  O  O21  1  0.58975419  0.30157400  0.43784975  1
  O  O22  1  0.08975419  0.19842600  0.56215025  1
  O  O23  1  0.91024581  0.80157400  0.43784975  1
