# generated using pymatgen
data_Li3Mn3NiO8
_symmetry_space_group_name_H-M   'P 1'
_cell_length_a   5.81080630
_cell_length_b   5.81080615
_cell_length_c   9.49562845
_cell_angle_alpha   89.68053367
_cell_angle_beta   89.68053954
_cell_angle_gamma   119.13746633
_symmetry_Int_Tables_number   1
_chemical_formula_structural   Li3Mn3NiO8
_chemical_formula_sum   'Li6 Mn6 Ni2 O16'
_cell_volume   280.03365553
_cell_formula_units_Z   2
loop_
 _symmetry_equiv_pos_site_id
 _symmetry_equiv_pos_as_xyz
  1  'x, y, z'
loop_
 _atom_site_type_symbol
 _atom_site_label
 _atom_site_symmetry_multiplicity
 _atom_site_fract_x
 _atom_site_fract_y
 _atom_site_fract_z
 _atom_site_occupancy
  Li  Li0  1  0.83185346  0.17853190  0.55615892  1
  Li  Li1  1  0.82910729  0.65084212  0.55626683  1
  Li  Li2  1  0.34788661  0.17582926  0.55602496  1
  Li  Li3  1  0.65084212  0.82910629  0.05626783  1
  Li  Li4  1  0.17582626  0.34788661  0.05602496  1
  Li  Li5  1  0.17853090  0.83185446  0.05615792  1
  Mn  Mn6  1  0.83262444  0.16693445  0.28624216  1
  Mn  Mn7  1  0.83261446  0.66501496  0.28542357  1
  Mn  Mn8  1  0.33569780  0.16802708  0.28537118  1
  Mn  Mn9  1  0.66501496  0.83261446  0.78542357  1
  Mn  Mn10  1  0.16802708  0.33569780  0.78537118  1
  Mn  Mn11  1  0.16693445  0.83262444  0.78624216  1
  Ni  Ni12  1  0.66437835  0.32951642  0.00697153  1
  Ni  Ni13  1  0.32951642  0.66437835  0.50697153  1
  O  O14  1  0.83774094  0.15085834  0.89658599  1
  O  O15  1  0.96997235  0.48357477  0.16390386  1
  O  O16  1  0.84235492  0.68376851  0.89823732  1
  O  O17  1  0.69755221  0.34851986  0.40580082  1
  O  O18  1  0.52153042  0.03439634  0.16675915  1
  O  O19  1  0.51937705  0.48835088  0.16437220  1
  O  O20  1  0.68376851  0.84235492  0.39823732  1
  O  O21  1  0.30932542  0.15048340  0.89968770  1
  O  O22  1  0.48835088  0.51937705  0.66437220  1
  O  O23  1  0.48357477  0.96997235  0.66390386  1
  O  O24  1  0.98445795  0.96946704  0.67084782  1
  O  O25  1  0.34851986  0.69755221  0.90580082  1
  O  O26  1  0.96946704  0.98445795  0.17084782  1
  O  O27  1  0.15048340  0.30932542  0.39968770  1
  O  O28  1  0.03439634  0.52153042  0.66675915  1
  O  O29  1  0.15085834  0.83774094  0.39658599  1
