# generated using pymatgen
data_KTaN2
_symmetry_space_group_name_H-M   'P 1'
_cell_length_a   5.99214429
_cell_length_b   12.02712538
_cell_length_c   16.69091003
_cell_angle_alpha   90.00000000
_cell_angle_beta   90.00000000
_cell_angle_gamma   90.00000000
_symmetry_Int_Tables_number   1
_chemical_formula_structural   KTaN2
_chemical_formula_sum   'K16 Ta16 N32'
_cell_volume   1202.88502179
_cell_formula_units_Z   16
loop_
 _symmetry_equiv_pos_site_id
 _symmetry_equiv_pos_as_xyz
  1  'x, y, z'
loop_
 _atom_site_type_symbol
 _atom_site_label
 _atom_site_symmetry_multiplicity
 _atom_site_fract_x
 _atom_site_fract_y
 _atom_site_fract_z
 _atom_site_occupancy
  K  K0  1  0.73985971  0.99419530  0.43720248  1
  K  K1  1  0.23985971  0.50580470  0.56279752  1
  K  K2  1  0.26014029  0.49419530  0.06279752  1
  K  K3  1  0.76014029  0.00580470  0.93720248  1
  K  K4  1  0.26014029  0.00580470  0.56279752  1
  K  K5  1  0.76014029  0.49419530  0.43720248  1
  K  K6  1  0.73985971  0.50580470  0.93720248  1
  K  K7  1  0.23985971  0.99419530  0.06279752  1
  K  K8  1  0.81049860  0.26135672  0.31229378  1
  K  K9  1  0.31049860  0.23864328  0.68770622  1
  K  K10  1  0.18950140  0.76135672  0.18770622  1
  K  K11  1  0.68950140  0.73864328  0.81229378  1
  K  K12  1  0.18950140  0.73864328  0.68770622  1
  K  K13  1  0.68950140  0.76135672  0.31229378  1
  K  K14  1  0.81049860  0.23864328  0.81229378  1
  K  K15  1  0.31049860  0.26135672  0.18770622  1
  Ta  Ta16  1  0.22857433  0.01193470  0.31248990  1
  Ta  Ta17  1  0.72857433  0.48806530  0.68751010  1
  Ta  Ta18  1  0.77142567  0.51193470  0.18751010  1
  Ta  Ta19  1  0.27142567  0.98806530  0.81248990  1
  Ta  Ta20  1  0.77142567  0.98806530  0.68751010  1
  Ta  Ta21  1  0.27142567  0.51193470  0.31248990  1
  Ta  Ta22  1  0.22857433  0.48806530  0.81248990  1
  Ta  Ta23  1  0.72857433  0.01193470  0.18751010  1
  Ta  Ta24  1  0.29233317  0.26724721  0.43775898  1
  Ta  Ta25  1  0.79233317  0.23275279  0.56224102  1
  Ta  Ta26  1  0.70766683  0.76724721  0.06224102  1
  Ta  Ta27  1  0.20766683  0.73275279  0.93775898  1
  Ta  Ta28  1  0.70766683  0.73275279  0.56224102  1
  Ta  Ta29  1  0.20766683  0.76724721  0.43775898  1
  Ta  Ta30  1  0.29233317  0.23275279  0.93775898  1
  Ta  Ta31  1  0.79233317  0.26724721  0.06224102  1
  N  N32  1  0.60409948  0.27398869  0.47152628  1
  N  N33  1  0.10409948  0.22601131  0.52847372  1
  N  N34  1  0.39590052  0.77398869  0.02847372  1
  N  N35  1  0.89590052  0.72601131  0.97152628  1
  N  N36  1  0.39590052  0.72601131  0.52847372  1
  N  N37  1  0.89590052  0.77398869  0.47152628  1
  N  N38  1  0.60409948  0.22601131  0.97152628  1
  N  N39  1  0.10409948  0.27398869  0.02847372  1
  N  N40  1  0.19921268  0.41404705  0.40207520  1
  N  N41  1  0.69921268  0.08595295  0.59792480  1
  N  N42  1  0.80078732  0.91404705  0.09792480  1
  N  N43  1  0.30078732  0.58595295  0.90207520  1
  N  N44  1  0.80078732  0.58595295  0.59792480  1
  N  N45  1  0.30078732  0.91404705  0.40207520  1
  N  N46  1  0.19921268  0.08595295  0.90207520  1
  N  N47  1  0.69921268  0.41404705  0.09792480  1
  N  N48  1  0.25835736  0.16558854  0.34737502  1
  N  N49  1  0.75835736  0.33441146  0.65262498  1
  N  N50  1  0.74164264  0.66558854  0.15262498  1
  N  N51  1  0.24164264  0.83441146  0.84737502  1
  N  N52  1  0.74164264  0.83441146  0.65262498  1
  N  N53  1  0.24164264  0.66558854  0.34737502  1
  N  N54  1  0.25835736  0.33441146  0.84737502  1
  N  N55  1  0.75835736  0.16558854  0.15262498  1
  N  N56  1  0.07662405  0.48323830  0.22134347  1
  N  N57  1  0.57662405  0.01676170  0.77865653  1
  N  N58  1  0.92337595  0.98323830  0.27865653  1
  N  N59  1  0.42337595  0.51676170  0.72134347  1
  N  N60  1  0.92337595  0.51676170  0.77865653  1
  N  N61  1  0.42337595  0.98323830  0.22134347  1
  N  N62  1  0.07662405  0.01676170  0.72134347  1
  N  N63  1  0.57662405  0.48323830  0.27865653  1
