# generated using pymatgen
data_Sc2TeO6
_symmetry_space_group_name_H-M   'P 1'
_cell_length_a   8.84713483
_cell_length_b   8.84713516
_cell_length_c   4.86480116
_cell_angle_alpha   90.00000000
_cell_angle_beta   90.00000000
_cell_angle_gamma   119.99999881
_symmetry_Int_Tables_number   1
_chemical_formula_structural   Sc2TeO6
_chemical_formula_sum   'Sc6 Te3 O18'
_cell_volume   329.76232686
_cell_formula_units_Z   3
loop_
 _symmetry_equiv_pos_site_id
 _symmetry_equiv_pos_as_xyz
  1  'x, y, z'
loop_
 _atom_site_type_symbol
 _atom_site_label
 _atom_site_symmetry_multiplicity
 _atom_site_fract_x
 _atom_site_fract_y
 _atom_site_fract_z
 _atom_site_occupancy
  Sc  Sc0  1  0.29274148  0.00000000  0.50000000  1
  Sc  Sc1  1  0.62862163  0.00000000  0.00000000  1
  Sc  Sc2  1  0.70725852  0.70725852  0.50000000  1
  Sc  Sc3  1  1.00000000  0.62862163  0.00000000  1
  Sc  Sc4  1  0.37137837  0.37137837  0.00000000  1
  Sc  Sc5  1  1.00000000  0.29274148  0.50000000  1
  Te  Te6  1  0.00000000  0.00000000  0.00000000  1
  Te  Te7  1  0.66666700  0.33333300  0.49657360  1
  Te  Te8  1  0.33333300  0.66666700  0.50342640  1
  O  O9  1  0.87949934  0.09000279  0.21929128  1
  O  O10  1  0.45728296  0.58070201  0.72774161  1
  O  O11  1  0.22236204  0.76722217  0.28016646  1
  O  O12  1  0.76722217  0.22236204  0.71983354  1
  O  O13  1  0.54486013  0.77763796  0.28016646  1
  O  O14  1  0.23277783  0.45513987  0.28016646  1
  O  O15  1  0.12341906  0.54271704  0.72774161  1
  O  O16  1  0.58070201  0.45728296  0.27225839  1
  O  O17  1  0.54271704  0.12341906  0.27225839  1
  O  O18  1  0.87658094  0.41929799  0.27225839  1
  O  O19  1  0.45513987  0.23277783  0.71983354  1
  O  O20  1  0.21050345  0.12050066  0.21929128  1
  O  O21  1  0.90999721  0.78949655  0.21929128  1
  O  O22  1  0.12050066  0.21050345  0.78070872  1
  O  O23  1  0.78949655  0.90999721  0.78070872  1
  O  O24  1  0.09000279  0.87949934  0.78070872  1
  O  O25  1  0.41929799  0.87658094  0.72774161  1
  O  O26  1  0.77763796  0.54486013  0.71983354  1
