# generated using pymatgen
data_ReSbOF10
_symmetry_space_group_name_H-M   'P 1'
_cell_length_a   6.69807532
_cell_length_b   8.20329711
_cell_length_c   8.22039497
_cell_angle_alpha   94.51177053
_cell_angle_beta   90.00000000
_cell_angle_gamma   90.00000000
_symmetry_Int_Tables_number   1
_chemical_formula_structural   ReSbOF10
_chemical_formula_sum   'Re2 Sb2 O2 F20'
_cell_volume   450.28063458
_cell_formula_units_Z   2
loop_
 _symmetry_equiv_pos_site_id
 _symmetry_equiv_pos_as_xyz
  1  'x, y, z'
loop_
 _atom_site_type_symbol
 _atom_site_label
 _atom_site_symmetry_multiplicity
 _atom_site_fract_x
 _atom_site_fract_y
 _atom_site_fract_z
 _atom_site_occupancy
  Re  Re0  1  0.01098595  0.19195683  0.18972065  1
  Re  Re1  1  0.01098595  0.80804317  0.81027935  1
  Sb  Sb2  1  0.51354987  0.67074160  0.32512607  1
  Sb  Sb3  1  0.51354987  0.32925840  0.67487393  1
  O  O4  1  0.02639461  0.65677249  0.66005392  1
  O  O5  1  0.02639461  0.34322751  0.33994608  1
  F  F6  1  0.28212445  0.23840073  0.56845518  1
  F  F7  1  0.00673882  0.98379365  0.68323243  1
  F  F8  1  0.98931070  0.00000000  0.00000000  1
  F  F9  1  0.34991329  0.51841872  0.19990909  1
  F  F10  1  0.01355887  0.68254642  0.98713017  1
  F  F11  1  0.28047331  0.84515530  0.84323424  1
  F  F12  1  0.50801489  0.50000000  0.50000000  1
  F  F13  1  0.73678384  0.17967262  0.17304656  1
  F  F14  1  0.00673882  0.01620635  0.31676757  1
  F  F15  1  0.51778968  0.82617159  0.16624366  1
  F  F16  1  0.74432025  0.44206122  0.75908793  1
  F  F17  1  0.28047331  0.15484470  0.15676576  1
  F  F18  1  0.67750426  0.79640651  0.47663364  1
  F  F19  1  0.01355887  0.31745358  0.01286983  1
  F  F20  1  0.73678384  0.82032738  0.82695344  1
  F  F21  1  0.51778968  0.17382841  0.83375634  1
  F  F22  1  0.67750426  0.20359349  0.52336636  1
  F  F23  1  0.34991329  0.48158128  0.80009091  1
  F  F24  1  0.74432025  0.55793878  0.24091207  1
  F  F25  1  0.28212445  0.76159927  0.43154482  1
