# generated using pymatgen
data_V3O7
_symmetry_space_group_name_H-M   'P 1'
_cell_length_a   10.92799815
_cell_length_b   10.92799798
_cell_length_c   9.76275517
_cell_angle_alpha   89.99994471
_cell_angle_beta   90.00005784
_cell_angle_gamma   59.99864388
_symmetry_Int_Tables_number   1
_chemical_formula_structural   V3O7
_chemical_formula_sum   'V18 O42'
_cell_volume   1009.66735324
_cell_formula_units_Z   6
loop_
 _symmetry_equiv_pos_site_id
 _symmetry_equiv_pos_as_xyz
  1  'x, y, z'
loop_
 _atom_site_type_symbol
 _atom_site_label
 _atom_site_symmetry_multiplicity
 _atom_site_fract_x
 _atom_site_fract_y
 _atom_site_fract_z
 _atom_site_occupancy
  V  V0  1  0.11650153  0.19089040  0.70206140  1
  V  V1  1  0.15647293  0.15803492  0.35166449  1
  V  V2  1  0.20041922  0.11932695  0.00096558  1
  V  V3  1  0.11931589  0.68026998  0.00096787  1
  V  V4  1  0.15801862  0.68550143  0.35165910  1
  V  V5  1  0.19087904  0.69262237  0.70206052  1
  V  V6  1  0.30737763  0.80912096  0.20206052  1
  V  V7  1  0.31449757  0.84198138  0.85165910  1
  V  V8  1  0.69261567  0.11649661  0.70205496  1
  V  V9  1  0.31973002  0.88068411  0.50096787  1
  V  V10  1  0.68550020  0.15647046  0.35165638  1
  V  V11  1  0.68027428  0.20041089  0.00096393  1
  V  V12  1  0.79958911  0.31972572  0.50096393  1
  V  V13  1  0.84352954  0.31449980  0.85165638  1
  V  V14  1  0.88350339  0.30738433  0.20205496  1
  V  V15  1  0.80910960  0.88349847  0.20206140  1
  V  V16  1  0.84196508  0.84352707  0.85166449  1
  V  V17  1  0.88067305  0.79958078  0.50096558  1
  O  O18  1  0.07594227  0.17735737  0.16943190  1
  O  O19  1  0.03448929  0.25343852  0.88795293  1
  O  O20  1  0.17392411  0.08284721  0.53595267  1
  O  O21  1  0.25252067  0.03526784  0.80771243  1
  O  O22  1  0.15692996  0.30960451  0.66829154  1
  O  O23  1  0.24176376  0.24086530  0.35199620  1
  O  O24  1  0.03525558  0.71223254  0.80771174  1
  O  O25  1  0.31945793  0.15804364  0.04204533  1
  O  O26  1  0.15803584  0.52253563  0.04203234  1
  O  O27  1  0.08283176  0.74323380  0.53594994  1
  O  O28  1  0.24084830  0.51737905  0.35198045  1
  O  O29  1  0.17733845  0.74672712  0.16943428  1
  O  O30  1  0.30958883  0.53347966  0.66829600  1
  O  O31  1  0.53346838  0.15693340  0.66828566  1
  O  O32  1  0.25343340  0.71208733  0.88795253  1
  O  O33  1  0.51737527  0.24176787  0.35198010  1
  O  O34  1  0.25327288  0.82266155  0.66943428  1
  O  O35  1  0.28791267  0.74656660  0.38795253  1
  O  O36  1  0.52253089  0.31943801  0.04202748  1
  O  O37  1  0.25676620  0.91716824  0.03594994  1
  O  O38  1  0.71206914  0.03448694  0.88795083  1
  O  O39  1  0.28776746  0.96474442  0.30771174  1
  O  O40  1  0.74671311  0.07593321  0.16943132  1
  O  O41  1  0.46652034  0.69041117  0.16829600  1
  O  O42  1  0.71223729  0.25250282  0.80770816  1
  O  O43  1  0.74323336  0.17392318  0.53594892  1
  O  O44  1  0.48262095  0.75915170  0.85198045  1
  O  O45  1  0.74749718  0.28776271  0.30770816  1
  O  O46  1  0.47746437  0.84196416  0.54203234  1
  O  O47  1  0.68056199  0.47746911  0.54202748  1
  O  O48  1  0.82607682  0.25676664  0.03594892  1
  O  O49  1  0.75823213  0.48262473  0.85198010  1
  O  O50  1  0.92406679  0.25328789  0.66943132  1
  O  O51  1  0.84306660  0.46653162  0.16828566  1
  O  O52  1  0.69039549  0.84307004  0.16829154  1
  O  O53  1  0.96551306  0.28793086  0.38795083  1
  O  O54  1  0.75913470  0.75823624  0.85199620  1
  O  O55  1  0.84195636  0.68054207  0.54204533  1
  O  O56  1  0.74656148  0.96551071  0.38795293  1
  O  O57  1  0.82264263  0.92405773  0.66943190  1
  O  O58  1  0.96473216  0.74747933  0.30771243  1
  O  O59  1  0.91715279  0.82607589  0.03595267  1
