# generated using pymatgen
data_NiH12SO10
_symmetry_space_group_name_H-M   'P 1'
_cell_length_a   6.81737076
_cell_length_b   6.81737076
_cell_length_c   18.43761005
_cell_angle_alpha   90.00000000
_cell_angle_beta   90.00000000
_cell_angle_gamma   90.00000000
_symmetry_Int_Tables_number   1
_chemical_formula_structural   NiH12SO10
_chemical_formula_sum   'Ni4 H48 S4 O40'
_cell_volume   856.91639621
_cell_formula_units_Z   4
loop_
 _symmetry_equiv_pos_site_id
 _symmetry_equiv_pos_as_xyz
  1  'x, y, z'
loop_
 _atom_site_type_symbol
 _atom_site_label
 _atom_site_symmetry_multiplicity
 _atom_site_fract_x
 _atom_site_fract_y
 _atom_site_fract_z
 _atom_site_occupancy
  Ni  Ni0  1  0.28826456  0.71173544  0.25000000  1
  Ni  Ni1  1  0.78826456  0.78826456  0.50000000  1
  Ni  Ni2  1  0.71173544  0.28826456  0.75000000  1
  Ni  Ni3  1  0.21173544  0.21173544  0.00000000  1
  H  H4  1  0.42822197  0.85539522  0.54427960  1
  H  H5  1  0.14460478  0.57177803  0.95572040  1
  H  H6  1  0.50731568  0.96884796  0.18335501  1
  H  H7  1  0.57820526  0.64895036  0.70834386  1
  H  H8  1  0.64895036  0.57820526  0.29165614  1
  H  H9  1  0.72582600  0.01309277  0.38247749  1
  H  H10  1  0.58239453  0.75474964  0.34599725  1
  H  H11  1  0.22582600  0.48690723  0.36752251  1
  H  H12  1  0.07177803  0.35539522  0.70572040  1
  H  H13  1  0.53630010  0.37605664  0.05840119  1
  H  H14  1  0.41760547  0.24525036  0.84599725  1
  H  H15  1  0.03115204  0.49268432  0.31664499  1
  H  H16  1  0.77417400  0.51309277  0.86752251  1
  H  H17  1  0.48690723  0.22582600  0.63247749  1
  H  H18  1  0.08239453  0.74525036  0.40400275  1
  H  H19  1  0.53115204  0.00731568  0.43335501  1
  H  H20  1  0.00731568  0.53115204  0.56664499  1
  H  H21  1  0.25474964  0.91760547  0.09599725  1
  H  H22  1  0.96369990  0.87605664  0.19159881  1
  H  H23  1  0.14895036  0.92179474  0.45834386  1
  H  H24  1  0.57177803  0.14460478  0.04427960  1
  H  H25  1  0.46369990  0.62394336  0.55840119  1
  H  H26  1  0.35104964  0.42179474  0.79165614  1
  H  H27  1  0.51309277  0.77417400  0.13247749  1
  H  H28  1  0.01309277  0.72582600  0.61752251  1
  H  H29  1  0.92822197  0.64460478  0.20572040  1
  H  H30  1  0.74525036  0.08239453  0.59599725  1
  H  H31  1  0.85104964  0.07820526  0.95834386  1
  H  H32  1  0.37605664  0.53630010  0.94159881  1
  H  H33  1  0.62394336  0.46369990  0.44159881  1
  H  H34  1  0.35539522  0.07177803  0.29427960  1
  H  H35  1  0.03630010  0.12394336  0.69159881  1
  H  H36  1  0.49268432  0.03115204  0.68335501  1
  H  H37  1  0.27417400  0.98690723  0.88247749  1
  H  H38  1  0.42179474  0.35104964  0.20834386  1
  H  H39  1  0.85539522  0.42822197  0.45572040  1
  H  H40  1  0.96884796  0.50731568  0.81664499  1
  H  H41  1  0.46884796  0.99268432  0.93335501  1
  H  H42  1  0.87605664  0.96369990  0.80840119  1
  H  H43  1  0.24525036  0.41760547  0.15400275  1
  H  H44  1  0.12394336  0.03630010  0.30840119  1
  H  H45  1  0.64460478  0.92822197  0.79427960  1
  H  H46  1  0.75474964  0.58239453  0.65400275  1
  H  H47  1  0.98690723  0.27417400  0.11752251  1
  H  H48  1  0.92179474  0.14895036  0.54165614  1
  H  H49  1  0.91760547  0.25474964  0.90400275  1
  H  H50  1  0.07820526  0.85104964  0.04165614  1
  H  H51  1  0.99268432  0.46884796  0.06664499  1
  S  S52  1  0.70790088  0.70790088  0.00000000  1
  S  S53  1  0.29209912  0.29209912  0.50000000  1
  S  S54  1  0.20790088  0.79209912  0.75000000  1
  S  S55  1  0.79209912  0.20790088  0.25000000  1
  O  O56  1  0.25541433  0.97347872  0.30675207  1
  O  O57  1  0.85943244  0.42808692  0.83648682  1
  O  O58  1  0.17928345  0.95128666  0.05187478  1
  O  O59  1  0.88863618  0.12574717  0.18400405  1
  O  O60  1  0.14056756  0.57191308  0.33648682  1
  O  O61  1  0.17179246  0.57552057  0.75476968  1
  O  O62  1  0.42808692  0.85943244  0.16351318  1
  O  O63  1  0.37425283  0.38863618  0.43400405  1
  O  O64  1  0.42447943  0.82820754  0.74523032  1
  O  O65  1  0.62574717  0.61136382  0.93400405  1
  O  O66  1  0.52652128  0.75541433  0.55675207  1
  O  O67  1  0.47347872  0.24458567  0.05675207  1
  O  O68  1  0.67179246  0.92447943  0.99523032  1
  O  O69  1  0.95128666  0.17928345  0.94812522  1
  O  O70  1  0.75541433  0.52652128  0.44324793  1
  O  O71  1  0.61136382  0.62574717  0.06599595  1
  O  O72  1  0.07552057  0.32820754  0.50476968  1
  O  O73  1  0.57552057  0.17179246  0.24523032  1
  O  O74  1  0.04871334  0.82071655  0.44812522  1
  O  O75  1  0.32071655  0.45128666  0.19812522  1
  O  O76  1  0.02652128  0.74458567  0.19324793  1
  O  O77  1  0.64056756  0.92808692  0.41351318  1
  O  O78  1  0.97347872  0.25541433  0.69324793  1
  O  O79  1  0.87425283  0.11136382  0.31599595  1
  O  O80  1  0.35943244  0.07191308  0.91351318  1
  O  O81  1  0.24458567  0.47347872  0.94324793  1
  O  O82  1  0.12574717  0.88863618  0.81599595  1
  O  O83  1  0.92447943  0.67179246  0.00476968  1
  O  O84  1  0.74458567  0.02652128  0.80675207  1
  O  O85  1  0.11136382  0.87425283  0.68400405  1
  O  O86  1  0.57191308  0.14056756  0.66351318  1
  O  O87  1  0.54871334  0.67928345  0.30187478  1
  O  O88  1  0.38863618  0.37425283  0.56599595  1
  O  O89  1  0.82820754  0.42447943  0.25476968  1
  O  O90  1  0.92808692  0.64056756  0.58648682  1
  O  O91  1  0.82071655  0.04871334  0.55187478  1
  O  O92  1  0.45128666  0.32071655  0.80187478  1
  O  O93  1  0.32820754  0.07552057  0.49523032  1
  O  O94  1  0.67928345  0.54871334  0.69812522  1
  O  O95  1  0.07191308  0.35943244  0.08648682  1
