# generated using pymatgen
data_H9BrO4
_symmetry_space_group_name_H-M   'P 1'
_cell_length_a   7.04670103
_cell_length_b   11.58779684
_cell_length_c   7.37337513
_cell_angle_alpha   90.11110105
_cell_angle_beta   111.68283741
_cell_angle_gamma   89.06786330
_symmetry_Int_Tables_number   1
_chemical_formula_structural   H9BrO4
_chemical_formula_sum   'H36 Br4 O16'
_cell_volume   559.39790235
_cell_formula_units_Z   4
loop_
 _symmetry_equiv_pos_site_id
 _symmetry_equiv_pos_as_xyz
  1  'x, y, z'
loop_
 _atom_site_type_symbol
 _atom_site_label
 _atom_site_symmetry_multiplicity
 _atom_site_fract_x
 _atom_site_fract_y
 _atom_site_fract_z
 _atom_site_occupancy
  H  H0  1  0.32910752  0.33502628  0.01901474  1
  H  H1  1  0.20438859  0.25157293  0.84257660  1
  H  H2  1  0.90616842  0.76304285  0.99655635  1
  H  H3  1  0.67884452  0.82670888  0.02534166  1
  H  H4  1  0.96454873  0.18307748  0.15157814  1
  H  H5  1  0.80235462  0.25381053  0.95586728  1
  H  H6  1  0.07452440  0.26671909  0.03527606  1
  H  H7  1  0.01851649  0.68742700  0.85182724  1
  H  H8  1  0.18369029  0.75728920  0.03249266  1
  H  H9  1  0.56547501  0.16078325  0.80067591  1
  H  H10  1  0.63611774  0.24395120  0.66622111  1
  H  H11  1  0.44795375  0.66564910  0.19791696  1
  H  H12  1  0.38153423  0.75360112  0.32844024  1
  H  H13  1  0.62052102  0.17476317  0.38070273  1
  H  H14  1  0.63985492  0.31185814  0.36894545  1
  H  H15  1  0.07568725  0.74189981  0.48117825  1
  H  H16  1  0.36830049  0.81552844  0.64368151  1
  H  H17  1  0.38487633  0.67816071  0.62413449  1
  H  H18  1  0.12830902  0.15817377  0.53602969  1
  H  H19  1  0.94690264  0.23821472  0.53915151  1
  H  H20  1  0.82247342  0.74292452  0.20325761  1
  H  H21  1  0.90349182  0.65741099  0.49263443  1
  H  H22  1  0.16348095  0.44138044  0.34040033  1
  H  H23  1  0.19718331  0.33169478  0.51192427  1
  H  H24  1  0.35343176  0.44862544  0.56506714  1
  H  H25  1  0.64272164  0.94689889  0.44189197  1
  H  H26  1  0.80818447  0.83131402  0.50435518  1
  H  H27  1  0.83297634  0.94238012  0.66832702  1
  H  H28  1  0.50092345  0.52423035  0.84458713  1
  H  H29  1  0.62635142  0.53424532  0.70532402  1
  H  H30  1  0.49667239  0.02441381  0.15948892  1
  H  H31  1  0.36522866  0.03474755  0.29298180  1
  H  H32  1  0.02488060  0.50676937  0.05560395  1
  H  H33  1  0.88352138  0.50350955  0.17780796  1
  H  H34  1  0.97367231  0.00115340  0.94829262  1
  H  H35  1  0.10959605  0.00442251  0.82111322  1
  Br  Br36  1  0.94190010  0.51229596  0.71381724  1
  Br  Br37  1  0.04729356  0.01156071  0.28717073  1
  Br  Br38  1  0.55373864  0.47916156  0.15837343  1
  Br  Br39  1  0.45018319  0.97842045  0.85033967  1
  O  O40  1  0.24528791  0.26442354  0.98561283  1
  O  O41  1  0.76809452  0.75694741  0.05617424  1
  O  O42  1  0.94296873  0.25909520  0.07981578  1
  O  O43  1  0.03866892  0.76130389  0.92631422  1
  O  O44  1  0.61317042  0.23993562  0.79207103  1
  O  O45  1  0.39896083  0.74628680  0.20175630  1
  O  O46  1  0.69101436  0.24373871  0.45470686  1
  O  O47  1  0.31933710  0.75019464  0.55261814  1
  O  O48  1  0.10084544  0.23244067  0.58869526  1
  O  O49  1  0.92121493  0.73222319  0.43533843  1
  O  O50  1  0.26798545  0.39287847  0.45770951  1
  O  O51  1  0.73051501  0.89254472  0.55269477  1
  O  O52  1  0.48519573  0.54139376  0.70716484  1
  O  O53  1  0.50790026  0.04046754  0.29601113  1
  O  O54  1  0.02663303  0.51775031  0.18930917  1
  O  O55  1  0.96731191  0.01754912  0.81421326  1
