# generated using pymatgen
data_Tl2GePbS4
_symmetry_space_group_name_H-M   'P 1'
_cell_length_a   9.05353361
_cell_length_b   9.24236673
_cell_length_c   10.66282574
_cell_angle_alpha   90.00000000
_cell_angle_beta   94.18786207
_cell_angle_gamma   90.00000000
_symmetry_Int_Tables_number   1
_chemical_formula_structural   Tl2GePbS4
_chemical_formula_sum   'Tl8 Ge4 Pb4 S16'
_cell_volume   889.84117301
_cell_formula_units_Z   4
loop_
 _symmetry_equiv_pos_site_id
 _symmetry_equiv_pos_as_xyz
  1  'x, y, z'
loop_
 _atom_site_type_symbol
 _atom_site_label
 _atom_site_symmetry_multiplicity
 _atom_site_fract_x
 _atom_site_fract_y
 _atom_site_fract_z
 _atom_site_occupancy
  Tl  Tl0  1  0.44056394  0.69240143  0.94672301  1
  Tl  Tl1  1  0.94056394  0.80759857  0.94672301  1
  Tl  Tl2  1  0.55943606  0.30759857  0.05327699  1
  Tl  Tl3  1  0.90053492  0.60805311  0.22877781  1
  Tl  Tl4  1  0.59946508  0.10805311  0.77122219  1
  Tl  Tl5  1  0.09946508  0.39194689  0.77122219  1
  Tl  Tl6  1  0.05943606  0.19240143  0.05327699  1
  Tl  Tl7  1  0.40053492  0.89194689  0.22877781  1
  Ge  Ge8  1  0.29217790  0.47343423  0.26085530  1
  Ge  Ge9  1  0.79217790  0.02656577  0.26085530  1
  Ge  Ge10  1  0.70782210  0.52656577  0.73914470  1
  Ge  Ge11  1  0.20782210  0.97343423  0.73914470  1
  Pb  Pb12  1  0.60192888  0.30627824  0.44616931  1
  Pb  Pb13  1  0.89807112  0.80627824  0.55383069  1
  Pb  Pb14  1  0.10192888  0.19372176  0.44616931  1
  Pb  Pb15  1  0.39807112  0.69372176  0.55383069  1
  S  S16  1  0.97747143  0.06086352  0.70567750  1
  S  S17  1  0.67701023  0.96491862  0.07947843  1
  S  S18  1  0.47747143  0.43913648  0.70567750  1
  S  S19  1  0.31640325  0.22846773  0.26614706  1
  S  S20  1  0.16040883  0.53122915  0.42385691  1
  S  S21  1  0.32298977  0.03508138  0.92052157  1
  S  S22  1  0.83959117  0.46877085  0.57614309  1
  S  S23  1  0.82298977  0.46491862  0.92052157  1
  S  S24  1  0.02252857  0.93913648  0.29432250  1
  S  S25  1  0.18359675  0.72846773  0.73385294  1
  S  S26  1  0.81640325  0.27153227  0.26614706  1
  S  S27  1  0.68359675  0.77153227  0.73385294  1
  S  S28  1  0.33959117  0.03122915  0.57614309  1
  S  S29  1  0.17701023  0.53508138  0.07947843  1
  S  S30  1  0.52252857  0.56086352  0.29432250  1
  S  S31  1  0.66040883  0.96877085  0.42385691  1
