# generated using pymatgen
data_Mg4P6SN12
_symmetry_space_group_name_H-M   'P 1'
_cell_length_a   7.22610479
_cell_length_b   7.22610480
_cell_length_c   7.22610479
_cell_angle_alpha   109.47122064
_cell_angle_beta   109.47122066
_cell_angle_gamma   109.47122062
_symmetry_Int_Tables_number   1
_chemical_formula_structural   Mg4P6SN12
_chemical_formula_sum   'Mg4 P6 S1 N12'
_cell_volume   290.46303792
_cell_formula_units_Z   1
loop_
 _symmetry_equiv_pos_site_id
 _symmetry_equiv_pos_as_xyz
  1  'x, y, z'
loop_
 _atom_site_type_symbol
 _atom_site_label
 _atom_site_symmetry_multiplicity
 _atom_site_fract_x
 _atom_site_fract_y
 _atom_site_fract_z
 _atom_site_occupancy
  N  N0  1  0.43925622  0.00000000  0.72533017  1
  N  N1  1  0.27466983  0.27466983  0.71392605  1
  N  N2  1  0.56074378  0.28607395  0.56074378  1
  N  N3  1  0.28607395  0.56074378  0.56074378  1
  N  N4  1  0.56074378  0.56074378  0.28607395  1
  N  N5  1  0.43925622  0.72533017  0.00000000  1
  N  N6  1  0.72533017  0.43925622  0.00000000  1
  N  N7  1  0.00000000  0.72533017  0.43925622  1
  N  N8  1  0.71392605  0.27466983  0.27466983  1
  N  N9  1  0.27466983  0.71392605  0.27466983  1
  N  N10  1  0.72533017  0.00000000  0.43925622  1
  N  N11  1  0.00000000  0.43925622  0.72533017  1
  Mg  Mg12  1  0.34239348  0.34239348  0.34239348  1
  Mg  Mg13  1  0.00000000  0.00000000  0.65760652  1
  Mg  Mg14  1  0.00000000  0.65760652  0.00000000  1
  Mg  Mg15  1  0.65760652  0.00000000  0.00000000  1
  P  P16  1  0.75000000  0.50000000  0.25000000  1
  P  P17  1  0.25000000  0.50000000  0.75000000  1
  P  P18  1  0.50000000  0.75000000  0.25000000  1
  P  P19  1  0.75000000  0.25000000  0.50000000  1
  P  P20  1  0.25000000  0.75000000  0.50000000  1
  P  P21  1  0.50000000  0.25000000  0.75000000  1
  S  S22  1  0.00000000  0.00000000  0.00000000  1
