# generated using pymatgen
data_NbTe2(SeI3)2
_symmetry_space_group_name_H-M   'P 1'
_cell_length_a   11.54993673
_cell_length_b   12.30994585
_cell_length_c   15.90818912
_cell_angle_alpha   98.11624603
_cell_angle_beta   95.68527621
_cell_angle_gamma   117.71363558
_symmetry_Int_Tables_number   1
_chemical_formula_structural   NbTe2(SeI3)2
_chemical_formula_sum   'Nb4 Te8 Se8 I24'
_cell_volume   1946.96085714
_cell_formula_units_Z   4
loop_
 _symmetry_equiv_pos_site_id
 _symmetry_equiv_pos_as_xyz
  1  'x, y, z'
loop_
 _atom_site_type_symbol
 _atom_site_label
 _atom_site_symmetry_multiplicity
 _atom_site_fract_x
 _atom_site_fract_y
 _atom_site_fract_z
 _atom_site_occupancy
  Nb  Nb0  1  0.66418982  0.41588721  0.25022300  1
  Nb  Nb1  1  0.52942403  0.49155721  0.75049841  1
  Nb  Nb2  1  0.33581018  0.58411279  0.74977700  1
  Nb  Nb3  1  0.47057597  0.50844279  0.24950159  1
  Te  Te4  1  0.45517148  0.22548458  0.73927903  1
  Te  Te5  1  0.59380647  0.15240390  0.24797025  1
  Te  Te6  1  0.95095499  0.57572858  0.25394064  1
  Te  Te7  1  0.81797993  0.65159117  0.76219564  1
  Te  Te8  1  0.40619353  0.84759610  0.75202975  1
  Te  Te9  1  0.54482852  0.77451542  0.26072097  1
  Te  Te10  1  0.18202007  0.34840883  0.23780436  1
  Te  Te11  1  0.04904501  0.42427142  0.74605936  1
  Se  Se12  1  0.62530347  0.53465960  0.13359839  1
  Se  Se13  1  0.50839026  0.38875653  0.36550360  1
  Se  Se14  1  0.37469653  0.46534040  0.86640161  1
  Se  Se15  1  0.49160974  0.61124347  0.63449640  1
  Se  Se16  1  0.45327407  0.32991577  0.12671632  1
  Se  Se17  1  0.68055307  0.59324061  0.37318927  1
  Se  Se18  1  0.31944693  0.40675939  0.62681073  1
  Se  Se19  1  0.54672593  0.67008423  0.87328368  1
  I  I20  1  0.70635046  0.86781281  0.14014313  1
  I  I21  1  0.94345802  0.21853196  0.60518558  1
  I  I22  1  0.13991717  0.19926909  0.36051699  1
  I  I23  1  0.84168603  0.38076816  0.37967295  1
  I  I24  1  0.98315963  0.70413274  0.11828088  1
  I  I25  1  0.22307823  0.68791619  0.87863403  1
  I  I26  1  0.15831397  0.61923184  0.62032705  1
  I  I27  1  0.77692177  0.31208381  0.12136597  1
  I  I28  1  0.25803177  0.07697474  0.58989208  1
  I  I29  1  0.54256751  0.92402886  0.61681043  1
  I  I30  1  0.38152709  0.99683607  0.11100543  1
  I  I31  1  0.29364954  0.13218719  0.85985687  1
  I  I32  1  0.05654198  0.78146804  0.39481442  1
  I  I33  1  0.74196823  0.92302526  0.41010792  1
  I  I34  1  0.69754676  0.44422526  0.87866000  1
  I  I35  1  0.30245324  0.55577474  0.12134000  1
  I  I36  1  0.92627901  0.84718792  0.91272564  1
  I  I37  1  0.86008283  0.80073091  0.63948301  1
  I  I38  1  0.45743249  0.07597114  0.38318957  1
  I  I39  1  0.07372099  0.15281208  0.08727436  1
  I  I40  1  0.65039907  0.39577735  0.62289923  1
  I  I41  1  0.34960093  0.60422265  0.37710077  1
  I  I42  1  0.01684037  0.29586726  0.88171912  1
  I  I43  1  0.61847291  0.00316393  0.88899457  1
