# generated using pymatgen
data_GaAg(PSe3)2
_symmetry_space_group_name_H-M   'P 1'
_cell_length_a   7.72230930
_cell_length_b   12.33810953
_cell_length_c   23.04663075
_cell_angle_alpha   90.00000000
_cell_angle_beta   90.00000000
_cell_angle_gamma   90.00000000
_symmetry_Int_Tables_number   1
_chemical_formula_structural   GaAg(PSe3)2
_chemical_formula_sum   'Ga8 Ag8 P16 Se48'
_cell_volume   2195.85297041
_cell_formula_units_Z   8
loop_
 _symmetry_equiv_pos_site_id
 _symmetry_equiv_pos_as_xyz
  1  'x, y, z'
loop_
 _atom_site_type_symbol
 _atom_site_label
 _atom_site_symmetry_multiplicity
 _atom_site_fract_x
 _atom_site_fract_y
 _atom_site_fract_z
 _atom_site_occupancy
  Ga  Ga0  1  0.72941708  0.86439307  0.34218963  1
  Ga  Ga1  1  0.77058292  0.13560693  0.84218963  1
  Ga  Ga2  1  0.27058292  0.13560693  0.65781037  1
  Ga  Ga3  1  0.22941708  0.86439307  0.15781037  1
  Ga  Ga4  1  0.22941708  0.63560693  0.65781037  1
  Ga  Ga5  1  0.27058292  0.36439307  0.15781037  1
  Ga  Ga6  1  0.72941708  0.63560693  0.84218963  1
  Ga  Ga7  1  0.77058292  0.36439307  0.34218963  1
  Ag  Ag8  1  0.84253247  0.89956264  0.51645236  1
  Ag  Ag9  1  0.65746753  0.39956264  0.51645236  1
  Ag  Ag10  1  0.84253247  0.60043736  0.01645236  1
  Ag  Ag11  1  0.34253247  0.60043736  0.48354764  1
  Ag  Ag12  1  0.15746753  0.39956264  0.98354764  1
  Ag  Ag13  1  0.65746753  0.10043736  0.01645236  1
  Ag  Ag14  1  0.34253247  0.89956264  0.98354764  1
  Ag  Ag15  1  0.15746753  0.10043736  0.48354764  1
  P  P16  1  0.54503385  0.90122566  0.84334725  1
  P  P17  1  0.75825377  0.87010695  0.91248758  1
  P  P18  1  0.75825377  0.62989305  0.41248758  1
  P  P19  1  0.24174623  0.37010695  0.58751242  1
  P  P20  1  0.04503385  0.90122566  0.65665275  1
  P  P21  1  0.45496615  0.40122566  0.65665275  1
  P  P22  1  0.95496615  0.40122566  0.84334725  1
  P  P23  1  0.74174623  0.37010695  0.91248758  1
  P  P24  1  0.04503385  0.59877434  0.15665275  1
  P  P25  1  0.25825377  0.62989305  0.08751242  1
  P  P26  1  0.25825377  0.87010695  0.58751242  1
  P  P27  1  0.95496615  0.09877434  0.34334725  1
  P  P28  1  0.54503385  0.59877434  0.34334725  1
  P  P29  1  0.74174623  0.12989305  0.41248758  1
  P  P30  1  0.45496615  0.09877434  0.15665275  1
  P  P31  1  0.24174623  0.12989305  0.08751242  1
  Se  Se32  1  0.37066656  0.03644397  0.56923081  1
  Se  Se33  1  0.54418256  0.26681849  0.86794260  1
  Se  Se34  1  0.67365336  0.48905750  0.61999459  1
  Se  Se35  1  0.81395347  0.00578647  0.27397208  1
  Se  Se36  1  0.62933344  0.53644397  0.93076919  1
  Se  Se37  1  0.65102936  0.69610193  0.49279448  1
  Se  Se38  1  0.12933344  0.53644397  0.56923081  1
  Se  Se39  1  0.02509235  0.26298341  0.30856519  1
  Se  Se40  1  0.12933344  0.96355603  0.06923081  1
  Se  Se41  1  0.81395347  0.49421353  0.77397208  1
  Se  Se42  1  0.32634664  0.98905750  0.88000541  1
  Se  Se43  1  0.65102936  0.80389807  0.99279448  1
  Se  Se44  1  0.18604653  0.99421353  0.72602792  1
  Se  Se45  1  0.87066656  0.46355603  0.43076919  1
  Se  Se46  1  0.52509235  0.23701659  0.69143481  1
  Se  Se47  1  0.02509235  0.23701659  0.80856519  1
  Se  Se48  1  0.31395347  0.49421353  0.72602792  1
  Se  Se49  1  0.34897064  0.30389807  0.50720552  1
  Se  Se50  1  0.45581744  0.73318151  0.13205740  1
  Se  Se51  1  0.87066656  0.03644397  0.93076919  1
  Se  Se52  1  0.84897064  0.30389807  0.99279448  1
  Se  Se53  1  0.95581744  0.73318151  0.36794260  1
  Se  Se54  1  0.37066656  0.46355603  0.06923081  1
  Se  Se55  1  0.04418256  0.26681849  0.63205740  1
  Se  Se56  1  0.52509235  0.26298341  0.19143481  1
  Se  Se57  1  0.68604653  0.50578647  0.27397208  1
  Se  Se58  1  0.62933344  0.96355603  0.43076919  1
  Se  Se59  1  0.54418256  0.23318151  0.36794260  1
  Se  Se60  1  0.31395347  0.00578647  0.22602792  1
  Se  Se61  1  0.15102936  0.80389807  0.50720552  1
  Se  Se62  1  0.17365336  0.01094250  0.38000541  1
  Se  Se63  1  0.97490765  0.73701659  0.69143481  1
  Se  Se64  1  0.34897064  0.19610193  0.00720552  1
  Se  Se65  1  0.82634664  0.98905750  0.61999459  1
  Se  Se66  1  0.84897064  0.19610193  0.49279448  1
  Se  Se67  1  0.67365336  0.01094250  0.11999459  1
  Se  Se68  1  0.95581744  0.76681849  0.86794260  1
  Se  Se69  1  0.47490765  0.73701659  0.80856519  1
  Se  Se70  1  0.18604653  0.50578647  0.22602792  1
  Se  Se71  1  0.97490765  0.76298341  0.19143481  1
  Se  Se72  1  0.04418256  0.23318151  0.13205740  1
  Se  Se73  1  0.32634664  0.51094250  0.38000541  1
  Se  Se74  1  0.15102936  0.69610193  0.00720552  1
  Se  Se75  1  0.45581744  0.76681849  0.63205740  1
  Se  Se76  1  0.68604653  0.99421353  0.77397208  1
  Se  Se77  1  0.17365336  0.48905750  0.88000541  1
  Se  Se78  1  0.47490765  0.76298341  0.30856519  1
  Se  Se79  1  0.82634664  0.51094250  0.11999459  1
