# generated using pymatgen
data_Nb6SI9
_symmetry_space_group_name_H-M   'P 1'
_cell_length_a   10.35610087
_cell_length_b   10.81599687
_cell_length_c   11.99648903
_cell_angle_alpha   106.36864649
_cell_angle_beta   104.80129512
_cell_angle_gamma   112.62525645
_symmetry_Int_Tables_number   1
_chemical_formula_structural   Nb6SI9
_chemical_formula_sum   'Nb12 S2 I18'
_cell_volume   1084.96661026
_cell_formula_units_Z   2
loop_
 _symmetry_equiv_pos_site_id
 _symmetry_equiv_pos_as_xyz
  1  'x, y, z'
loop_
 _atom_site_type_symbol
 _atom_site_label
 _atom_site_symmetry_multiplicity
 _atom_site_fract_x
 _atom_site_fract_y
 _atom_site_fract_z
 _atom_site_occupancy
  Nb  Nb0  1  0.61274521  0.74100215  0.04359923  1
  Nb  Nb1  1  0.10618801  0.97887143  0.67619465  1
  Nb  Nb2  1  0.98316058  0.14781999  0.59066923  1
  Nb  Nb3  1  0.76382276  0.84367196  0.46860540  1
  Nb  Nb4  1  0.01683942  0.85218001  0.40933077  1
  Nb  Nb5  1  0.48199468  0.56168097  0.18738048  1
  Nb  Nb6  1  0.32079531  0.48513836  0.92812564  1
  Nb  Nb7  1  0.89381199  0.02112857  0.32380535  1
  Nb  Nb8  1  0.23617724  0.15632804  0.53139460  1
  Nb  Nb9  1  0.38725479  0.25899785  0.95640077  1
  Nb  Nb10  1  0.67920469  0.51486164  0.07187436  1
  Nb  Nb11  1  0.51800532  0.43831903  0.81261952  1
  S  S12  1  0.26141746  0.24272236  0.74907286  1
  S  S13  1  0.73858254  0.75727764  0.25092714  1
  I  I14  1  0.32275650  0.94318249  0.57599614  1
  I  I15  1  0.57393781  0.34706156  0.21560507  1
  I  I16  1  0.10369162  0.33107769  0.46315974  1
  I  I17  1  0.17816715  0.31412734  0.05648611  1
  I  I18  1  0.82183285  0.68587266  0.94351389  1
  I  I19  1  0.24073021  0.94741754  0.90269488  1
  I  I20  1  0.89630838  0.66892231  0.53684026  1
  I  I21  1  0.54270579  0.35727197  0.57093354  1
  I  I22  1  0.99303033  0.58236734  0.22750752  1
  I  I23  1  0.75926979  0.05258246  0.09730512  1
  I  I24  1  0.36985542  0.74864529  0.11888844  1
  I  I25  1  0.67724350  0.05681751  0.42400386  1
  I  I26  1  0.00696967  0.41763266  0.77249248  1
  I  I27  1  0.85688345  0.99407912  0.73663492  1
  I  I28  1  0.45729421  0.64272803  0.42906646  1
  I  I29  1  0.14311655  0.00592088  0.26336508  1
  I  I30  1  0.42606219  0.65293844  0.78439493  1
  I  I31  1  0.63014458  0.25135471  0.88111156  1
