# generated using pymatgen
data_K2MgSi5O12
_symmetry_space_group_name_H-M   'P 1'
_cell_length_a   13.23993445
_cell_length_b   13.35674812
_cell_length_c   13.83558030
_cell_angle_alpha   90.00000000
_cell_angle_beta   90.00000000
_cell_angle_gamma   91.77855579
_symmetry_Int_Tables_number   1
_chemical_formula_structural   K2MgSi5O12
_chemical_formula_sum   'K16 Mg8 Si40 O96'
_cell_volume   2445.53947401
_cell_formula_units_Z   8
loop_
 _symmetry_equiv_pos_site_id
 _symmetry_equiv_pos_as_xyz
  1  'x, y, z'
loop_
 _atom_site_type_symbol
 _atom_site_label
 _atom_site_symmetry_multiplicity
 _atom_site_fract_x
 _atom_site_fract_y
 _atom_site_fract_z
 _atom_site_occupancy
  K  K0  1  0.40537730  0.88535378  0.61085003  1
  K  K1  1  0.09462270  0.11464622  0.11085003  1
  K  K2  1  0.12483320  0.63206942  0.85961325  1
  K  K3  1  0.35395654  0.14644310  0.86835183  1
  K  K4  1  0.37516680  0.36793058  0.35961325  1
  K  K5  1  0.90537730  0.88535378  0.88914997  1
  K  K6  1  0.14828718  0.37087133  0.60416540  1
  K  K7  1  0.62483320  0.63206942  0.64038675  1
  K  K8  1  0.14604346  0.85355690  0.36835183  1
  K  K9  1  0.85171282  0.62912867  0.39583460  1
  K  K10  1  0.35171282  0.62912867  0.10416540  1
  K  K11  1  0.64604346  0.85355690  0.13164817  1
  K  K12  1  0.85395654  0.14644310  0.63164817  1
  K  K13  1  0.64828718  0.37087133  0.89583460  1
  K  K14  1  0.59462270  0.11464622  0.38914997  1
  K  K15  1  0.87516680  0.36793058  0.14038675  1
  Mg  Mg16  1  0.88945117  0.35708281  0.42952150  1
  Mg  Mg17  1  0.86900161  0.18547349  0.93484907  1
  Mg  Mg18  1  0.38945117  0.35708281  0.07047850  1
  Mg  Mg19  1  0.63099839  0.81452651  0.43484907  1
  Mg  Mg20  1  0.13099839  0.81452651  0.06515093  1
  Mg  Mg21  1  0.11054883  0.64291719  0.57047850  1
  Mg  Mg22  1  0.61054883  0.64291719  0.92952150  1
  Mg  Mg23  1  0.36900161  0.18547349  0.56515093  1
  Si  Si24  1  0.56842206  0.10924938  0.68018186  1
  Si  Si25  1  0.37578240  0.13083657  0.13840773  1
  Si  Si26  1  0.16273156  0.39256808  0.11091500  1
  Si  Si27  1  0.59653111  0.35644663  0.18464544  1
  Si  Si28  1  0.85027888  0.67673198  0.09827199  1
  Si  Si29  1  0.18663513  0.90582946  0.84912426  1
  Si  Si30  1  0.63084382  0.57628041  0.14258553  1
  Si  Si31  1  0.90295508  0.85005924  0.59613934  1
  Si  Si32  1  0.64972112  0.32326802  0.59827199  1
  Si  Si33  1  0.40346889  0.64355337  0.81535456  1
  Si  Si34  1  0.33726844  0.60743192  0.61091500  1
  Si  Si35  1  0.59704492  0.14994076  0.09613934  1
  Si  Si36  1  0.40295508  0.85005924  0.90386066  1
  Si  Si37  1  0.43157794  0.89075062  0.31981814  1
  Si  Si38  1  0.90346889  0.64355337  0.68464544  1
  Si  Si39  1  0.68663513  0.90582946  0.65087574  1
  Si  Si40  1  0.63641056  0.09929735  0.88904705  1
  Si  Si41  1  0.09653111  0.35644663  0.31535456  1
  Si  Si42  1  0.36915618  0.42371959  0.85741447  1
  Si  Si43  1  0.81336487  0.09417054  0.15087574  1
  Si  Si44  1  0.86915618  0.42371959  0.64258553  1
  Si  Si45  1  0.62421760  0.86916343  0.86159227  1
  Si  Si46  1  0.66273156  0.39256808  0.38908500  1
  Si  Si47  1  0.31336487  0.09417054  0.34912426  1
  Si  Si48  1  0.13084382  0.57628041  0.35741447  1
  Si  Si49  1  0.05247530  0.59134851  0.14010661  1
  Si  Si50  1  0.55247530  0.59134851  0.35989339  1
  Si  Si51  1  0.36358944  0.90070265  0.11095295  1
  Si  Si52  1  0.06842206  0.10924938  0.81981814  1
  Si  Si53  1  0.83726844  0.60743192  0.88908500  1
  Si  Si54  1  0.94752470  0.40865149  0.85989339  1
  Si  Si55  1  0.12421760  0.86916343  0.63840773  1
  Si  Si56  1  0.44752470  0.40865149  0.64010661  1
  Si  Si57  1  0.93157794  0.89075062  0.18018186  1
  Si  Si58  1  0.86358944  0.90070265  0.38904705  1
  Si  Si59  1  0.13641056  0.09929735  0.61095295  1
  Si  Si60  1  0.87578240  0.13083657  0.36159227  1
  Si  Si61  1  0.35027888  0.67673198  0.40172801  1
  Si  Si62  1  0.09704492  0.14994076  0.40386066  1
  Si  Si63  1  0.14972112  0.32326802  0.90172801  1
  O  O64  1  0.07340190  0.40534779  0.85756559  1
  O  O65  1  0.89582326  0.32990611  0.93170481  1
  O  O66  1  0.86091306  0.67774458  0.79219811  1
  O  O67  1  0.12900437  0.21170603  0.85769592  1
  O  O68  1  0.42766710  0.52543896  0.60953295  1
  O  O69  1  0.13364588  0.26786661  0.39151588  1
  O  O70  1  0.00102177  0.87711453  0.66409545  1
  O  O71  1  0.96150603  0.09211968  0.87101461  1
  O  O72  1  0.63727533  0.31494283  0.48068656  1
  O  O73  1  0.62254198  0.84311217  0.57353676  1
  O  O74  1  0.62900437  0.21170603  0.64230408  1
  O  O75  1  0.87745802  0.15688783  0.07353676  1
  O  O76  1  0.66368556  0.45708637  0.14881843  1
  O  O77  1  0.07233290  0.47456104  0.10953295  1
  O  O78  1  0.36091306  0.67774458  0.70780189  1
  O  O79  1  0.99897823  0.12288547  0.33590455  1
  O  O80  1  0.76645624  0.82895629  0.38150563  1
  O  O81  1  0.16368556  0.45708637  0.35118157  1
  O  O82  1  0.72576847  0.55996551  0.89471096  1
  O  O83  1  0.31039927  0.92103485  0.87042784  1
  O  O84  1  0.91432260  0.38930244  0.74721653  1
  O  O85  1  0.26254867  0.35616451  0.86676856  1
  O  O86  1  0.18960073  0.07896515  0.37042784  1
  O  O87  1  0.43487043  0.87339632  0.01591851  1
  O  O88  1  0.57233290  0.47456104  0.39046705  1
  O  O89  1  0.23745133  0.64383549  0.36676856  1
  O  O90  1  0.93487043  0.87339632  0.48408149  1
  O  O91  1  0.73354376  0.17104371  0.88150563  1
  O  O92  1  0.56512957  0.12660368  0.98408149  1
  O  O93  1  0.32099459  0.14992009  0.24321171  1
  O  O94  1  0.23354376  0.17104371  0.61849437  1
  O  O95  1  0.08567740  0.61069756  0.25278347  1
  O  O96  1  0.65175168  0.02286350  0.65895985  1
  O  O97  1  0.39582326  0.32990611  0.56829519  1
  O  O98  1  0.53849397  0.90788032  0.37101461  1
  O  O99  1  0.36635412  0.73213339  0.89151588  1
  O  O100  1  0.34954978  0.21352956  0.06040169  1
  O  O101  1  0.36272467  0.68505717  0.51931344  1
  O  O102  1  0.84824832  0.97713650  0.15895985  1
  O  O103  1  0.58567740  0.61069756  0.24721653  1
  O  O104  1  0.13908694  0.32225542  0.20780189  1
  O  O105  1  0.92659810  0.59465221  0.14243441  1
  O  O106  1  0.16519352  0.98062577  0.60086384  1
  O  O107  1  0.66519352  0.98062577  0.89913616  1
  O  O108  1  0.33631444  0.54291363  0.85118157  1
  O  O109  1  0.92766710  0.52543896  0.89046705  1
  O  O110  1  0.33480648  0.01937423  0.10086384  1
  O  O111  1  0.83480648  0.01937423  0.39913616  1
  O  O112  1  0.46150603  0.09211968  0.62898539  1
  O  O113  1  0.15175168  0.02286350  0.84104015  1
  O  O114  1  0.67900541  0.85007991  0.75678829  1
  O  O115  1  0.27423153  0.44003449  0.10528904  1
  O  O116  1  0.05527492  0.11563660  0.70090662  1
  O  O117  1  0.02187115  0.62896809  0.68300004  1
  O  O118  1  0.87099563  0.78829397  0.14230408  1
  O  O119  1  0.13727533  0.31494283  0.01931344  1
  O  O120  1  0.76254867  0.35616451  0.63323144  1
  O  O121  1  0.37099563  0.78829397  0.35769592  1
  O  O122  1  0.65045022  0.78647044  0.93959831  1
  O  O123  1  0.57340190  0.40534779  0.64243441  1
  O  O124  1  0.60417674  0.67009389  0.43170481  1
  O  O125  1  0.63908694  0.32225542  0.29219811  1
  O  O126  1  0.12254198  0.84311217  0.92646324  1
  O  O127  1  0.47812885  0.37103191  0.18300004  1
  O  O128  1  0.81039927  0.92103485  0.62957216  1
  O  O129  1  0.55615178  0.60318396  0.05682137  1
  O  O130  1  0.63364588  0.26786661  0.10848412  1
  O  O131  1  0.86635412  0.73213339  0.60848412  1
  O  O132  1  0.84954978  0.21352956  0.43959831  1
  O  O133  1  0.82099459  0.14992009  0.25678829  1
  O  O134  1  0.17900541  0.85007991  0.74321171  1
  O  O135  1  0.05615178  0.60318396  0.44317863  1
  O  O136  1  0.44472508  0.88436340  0.20090662  1
  O  O137  1  0.44384822  0.39681604  0.94317863  1
  O  O138  1  0.94472508  0.88436340  0.29909338  1
  O  O139  1  0.03849397  0.90788032  0.12898539  1
  O  O140  1  0.10417674  0.67009389  0.06829519  1
  O  O141  1  0.42659810  0.59465221  0.35756559  1
  O  O142  1  0.97812885  0.37103191  0.31699996  1
  O  O143  1  0.86272467  0.68505717  0.98068656  1
  O  O144  1  0.41432260  0.38930244  0.75278347  1
  O  O145  1  0.55527492  0.11563660  0.79909338  1
  O  O146  1  0.34824832  0.97713650  0.34104015  1
  O  O147  1  0.37745802  0.15688783  0.42646324  1
  O  O148  1  0.94384822  0.39681604  0.55682137  1
  O  O149  1  0.49897823  0.12288547  0.16409545  1
  O  O150  1  0.73745133  0.64383549  0.13323144  1
  O  O151  1  0.77423153  0.44003449  0.39471096  1
  O  O152  1  0.15045022  0.78647044  0.56040169  1
  O  O153  1  0.50102177  0.87711453  0.83590455  1
  O  O154  1  0.06512957  0.12660368  0.51591851  1
  O  O155  1  0.22576847  0.55996551  0.60528904  1
  O  O156  1  0.52187115  0.62896809  0.81699996  1
  O  O157  1  0.68960073  0.07896515  0.12957216  1
  O  O158  1  0.83631444  0.54291363  0.64881843  1
  O  O159  1  0.26645624  0.82895629  0.11849437  1
