# generated using pymatgen
data_Li3VO3F2
_symmetry_space_group_name_H-M   'P 1'
_cell_length_a   5.02994299
_cell_length_b   7.73922653
_cell_length_c   5.17370196
_cell_angle_alpha   100.99020888
_cell_angle_beta   101.64679888
_cell_angle_gamma   109.13569034
_symmetry_Int_Tables_number   1
_chemical_formula_structural   Li3VO3F2
_chemical_formula_sum   'Li6 V2 O6 F4'
_cell_volume   179.03331311
_cell_formula_units_Z   2
loop_
 _symmetry_equiv_pos_site_id
 _symmetry_equiv_pos_as_xyz
  1  'x, y, z'
loop_
 _atom_site_type_symbol
 _atom_site_label
 _atom_site_symmetry_multiplicity
 _atom_site_fract_x
 _atom_site_fract_y
 _atom_site_fract_z
 _atom_site_occupancy
  Li  Li0  1  0.18692878  0.70342532  0.57093587  1
  Li  Li1  1  0.05594074  0.51062622  0.01316569  1
  Li  Li2  1  0.44080607  0.90056204  0.21056068  1
  Li  Li3  1  0.39121811  0.39848711  0.71158876  1
  Li  Li4  1  0.57089576  0.10010083  0.78338036  1
  Li  Li5  1  0.80029602  0.30494826  0.41116929  1
  V  V6  1  0.17833048  0.19177700  0.16139770  1
  V  V7  1  0.79784440  0.77391711  0.86819588  1
  O  O8  1  0.15174080  0.95791435  0.87902178  1
  O  O9  1  0.18007447  0.41314630  0.32403728  1
  O  O10  1  0.45961393  0.67858287  0.93524091  1
  O  O11  1  0.39861301  0.15465576  0.42776075  1
  O  O12  1  0.81699920  0.57656727  0.67473868  1
  O  O13  1  0.81564613  0.04876430  0.13638270  1
  F  F14  1  0.58677623  0.85530747  0.57625887  1
  F  F15  1  0.54492998  0.31685160  0.03247972  1
  F  F16  1  0.02143231  0.73963424  0.20918014  1
  F  F17  1  0.99455659  0.26978995  0.77574294  1
