# generated using pymatgen
data_CaLaMnRuO6
_symmetry_space_group_name_H-M   'P 1'
_cell_length_a   5.55904645
_cell_length_b   5.71624763
_cell_length_c   7.92145718
_cell_angle_alpha   90.00000000
_cell_angle_beta   90.17523302
_cell_angle_gamma   90.00000000
_symmetry_Int_Tables_number   1
_chemical_formula_structural   CaLaMnRuO6
_chemical_formula_sum   'Ca2 La2 Mn2 Ru2 O12'
_cell_volume   251.71806530
_cell_formula_units_Z   2
loop_
 _symmetry_equiv_pos_site_id
 _symmetry_equiv_pos_as_xyz
  1  'x, y, z'
loop_
 _atom_site_type_symbol
 _atom_site_label
 _atom_site_symmetry_multiplicity
 _atom_site_fract_x
 _atom_site_fract_y
 _atom_site_fract_z
 _atom_site_occupancy
  Ca  Ca0  1  0.48463641  0.55566485  0.25035845  1
  Ca  Ca1  1  0.98463641  0.94433515  0.75035845  1
  La  La2  1  0.01144147  0.04683164  0.25073543  1
  La  La3  1  0.51144147  0.45316836  0.75073543  1
  Mn  Mn4  1  0.00036974  0.50161012  0.49948699  1
  Mn  Mn5  1  0.50036974  -0.00161012  0.99948699  1
  Ru  Ru6  1  0.00016407  0.50075323  0.00080435  1
  Ru  Ru7  1  0.50016407  -0.00075323  0.50080435  1
  O  O8  1  0.09383897  0.53343853  0.75961222  1
  O  O9  1  0.19626414  0.78532230  0.05285433  1
  O  O10  1  0.21656374  0.79861197  0.44982171  1
  O  O11  1  0.28887602  0.30593469  0.05088792  1
  O  O12  1  0.30956168  0.28682770  0.44588364  1
  O  O13  1  0.39828377  0.03047709  0.73955496  1
  O  O14  1  0.59383897  0.96656147  0.25961222  1
  O  O15  1  0.69626414  0.71467770  0.55285433  1
  O  O16  1  0.71656374  0.70138803  0.94982171  1
  O  O17  1  0.78887602  0.19406531  0.55088792  1
  O  O18  1  0.80956168  0.21317230  0.94588364  1
  O  O19  1  0.89828377  0.46952291  0.23955496  1
