# generated using pymatgen
data_Li5SiN3
_symmetry_space_group_name_H-M   'P 1'
_cell_length_a   8.17076090
_cell_length_b   8.19531766
_cell_length_c   20.64413007
_cell_angle_alpha   97.61860532
_cell_angle_beta   97.28310411
_cell_angle_gamma   109.31994816
_symmetry_Int_Tables_number   1
_chemical_formula_structural   Li5SiN3
_chemical_formula_sum   'Li80 Si16 N48'
_cell_volume   1271.31145505
_cell_formula_units_Z   16
loop_
 _symmetry_equiv_pos_site_id
 _symmetry_equiv_pos_as_xyz
  1  'x, y, z'
loop_
 _atom_site_type_symbol
 _atom_site_label
 _atom_site_symmetry_multiplicity
 _atom_site_fract_x
 _atom_site_fract_y
 _atom_site_fract_z
 _atom_site_occupancy
  Li  Li0  1  0.05808759  0.59347473  0.92040546  1
  Li  Li1  1  0.12050500  0.09153289  0.92232362  1
  Li  Li2  1  0.33483738  0.79447627  0.92201413  1
  Li  Li3  1  0.44261469  0.71277751  0.82900189  1
  Li  Li4  1  0.40710778  0.94538648  0.58674185  1
  Li  Li5  1  0.29694813  0.57641893  0.64400955  1
  Li  Li6  1  0.37642462  0.35212472  0.90633458  1
  Li  Li7  1  0.50136463  0.96691251  0.76045741  1
  Li  Li8  1  0.60023879  0.63244540  0.92503544  1
  Li  Li9  1  0.42206576  0.15918207  0.82391352  1
  Li  Li10  1  0.73106413  0.92584543  0.84602896  1
  Li  Li11  1  0.69807342  0.11980691  0.58740923  1
  Li  Li12  1  0.76682829  0.74716721  0.75330696  1
  Li  Li13  1  0.58665582  0.28180104  0.66446329  1
  Li  Li14  1  0.64771150  0.43883389  0.83911999  1
  Li  Li15  1  0.85091616  0.10717721  0.68776649  1
  Li  Li16  1  0.77201583  0.01820223  0.48090733  1
  Li  Li17  1  0.65007929  0.90318939  0.31809775  1
  Li  Li18  1  0.74435932  0.28953769  0.25330177  1
  Li  Li19  1  0.70367759  0.68411723  0.57922886  1
  Li  Li20  1  0.82694173  0.32414399  0.42262398  1
  Li  Li21  1  0.86745845  0.84316055  0.92811841  1
  Li  Li22  1  0.08099295  0.59265191  0.43187398  1
  Li  Li23  1  0.73082092  0.24097514  0.76544292  1
  Li  Li24  1  0.81674256  0.82227842  0.40132626  1
  Li  Li25  1  0.80028664  0.34866766  0.91449440  1
  Li  Li26  1  0.80062675  0.56840578  0.66361985  1
  Li  Li27  1  0.99444883  0.00039651  0.75677983  1
  Li  Li28  1  0.90877626  0.94514494  0.58491966  1
  Li  Li29  1  0.89351305  0.65589200  0.84031271  1
  Li  Li30  1  0.75015385  0.50492075  0.49546444  1
  Li  Li31  1  0.03225297  0.25165766  0.48718208  1
  Li  Li32  1  0.02788452  0.47555300  0.25976258  1
  Li  Li33  1  0.04959634  0.83283431  0.66880524  1
  Li  Li34  1  0.94954261  0.49831118  0.74628538  1
  Li  Li35  1  0.93471411  0.18037408  0.84363996  1
  Li  Li36  1  0.96331848  0.77400205  0.49336961  1
  Li  Li37  1  0.91326153  0.62932506  0.34105803  1
  Li  Li38  1  0.06623478  0.04730116  0.40481015  1
  Li  Li39  1  0.18754524  0.44576633  0.35708811  1
  Li  Li40  1  0.10612701  0.38407378  0.15844928  1
  Li  Li41  1  0.97003856  0.23665092  0.98088893  1
  Li  Li42  1  0.03380638  0.01572209  0.24384605  1
  Li  Li43  1  0.14962464  0.64131646  0.08628251  1
  Li  Li44  1  0.13789143  0.71134231  0.57905158  1
  Li  Li45  1  0.32935307  0.33488140  0.42925160  1
  Li  Li46  1  0.22493036  0.71459930  0.73412620  1
  Li  Li47  1  0.14116899  0.88782246  0.33043235  1
  Li  Li48  1  0.09080209  0.35606608  0.68007785  1
  Li  Li49  1  0.33374010  0.04572892  0.68091639  1
  Li  Li50  1  0.08611410  0.83086071  0.15776534  1
  Li  Li51  1  0.22608453  0.97559820  0.49539242  1
  Li  Li52  1  0.23791231  0.28398419  0.25285238  1
  Li  Li53  1  0.37307502  0.59727317  0.15422602  1
  Li  Li54  1  0.37530479  0.16346855  0.33467977  1
  Li  Li55  1  0.30598890  0.83057056  0.41101786  1
  Li  Li56  1  0.22865800  0.22163234  0.74798099  1
  Li  Li57  1  0.31420461  0.09790358  0.17210980  1
  Li  Li58  1  0.23545315  0.94921824  0.00129409  1
  Li  Li59  1  0.43985501  0.41008196  0.08172220  1
  Li  Li60  1  0.51876132  0.78109213  0.01102297  1
  Li  Li61  1  0.26056790  0.52036906  0.51415209  1
  Li  Li62  1  0.40277912  0.90751869  0.09482605  1
  Li  Li63  1  0.49703218  0.04254502  0.25061748  1
  Li  Li64  1  0.66268917  0.67543322  0.08932311  1
  Li  Li65  1  0.56874650  0.06043946  0.39822180  1
  Li  Li66  1  0.47366120  0.44573912  0.59160646  1
  Li  Li67  1  0.65542506  0.39263718  0.34380137  1
  Li  Li68  1  0.42945767  0.68072380  0.34348872  1
  Li  Li69  1  0.56344611  0.30240699  0.16269931  1
  Li  Li70  1  0.45465207  0.23063352  0.99349190  1
  Li  Li71  1  0.70863980  0.48568246  0.99647239  1
  Li  Li72  1  0.61615960  0.14994710  0.07072816  1
  Li  Li73  1  0.57853826  0.57411821  0.41707444  1
  Li  Li74  1  0.60278715  0.85704962  0.18023097  1
  Li  Li75  1  0.88188759  0.38085433  0.06483902  1
  Li  Li76  1  0.97519430  0.71212703  0.00727449  1
  Li  Li77  1  0.80379601  0.76544222  0.26003278  1
  Li  Li78  1  0.76162159  0.00867588  0.00644608  1
  Li  Li79  1  0.90448082  0.90193472  0.08183395  1
  Si  Si80  1  0.57971111  0.06717895  0.91413593  1
  Si  Si81  1  0.51846704  0.22516857  0.50359393  1
  Si  Si82  1  0.48194696  0.49215941  0.73705883  1
  Si  Si83  1  0.59103846  0.83157645  0.66292483  1
  Si  Si84  1  0.93305871  0.41396414  0.57982144  1
  Si  Si85  1  0.84802576  0.56335568  0.16748477  1
  Si  Si86  1  0.92520825  0.18084014  0.33010868  1
  Si  Si87  1  0.26985701  0.75022173  0.24447284  1
  Si  Si88  1  0.17344142  0.89855881  0.83191263  1
  Si  Si89  1  0.19758449  0.18399689  0.59100885  1
  Si  Si90  1  0.17230931  0.44544938  0.82870047  1
  Si  Si91  1  0.15809621  0.16745154  0.07354656  1
  Si  Si92  1  0.26331595  0.50381444  0.99464068  1
  Si  Si93  1  0.52272866  0.50900595  0.25305836  1
  Si  Si94  1  0.51185172  0.77111479  0.50071351  1
  Si  Si95  1  0.84169301  0.11412999  0.16340482  1
  N  N96  1  0.34060958  0.04268913  0.90333542  1
  N  N97  1  0.13986870  0.37887172  0.91028555  1
  N  N98  1  0.38844266  0.44468249  0.81225527  1
  N  N99  1  0.58455123  0.04304792  0.67361741  1
  N  N100  1  0.68952788  0.36508077  0.57452987  1
  N  N101  1  0.48952360  0.70968116  0.72618886  1
  N  N102  1  0.59180485  0.86152335  0.91904963  1
  N  N103  1  0.45710523  0.70888386  0.58203002  1
  N  N104  1  0.69131005  0.48135025  0.74602808  1
  N  N105  1  0.72363221  0.77222032  0.49802104  1
  N  N106  1  0.69972224  0.22055442  0.98671399  1
  N  N107  1  0.81711766  0.58593739  0.92079713  1
  N  N108  1  0.80639853  0.83696010  0.66781586  1
  N  N109  1  0.65892157  0.14084661  0.84375271  1
  N  N110  1  0.02271564  0.70750989  0.23669930  1
  N  N111  1  0.92034176  0.39281881  0.33737219  1
  N  N112  1  0.83119185  0.08092127  0.39368789  1
  N  N113  1  0.97980653  0.21028252  0.58287501  1
  N  N114  1  0.96785564  0.91352862  0.83985351  1
  N  N115  1  0.79918705  0.05438532  0.24443510  1
  N  N116  1  0.23530378  0.96707091  0.75896017  1
  N  N117  1  0.01530440  0.28671354  0.76594287  1
  N  N118  1  0.06610567  0.82140954  0.41492157  1
  N  N119  1  0.06436431  0.12270886  0.15329777  1
  N  N120  1  0.04267812  0.56438750  0.65309094  1
  N  N121  1  0.16489248  0.96527381  0.59115657  1
  N  N122  1  0.16515091  0.66479638  0.82981420  1
  N  N123  1  0.14044641  0.18006464  0.33222760  1
  N  N124  1  0.99571783  0.49064729  0.50983324  1
  N  N125  1  0.01573302  0.01720689  0.00767328  1
  N  N126  1  0.30655310  0.24930662  0.52175263  1
  N  N127  1  0.16978215  0.39145187  0.06327351  1
  N  N128  1  0.30161132  0.53896470  0.24281019  1
  N  N129  1  0.24523555  0.71022026  0.00544492  1
  N  N130  1  0.56125441  0.30311039  0.43106919  1
  N  N131  1  0.35710132  0.61657236  0.43642327  1
  N  N132  1  0.36953762  0.15603495  0.08325110  1
  N  N133  1  0.48778040  0.28648974  0.25147874  1
  N  N134  1  0.38582033  0.89544949  0.31775533  1
  N  N135  1  0.50888230  0.99932401  0.50065806  1
  N  N136  1  0.33531710  0.33378225  0.66575430  1
  N  N137  1  0.33194391  0.82934942  0.17467139  1
  N  N138  1  0.47603762  0.50683033  0.00023375  1
  N  N139  1  0.62980676  0.57419994  0.18042844  1
  N  N140  1  0.89445996  0.63590482  0.09481541  1
  N  N141  1  0.68699574  0.95429851  0.10068337  1
  N  N142  1  0.65363214  0.64548167  0.32437166  1
  N  N143  1  0.83743410  0.33685432  0.16488175  1
