# generated using pymatgen
data_LiMn3Al2(HO2)6
_symmetry_space_group_name_H-M   'P 1'
_cell_length_a   9.70022207
_cell_length_b   29.02390998
_cell_length_c   19.12402442
_cell_angle_alpha   8.74760658
_cell_angle_beta   15.44737105
_cell_angle_gamma   17.69977788
_symmetry_Int_Tables_number   1
_chemical_formula_structural   LiMn3Al2(HO2)6
_chemical_formula_sum   'Li1 Mn3 Al2 H6 O12'
_cell_volume   218.09854830
_cell_formula_units_Z   1
loop_
 _symmetry_equiv_pos_site_id
 _symmetry_equiv_pos_as_xyz
  1  'x, y, z'
loop_
 _atom_site_type_symbol
 _atom_site_label
 _atom_site_symmetry_multiplicity
 _atom_site_fract_x
 _atom_site_fract_y
 _atom_site_fract_z
 _atom_site_occupancy
  Li  Li0  1  0.50000000  0.00000000  0.50000000  1
  Mn  Mn1  1  0.00000000  0.00000000  0.00000000  1
  Mn  Mn2  1  0.00004215  0.32965990  0.00548877  1
  Mn  Mn3  1  -0.00004215  0.67034010  0.99451123  1
  Al  Al4  1  0.49999070  0.33362750  0.49956332  1
  Al  Al5  1  0.50000930  0.66637250  0.50043668  1
  H  H6  1  0.25700727  0.99998811  0.22498499  1
  H  H7  1  0.21785221  0.34875471  0.22122740  1
  H  H8  1  0.21790762  0.65122839  0.26753356  1
  H  H9  1  0.78209238  0.34877161  0.73246644  1
  H  H10  1  0.78214779  0.65124529  0.77877260  1
  H  H11  1  0.74299273  0.00001189  0.77501501  1
  O  O12  1  0.26366809  -0.00000202  0.17027083  1
  O  O13  1  0.23905859  -0.00000171  0.32605632  1
  O  O14  1  0.16815631  0.36277856  0.17367349  1
  O  O15  1  0.31053979  0.33656606  0.28932474  1
  O  O16  1  0.16808242  0.63717820  0.26204595  1
  O  O17  1  0.31055201  0.66342973  0.29902217  1
  O  O18  1  0.68944799  0.33657027  0.70097783  1
  O  O19  1  0.83191758  0.36282180  0.73795405  1
  O  O20  1  0.68946021  0.66343394  0.71067526  1
  O  O21  1  0.83184369  0.63722144  0.82632651  1
  O  O22  1  0.76094141  0.00000171  0.67394368  1
  O  O23  1  0.73633191  0.00000202  0.82972917  1
