# generated using pymatgen
data_Li10FeCo9O20
_symmetry_space_group_name_H-M   'P 1'
_cell_length_a   5.00636672
_cell_length_b   7.61160663
_cell_length_c   9.81125381
_cell_angle_alpha   99.78617383
_cell_angle_beta   95.11855944
_cell_angle_gamma   71.29662198
_symmetry_Int_Tables_number   1
_chemical_formula_structural   Li10FeCo9O20
_chemical_formula_sum   'Li10 Fe1 Co9 O20'
_cell_volume   348.73444439
_cell_formula_units_Z   1
loop_
 _symmetry_equiv_pos_site_id
 _symmetry_equiv_pos_as_xyz
  1  'x, y, z'
loop_
 _atom_site_type_symbol
 _atom_site_label
 _atom_site_symmetry_multiplicity
 _atom_site_fract_x
 _atom_site_fract_y
 _atom_site_fract_z
 _atom_site_occupancy
  Li  Li0  1  0.39986985  0.20199614  0.99730987  1
  Li  Li1  1  0.69764324  0.09915597  0.50443287  1
  Li  Li2  1  0.10341469  0.30177677  0.50045646  1
  Li  Li3  1  0.99677055  0.99706777  -0.00211633  1
  Li  Li4  1  0.80041936  0.40011771  -0.00119463  1
  Li  Li5  1  0.49311010  0.49865483  0.50351544  1
  Li  Li6  1  0.20153870  0.59607727  -0.00232038  1
  Li  Li7  1  0.90348345  0.70187125  0.50112645  1
  Li  Li8  1  0.30917843  0.90001260  0.50340696  1
  Li  Li9  1  0.59552277  0.80308316  0.99554362  1
  Fe  Fe10  1  0.05118720  0.14846449  0.74993369  1
  Co  Co11  1  0.34940914  0.05205114  0.25026719  1
  Co  Co12  1  0.74832235  0.25155995  0.24834575  1
  Co  Co13  1  0.14618187  0.45060078  0.24901094  1
  Co  Co14  1  0.54620363  0.65301493  0.25061852  1
  Co  Co15  1  0.95193347  0.84592793  0.25231993  1
  Co  Co16  1  0.45156462  0.34970546  0.74991645  1
  Co  Co17  1  0.84952797  0.55040915  0.74956129  1
  Co  Co18  1  0.24884699  0.74970535  0.75021734  1
  Co  Co19  1  0.64892033  0.95134718  0.75030923  1
  O  O20  1  0.03042529  0.06781424  0.36680234  1
  O  O21  1  0.38023316  0.12776472  0.64260196  1
  O  O22  1  0.67624875  0.02827993  0.13344665  1
  O  O23  1  0.72108160  0.17353864  0.85757799  1
  O  O24  1  0.07452796  0.23341506  0.13330305  1
  O  O25  1  0.13486940  0.36701092  0.85990338  1
  O  O26  1  0.40798139  0.28182926  0.36180287  1
  O  O27  1  0.77444271  0.32280878  0.63797537  1
  O  O28  1  0.18524228  0.52556192  0.63944082  1
  O  O29  1  0.45698669  0.42810794  0.13750965  1
  O  O30  1  0.51556891  0.57339371  0.86071286  1
  O  O31  1  0.82824491  0.47259997  0.36246916  1
  O  O32  1  0.22787755  0.66197482  0.36575538  1
  O  O33  1  0.56486939  0.73542006  0.64104208  1
  O  O34  1  0.92257631  0.77838379  0.85975664  1
  O  O35  1  0.88692462  0.62611051  0.13537785  1
  O  O36  1  0.32709089  0.96972172  0.85710190  1
  O  O37  1  0.28976708  0.82275872  0.13176002  1
  O  O38  1  0.62710006  0.87593130  0.37109369  1
  O  O39  1  0.97487433  0.92497020  0.64391068  1
