# generated using pymatgen
data_Cs4Zr3Te16
_symmetry_space_group_name_H-M   'P 1'
_cell_length_a   12.21720817
_cell_length_b   15.91374234
_cell_length_c   19.78484872
_cell_angle_alpha   90.00001023
_cell_angle_beta   90.00000568
_cell_angle_gamma   101.77777327
_symmetry_Int_Tables_number   1
_chemical_formula_structural   Cs4Zr3Te16
_chemical_formula_sum   'Cs16 Zr12 Te64'
_cell_volume   3765.61618790
_cell_formula_units_Z   4
loop_
 _symmetry_equiv_pos_site_id
 _symmetry_equiv_pos_as_xyz
  1  'x, y, z'
loop_
 _atom_site_type_symbol
 _atom_site_label
 _atom_site_symmetry_multiplicity
 _atom_site_fract_x
 _atom_site_fract_y
 _atom_site_fract_z
 _atom_site_occupancy
  Cs  Cs0  1  0.58082028  0.41404642  0.15417834  1
  Cs  Cs1  1  0.91917984  0.08595362  0.65417830  1
  Cs  Cs2  1  0.63553789  0.94314749  0.85921956  1
  Cs  Cs3  1  0.14970963  0.89546674  0.85994023  1
  Cs  Cs4  1  0.57946367  0.84588973  0.37316312  1
  Cs  Cs5  1  0.86446228  0.55685238  0.35921949  1
  Cs  Cs6  1  0.92053626  0.65411015  0.87316311  1
  Cs  Cs7  1  0.85029000  0.10453317  0.14005982  1
  Cs  Cs8  1  0.42053617  0.15411016  0.62683687  1
  Cs  Cs9  1  0.08082025  0.91404634  0.34582160  1
  Cs  Cs10  1  0.13553722  0.44314743  0.64078025  1
  Cs  Cs11  1  0.36446226  0.05685244  0.14078049  1
  Cs  Cs12  1  0.35028987  0.60453323  0.35994017  1
  Cs  Cs13  1  0.07946371  0.34588975  0.12683695  1
  Cs  Cs14  1  0.41917980  0.58595359  0.84582172  1
  Cs  Cs15  1  0.64971017  0.39546686  0.64005976  1
  Zr  Zr16  1  0.34946436  0.24853285  0.88392222  1
  Zr  Zr17  1  0.84946395  0.74853281  0.61607761  1
  Zr  Zr18  1  0.02938028  0.26929193  0.88540474  1
  Zr  Zr19  1  0.20718597  0.79197801  0.61710895  1
  Zr  Zr20  1  0.52938041  0.76929187  0.61459544  1
  Zr  Zr21  1  0.97061977  0.73070825  0.11459524  1
  Zr  Zr22  1  0.70718589  0.29197829  0.88289104  1
  Zr  Zr23  1  0.65053557  0.75146717  0.11607770  1
  Zr  Zr24  1  0.79281418  0.20802189  0.38289092  1
  Zr  Zr25  1  0.15053597  0.25146721  0.38392241  1
  Zr  Zr26  1  0.47061980  0.23070810  0.38540475  1
  Zr  Zr27  1  0.29281434  0.70802187  0.11710892  1
  Te  Te28  1  0.83315007  0.15748603  0.94748148  1
  Te  Te29  1  0.87654772  0.30179404  0.77089266  1
  Te  Te30  1  0.17526780  0.95722009  0.67628948  1
  Te  Te31  1  0.84982852  0.85012843  0.04172149  1
  Te  Te32  1  0.59110217  0.10804498  0.45263108  1
  Te  Te33  1  0.32473199  0.54277991  0.17628944  1
  Te  Te34  1  0.77427077  0.22986152  0.53293299  1
  Te  Te35  1  0.38082902  0.35358283  0.76140287  1
  Te  Te36  1  0.67115938  0.18272099  0.76358447  1
  Te  Te37  1  0.12345208  0.69820608  0.22910735  1
  Te  Te38  1  0.82076616  0.76822623  0.22724220  1
  Te  Te39  1  0.03780776  0.88949121  0.56774713  1
  Te  Te40  1  0.42100572  0.04546003  0.34746782  1
  Te  Te41  1  0.72572918  0.27013850  0.03293298  1
  Te  Te42  1  0.62345231  0.19820611  0.27089265  1
  Te  Te43  1  0.82884071  0.31727908  0.26358446  1
  Te  Te44  1  0.66504934  0.72449751  0.96591416  1
  Te  Te45  1  0.16685009  0.84251401  0.05251861  1
  Te  Te46  1  0.07899432  0.45453990  0.84746783  1
  Te  Te47  1  0.33495069  0.27550256  0.03408587  1
  Te  Te48  1  0.88972477  0.58769892  0.68032380  1
  Te  Te49  1  0.46219195  0.61050871  0.06774714  1
  Te  Te50  1  0.92100583  0.54546016  0.15253217  1
  Te  Te51  1  0.67923388  0.73177368  0.72724219  1
  Te  Te52  1  0.38972474  0.08769899  0.81967629  1
  Te  Te53  1  0.53780773  0.38949098  0.93225284  1
  Te  Te54  1  0.22572920  0.77013855  0.46706707  1
  Te  Te55  1  0.67526785  0.45722033  0.82371054  1
  Te  Te56  1  0.48164938  0.84897953  0.06668158  1
  Te  Te57  1  0.22409455  0.38514370  0.94574589  1
  Te  Te58  1  0.32884053  0.81727899  0.23641554  1
  Te  Te59  1  0.16504937  0.22449746  0.53408572  1
  Te  Te60  1  0.88082901  0.85358291  0.73859697  1
  Te  Te61  1  0.34982833  0.35012851  0.45827848  1
  Te  Te62  1  0.90889786  0.39195502  0.95263111  1
  Te  Te63  1  0.61917101  0.64641715  0.23859706  1
  Te  Te64  1  0.27427086  0.72986151  0.96706691  1
  Te  Te65  1  0.51953209  0.41860971  0.35378217  1
  Te  Te66  1  0.96219246  0.11050908  0.43225286  1
  Te  Te67  1  0.11917091  0.14641719  0.26140310  1
  Te  Te68  1  0.57899434  0.95453989  0.65253219  1
  Te  Te69  1  0.65017159  0.64987167  0.54172157  1
  Te  Te70  1  0.98046808  0.08139046  0.85378218  1
  Te  Te71  1  0.33315006  0.65748610  0.55251862  1
  Te  Te72  1  0.48046806  0.58139036  0.64621782  1
  Te  Te73  1  0.72409488  0.88514358  0.55425407  1
  Te  Te74  1  0.40889789  0.89195494  0.54736898  1
  Te  Te75  1  0.01835075  0.65102062  0.56668165  1
  Te  Te76  1  0.77590548  0.61485637  0.05425410  1
  Te  Te77  1  0.15017154  0.14987163  0.95827854  1
  Te  Te78  1  0.17923398  0.23177377  0.77275787  1
  Te  Te79  1  0.32076586  0.26822623  0.27275781  1
  Te  Te80  1  0.51835065  0.15102050  0.93331845  1
  Te  Te81  1  0.37654748  0.80179383  0.72910738  1
  Te  Te82  1  0.98164915  0.34897919  0.43331835  1
  Te  Te83  1  0.82473222  0.04277974  0.32371046  1
  Te  Te84  1  0.17115941  0.68272096  0.73641549  1
  Te  Te85  1  0.09110217  0.60804501  0.04736888  1
  Te  Te86  1  0.66685003  0.34251392  0.44748136  1
  Te  Te87  1  0.01953192  0.91860949  0.14621784  1
  Te  Te88  1  0.61027532  0.91230097  0.18032377  1
  Te  Te89  1  0.11027537  0.41230081  0.31967633  1
  Te  Te90  1  0.83495058  0.77550253  0.46591431  1
  Te  Te91  1  0.27590530  0.11485658  0.44574584  1
