# generated using pymatgen
data_La(WO3)11
_symmetry_space_group_name_H-M   'P 1'
_cell_length_a   42.71633391
_cell_length_b   16.01390587
_cell_length_c   8.68541667
_cell_angle_alpha   29.81876656
_cell_angle_beta   26.57461903
_cell_angle_gamma   14.03375607
_symmetry_Int_Tables_number   1
_chemical_formula_structural   La(WO3)11
_chemical_formula_sum   'La1 W11 O33'
_cell_volume   644.52827325
_cell_formula_units_Z   1
loop_
 _symmetry_equiv_pos_site_id
 _symmetry_equiv_pos_as_xyz
  1  'x, y, z'
loop_
 _atom_site_type_symbol
 _atom_site_label
 _atom_site_symmetry_multiplicity
 _atom_site_fract_x
 _atom_site_fract_y
 _atom_site_fract_z
 _atom_site_occupancy
  La  La0  1  0.90909364  -0.00000747  -0.00000148  1
  W  W1  1  0.04882401  0.48960918  0.50691884  1
  W  W2  1  0.14216506  0.49089875  0.48506496  1
  W  W3  1  0.23283695  0.49436671  0.48888313  1
  W  W4  1  0.32080903  0.49776660  0.49449031  1
  W  W5  1  0.40908925  0.50000772  0.50000100  1
  W  W6  1  0.49737100  0.50223273  0.50553223  1
  W  W7  1  0.58534079  0.50564833  0.51112225  1
  W  W8  1  0.67601761  0.50909716  0.51492915  1
  W  W9  1  0.76934897  0.51040822  0.49310858  1
  W  W10  1  0.86020995  0.51313305  0.49549013  1
  W  W11  1  0.95798008  0.48685367  0.50449077  1
  O  O12  1  0.04179342  0.00009838  0.51350541  1
  O  O13  1  0.04178116  0.51369450  -0.00023124  1
  O  O14  1  0.13591517  0.00035207  0.50118731  1
  O  O15  1  0.22686628  0.00094082  0.50065958  1
  O  O16  1  0.13018587  0.51344485  0.00008073  1
  O  O17  1  0.09173045  0.49775800  0.50066505  1
  O  O18  1  0.31783247  0.00120862  0.49889713  1
  O  O19  1  0.22753702  0.49965281  0.99907578  1
  O  O20  1  0.17495348  0.51216643  0.51439637  1
  O  O21  1  0.31822586  0.49959033  0.00076011  1
  O  O22  1  0.40909038  0.00000040  0.50000284  1
  O  O23  1  0.27344371  0.49891181  0.49902916  1
  O  O24  1  0.50035018  -0.00121185  0.50110215  1
  O  O25  1  0.40909056  0.50000223  -0.00000282  1
  O  O26  1  0.36370775  0.50024914  0.49969345  1
  O  O27  1  0.59131561  -0.00094518  0.49934627  1
  O  O28  1  0.49995689  0.50040849  -0.00076306  1
  O  O29  1  0.45447144  0.49975796  0.50030816  1
  O  O30  1  0.59064559  0.50034635  0.00091686  1
  O  O31  1  0.68226818  -0.00035719  0.49881000  1
  O  O32  1  0.54473736  0.50109081  0.50096558  1
  O  O33  1  0.68799707  0.48655529  -0.00008576  1
  O  O34  1  0.77638848  -0.00009834  0.48649413  1
  O  O35  1  0.64323063  0.48782815  0.48559968  1
  O  O36  1  0.86504873  -0.00036372  0.48647129  1
  O  O37  1  0.77640134  0.48630294  0.00022954  1
  O  O38  1  0.72645512  0.50223417  0.49932704  1
  O  O39  1  0.86359534  0.50014267  0.99987850  1
  O  O40  1  0.95313207  0.00036617  0.51352474  1
  O  O41  1  0.82015370  0.48832479  0.51259241  1
  O  O42  1  0.95458523  0.49985759  0.00012455  1
  O  O43  1  0.90909094  0.49999865  0.50000285  1
  O  O44  1  0.99802716  0.51167724  0.48740632  1
