# generated using pymatgen
data_K6Na2V2S7O30
_symmetry_space_group_name_H-M   'P 1'
_cell_length_a   9.70917091
_cell_length_b   9.70917091
_cell_length_c   30.08617233
_cell_angle_alpha   90.00000000
_cell_angle_beta   90.00000000
_cell_angle_gamma   90.00000000
_symmetry_Int_Tables_number   1
_chemical_formula_structural   K6Na2V2S7O30
_chemical_formula_sum   'K24 Na8 V8 S28 O120'
_cell_volume   2836.16328597
_cell_formula_units_Z   4
loop_
 _symmetry_equiv_pos_site_id
 _symmetry_equiv_pos_as_xyz
  1  'x, y, z'
loop_
 _atom_site_type_symbol
 _atom_site_label
 _atom_site_symmetry_multiplicity
 _atom_site_fract_x
 _atom_site_fract_y
 _atom_site_fract_z
 _atom_site_occupancy
  K  K0  1  0.06383876  0.94085871  0.81227450  1
  K  K1  1  0.99126827  0.67632845  0.40421807  1
  K  K2  1  0.91743328  0.39626984  0.51864901  1
  K  K3  1  0.60373016  0.08256672  0.98135099  1
  K  K4  1  0.93616124  0.05914129  0.31227450  1
  K  K5  1  0.00873173  0.32367155  0.90421807  1
  K  K6  1  0.89626984  0.58256672  0.76864901  1
  K  K7  1  0.56383876  0.55914129  0.43772550  1
  K  K8  1  0.55914129  0.56383876  0.56227450  1
  K  K9  1  0.44085871  0.43616124  0.06227450  1
  K  K10  1  0.08256672  0.60373016  0.01864901  1
  K  K11  1  0.17632845  0.50873173  0.65421807  1
  K  K12  1  0.41743328  0.10373016  0.73135099  1
  K  K13  1  0.58256672  0.89626984  0.23135099  1
  K  K14  1  0.49126827  0.82367155  0.84578193  1
  K  K15  1  0.43616124  0.44085871  0.93772550  1
  K  K16  1  0.94085871  0.06383876  0.18772550  1
  K  K17  1  0.50873173  0.17632845  0.34578193  1
  K  K18  1  0.67632845  0.99126827  0.59578193  1
  K  K19  1  0.39626984  0.91743328  0.48135099  1
  K  K20  1  0.10373016  0.41743328  0.26864901  1
  K  K21  1  0.05914129  0.93616124  0.68772550  1
  K  K22  1  0.82367155  0.49126827  0.15421807  1
  K  K23  1  0.32367155  0.00873173  0.09578193  1
  Na  Na24  1  0.34032068  0.22724627  0.57236545  1
  Na  Na25  1  0.72724627  0.15967932  0.82236545  1
  Na  Na26  1  0.22724627  0.34032068  0.42763455  1
  Na  Na27  1  0.77275373  0.65967932  0.92763455  1
  Na  Na28  1  0.65967932  0.77275373  0.07236545  1
  Na  Na29  1  0.84032068  0.27275373  0.67763455  1
  Na  Na30  1  0.15967932  0.72724627  0.17763455  1
  Na  Na31  1  0.27275373  0.84032068  0.32236545  1
  V  V32  1  0.32754488  0.42931187  0.81461730  1
  V  V33  1  0.67245512  0.57068813  0.31461730  1
  V  V34  1  0.92931187  0.17245512  0.06461730  1
  V  V35  1  0.17245512  0.92931187  0.93538270  1
  V  V36  1  0.57068813  0.67245512  0.68538270  1
  V  V37  1  0.42931187  0.32754488  0.18538270  1
  V  V38  1  0.82754488  0.07068813  0.43538270  1
  V  V39  1  0.07068813  0.82754488  0.56461730  1
  S  S40  1  0.71299352  0.28700648  0.25000000  1
  S  S41  1  0.21299352  0.21299352  0.00000000  1
  S  S42  1  0.14739908  0.38693168  0.13152416  1
  S  S43  1  0.76645671  0.44075009  0.02656379  1
  S  S44  1  0.99013889  0.85290693  0.09557659  1
  S  S45  1  0.35290693  0.50986111  0.34557659  1
  S  S46  1  0.78700648  0.78700648  0.50000000  1
  S  S47  1  0.35260092  0.88693168  0.61847584  1
  S  S48  1  0.05924991  0.26645671  0.77656379  1
  S  S49  1  0.85260092  0.61306832  0.63152416  1
  S  S50  1  0.23354329  0.55924991  0.52656379  1
  S  S51  1  0.28700648  0.71299352  0.75000000  1
  S  S52  1  0.85290693  0.99013889  0.90442341  1
  S  S53  1  0.88693168  0.35260092  0.38152416  1
  S  S54  1  0.64709307  0.49013889  0.84557659  1
  S  S55  1  0.11306832  0.64739908  0.88152416  1
  S  S56  1  0.55924991  0.23354329  0.47343621  1
  S  S57  1  0.73354329  0.94075009  0.72343621  1
  S  S58  1  0.14709307  0.00986111  0.40442341  1
  S  S59  1  0.38693168  0.14739908  0.86847584  1
  S  S60  1  0.61306832  0.85260092  0.36847584  1
  S  S61  1  0.50986111  0.35290693  0.65442341  1
  S  S62  1  0.49013889  0.64709307  0.15442341  1
  S  S63  1  0.94075009  0.73354329  0.27656379  1
  S  S64  1  0.26645671  0.05924991  0.22343621  1
  S  S65  1  0.00986111  0.14709307  0.59557659  1
  S  S66  1  0.64739908  0.11306832  0.11847584  1
  S  S67  1  0.44075009  0.76645671  0.97343621  1
  O  O68  1  0.88128239  0.82203313  0.53857980  1
  O  O69  1  0.21591633  0.53561553  0.87460691  1
  O  O70  1  0.29971669  0.27661116  0.85578900  1
  O  O71  1  0.82203313  0.88128239  0.46142020  1
  O  O72  1  0.18871143  0.10689922  0.43899813  1
  O  O73  1  0.11871761  0.17796687  0.03857980  1
  O  O74  1  0.18211783  0.46065999  0.09062565  1
  O  O75  1  0.97815864  0.21764764  0.81514777  1
  O  O76  1  0.39310078  0.68871143  0.18899813  1
  O  O77  1  0.65603793  0.33990195  0.48883963  1
  O  O78  1  0.17796687  0.11871761  0.96142020  1
  O  O79  1  0.02110644  0.61191827  0.91850463  1
  O  O80  1  0.68006113  0.02811808  0.75920468  1
  O  O81  1  0.80782836  0.94932401  0.85947747  1
  O  O82  1  0.03934001  0.68211783  0.84062565  1
  O  O83  1  0.64615092  0.81070417  0.51565111  1
  O  O84  1  0.81391780  0.13312387  0.91453368  1
  O  O85  1  0.18608220  0.86687613  0.41453368  1
  O  O86  1  0.34396207  0.66009805  0.98883963  1
  O  O87  1  0.18929583  0.35384908  0.98434889  1
  O  O88  1  0.72338884  0.70028331  0.64421100  1
  O  O89  1  0.13312387  0.81391780  0.08546632  1
  O  O90  1  0.71591633  0.96438447  0.37539309  1
  O  O91  1  0.66009805  0.34396207  0.01116037  1
  O  O92  1  0.38808173  0.97889356  0.58149537  1
  O  O93  1  0.11191827  0.47889356  0.16850463  1
  O  O94  1  0.52110644  0.88808173  0.33149537  1
  O  O95  1  0.02811808  0.68006113  0.24079532  1
  O  O96  1  0.33990195  0.65603793  0.51116037  1
  O  O97  1  0.31993887  0.97188192  0.25920468  1
  O  O98  1  0.09023965  0.85116497  0.97380423  1
  O  O99  1  0.21764764  0.97815864  0.18485223  1
  O  O100  1  0.89310078  0.81128857  0.06100187  1
  O  O101  1  0.63312387  0.68608220  0.16453368  1
  O  O102  1  0.94932401  0.80782836  0.14052253  1
  O  O103  1  0.28408367  0.03561553  0.87539309  1
  O  O104  1  0.67796687  0.38128239  0.28857980  1
  O  O105  1  0.81788217  0.53934001  0.59062565  1
  O  O106  1  0.81070417  0.64615092  0.48434889  1
  O  O107  1  0.53934001  0.81788217  0.40937435  1
  O  O108  1  0.18006113  0.47188192  0.49079532  1
  O  O109  1  0.97188192  0.31993887  0.74079532  1
  O  O110  1  0.36687613  0.31391780  0.66453368  1
  O  O111  1  0.81993887  0.52811808  0.99079532  1
  O  O112  1  0.20028331  0.77661116  0.89421100  1
  O  O113  1  0.48345698  0.49155601  0.84862925  1
  O  O114  1  0.68871143  0.39310078  0.81100187  1
  O  O115  1  0.53561553  0.21591633  0.12539309  1
  O  O116  1  0.78235236  0.02184136  0.68485223  1
  O  O117  1  0.51654302  0.50844399  0.34862925  1
  O  O118  1  0.01654302  0.99155601  0.90137075  1
  O  O119  1  0.50844399  0.51654302  0.65137075  1
  O  O120  1  0.10689922  0.18871143  0.56100187  1
  O  O121  1  0.28235236  0.47815864  0.56514777  1
  O  O122  1  0.77661116  0.20028331  0.10578900  1
  O  O123  1  0.52811808  0.81993887  0.00920468  1
  O  O124  1  0.32203313  0.61871761  0.78857980  1
  O  O125  1  0.61191827  0.02110644  0.08149537  1
  O  O126  1  0.52184136  0.71764764  0.93485223  1
  O  O127  1  0.68929583  0.14615092  0.26565111  1
  O  O128  1  0.59023965  0.64883503  0.27619577  1
  O  O129  1  0.64119586  0.10433453  0.45624713  1
  O  O130  1  0.47815864  0.28235236  0.43485223  1
  O  O131  1  0.00844399  0.98345698  0.59862925  1
  O  O132  1  0.61871761  0.32203313  0.21142020  1
  O  O133  1  0.31391780  0.36687613  0.33546632  1
  O  O134  1  0.30782836  0.55067599  0.39052253  1
  O  O135  1  0.31128857  0.60689922  0.31100187  1
  O  O136  1  0.96438447  0.71591633  0.62460691  1
  O  O137  1  0.35384908  0.18929583  0.01565111  1
  O  O138  1  0.68211783  0.03934001  0.15937435  1
  O  O139  1  0.03561553  0.28408367  0.12460691  1
  O  O140  1  0.44932401  0.69217164  0.10947747  1
  O  O141  1  0.81128857  0.89310078  0.93899813  1
  O  O142  1  0.99155601  0.01654302  0.09862925  1
  O  O143  1  0.79971669  0.22338884  0.39421100  1
  O  O144  1  0.22338884  0.79971669  0.60578900  1
  O  O145  1  0.47188192  0.18006113  0.50920468  1
  O  O146  1  0.16009805  0.15603793  0.23883963  1
  O  O147  1  0.85384908  0.31070417  0.23434889  1
  O  O148  1  0.40976035  0.35116497  0.77619577  1
  O  O149  1  0.96065999  0.31788217  0.34062565  1
  O  O150  1  0.10433453  0.64119586  0.54375287  1
  O  O151  1  0.19217164  0.05067599  0.35947747  1
  O  O152  1  0.68608220  0.63312387  0.83546632  1
  O  O153  1  0.31070417  0.85384908  0.76565111  1
  O  O154  1  0.27661116  0.29971669  0.14421100  1
  O  O155  1  0.05067599  0.19217164  0.64052253  1
  O  O156  1  0.35116497  0.40976035  0.22380423  1
  O  O157  1  0.46065999  0.18211783  0.90937435  1
  O  O158  1  0.55067599  0.30782836  0.60947747  1
  O  O159  1  0.71764764  0.52184136  0.06514777  1
  O  O160  1  0.78408367  0.46438447  0.37460691  1
  O  O161  1  0.84396207  0.83990195  0.26116037  1
  O  O162  1  0.89566547  0.35880414  0.04375287  1
  O  O163  1  0.85880414  0.60433453  0.29375287  1
  O  O164  1  0.14615092  0.68929583  0.73434889  1
  O  O165  1  0.46438447  0.78408367  0.62539309  1
  O  O166  1  0.14883503  0.90976035  0.52619577  1
  O  O167  1  0.98345698  0.00844399  0.40137075  1
  O  O168  1  0.47889356  0.11191827  0.83149537  1
  O  O169  1  0.69217164  0.44932401  0.89052253  1
  O  O170  1  0.64883503  0.59023965  0.72380423  1
  O  O171  1  0.83990195  0.84396207  0.73883963  1
  O  O172  1  0.02184136  0.78235236  0.31514777  1
  O  O173  1  0.38128239  0.67796687  0.71142020  1
  O  O174  1  0.88808173  0.52110644  0.66850463  1
  O  O175  1  0.49155601  0.48345698  0.15137075  1
  O  O176  1  0.60689922  0.31128857  0.68899813  1
  O  O177  1  0.14119586  0.39566547  0.79375287  1
  O  O178  1  0.15603793  0.16009805  0.76116037  1
  O  O179  1  0.35880414  0.89566547  0.95624713  1
  O  O180  1  0.39566547  0.14119586  0.20624713  1
  O  O181  1  0.70028331  0.72338884  0.35578900  1
  O  O182  1  0.90976035  0.14883503  0.47380423  1
  O  O183  1  0.86687613  0.18608220  0.58546632  1
  O  O184  1  0.85116497  0.09023965  0.02619577  1
  O  O185  1  0.60433453  0.85880414  0.70624713  1
  O  O186  1  0.31788217  0.96065999  0.65937435  1
  O  O187  1  0.97889356  0.38808173  0.41850463  1
