# generated using pymatgen
data_Sb2H20(Cl4O3)3
_symmetry_space_group_name_H-M   'P 1'
_cell_length_a   12.30229739
_cell_length_b   12.30229739
_cell_length_c   11.95252741
_cell_angle_alpha   117.19568281
_cell_angle_beta   92.54350885
_cell_angle_gamma   120.85363780
_symmetry_Int_Tables_number   1
_chemical_formula_structural   Sb2H20(Cl4O3)3
_chemical_formula_sum   'Sb4 H40 Cl24 O18'
_cell_volume   1285.94766517
_cell_formula_units_Z   2
loop_
 _symmetry_equiv_pos_site_id
 _symmetry_equiv_pos_as_xyz
  1  'x, y, z'
loop_
 _atom_site_type_symbol
 _atom_site_label
 _atom_site_symmetry_multiplicity
 _atom_site_fract_x
 _atom_site_fract_y
 _atom_site_fract_z
 _atom_site_occupancy
  Sb  Sb0  1  0.35076142  0.78737594  0.14270690  1
  Sb  Sb1  1  0.64923858  0.21262406  0.85729310  1
  Sb  Sb2  1  0.85533095  0.79194548  0.64270690  1
  Sb  Sb3  1  0.14466905  0.20805452  0.35729310  1
  H  H4  1  0.15414044  0.98494343  0.97819160  1
  H  H5  1  0.84585956  0.01505657  0.02180840  1
  H  H6  1  0.49324817  0.82405115  0.47819160  1
  H  H7  1  0.50675183  0.17594885  0.52180840  1
  H  H8  1  0.29466798  0.01692632  0.01923886  1
  H  H9  1  0.70533202  0.98307368  0.98076114  1
  H  H10  1  0.50231254  0.72457087  0.51923886  1
  H  H11  1  0.49768746  0.27542913  0.48076114  1
  H  H12  1  0.29115033  0.18289428  0.98118094  1
  H  H13  1  0.70884967  0.81710572  0.01881906  1
  H  H14  1  0.29828666  0.69003061  0.48118094  1
  H  H15  1  0.70171334  0.30996939  0.51881906  1
  H  H16  1  0.29152234  0.29114195  0.91569566  1
  H  H17  1  0.70847766  0.70885805  0.08430434  1
  H  H18  1  0.12455372  0.62417332  0.41569566  1
  H  H19  1  0.87544628  0.37582668  0.58430434  1
  H  H20  1  0.38351290  0.37246338  0.09031492  1
  H  H21  1  0.61648710  0.62753662  0.90968508  1
  H  H22  1  0.21785154  0.70680203  0.59031492  1
  H  H23  1  0.78214846  0.29319797  0.40968508  1
  H  H24  1  0.34234830  0.34399298  0.78531547  1
  H  H25  1  0.65765170  0.65600702  0.21468453  1
  H  H26  1  0.94132248  0.44296716  0.28531547  1
  H  H27  1  0.05867752  0.55703284  0.71468453  1
  H  H28  1  0.19972573  0.31419563  0.80240051  1
  H  H29  1  0.80027427  0.68580437  0.19759949  1
  H  H30  1  0.98820488  0.60267477  0.30240051  1
  H  H31  1  0.01179512  0.39732523  0.69759949  1
  H  H32  1  0.52733794  0.40704177  0.71084314  1
  H  H33  1  0.47266206  0.59295823  0.28915686  1
  H  H34  1  0.80380136  0.18350519  0.21084314  1
  H  H35  1  0.19619864  0.81649481  0.78915686  1
  H  H36  1  0.46443147  0.48981929  0.71103781  1
  H  H37  1  0.53556853  0.51018071  0.28896219  1
  H  H38  1  0.72121852  0.24660634  0.21103781  1
  H  H39  1  0.27878148  0.75339366  0.78896219  1
  H  H40  1  0.00941700  0.30634668  0.82315149  1
  H  H41  1  0.99058300  0.69365332  0.17684851  1
  H  H42  1  0.01680481  0.81373449  0.32315149  1
  H  H43  1  0.98319519  0.18626551  0.67684851  1
  Cl  Cl44  1  0.38201602  0.69107944  0.92735226  1
  Cl  Cl45  1  0.61798398  0.30892056  0.07264774  1
  Cl  Cl46  1  0.73627282  0.54533624  0.42735226  1
  Cl  Cl47  1  0.26372718  0.45466376  0.57264774  1
  Cl  Cl48  1  0.57213391  0.87561247  0.25729418  1
  Cl  Cl49  1  0.42786609  0.12438753  0.74270582  1
  Cl  Cl50  1  0.88168171  0.68516027  0.75729418  1
  Cl  Cl51  1  0.11831829  0.31483973  0.24270582  1
  Cl  Cl52  1  0.45231324  0.03111622  0.16756601  1
  Cl  Cl53  1  0.54768676  0.96888378  0.83243399  1
  Cl  Cl54  1  0.63644978  0.71525276  0.66756601  1
  Cl  Cl55  1  0.36355022  0.28474724  0.33243399  1
  Cl  Cl56  1  0.32126971  0.88823813  0.35603095  1
  Cl  Cl57  1  0.67873029  0.11176187  0.64396905  1
  Cl  Cl58  1  0.96779283  0.03476124  0.85603095  1
  Cl  Cl59  1  0.03220717  0.96523876  0.14396905  1
  Cl  Cl60  1  0.13057210  0.70311249  0.02673948  1
  Cl  Cl61  1  0.86942790  0.29688751  0.97326052  1
  Cl  Cl62  1  0.82362699  0.89616738  0.52673948  1
  Cl  Cl63  1  0.17637301  0.10383262  0.47326052  1
  Cl  Cl64  1  0.24774002  0.54465601  0.11253878  1
  Cl  Cl65  1  0.75225998  0.45534399  0.88746122  1
  Cl  Cl66  1  0.06788277  0.86479875  0.61253878  1
  Cl  Cl67  1  0.93211723  0.13520125  0.38746122  1
  O  O68  1  0.23502005  0.00829103  0.95333843  1
  O  O69  1  0.76497995  0.99170897  0.04666157  1
  O  O70  1  0.44504741  0.71831838  0.45333843  1
  O  O71  1  0.55495259  0.28168162  0.54666157  1
  O  O72  1  0.30406816  0.27926084  0.00449547  1
  O  O73  1  0.69593184  0.72073916  0.99550453  1
  O  O74  1  0.22523463  0.70042731  0.50449547  1
  O  O75  1  0.77476537  0.29957269  0.49550453  1
  O  O76  1  0.26591160  0.29263696  0.81221744  1
  O  O77  1  0.73408840  0.70736304  0.18778256  1
  O  O78  1  0.01958047  0.54630583  0.31221744  1
  O  O79  1  0.98041953  0.45369417  0.68778256  1
  O  O80  1  0.49160077  0.46091593  0.76466444  1
  O  O81  1  0.50839923  0.53908407  0.23533556  1
  O  O82  1  0.80374851  0.27306368  0.26466444  1
  O  O83  1  0.19625149  0.72693632  0.73533556  1
  O  O84  1  0.04535406  0.29535406  0.75000000  1
  O  O85  1  0.95464594  0.70464594  0.25000000  1
