# generated using pymatgen
data_Li3MnF5
_symmetry_space_group_name_H-M   'P 1'
_cell_length_a   5.78844292
_cell_length_b   5.78844292
_cell_length_c   11.24769081
_cell_angle_alpha   90.00000000
_cell_angle_beta   90.00000000
_cell_angle_gamma   90.00000000
_symmetry_Int_Tables_number   1
_chemical_formula_structural   Li3MnF5
_chemical_formula_sum   'Li12 Mn4 F20'
_cell_volume   376.86593179
_cell_formula_units_Z   4
loop_
 _symmetry_equiv_pos_site_id
 _symmetry_equiv_pos_as_xyz
  1  'x, y, z'
loop_
 _atom_site_type_symbol
 _atom_site_label
 _atom_site_symmetry_multiplicity
 _atom_site_fract_x
 _atom_site_fract_y
 _atom_site_fract_z
 _atom_site_occupancy
  Li  Li0  1  0.02430049  0.16651035  0.32033718  1
  Li  Li1  1  0.08287767  0.32880551  0.84647438  1
  Li  Li2  1  0.21902533  0.44343564  0.61575643  1
  Li  Li3  1  0.16651035  0.97569951  0.07033718  1
  Li  Li4  1  0.32880551  0.91712233  0.59647438  1
  Li  Li5  1  0.44343564  0.78097467  0.36575643  1
  Li  Li6  1  0.55656436  0.21902533  0.86575643  1
  Li  Li7  1  0.67119449  0.08287767  0.09647438  1
  Li  Li8  1  0.83348965  0.02430049  0.57033718  1
  Li  Li9  1  0.78097467  0.55656436  0.11575643  1
  Li  Li10  1  0.91712233  0.67119449  0.34647438  1
  Li  Li11  1  0.97569951  0.83348965  0.82033718  1
  Mn  Mn12  1  0.28328278  0.48741098  0.14189442  1
  Mn  Mn13  1  0.48741098  0.71671722  0.89189442  1
  Mn  Mn14  1  0.51258902  0.28328278  0.39189442  1
  Mn  Mn15  1  0.71671722  0.51258902  0.64189442  1
  F  F16  1  0.97064238  0.24885976  0.14498412  1
  F  F17  1  0.01302405  0.76773994  0.17449563  1
  F  F18  1  0.15214674  0.57953166  0.96557876  1
  F  F19  1  0.23226006  0.01302405  0.42449663  1
  F  F20  1  0.20506069  0.49104008  0.33055094  1
  F  F21  1  0.24885976  0.02935762  0.89498412  1
  F  F22  1  0.42046834  0.15214674  0.21557876  1
  F  F23  1  0.36899590  0.44218588  0.77136914  1
  F  F24  1  0.55781412  0.36899590  0.02136914  1
  F  F25  1  0.49104008  0.79493931  0.08055094  1
  F  F26  1  0.50895992  0.20506069  0.58055094  1
  F  F27  1  0.44218588  0.63100410  0.52136914  1
  F  F28  1  0.63100410  0.55781412  0.27136914  1
  F  F29  1  0.57953166  0.84785326  0.71557876  1
  F  F30  1  0.75114024  0.97064238  0.39498412  1
  F  F31  1  0.79493931  0.50895992  0.83055094  1
  F  F32  1  0.76773994  0.98697595  0.92449563  1
  F  F33  1  0.84785326  0.42046834  0.46557876  1
  F  F34  1  0.98697595  0.23226006  0.67449563  1
  F  F35  1  0.02935762  0.75114024  0.64498412  1
