# generated using pymatgen
data_Mo3P5Pb3O23
_symmetry_space_group_name_H-M   'P 1'
_cell_length_a   8.28060873
_cell_length_b   14.57787897
_cell_length_c   15.93083733
_cell_angle_alpha   90.00000000
_cell_angle_beta   90.00000000
_cell_angle_gamma   90.00000000
_symmetry_Int_Tables_number   1
_chemical_formula_structural   Mo3P5Pb3O23
_chemical_formula_sum   'Mo12 P20 Pb12 O92'
_cell_volume   1923.07050720
_cell_formula_units_Z   4
loop_
 _symmetry_equiv_pos_site_id
 _symmetry_equiv_pos_as_xyz
  1  'x, y, z'
loop_
 _atom_site_type_symbol
 _atom_site_label
 _atom_site_symmetry_multiplicity
 _atom_site_fract_x
 _atom_site_fract_y
 _atom_site_fract_z
 _atom_site_occupancy
  Mo  Mo0  1  0.94369801  0.65319596  0.75000000  1
  Mo  Mo1  1  0.44369801  0.84680404  0.25000000  1
  Mo  Mo2  1  0.50466354  0.15175574  0.41699182  1
  Mo  Mo3  1  0.99533646  0.65175574  0.08300818  1
  Mo  Mo4  1  0.50466354  0.15175574  0.08300818  1
  Mo  Mo5  1  0.05630199  0.34680404  0.25000000  1
  Mo  Mo6  1  0.55630199  0.15319596  0.75000000  1
  Mo  Mo7  1  0.49533646  0.84824426  0.58300818  1
  Mo  Mo8  1  0.99533646  0.65175574  0.41699182  1
  Mo  Mo9  1  0.00466354  0.34824426  0.58300818  1
  Mo  Mo10  1  0.00466354  0.34824426  0.91699182  1
  Mo  Mo11  1  0.49533646  0.84824426  0.91699182  1
  P  P12  1  0.71418890  0.64517215  0.92798167  1
  P  P13  1  0.82039885  0.43768775  0.40541583  1
  P  P14  1  0.17960115  0.56231225  0.59458417  1
  P  P15  1  0.28581110  0.35482785  0.07201833  1
  P  P16  1  0.21418890  0.85482785  0.07201833  1
  P  P17  1  0.78581110  0.14517215  0.92798167  1
  P  P18  1  0.67960115  0.93768775  0.40541583  1
  P  P19  1  0.79869668  0.43299369  0.75000000  1
  P  P20  1  0.78581110  0.14517215  0.57201833  1
  P  P21  1  0.17960115  0.56231225  0.90541583  1
  P  P22  1  0.67960115  0.93768775  0.09458417  1
  P  P23  1  0.71418890  0.64517215  0.57201833  1
  P  P24  1  0.29869668  0.06700631  0.25000000  1
  P  P25  1  0.70130332  0.93299369  0.75000000  1
  P  P26  1  0.28581110  0.35482785  0.42798167  1
  P  P27  1  0.21418890  0.85482785  0.42798167  1
  P  P28  1  0.32039885  0.06231225  0.90541583  1
  P  P29  1  0.20130332  0.56700631  0.25000000  1
  P  P30  1  0.32039885  0.06231225  0.59458417  1
  P  P31  1  0.82039885  0.43768775  0.09458417  1
  Pb  Pb32  1  0.95680322  0.90342227  0.91514578  1
  Pb  Pb33  1  0.54528273  0.39024739  0.25000000  1
  Pb  Pb34  1  0.45471727  0.60975261  0.75000000  1
  Pb  Pb35  1  0.95680322  0.90342227  0.58485422  1
  Pb  Pb36  1  0.04319678  0.09657773  0.41514578  1
  Pb  Pb37  1  0.04528273  0.10975261  0.75000000  1
  Pb  Pb38  1  0.54319678  0.40342227  0.91514578  1
  Pb  Pb39  1  0.95471727  0.89024739  0.25000000  1
  Pb  Pb40  1  0.54319678  0.40342227  0.58485422  1
  Pb  Pb41  1  0.04319678  0.09657773  0.08485422  1
  Pb  Pb42  1  0.45680322  0.59657773  0.08485422  1
  Pb  Pb43  1  0.45680322  0.59657773  0.41514578  1
  O  O44  1  0.91777004  0.21852446  0.94423350  1
  O  O45  1  0.24971253  0.35676861  0.16744733  1
  O  O46  1  0.55708570  0.01703734  0.08423601  1
  O  O47  1  0.31881478  0.12894929  0.16956761  1
  O  O48  1  0.37014851  0.82745980  0.02531243  1
  O  O49  1  0.57269326  0.00770968  0.75000000  1
  O  O50  1  0.79999767  0.38817289  0.00867367  1
  O  O51  1  0.46479895  0.72892293  0.25000000  1
  O  O52  1  0.35729171  0.44628406  0.04145334  1
  O  O53  1  0.84230202  0.97330640  0.36894091  1
  O  O54  1  0.08222996  0.78147554  0.44423350  1
  O  O55  1  0.87014851  0.67254020  0.52531243  1
  O  O56  1  0.74971253  0.14323139  0.66744733  1
  O  O57  1  0.07269326  0.49229032  0.25000000  1
  O  O58  1  0.65769798  0.47330640  0.36894091  1
  O  O59  1  0.38475940  0.13279317  0.84025740  1
  O  O60  1  0.11524060  0.63279317  0.65974260  1
  O  O61  1  0.58222996  0.71852446  0.55576650  1
  O  O62  1  0.18118522  0.62894929  0.33043239  1
  O  O63  1  0.85729171  0.05371594  0.95854666  1
  O  O64  1  0.12985149  0.32745980  0.02531243  1
  O  O65  1  0.35729171  0.44628406  0.45854666  1
  O  O66  1  0.87014851  0.67254020  0.97468757  1
  O  O67  1  0.87870964  0.96734425  0.75000000  1
  O  O68  1  0.20000233  0.61182711  0.50867367  1
  O  O69  1  0.29999767  0.11182711  0.50867367  1
  O  O70  1  0.29999767  0.11182711  0.99132633  1
  O  O71  1  0.31881478  0.12894929  0.33043239  1
  O  O72  1  0.20000233  0.61182711  0.99132633  1
  O  O73  1  0.65769798  0.47330640  0.13105909  1
  O  O74  1  0.79999767  0.38817289  0.49132633  1
  O  O75  1  0.70000233  0.88817289  0.00867367  1
  O  O76  1  0.58222996  0.71852446  0.94423350  1
  O  O77  1  0.14270829  0.94628406  0.45854666  1
  O  O78  1  0.38475940  0.13279317  0.65974260  1
  O  O79  1  0.74971253  0.14323139  0.83255267  1
  O  O80  1  0.70000233  0.88817289  0.49132633  1
  O  O81  1  0.14270829  0.94628406  0.04145334  1
  O  O82  1  0.25028747  0.85676861  0.33255267  1
  O  O83  1  0.88475940  0.36720683  0.15974260  1
  O  O84  1  0.85729171  0.05371594  0.54145334  1
  O  O85  1  0.11524060  0.63279317  0.84025740  1
  O  O86  1  0.03520105  0.22892293  0.25000000  1
  O  O87  1  0.61524060  0.86720683  0.34025740  1
  O  O88  1  0.44291430  0.98296266  0.58423601  1
  O  O89  1  0.64270829  0.55371594  0.54145334  1
  O  O90  1  0.37870964  0.53265575  0.25000000  1
  O  O91  1  0.05708570  0.48296266  0.58423601  1
  O  O92  1  0.08222996  0.78147554  0.05576650  1
  O  O93  1  0.68118522  0.87105071  0.83043239  1
  O  O94  1  0.34230202  0.52669360  0.63105909  1
  O  O95  1  0.62985149  0.17254020  0.52531243  1
  O  O96  1  0.41777004  0.28147554  0.05576650  1
  O  O97  1  0.75028747  0.64323139  0.83255267  1
  O  O98  1  0.62129036  0.46734425  0.75000000  1
  O  O99  1  0.42730674  0.99229032  0.25000000  1
  O  O100  1  0.64769117  0.18866083  0.15298054  1
  O  O101  1  0.14769117  0.31133917  0.84701946  1
  O  O102  1  0.15769798  0.02669360  0.63105909  1
  O  O103  1  0.18118522  0.62894929  0.16956761  1
  O  O104  1  0.53520105  0.27107707  0.75000000  1
  O  O105  1  0.81881478  0.37105071  0.83043239  1
  O  O106  1  0.92730674  0.50770968  0.75000000  1
  O  O107  1  0.64769117  0.18866083  0.34701946  1
  O  O108  1  0.24971253  0.35676861  0.33255267  1
  O  O109  1  0.81881478  0.37105071  0.66956761  1
  O  O110  1  0.88475940  0.36720683  0.34025740  1
  O  O111  1  0.25028747  0.85676861  0.16744733  1
  O  O112  1  0.61524060  0.86720683  0.15974260  1
  O  O113  1  0.37014851  0.82745980  0.47468757  1
  O  O114  1  0.96479895  0.77107707  0.75000000  1
  O  O115  1  0.15769798  0.02669360  0.86894091  1
  O  O116  1  0.35230883  0.81133917  0.65298054  1
  O  O117  1  0.14769117  0.31133917  0.65298054  1
  O  O118  1  0.12129036  0.03265575  0.25000000  1
  O  O119  1  0.94291430  0.51703734  0.41576399  1
  O  O120  1  0.75028747  0.64323139  0.66744733  1
  O  O121  1  0.85230883  0.68866083  0.34701946  1
  O  O122  1  0.62985149  0.17254020  0.97468757  1
  O  O123  1  0.34230202  0.52669360  0.86894091  1
  O  O124  1  0.94291430  0.51703734  0.08423601  1
  O  O125  1  0.41777004  0.28147554  0.44423350  1
  O  O126  1  0.68118522  0.87105071  0.66956761  1
  O  O127  1  0.12985149  0.32745980  0.47468757  1
  O  O128  1  0.84230202  0.97330640  0.13105909  1
  O  O129  1  0.05708570  0.48296266  0.91576399  1
  O  O130  1  0.35230883  0.81133917  0.84701946  1
  O  O131  1  0.85230883  0.68866083  0.15298054  1
  O  O132  1  0.64270829  0.55371594  0.95854666  1
  O  O133  1  0.44291430  0.98296266  0.91576399  1
  O  O134  1  0.55708570  0.01703734  0.41576399  1
  O  O135  1  0.91777004  0.21852446  0.55576650  1
