# generated using pymatgen
data_K8V2(S2O9)3
_symmetry_space_group_name_H-M   'P 1'
_cell_length_a   13.77063394
_cell_length_b   14.14345847
_cell_length_c   14.26348061
_cell_angle_alpha   90.00000000
_cell_angle_beta   90.38859029
_cell_angle_gamma   90.00000000
_symmetry_Int_Tables_number   1
_chemical_formula_structural   K8V2(S2O9)3
_chemical_formula_sum   'K32 V8 S24 O108'
_cell_volume   2777.95419806
_cell_formula_units_Z   4
loop_
 _symmetry_equiv_pos_site_id
 _symmetry_equiv_pos_as_xyz
  1  'x, y, z'
loop_
 _atom_site_type_symbol
 _atom_site_label
 _atom_site_symmetry_multiplicity
 _atom_site_fract_x
 _atom_site_fract_y
 _atom_site_fract_z
 _atom_site_occupancy
  K  K0  1  0.84473830  0.78877228  0.22656217  1
  K  K1  1  0.13895721  0.57840023  0.71577390  1
  K  K2  1  0.46907831  0.17462616  0.01398126  1
  K  K3  1  0.95550014  0.71626968  0.48468340  1
  K  K4  1  0.04449986  0.21626968  0.51531660  1
  K  K5  1  0.63853229  0.58091394  0.24743680  1
  K  K6  1  0.81211682  0.85089756  0.94930419  1
  K  K7  1  0.18788318  0.35089756  0.05069581  1
  K  K8  1  0.35150076  0.75992230  0.74464388  1
  K  K9  1  0.32355078  0.99357917  0.45008979  1
  K  K10  1  0.32205556  0.57228193  0.19728791  1
  K  K11  1  0.53092169  0.67462616  0.98601874  1
  K  K12  1  0.15983324  0.79249033  0.29162606  1
  K  K13  1  0.83665409  0.56970080  0.79495452  1
  K  K14  1  0.46285778  0.69799391  0.47908021  1
  K  K15  1  0.68870764  0.37374685  0.95842052  1
  K  K16  1  0.84016676  0.29249033  0.70837394  1
  K  K17  1  0.67794444  0.07228193  0.80271209  1
  K  K18  1  0.15526170  0.28877228  0.77343783  1
  K  K19  1  0.33933547  0.27997384  0.29919592  1
  K  K20  1  0.82400769  0.99438143  0.55788406  1
  K  K21  1  0.86104279  0.07840023  0.28422610  1
  K  K22  1  0.94843409  0.14625101  0.01008735  1
  K  K23  1  0.16334591  0.06970080  0.20504548  1
  K  K24  1  0.67644922  0.49357917  0.54991021  1
  K  K25  1  0.17599231  0.49438143  0.44211594  1
  K  K26  1  0.64849924  0.25992230  0.25535612  1
  K  K27  1  0.05156591  0.64625101  0.98991265  1
  K  K28  1  0.36146771  0.08091394  0.75256320  1
  K  K29  1  0.53714222  0.19799391  0.52091979  1
  K  K30  1  0.66066453  0.77997384  0.70080408  1
  K  K31  1  0.31129236  0.87374685  0.04157948  1
  V  V32  1  0.90405412  0.42119464  0.12322709  1
  V  V33  1  0.41205619  0.41658047  0.87590776  1
  V  V34  1  0.58794381  0.91658047  0.12409224  1
  V  V35  1  0.10481072  0.91977922  0.63079542  1
  V  V36  1  0.09594588  0.92119464  0.87677291  1
  V  V37  1  0.59445297  0.93079737  0.36770464  1
  V  V38  1  0.40554703  0.43079737  0.63229536  1
  V  V39  1  0.89518928  0.41977922  0.36920458  1
  S  S40  1  0.03015200  0.95637977  0.41480077  1
  S  S41  1  0.28565774  0.24896914  0.54934853  1
  S  S42  1  0.71145771  0.10003216  0.04933303  1
  S  S43  1  0.28854229  0.60003216  0.95066697  1
  S  S44  1  0.55182716  0.57031902  0.75164736  1
  S  S45  1  0.48632771  0.42365301  0.09593390  1
  S  S46  1  0.05117911  0.28313512  0.23665296  1
  S  S47  1  0.52297053  0.93978419  0.58983742  1
  S  S48  1  0.77676604  0.24484983  0.46970946  1
  S  S49  1  0.94882089  0.78313512  0.76334704  1
  S  S50  1  0.44121205  0.78115468  0.24551335  1
  S  S51  1  0.22323396  0.74484983  0.53029054  1
  S  S52  1  0.51367229  0.92365301  0.90406610  1
  S  S53  1  0.55878795  0.28115468  0.75448665  1
  S  S54  1  0.96984800  0.45637977  0.58519923  1
  S  S55  1  0.97860550  0.40885808  0.91171499  1
  S  S56  1  0.77479189  0.60110219  0.03309449  1
  S  S57  1  0.71434226  0.74896914  0.45065147  1
  S  S58  1  0.47702947  0.43978419  0.41016258  1
  S  S59  1  0.97275713  0.08464388  0.73676016  1
  S  S60  1  0.02724287  0.58464388  0.26323984  1
  S  S61  1  0.02139450  0.90885808  0.08828501  1
  S  S62  1  0.22520811  0.10110219  0.96690551  1
  S  S63  1  0.44817284  0.07031902  0.24835264  1
  O  O64  1  0.14807714  0.82592547  0.91615681  1
  O  O65  1  0.01760916  0.05383349  0.82689304  1
  O  O66  1  0.48974104  0.52693722  0.11199309  1
  O  O67  1  0.45946038  0.85241621  0.32039669  1
  O  O68  1  0.71838065  0.17486560  0.41722958  1
  O  O69  1  0.00628450  0.18014220  0.71161014  1
  O  O70  1  0.02084627  0.95501849  0.98849203  1
  O  O71  1  0.42777173  0.87666555  0.86366181  1
  O  O72  1  0.84891333  0.19939275  0.53200287  1
  O  O73  1  0.65363789  0.57484883  0.72049750  1
  O  O74  1  0.49212899  0.30179970  0.83849012  1
  O  O75  1  0.97093673  0.85985531  0.83729163  1
  O  O76  1  0.48146852  0.16351427  0.21524177  1
  O  O77  1  0.97712022  0.81933608  0.66965526  1
  O  O78  1  0.86558655  0.08075279  0.74055855  1
  O  O79  1  0.03309995  0.90403238  0.51086112  1
  O  O80  1  0.00093411  0.69583190  0.78842521  1
  O  O81  1  0.02287978  0.31933608  0.33034474  1
  O  O82  1  0.12328679  0.89545593  0.11907556  1
  O  O83  1  0.23168610  0.19386631  0.61957164  1
  O  O84  1  0.49369221  0.84694216  0.62799610  1
  O  O85  1  0.96919889  0.81804601  0.07983647  1
  O  O86  1  0.66931036  0.17937114  0.99586136  1
  O  O87  1  0.54829450  0.51449572  0.39090032  1
  O  O88  1  0.26473380  0.16395933  0.89412347  1
  O  O89  1  0.99371550  0.68014220  0.28838986  1
  O  O90  1  0.51025896  0.02693722  0.88800691  1
  O  O91  1  0.62974352  0.92567791  0.24427197  1
  O  O92  1  0.33068964  0.67937114  0.00413864  1
  O  O93  1  0.22816979  0.53932950  0.01100376  1
  O  O94  1  0.37025648  0.42567791  0.75572803  1
  O  O95  1  0.68971654  0.98386092  0.40913548  1
  O  O96  1  0.15759483  0.26960266  0.23201480  1
  O  O97  1  0.49608357  0.40537689  0.98915486  1
  O  O98  1  0.19803328  0.00732381  0.91576655  1
  O  O99  1  0.45170550  0.01449572  0.60909968  1
  O  O100  1  0.80196672  0.50732381  0.08423345  1
  O  O101  1  0.62214333  0.04238132  0.08436434  1
  O  O102  1  0.23654663  0.63203251  0.86596412  1
  O  O103  1  0.54108634  0.49663846  0.82531908  1
  O  O104  1  0.77674672  0.81654859  0.50102093  1
  O  O105  1  0.02906327  0.35985531  0.16270837  1
  O  O106  1  0.66054014  0.28642696  0.78711687  1
  O  O107  1  0.76831390  0.69386631  0.38042836  1
  O  O108  1  0.97003032  0.97764616  0.14744866  1
  O  O109  1  0.31860332  0.36050743  0.91783799  1
  O  O110  1  0.62243119  0.96605888  0.61955565  1
  O  O111  1  0.45891366  0.99663846  0.17468092  1
  O  O112  1  0.28161935  0.67486560  0.58277042  1
  O  O113  1  0.13458159  0.91635271  0.75447894  1
  O  O114  1  0.34636211  0.07484883  0.27950250  1
  O  O115  1  0.31028346  0.48386092  0.59086452  1
  O  O116  1  0.29924860  0.07421213  0.03734004  1
  O  O117  1  0.77183021  0.03932950  0.98899624  1
  O  O118  1  0.76345337  0.13203251  0.13403588  1
  O  O119  1  0.48883713  0.54460602  0.66542480  1
  O  O120  1  0.57222827  0.37666555  0.13633819  1
  O  O121  1  0.51853148  0.66351427  0.78475823  1
  O  O122  1  0.73526620  0.66395933  0.10587653  1
  O  O123  1  0.87671321  0.39545593  0.88092444  1
  O  O124  1  0.02819412  0.39422791  0.64655914  1
  O  O125  1  0.37785667  0.54238132  0.91563566  1
  O  O126  1  0.13002829  0.96817595  0.37945852  1
  O  O127  1  0.51829786  0.92812912  0.48184388  1
  O  O128  1  0.39334854  0.38263475  0.12808379  1
  O  O129  1  0.80890676  0.48731237  0.40672862  1
  O  O130  1  0.68139668  0.86050743  0.08216201  1
  O  O131  1  0.19109324  0.98731237  0.59327138  1
  O  O132  1  0.34024627  0.18856435  0.48357933  1
  O  O133  1  0.13441345  0.58075279  0.25944145  1
  O  O134  1  0.33945986  0.78642696  0.21288313  1
  O  O135  1  0.65975373  0.68856435  0.51642067  1
  O  O136  1  0.60665146  0.88263475  0.87191621  1
  O  O137  1  0.97915373  0.45501849  0.01150797  1
  O  O138  1  0.01785468  0.54830432  0.56880033  1
  O  O139  1  0.97180588  0.89422791  0.35344086  1
  O  O140  1  0.03080111  0.31804601  0.92016353  1
  O  O141  1  0.13901265  0.14112195  0.01236439  1
  O  O142  1  0.16686274  0.79766252  0.60906256  1
  O  O143  1  0.96690005  0.40403238  0.48913888  1
  O  O144  1  0.98239084  0.55383349  0.17310696  1
  O  O145  1  0.86098735  0.64112195  0.98763561  1
  O  O146  1  0.71545860  0.31139645  0.52194850  1
  O  O147  1  0.85192286  0.32592547  0.08384319  1
  O  O148  1  0.84240517  0.76960266  0.76798520  1
  O  O149  1  0.53511577  0.18509992  0.72129216  1
  O  O150  1  0.22325328  0.31654859  0.49897907  1
  O  O151  1  0.50787101  0.80179970  0.16150988  1
  O  O152  1  0.99697117  0.51709459  0.34235915  1
  O  O153  1  0.50391643  0.90537689  0.01084514  1
  O  O154  1  0.86541841  0.41635271  0.24552106  1
  O  O155  1  0.37756881  0.46605888  0.38044435  1
  O  O156  1  0.54053962  0.35241621  0.67960331  1
  O  O157  1  0.48170214  0.42812912  0.51815612  1
  O  O158  1  0.28454140  0.81139645  0.47805150  1
  O  O159  1  0.99906589  0.19583190  0.21157479  1
  O  O160  1  0.83313726  0.29766252  0.39093744  1
  O  O161  1  0.70075140  0.57421213  0.96265996  1
  O  O162  1  0.86997171  0.46817595  0.62054148  1
  O  O163  1  0.50630779  0.34694216  0.37200390  1
  O  O164  1  0.98214532  0.04830432  0.43119967  1
  O  O165  1  0.36482262  0.30274392  0.60735589  1
  O  O166  1  0.63517738  0.80274392  0.39264411  1
  O  O167  1  0.15108667  0.69939275  0.46799713  1
  O  O168  1  0.51116287  0.04460602  0.33457520  1
  O  O169  1  0.46488423  0.68509992  0.27870784  1
  O  O170  1  0.00302883  0.01709459  0.65764085  1
  O  O171  1  0.02996968  0.47764616  0.85255134  1
