# generated using pymatgen
data_K2NaH10IO10
_symmetry_space_group_name_H-M   'P 1'
_cell_length_a   6.80350175
_cell_length_b   7.39991942
_cell_length_c   10.83483648
_cell_angle_alpha   98.29728750
_cell_angle_beta   107.42450839
_cell_angle_gamma   93.11241596
_symmetry_Int_Tables_number   1
_chemical_formula_structural   K2NaH10IO10
_chemical_formula_sum   'K4 Na2 H20 I2 O20'
_cell_volume   512.25099846
_cell_formula_units_Z   2
loop_
 _symmetry_equiv_pos_site_id
 _symmetry_equiv_pos_as_xyz
  1  'x, y, z'
loop_
 _atom_site_type_symbol
 _atom_site_label
 _atom_site_symmetry_multiplicity
 _atom_site_fract_x
 _atom_site_fract_y
 _atom_site_fract_z
 _atom_site_occupancy
  K  K0  1  0.61807444  0.34512786  0.62437202  1
  K  K1  1  0.38192556  0.65487214  0.37562798  1
  K  K2  1  0.56845219  0.30972261  0.14766282  1
  K  K3  1  0.43154781  0.69027739  0.85233718  1
  Na  Na4  1  0.78376695  0.81538515  0.23602410  1
  Na  Na5  1  0.21623305  0.18461485  0.76397590  1
  H  H6  1  0.14771991  0.97831766  0.95953606  1
  H  H7  1  0.85228009  0.02168234  0.04046394  1
  H  H8  1  0.80498666  0.01519012  0.57472593  1
  H  H9  1  0.19501334  0.98480988  0.42527407  1
  H  H10  1  0.65893194  0.14268465  0.86110763  1
  H  H11  1  0.34106806  0.85731535  0.13889237  1
  H  H12  1  0.67803819  0.35626474  0.91872196  1
  H  H13  1  0.32196181  0.64373526  0.08127804  1
  H  H14  1  0.88906728  0.48406179  0.36992479  1
  H  H15  1  0.11093272  0.51593821  0.63007521  1
  H  H16  1  0.86414027  0.64958158  0.47168245  1
  H  H17  1  0.13585973  0.35041842  0.52831755  1
  H  H18  1  0.58003232  0.10295125  0.38027397  1
  H  H19  1  0.41996768  0.89704875  0.61972603  1
  H  H20  1  0.81903933  0.11980654  0.39317318  1
  H  H21  1  0.18096067  0.88019346  0.60682682  1
  H  H22  1  0.92869983  0.51049850  0.10842707  1
  H  H23  1  0.07130017  0.48950150  0.89157293  1
  H  H24  1  0.85001728  0.62091497  0.99079440  1
  H  H25  1  0.14998272  0.37908503  0.00920560  1
  I  I26  1  0.86072250  0.81845760  0.75437152  1
  I  I27  1  0.13927750  0.18154240  0.24562848  1
  O  O28  1  0.14656070  0.92757655  0.86707400  1
  O  O29  1  0.85343930  0.07242345  0.13292600  1
  O  O30  1  0.85909206  0.04864781  0.67293377  1
  O  O31  1  0.14090794  0.95135219  0.32706623  1
  O  O32  1  0.00077335  0.71888314  0.63737770  1
  O  O33  1  0.99922665  0.28111686  0.36262230  1
  O  O34  1  0.75923364  0.94986441  0.87946797  1
  O  O35  1  0.24076636  0.05013559  0.12053203  1
  O  O36  1  0.87446183  0.60914343  0.83437357  1
  O  O37  1  0.12553817  0.39085657  0.16562643  1
  O  O38  1  0.59688721  0.73732173  0.63957394  1
  O  O39  1  0.40311279  0.26267827  0.36042606  1
  O  O40  1  0.58028084  0.25561833  0.86064204  1
  O  O41  1  0.41971916  0.74438167  0.13935796  1
  O  O42  1  0.80960695  0.59322193  0.37690827  1
  O  O43  1  0.19039305  0.40677807  0.62309173  1
  O  O44  1  0.70826240  0.03772470  0.40717649  1
  O  O45  1  0.29173760  0.96227530  0.59282351  1
  O  O46  1  0.81136331  0.58086017  0.06554301  1
  O  O47  1  0.18863669  0.41913983  0.93445699  1
