# generated using pymatgen
data_Rb2U2WO10
_symmetry_space_group_name_H-M   'P 1'
_cell_length_a   8.41571517
_cell_length_b   9.54921969
_cell_length_c   29.09314185
_cell_angle_alpha   90.00000000
_cell_angle_beta   90.00000000
_cell_angle_gamma   105.15042837
_symmetry_Int_Tables_number   1
_chemical_formula_structural   Rb2U2WO10
_chemical_formula_sum   'Rb16 U16 W8 O80'
_cell_volume   2256.76422065
_cell_formula_units_Z   8
loop_
 _symmetry_equiv_pos_site_id
 _symmetry_equiv_pos_as_xyz
  1  'x, y, z'
loop_
 _atom_site_type_symbol
 _atom_site_label
 _atom_site_symmetry_multiplicity
 _atom_site_fract_x
 _atom_site_fract_y
 _atom_site_fract_z
 _atom_site_occupancy
  Rb  Rb0  1  0.58118740  0.60855515  0.12159019  1
  Rb  Rb1  1  0.87985404  0.95567357  0.25553115  1
  Rb  Rb2  1  0.75963288  0.81928288  0.48661902  1
  Rb  Rb3  1  0.25963288  0.31928288  0.01338098  1
  Rb  Rb4  1  0.91881260  0.89144485  0.62159019  1
  Rb  Rb5  1  0.74036712  0.68071712  0.98661902  1
  Rb  Rb6  1  0.24036712  0.18071712  0.51338098  1
  Rb  Rb7  1  0.62014596  0.54432643  0.75553115  1
  Rb  Rb8  1  0.52143638  0.48077358  0.60171810  1
  Rb  Rb9  1  0.97856362  0.01922642  0.10171810  1
  Rb  Rb10  1  0.37985404  0.45567357  0.24446885  1
  Rb  Rb11  1  0.12014596  0.04432643  0.74446885  1
  Rb  Rb12  1  0.47856362  0.51922642  0.39828190  1
  Rb  Rb13  1  0.08118740  0.10855515  0.37840981  1
  Rb  Rb14  1  0.02143638  0.98077358  0.89828190  1
  Rb  Rb15  1  0.41881260  0.39144485  0.87840981  1
  U  U16  1  0.02812995  0.52869456  0.56795381  1
  U  U17  1  0.58726071  0.08121025  0.40191129  1
  U  U18  1  0.52812995  0.02869456  0.93204619  1
  U  U19  1  0.91273929  0.41878975  0.90191129  1
  U  U20  1  0.41273929  0.91878975  0.59808871  1
  U  U21  1  0.31447528  0.85957241  0.18611208  1
  U  U22  1  0.81447528  0.35957241  0.31388792  1
  U  U23  1  0.33452982  0.78200197  0.83231373  1
  U  U24  1  0.18552472  0.64042759  0.68611208  1
  U  U25  1  0.97187005  0.47130544  0.43204619  1
  U  U26  1  0.66547018  0.21799803  0.16768627  1
  U  U27  1  0.08726071  0.58121025  0.09808871  1
  U  U28  1  0.16547018  0.71799803  0.33231373  1
  U  U29  1  0.68552472  0.14042759  0.81388792  1
  U  U30  1  0.47187005  0.97130544  0.06795381  1
  U  U31  1  0.83452982  0.28200197  0.66768627  1
  W  W32  1  0.76853597  0.18914007  0.53216819  1
  W  W33  1  0.90115274  0.54801936  0.21015195  1
  W  W34  1  0.59884726  0.95198064  0.71015195  1
  W  W35  1  0.09884726  0.45198064  0.78984805  1
  W  W36  1  0.40115274  0.04801936  0.28984805  1
  W  W37  1  0.26853597  0.68914007  0.96783181  1
  W  W38  1  0.23146403  0.81085993  0.46783181  1
  W  W39  1  0.73146403  0.31085993  0.03216819  1
  O  O40  1  0.10371984  0.92947073  0.45537226  1
  O  O41  1  0.00260754  0.81364860  0.33749996  1
  O  O42  1  0.71946104  0.82485519  0.70934082  1
  O  O43  1  0.13956970  0.55522244  0.84819335  1
  O  O44  1  0.55623811  0.11945274  0.55558898  1
  O  O45  1  0.66360415  0.46780890  0.32163086  1
  O  O46  1  0.89639720  0.35152725  0.81919202  1
  O  O47  1  0.60360280  0.14847275  0.31919202  1
  O  O48  1  0.30925854  0.07003780  0.06358228  1
  O  O49  1  0.54717505  0.25670751  0.80090709  1
  O  O50  1  0.31825586  0.81097988  0.91163993  1
  O  O51  1  0.00032176  0.51136616  0.35665785  1
  O  O52  1  0.18174414  0.68902012  0.41163993  1
  O  O53  1  0.20287744  0.62339904  0.02773942  1
  O  O54  1  0.39628016  0.57052927  0.95537226  1
  O  O55  1  0.89628016  0.07052927  0.54462774  1
  O  O56  1  0.83453866  0.13114169  0.17704986  1
  O  O57  1  0.13776653  0.37450922  0.43240344  1
  O  O58  1  0.75419029  0.36934471  0.23384797  1
  O  O59  1  0.05623811  0.61945274  0.94441102  1
  O  O60  1  0.94181044  0.69147441  0.08393822  1
  O  O61  1  0.86043030  0.44477756  0.15180665  1
  O  O62  1  0.27526727  0.03388740  0.61250020  1
  O  O63  1  0.10825382  0.62899405  0.49496122  1
  O  O64  1  0.79429676  0.28640014  0.39022639  1
  O  O65  1  0.05818956  0.30852559  0.91606178  1
  O  O66  1  0.16360415  0.96780890  0.17836914  1
  O  O67  1  0.69074146  0.92996220  0.93641772  1
  O  O68  1  0.45282495  0.74329249  0.19909291  1
  O  O69  1  0.49967824  0.98863384  0.85665785  1
  O  O70  1  0.39639720  0.85152725  0.68080798  1
  O  O71  1  0.81825586  0.31097988  0.58836007  1
  O  O72  1  0.66546134  0.36885831  0.67704986  1
  O  O73  1  0.78053896  0.67514481  0.20934082  1
  O  O74  1  0.94376189  0.38054726  0.05558898  1
  O  O75  1  0.86223347  0.62549078  0.56759656  1
  O  O76  1  0.50723846  0.06494648  0.23198050  1
  O  O77  1  0.55818956  0.80852559  0.58393822  1
  O  O78  1  0.33639585  0.53219110  0.67836914  1
  O  O79  1  0.79712256  0.37660096  0.97226058  1
  O  O80  1  0.77526727  0.53388740  0.88749980  1
  O  O81  1  0.80925854  0.57003780  0.43641772  1
  O  O82  1  0.63956970  0.05522244  0.65180665  1
  O  O83  1  0.83639585  0.03219110  0.82163086  1
  O  O84  1  0.19074146  0.42996220  0.56358228  1
  O  O85  1  0.74580971  0.13065529  0.73384797  1
  O  O86  1  0.49276154  0.93505352  0.76801950  1
  O  O87  1  0.39174618  0.87100595  0.99496122  1
  O  O88  1  0.63776653  0.87450922  0.06759656  1
  O  O89  1  0.50032176  0.01136616  0.14334215  1
  O  O90  1  0.00723846  0.56494648  0.26801950  1
  O  O91  1  0.20570324  0.71359986  0.60977361  1
  O  O92  1  0.49739246  0.68635140  0.83749996  1
  O  O93  1  0.10360280  0.64847275  0.18080798  1
  O  O94  1  0.36043030  0.94477756  0.34819335  1
  O  O95  1  0.44376189  0.88054726  0.44441102  1
  O  O96  1  0.33453866  0.63114169  0.32295014  1
  O  O97  1  0.72473273  0.96611260  0.38749980  1
  O  O98  1  0.22473273  0.46611260  0.11250020  1
  O  O99  1  0.36223347  0.12549078  0.93240344  1
  O  O100  1  0.99276154  0.43505352  0.73198050  1
  O  O101  1  0.99967824  0.48863384  0.64334215  1
  O  O102  1  0.89174618  0.37100595  0.50503878  1
  O  O103  1  0.28053896  0.17514481  0.29065918  1
  O  O104  1  0.95282495  0.24329249  0.30090709  1
  O  O105  1  0.21946104  0.32485519  0.79065918  1
  O  O106  1  0.44181044  0.19147441  0.41606178  1
  O  O107  1  0.29429676  0.78640014  0.10977361  1
  O  O108  1  0.29712256  0.87660096  0.52773942  1
  O  O109  1  0.25419029  0.86934471  0.26615203  1
  O  O110  1  0.70570324  0.21359986  0.89022639  1
  O  O111  1  0.99739246  0.18635140  0.66250004  1
  O  O112  1  0.50260754  0.31364860  0.16250004  1
  O  O113  1  0.04717505  0.75670751  0.69909291  1
  O  O114  1  0.24580971  0.63065529  0.76615203  1
  O  O115  1  0.16546134  0.86885831  0.82295014  1
  O  O116  1  0.60825382  0.12899405  0.00503878  1
  O  O117  1  0.68174414  0.18902012  0.08836007  1
  O  O118  1  0.70287744  0.12339904  0.47226058  1
  O  O119  1  0.60371984  0.42947073  0.04462774  1
