# generated using pymatgen
data_K4Na2H18Pd(IO10)2
_symmetry_space_group_name_H-M   'P 1'
_cell_length_a   6.84111840
_cell_length_b   7.31155473
_cell_length_c   10.97592597
_cell_angle_alpha   93.86337813
_cell_angle_beta   104.54878159
_cell_angle_gamma   94.27609901
_symmetry_Int_Tables_number   1
_chemical_formula_structural   K4Na2H18Pd(IO10)2
_chemical_formula_sum   'K4 Na2 H18 Pd1 I2 O20'
_cell_volume   527.81066851
_cell_formula_units_Z   1
loop_
 _symmetry_equiv_pos_site_id
 _symmetry_equiv_pos_as_xyz
  1  'x, y, z'
loop_
 _atom_site_type_symbol
 _atom_site_label
 _atom_site_symmetry_multiplicity
 _atom_site_fract_x
 _atom_site_fract_y
 _atom_site_fract_z
 _atom_site_occupancy
  K  K0  1  0.09957716  0.33113813  0.61597841  1
  K  K1  1  0.08541783  0.31835743  0.13919867  1
  K  K2  1  0.91458217  0.68164257  0.86080133  1
  K  K3  1  0.90042284  0.66886187  0.38402159  1
  Na  Na4  1  0.29367230  0.83141217  0.23283615  1
  Na  Na5  1  0.70632770  0.16858783  0.76716385  1
  H  H6  1  0.14480799  0.13909495  0.86315687  1
  H  H7  1  0.17691663  0.35722179  0.87903169  1
  H  H8  1  0.09179467  0.11142354  0.37960187  1
  H  H9  1  0.30740416  0.01224497  0.56784089  1
  H  H10  1  0.36132629  0.64586844  0.46473330  1
  H  H11  1  0.32940508  0.13031912  0.39107555  1
  H  H12  1  0.54615713  0.46587437  0.87673755  1
  H  H13  1  0.38856475  0.49059071  0.36651547  1
  H  H14  1  0.65166585  0.38457606  0.00403868  1
  H  H15  1  0.34833415  0.61542394  0.99596132  1
  H  H16  1  0.61143525  0.50940929  0.63348453  1
  H  H17  1  0.45384287  0.53412563  0.12326245  1
  H  H18  1  0.67059492  0.86968088  0.60892445  1
  H  H19  1  0.63867371  0.35413156  0.53526670  1
  H  H20  1  0.69259584  0.98775503  0.43215911  1
  H  H21  1  0.90820533  0.88857646  0.62039813  1
  H  H22  1  0.82308337  0.64277821  0.12096831  1
  H  H23  1  0.85519201  0.86090505  0.13684313  1
  Pd  Pd24  1  0.50000000  0.00000000  0.00000000  1
  I  I25  1  0.34366771  0.79403631  0.74054401  1
  I  I26  1  0.65633229  0.20596369  0.25945599  1
  O  O27  1  0.07208997  0.25291487  0.86591443  1
  O  O28  1  0.08351143  0.73209924  0.63757889  1
  O  O29  1  0.23601862  0.92802743  0.86765828  1
  O  O30  1  0.33753386  0.57572392  0.82269026  1
  O  O31  1  0.21529873  0.04131373  0.39915739  1
  O  O32  1  0.35519328  0.03815523  0.66182969  1
  O  O33  1  0.31008626  0.59888282  0.37361210  1
  O  O34  1  0.48189694  0.70028039  0.62579119  1
  O  O35  1  0.60270090  0.89443691  0.85532231  1
  O  O36  1  0.33210976  0.59762677  0.08196197  1
  O  O37  1  0.66789024  0.40237323  0.91803803  1
  O  O38  1  0.39729910  0.10556309  0.14467769  1
  O  O39  1  0.51810306  0.29971961  0.37420881  1
  O  O40  1  0.68991374  0.40111718  0.62638790  1
  O  O41  1  0.64480672  0.96184477  0.33817031  1
  O  O42  1  0.78470127  0.95868627  0.60084261  1
  O  O43  1  0.66246614  0.42427608  0.17730974  1
  O  O44  1  0.76398138  0.07197257  0.13234172  1
  O  O45  1  0.91648857  0.26790076  0.36242111  1
  O  O46  1  0.92791003  0.74708513  0.13408557  1
