# generated using pymatgen
data_K2V3P4H4O19
_symmetry_space_group_name_H-M   'P 1'
_cell_length_a   8.73170100
_cell_length_b   9.30987141
_cell_length_c   10.79081493
_cell_angle_alpha   89.95843418
_cell_angle_beta   113.31795913
_cell_angle_gamma   90.32774951
_symmetry_Int_Tables_number   1
_chemical_formula_structural   K2V3P4H4O19
_chemical_formula_sum   'K4 V6 P8 H8 O38'
_cell_volume   805.53464525
_cell_formula_units_Z   2
loop_
 _symmetry_equiv_pos_site_id
 _symmetry_equiv_pos_as_xyz
  1  'x, y, z'
loop_
 _atom_site_type_symbol
 _atom_site_label
 _atom_site_symmetry_multiplicity
 _atom_site_fract_x
 _atom_site_fract_y
 _atom_site_fract_z
 _atom_site_occupancy
  K  K0  1  0.25197332  0.17857837  0.49828347  1
  K  K1  1  0.25101812  0.61091650  0.99996958  1
  K  K2  1  0.75209152  0.82313783  0.50226096  1
  K  K3  1  0.74879872  0.38597014  0.00073539  1
  V  V4  1  0.11588465  0.24975779  0.78659784  1
  V  V5  1  0.27595780  0.74406906  0.51000620  1
  V  V6  1  0.35639048  0.24636206  0.16566650  1
  V  V7  1  0.64645872  0.75390378  0.83501189  1
  V  V8  1  0.72689241  0.25606500  0.49046514  1
  V  V9  1  0.88562682  0.75039859  0.21395439  1
  P  P10  1  0.30259541  0.94981357  0.76264703  1
  P  P11  1  0.14653010  0.50263784  0.26657154  1
  P  P12  1  0.35607461  0.50345642  0.73298676  1
  P  P13  1  0.19901268  0.95229780  0.23734258  1
  P  P14  1  0.80248084  0.04840967  0.76340870  1
  P  P15  1  0.64574052  0.49706409  0.26722513  1
  P  P16  1  0.85528747  0.49776719  0.73434937  1
  P  P17  1  0.69960243  0.05011235  0.23798957  1
  H  H18  1  0.03962434  0.58136953  0.64605081  1
  H  H19  1  0.13074445  0.92861315  0.86078985  1
  H  H20  1  0.54427814  0.42125139  0.64815743  1
  H  H21  1  0.62483525  0.06760863  0.85485610  1
  H  H22  1  0.37398085  0.92867344  0.14347140  1
  H  H23  1  0.45783903  0.57922415  0.35229903  1
  H  H24  1  0.87533978  0.06894632  0.14379023  1
  H  H25  1  0.96122668  0.42130246  0.35531478  1
  O  O26  1  0.01225189  0.73684439  0.38127163  1
  O  O27  1  0.22528416  0.87165072  0.85704233  1
  O  O28  1  0.05943668  0.39483670  0.33303519  1
  O  O29  1  0.01050399  0.91882544  0.17783096  1
  O  O30  1  0.01935610  0.60119629  0.16137445  1
  O  O31  1  0.27534033  0.40997621  0.80668523  1
  O  O32  1  0.21767406  0.58837711  0.61995812  1
  O  O33  1  0.27928460  0.11268471  0.76637963  1
  O  O34  1  0.21631907  0.89548266  0.61642381  1
  O  O35  1  0.28361520  0.90150172  0.38419595  1
  O  O36  1  0.22433705  0.11519356  0.23214825  1
  O  O37  1  0.28524978  0.59028835  0.37757378  1
  O  O38  1  0.22870001  0.41024619  0.19460273  1
  O  O39  1  0.48115481  0.60302331  0.83922623  1
  O  O40  1  0.49090906  0.91865533  0.82229857  1
  O  O41  1  0.44372219  0.39554024  0.66822421  1
  O  O42  1  0.27621954  0.87286848  0.14414068  1
  O  O43  1  0.25053900  0.23320595  0.99801658  1
  O  O44  1  0.48143912  0.73831795  0.61019116  1
  O  O45  1  0.52160891  0.26171924  0.38916486  1
  O  O46  1  0.72184154  0.12582784  0.85513813  1
  O  O47  1  0.55797022  0.60516037  0.33165572  1
  O  O48  1  0.51177671  0.08206858  0.17686668  1
  O  O49  1  0.52102850  0.39754691  0.16102471  1
  O  O50  1  0.77273210  0.58883162  0.80727902  1
  O  O51  1  0.71717358  0.41086873  0.62243492  1
  O  O52  1  0.77814790  0.88484588  0.76787563  1
  O  O53  1  0.71856009  0.09947214  0.61661545  1
  O  O54  1  0.78517007  0.10321065  0.38467526  1
  O  O55  1  0.72165541  0.88668878  0.23388994  1
  O  O56  1  0.78455583  0.41271684  0.38035800  1
  O  O57  1  0.72614648  0.59056242  0.19290148  1
  O  O58  1  0.98252898  0.39910722  0.83892211  1
  O  O59  1  0.99054584  0.08282654  0.82420813  1
  O  O60  1  0.94252840  0.60768171  0.66953070  1
  O  O61  1  0.78057399  0.12740412  0.14582421  1
  O  O62  1  0.75211865  0.76838210  0.00250110  1
  O  O63  1  0.98947603  0.26291091  0.61905281  1
