# generated using pymatgen
data_Ba2As6O11
_symmetry_space_group_name_H-M   'P 1'
_cell_length_a   9.47093112
_cell_length_b   9.44988634
_cell_length_c   8.61081427
_cell_angle_alpha   75.63961127
_cell_angle_beta   72.44215656
_cell_angle_gamma   73.57436534
_symmetry_Int_Tables_number   1
_chemical_formula_structural   Ba2As6O11
_chemical_formula_sum   'Ba4 As12 O22'
_cell_volume   693.52510476
_cell_formula_units_Z   2
loop_
 _symmetry_equiv_pos_site_id
 _symmetry_equiv_pos_as_xyz
  1  'x, y, z'
loop_
 _atom_site_type_symbol
 _atom_site_label
 _atom_site_symmetry_multiplicity
 _atom_site_fract_x
 _atom_site_fract_y
 _atom_site_fract_z
 _atom_site_occupancy
  Ba  Ba0  1  0.27833606  0.44058322  0.02269754  1
  Ba  Ba1  1  0.22601692  0.58445741  0.45997261  1
  Ba  Ba2  1  0.77398308  0.41554259  0.54002739  1
  Ba  Ba3  1  0.72166394  0.55941678  0.97730246  1
  As  As4  1  0.19662637  0.08872990  0.38210263  1
  As  As5  1  0.30557186  0.88139782  0.09863290  1
  As  As6  1  0.05807352  0.27149368  0.79859696  1
  As  As7  1  0.56379078  0.25816043  0.30198175  1
  As  As8  1  0.07111686  0.81795761  0.81672350  1
  As  As9  1  0.43228285  0.17765558  0.70133791  1
  As  As10  1  0.56771715  0.82234442  0.29866209  1
  As  As11  1  0.92888314  0.18204239  0.18327650  1
  As  As12  1  0.43620922  0.74183957  0.69801825  1
  As  As13  1  0.94192648  0.72850632  0.20140304  1
  As  As14  1  0.69442814  0.11860218  0.90136710  1
  As  As15  1  0.80337363  0.91127010  0.61789737  1
  O  O16  1  0.01160354  0.32007715  0.01402505  1
  O  O17  1  0.00702359  0.20200431  0.34220766  1
  O  O18  1  0.32084243  0.16829598  0.21626852  1
  O  O19  1  0.01565013  0.55691924  0.30917319  1
  O  O20  1  0.23482534  0.72747644  0.11205729  1
  O  O21  1  0.46744201  0.42724794  0.21420336  1
  O  O22  1  0.20151813  0.91489663  0.31242260  1
  O  O23  1  0.48741918  0.77027543  0.16082243  1
  O  O24  1  0.25555810  0.31655186  0.74926416  1
  O  O25  1  0.51048532  0.30566378  0.51641602  1
  O  O26  1  0.75266235  0.31629143  0.25698938  1
  O  O27  1  0.24733765  0.68370857  0.74301062  1
  O  O28  1  0.48951468  0.69433622  0.48358398  1
  O  O29  1  0.74444190  0.68344814  0.25073584  1
  O  O30  1  0.51258082  0.22972457  0.83917757  1
  O  O31  1  0.79848187  0.08510337  0.68757740  1
  O  O32  1  0.53255799  0.57275206  0.78579664  1
  O  O33  1  0.76517466  0.27252356  0.88794271  1
  O  O34  1  0.98434987  0.44308076  0.69082681  1
  O  O35  1  0.67915757  0.83170402  0.78373148  1
  O  O36  1  0.99297641  0.79799569  0.65779234  1
  O  O37  1  0.98839646  0.67992285  0.98597495  1
