# generated using pymatgen
data_Be3Fe4Si3TeO12
_symmetry_space_group_name_H-M   'P 1'
_cell_length_a   8.44335314
_cell_length_b   8.44803389
_cell_length_c   8.44397934
_cell_angle_alpha   90.22997378
_cell_angle_beta   90.41410714
_cell_angle_gamma   89.85736249
_symmetry_Int_Tables_number   1
_chemical_formula_structural   Be3Fe4Si3TeO12
_chemical_formula_sum   'Be6 Fe8 Si6 Te2 O24'
_cell_volume   602.28438917
_cell_formula_units_Z   2
loop_
 _symmetry_equiv_pos_site_id
 _symmetry_equiv_pos_as_xyz
  1  'x, y, z'
loop_
 _atom_site_type_symbol
 _atom_site_label
 _atom_site_symmetry_multiplicity
 _atom_site_fract_x
 _atom_site_fract_y
 _atom_site_fract_z
 _atom_site_occupancy
  Be  Be0  1  0.99939668  0.75017286  0.50150608  1
  Be  Be1  1  0.25071314  0.50114643  0.99997447  1
  Be  Be2  1  0.50017641  0.99974541  0.75013045  1
  Be  Be3  1  0.49896337  0.00050785  0.24961760  1
  Be  Be4  1  0.99981906  0.25056682  0.49987548  1
  Be  Be5  1  0.75017023  0.49960779  0.99891839  1
  Fe  Fe6  1  0.81568498  0.81074935  0.18397303  1
  Fe  Fe7  1  0.68324869  0.31103044  0.31551012  1
  Fe  Fe8  1  0.18634322  0.81236355  0.81706664  1
  Fe  Fe9  1  0.81128507  0.18445699  0.81594159  1
  Fe  Fe10  1  0.31071984  0.68234705  0.31360181  1
  Fe  Fe11  1  0.68426906  0.68912985  0.68491198  1
  Fe  Fe12  1  0.18446745  0.18488160  0.18913172  1
  Fe  Fe13  1  0.31612575  0.31111141  0.68449191  1
  Si  Si14  1  0.00131566  0.49961246  0.24989675  1
  Si  Si15  1  0.50017182  0.25085343  0.00040381  1
  Si  Si16  1  0.50099631  0.75061460  0.99983410  1
  Si  Si17  1  0.99936512  0.50013527  0.74990918  1
  Si  Si18  1  0.75047868  0.00044147  0.50064043  1
  Si  Si19  1  0.25008849  0.99809092  0.49858909  1
  Te  Te20  1  0.49969486  0.49941254  0.50017120  1
  Te  Te21  1  -0.00012770  -0.00008340  0.00038185  1
  O  O22  1  0.42231035  0.85813737  0.85610026  1
  O  O23  1  0.35621421  0.35722455  0.92190047  1
  O  O24  1  0.14497833  0.42336340  0.14316799  1
  O  O25  1  0.64434516  0.64368979  0.92188392  1
  O  O26  1  0.14454776  0.85723238  0.57714215  1
  O  O27  1  0.85776064  0.14416331  0.57808481  1
  O  O28  1  0.92202881  0.64392074  0.64450293  1
  O  O29  1  0.85677501  0.42192044  0.85545643  1
  O  O30  1  0.35818140  0.07820797  0.64144778  1
  O  O31  1  0.85497597  0.85685636  0.42259748  1
  O  O32  1  0.14259263  0.57928346  0.85732886  1
  O  O33  1  0.64264065  0.92265390  0.64190396  1
  O  O34  1  0.07815391  0.35668994  0.64407367  1
  O  O35  1  0.42235316  0.14509261  0.14279048  1
  O  O36  1  0.57841069  0.14251013  0.85794999  1
  O  O37  1  0.35666135  0.92196470  0.35511583  1
  O  O38  1  0.07786917  0.64233639  0.35886521  1
  O  O39  1  0.14214872  0.14262673  0.42146467  1
  O  O40  1  0.64443925  0.35770397  0.07770575  1
  O  O41  1  0.85875155  0.57845591  0.14140585  1
  O  O42  1  0.92205404  0.35713632  0.35514505  1
  O  O43  1  0.35851670  0.64470447  0.07738172  1
  O  O44  1  0.64167431  0.07904828  0.35824130  1
  O  O45  1  0.57825003  0.85818218  0.14386578  1
