# generated using pymatgen
data_V3OF7
_symmetry_space_group_name_H-M   'P 1'
_cell_length_a   7.97968335
_cell_length_b   9.95568301
_cell_length_c   4.01253336
_cell_angle_alpha   90.00000000
_cell_angle_beta   104.49929102
_cell_angle_gamma   90.00000000
_symmetry_Int_Tables_number   1
_chemical_formula_structural   V3OF7
_chemical_formula_sum   'V6 O2 F14'
_cell_volume   308.61594110
_cell_formula_units_Z   2
loop_
 _symmetry_equiv_pos_site_id
 _symmetry_equiv_pos_as_xyz
  1  'x, y, z'
loop_
 _atom_site_type_symbol
 _atom_site_label
 _atom_site_symmetry_multiplicity
 _atom_site_fract_x
 _atom_site_fract_y
 _atom_site_fract_z
 _atom_site_occupancy
  V  V0  1  0.07945786  0.25000000  0.52984851  1
  V  V1  1  0.35740924  0.57295108  0.66972556  1
  V  V2  1  0.35740924  0.92704892  0.66972556  1
  V  V3  1  0.64259425  0.07295063  0.31063026  1
  V  V4  1  0.64259425  0.42704937  0.31063026  1
  V  V5  1  0.92049981  0.75000000  0.44661624  1
  O  O6  1  0.41252753  0.75000000  0.69713753  1
  O  O7  1  0.58744331  0.25000000  0.28326863  1
  F  F8  1  0.07443605  0.25000000  0.02840318  1
  F  F9  1  0.10560272  0.61399432  0.55408541  1
  F  F10  1  0.10560272  0.88600568  0.55408541  1
  F  F11  1  0.26705302  0.11653497  0.62201583  1
  F  F12  1  0.26705302  0.38346503  0.62201583  1
  F  F13  1  0.39763696  0.96494677  0.18966424  1
  F  F14  1  0.39763696  0.53505323  0.18966424  1
  F  F15  1  0.60237386  0.03506448  0.79051828  1
  F  F16  1  0.60237386  0.46493552  0.79051828  1
  F  F17  1  0.73307506  0.61652601  0.35090916  1
  F  F18  1  0.73307506  0.88347399  0.35090916  1
  F  F19  1  0.89440189  0.11386092  0.44525065  1
  F  F20  1  0.89440189  0.38613908  0.44525065  1
  F  F21  1  0.92534344  0.75000000  0.95078313  1
