# generated using pymatgen
data_ZrTlCuS3
_symmetry_space_group_name_H-M   'P 1'
_cell_length_a   3.74106198
_cell_length_b   7.43763883
_cell_length_c   9.82592621
_cell_angle_alpha   90.00000000
_cell_angle_beta   90.00000000
_cell_angle_gamma   104.56601225
_symmetry_Int_Tables_number   1
_chemical_formula_structural   ZrTlCuS3
_chemical_formula_sum   'Zr2 Tl2 Cu2 S6'
_cell_volume   264.61555358
_cell_formula_units_Z   2
loop_
 _symmetry_equiv_pos_site_id
 _symmetry_equiv_pos_as_xyz
  1  'x, y, z'
loop_
 _atom_site_type_symbol
 _atom_site_label
 _atom_site_symmetry_multiplicity
 _atom_site_fract_x
 _atom_site_fract_y
 _atom_site_fract_z
 _atom_site_occupancy
  S  S0  1  0.37917187  0.75834375  0.55238255  1
  S  S1  1  0.62082813  0.24165625  0.44761745  1
  S  S2  1  0.62082813  0.24165625  0.05238255  1
  S  S3  1  0.06251348  0.12502697  0.75000000  1
  S  S4  1  0.93748652  0.87497303  0.25000000  1
  S  S5  1  0.37917187  0.75834375  0.94761745  1
  Cu  Cu6  1  0.46429822  0.92859645  0.75000000  1
  Cu  Cu7  1  0.53570178  0.07140355  0.25000000  1
  Zr  Zr8  1  0.00000000  0.00000000  0.50000000  1
  Zr  Zr9  1  0.00000000  0.00000000  0.00000000  1
  Tl  Tl10  1  0.25447434  0.50894867  0.25000000  1
  Tl  Tl11  1  0.74552566  0.49105133  0.75000000  1
