# generated using pymatgen
data_LuH6(ClO5)3
_symmetry_space_group_name_H-M   'P 1'
_cell_length_a   7.57200536
_cell_length_b   8.50178916
_cell_length_c   10.65389264
_cell_angle_alpha   79.66596430
_cell_angle_beta   78.40469624
_cell_angle_gamma   63.82220803
_symmetry_Int_Tables_number   1
_chemical_formula_structural   LuH6(ClO5)3
_chemical_formula_sum   'Lu2 H12 Cl6 O30'
_cell_volume   599.72258157
_cell_formula_units_Z   2
loop_
 _symmetry_equiv_pos_site_id
 _symmetry_equiv_pos_as_xyz
  1  'x, y, z'
loop_
 _atom_site_type_symbol
 _atom_site_label
 _atom_site_symmetry_multiplicity
 _atom_site_fract_x
 _atom_site_fract_y
 _atom_site_fract_z
 _atom_site_occupancy
  Lu  Lu0  1  0.78344034  0.01655366  0.25290414  1
  Lu  Lu1  1  0.21655966  0.98344634  0.74709586  1
  H  H2  1  0.05366091  0.29167055  0.55040594  1
  H  H3  1  0.14471951  0.17358144  0.97482918  1
  H  H4  1  0.19566158  0.28267224  0.84769165  1
  H  H5  1  0.36652833  0.29102778  0.29594993  1
  H  H6  1  0.42733773  0.26373054  0.14824720  1
  H  H7  1  0.10802967  0.78172149  0.39478181  1
  H  H8  1  0.89197033  0.21827851  0.60521819  1
  H  H9  1  0.57266227  0.73626946  0.85175280  1
  H  H10  1  0.63347167  0.70897222  0.70405007  1
  H  H11  1  0.80433842  0.71732776  0.15230835  1
  H  H12  1  0.85528049  0.82641856  0.02517082  1
  H  H13  1  0.94633909  0.70832945  0.44959406  1
  Cl  Cl14  1  0.03562969  0.65729869  0.75610835  1
  Cl  Cl15  1  0.26935348  0.77365334  0.07060015  1
  Cl  Cl16  1  0.51326126  0.21198155  0.55554533  1
  Cl  Cl17  1  0.48673874  0.78801845  0.44445467  1
  Cl  Cl18  1  0.73064652  0.22634666  0.92939985  1
  Cl  Cl19  1  0.96437031  0.34270131  0.24389165  1
  O  O20  1  0.11327068  0.28710028  0.13234422  1
  O  O21  1  0.02107588  0.21033027  0.61776135  1
  O  O22  1  0.04859221  0.37493461  0.34226640  1
  O  O23  1  0.19022002  0.16892273  0.88204765  1
  O  O24  1  0.27321225  0.60461358  0.12250917  1
  O  O25  1  0.13699082  0.90880593  0.15788071  1
  O  O26  1  0.35015314  0.33629068  0.48840249  1
  O  O27  1  0.47923754  0.23432016  0.23074210  1
  O  O28  1  0.21075044  0.50331167  0.79025433  1
  O  O29  1  0.09752831  0.80280338  0.69895585  1
  O  O30  1  0.43723637  0.12343807  0.67082595  1
  O  O31  1  0.65458179  0.07410157  0.47273972  1
  O  O32  1  0.38295718  0.70304686  0.40395126  1
  O  O33  1  0.18443982  0.82617773  0.94629290  1
  O  O34  1  0.46247084  0.77496072  0.04682279  1
  O  O35  1  0.53752916  0.22503928  0.95317721  1
  O  O36  1  0.81556018  0.17382227  0.05370710  1
  O  O37  1  0.61704282  0.29695314  0.59604874  1
  O  O38  1  0.34541821  0.92589843  0.52726028  1
  O  O39  1  0.56276363  0.87656193  0.32917405  1
  O  O40  1  0.90247169  0.19719662  0.30104415  1
  O  O41  1  0.78924956  0.49668833  0.20974567  1
  O  O42  1  0.52076246  0.76567984  0.76925790  1
  O  O43  1  0.64984686  0.66370932  0.51159751  1
  O  O44  1  0.86300918  0.09119407  0.84211929  1
  O  O45  1  0.72678775  0.39538642  0.87749083  1
  O  O46  1  0.80977998  0.83107727  0.11795235  1
  O  O47  1  0.95140779  0.62506539  0.65773360  1
  O  O48  1  0.97892412  0.78966973  0.38223865  1
  O  O49  1  0.88672932  0.71289972  0.86765578  1
