# generated using pymatgen
data_Sr5U5O19
_symmetry_space_group_name_H-M   'P 1'
_cell_length_a   6.89320438
_cell_length_b   7.76894453
_cell_length_c   8.74934087
_cell_angle_alpha   100.04620942
_cell_angle_beta   97.51994992
_cell_angle_gamma   107.29623166
_symmetry_Int_Tables_number   1
_chemical_formula_structural   Sr5U5O19
_chemical_formula_sum   'Sr5 U5 O19'
_cell_volume   432.10450949
_cell_formula_units_Z   1
loop_
 _symmetry_equiv_pos_site_id
 _symmetry_equiv_pos_as_xyz
  1  'x, y, z'
loop_
 _atom_site_type_symbol
 _atom_site_label
 _atom_site_symmetry_multiplicity
 _atom_site_fract_x
 _atom_site_fract_y
 _atom_site_fract_z
 _atom_site_occupancy
  Sr  Sr0  1  0.80311903  0.10347600  0.60394291  1
  Sr  Sr1  1  0.38670590  0.29452830  0.79877300  1
  Sr  Sr2  1  0.60473307  0.70130147  0.20406822  1
  Sr  Sr3  1  0.99901081  0.49886398  0.99728451  1
  Sr  Sr4  1  0.20465196  0.90502589  0.39230777  1
  U  U5  1  0.78216807  0.59969701  0.60062930  1
  U  U6  1  0.59683581  0.19872838  0.19382463  1
  U  U7  1  0.99848229  0.00621566  0.00284321  1
  U  U8  1  0.41304392  0.80768274  0.81280881  1
  U  U9  1  0.20259814  0.38736306  0.39086752  1
  O  O10  1  0.33118489  0.03614164  0.96442728  1
  O  O11  1  0.43865390  0.98352049  0.66751795  1
  O  O12  1  0.03517835  0.19796485  0.87374703  1
  O  O13  1  0.72983831  0.40665537  0.72825355  1
  O  O14  1  0.15710179  0.19644280  0.52256415  1
  O  O15  1  0.36629571  0.61259593  0.93944890  1
  O  O16  1  0.93993564  0.25003898  0.17815291  1
  O  O17  1  0.92551165  0.42293484  0.46684916  1
  O  O18  1  0.74760924  0.83760253  0.77661590  1
  O  O19  1  0.54665149  0.43580285  0.37526688  1
  O  O20  1  0.39691441  0.57448397  0.61688626  1
  O  O21  1  0.25544658  0.14763072  0.22585528  1
  O  O22  1  0.07597854  0.72289026  0.76880913  1
  O  O23  1  0.63494056  0.38914270  0.06829568  1
  O  O24  1  0.85254604  0.79312656  0.47204137  1
  O  O25  1  0.24484298  0.59626405  0.27728848  1
  O  O26  1  0.96059842  0.80130340  0.11786132  1
  O  O27  1  0.57277416  0.02001156  0.33461803  1
  O  O28  1  0.66056536  0.96020402  0.03638985  1
