# generated using pymatgen
data_Co(NO3)4
_symmetry_space_group_name_H-M   'P 1'
_cell_length_a   7.42561599
_cell_length_b   11.91395241
_cell_length_c   12.84753608
_cell_angle_alpha   101.62078733
_cell_angle_beta   93.83026526
_cell_angle_gamma   105.57334897
_symmetry_Int_Tables_number   1
_chemical_formula_structural   Co(NO3)4
_chemical_formula_sum   'Co4 N16 O48'
_cell_volume   1063.59422093
_cell_formula_units_Z   4
loop_
 _symmetry_equiv_pos_site_id
 _symmetry_equiv_pos_as_xyz
  1  'x, y, z'
loop_
 _atom_site_type_symbol
 _atom_site_label
 _atom_site_symmetry_multiplicity
 _atom_site_fract_x
 _atom_site_fract_y
 _atom_site_fract_z
 _atom_site_occupancy
  Co  Co0  1  0.10927234  0.83273685  0.72444288  1
  Co  Co1  1  0.47964247  0.68877443  0.24369652  1
  Co  Co2  1  0.52035753  0.31122557  0.75630348  1
  Co  Co3  1  0.89072766  0.16726315  0.27555712  1
  N  N4  1  0.10637989  0.68479684  0.87209419  1
  N  N5  1  0.18547030  0.58304188  0.35566868  1
  N  N6  1  0.04576956  0.02558075  0.79271837  1
  N  N7  1  0.45358244  0.89516811  0.69225312  1
  N  N8  1  0.20702141  0.28856659  0.38031020  1
  N  N9  1  0.42140110  0.81091552  0.11888956  1
  N  N10  1  0.30790793  0.17010703  0.60109016  1
  N  N11  1  0.40989750  0.48671797  0.11529645  1
  N  N12  1  0.59010250  0.51328203  0.88470355  1
  N  N13  1  0.69209207  0.82989297  0.39890984  1
  N  N14  1  0.57859890  0.18908448  0.88111044  1
  N  N15  1  0.79297859  0.71143341  0.61968980  1
  N  N16  1  0.54641756  0.10483189  0.30774688  1
  N  N17  1  0.95423044  0.97441925  0.20728163  1
  N  N18  1  0.81452970  0.41695812  0.64433132  1
  N  N19  1  0.89362011  0.31520316  0.12790581  1
  O  O20  1  0.07476904  0.98223813  0.69423055  1
  O  O21  1  0.06108228  0.95625432  0.85506210  1
  O  O22  1  0.01432358  0.74414121  0.92078330  1
  O  O23  1  0.15919604  0.70345774  0.77715701  1
  O  O24  1  0.16111139  0.60553163  0.90108031  1
  O  O25  1  0.09539510  0.63323660  0.30685921  1
  O  O26  1  0.12659925  0.51809611  0.41697867  1
  O  O27  1  0.01037543  0.12014671  0.81733715  1
  O  O28  1  0.32352217  0.82562617  0.61873544  1
  O  O29  1  0.04501276  0.26347713  0.41774838  1
  O  O30  1  0.38990441  0.92956020  0.78176714  1
  O  O31  1  0.30290210  0.77116162  0.18138617  1
  O  O32  1  0.39254295  0.86629336  0.05313446  1
  O  O33  1  0.27701976  0.53481930  0.12143432  1
  O  O34  1  0.19018909  0.24992843  0.27804693  1
  O  O35  1  0.36878825  0.59632147  0.34324065  1
  O  O36  1  0.27586609  0.25965644  0.66738203  1
  O  O37  1  0.19444986  0.10750748  0.52592415  1
  O  O38  1  0.61972187  0.92738052  0.68133154  1
  O  O39  1  0.52983915  0.84194991  0.37276447  1
  O  O40  1  0.35454650  0.34127010  0.43728266  1
  O  O41  1  0.43327182  0.44529828  0.82482908  1
  O  O42  1  0.57780620  0.78301120  0.13504707  1
  O  O43  1  0.40197131  0.38900948  0.06075545  1
  O  O44  1  0.59802869  0.61099052  0.93924455  1
  O  O45  1  0.42219380  0.21698880  0.86495293  1
  O  O46  1  0.56672818  0.55470172  0.17517092  1
  O  O47  1  0.64545350  0.65872990  0.56271734  1
  O  O48  1  0.47016085  0.15805009  0.62723553  1
  O  O49  1  0.38027813  0.07261948  0.31866846  1
  O  O50  1  0.80555014  0.89249252  0.47407585  1
  O  O51  1  0.72413391  0.74034356  0.33261797  1
  O  O52  1  0.63121175  0.40367853  0.65675935  1
  O  O53  1  0.80981091  0.75007157  0.72195307  1
  O  O54  1  0.72298024  0.46518070  0.87856568  1
  O  O55  1  0.60745705  0.13370664  0.94686554  1
  O  O56  1  0.69709790  0.22883838  0.81861383  1
  O  O57  1  0.61009559  0.07043980  0.21823286  1
  O  O58  1  0.95498724  0.73652287  0.58225162  1
  O  O59  1  0.67647783  0.17437383  0.38126456  1
  O  O60  1  0.98962457  0.87985329  0.18266285  1
  O  O61  1  0.87340075  0.48190389  0.58302133  1
  O  O62  1  0.90460490  0.36676340  0.69314079  1
  O  O63  1  0.83888861  0.39446837  0.09891969  1
  O  O64  1  0.84080396  0.29654226  0.22284299  1
  O  O65  1  0.98567642  0.25585879  0.07921670  1
  O  O66  1  0.93891772  0.04374568  0.14493790  1
  O  O67  1  0.92523096  0.01776187  0.30576945  1
