# generated using pymatgen
data_Na2AgAs
_symmetry_space_group_name_H-M   'P 1'
_cell_length_a   5.70619762
_cell_length_b   5.79457050
_cell_length_c   5.79457051
_cell_angle_alpha   100.43486342
_cell_angle_beta   90.00000000
_cell_angle_gamma   90.00000000
_symmetry_Int_Tables_number   1
_chemical_formula_structural   Na2AgAs
_chemical_formula_sum   'Na4 Ag2 As2'
_cell_volume   188.42852603
_cell_formula_units_Z   2
loop_
 _symmetry_equiv_pos_site_id
 _symmetry_equiv_pos_as_xyz
  1  'x, y, z'
loop_
 _atom_site_type_symbol
 _atom_site_label
 _atom_site_symmetry_multiplicity
 _atom_site_fract_x
 _atom_site_fract_y
 _atom_site_fract_z
 _atom_site_occupancy
  Na  Na0  1  0.25135414  0.67499846  0.03080498  1
  Na  Na1  1  0.75135414  0.32500154  0.96919502  1
  Na  Na2  1  0.24864586  0.03080498  0.67499846  1
  Na  Na3  1  0.74864586  0.96919502  0.32500154  1
  As  As4  1  0.75000000  0.78797889  0.78797889  1
  As  As5  1  0.25000000  0.21202111  0.21202111  1
  Ag  Ag6  1  0.50000000  0.50044989  0.49955011  1
  Ag  Ag7  1  0.00000000  0.49955011  0.50044989  1
