# generated using pymatgen
data_RbAgF3
_symmetry_space_group_name_H-M   'P 1'
_cell_length_a   6.25849148
_cell_length_b   6.25849198
_cell_length_c   6.25849147
_cell_angle_alpha   90.96999234
_cell_angle_beta   119.44156223
_cell_angle_gamma   119.44156215
_symmetry_Int_Tables_number   1
_chemical_formula_structural   RbAgF3
_chemical_formula_sum   'Rb2 Ag2 F6'
_cell_volume   174.77410083
_cell_formula_units_Z   2
loop_
 _symmetry_equiv_pos_site_id
 _symmetry_equiv_pos_as_xyz
  1  'x, y, z'
loop_
 _atom_site_type_symbol
 _atom_site_label
 _atom_site_symmetry_multiplicity
 _atom_site_fract_x
 _atom_site_fract_y
 _atom_site_fract_z
 _atom_site_occupancy
  Rb  Rb0  1  0.00000000  0.25000000  0.25000000  1
  Rb  Rb1  1  0.00000000  0.75000000  0.75000000  1
  Ag  Ag2  1  0.50000000  0.50000000  0.00000000  1
  Ag  Ag3  1  0.50000000  0.00000000  0.50000000  1
  F  F4  1  0.01469853  0.25734876  0.75734876  1
  F  F5  1  0.50000000  0.75734876  0.74265124  1
  F  F6  1  0.50000000  0.24265124  0.25734876  1
  F  F7  1  0.98530147  0.74265124  0.24265124  1
  F  F8  1  0.50000000  0.75000000  0.25000000  1
  F  F9  1  0.50000000  0.25000000  0.75000000  1
