# generated using pymatgen
data_Ba2Ti6O13
_symmetry_space_group_name_H-M   'P 1'
_cell_length_a   3.98734800
_cell_length_b   7.81701397
_cell_length_c   9.18606208
_cell_angle_alpha   97.83911338
_cell_angle_beta   90.00000000
_cell_angle_gamma   104.77612786
_symmetry_Int_Tables_number   1
_chemical_formula_structural   Ba2Ti6O13
_chemical_formula_sum   'Ba2 Ti6 O13'
_cell_volume   274.08494684
_cell_formula_units_Z   1
loop_
 _symmetry_equiv_pos_site_id
 _symmetry_equiv_pos_as_xyz
  1  'x, y, z'
loop_
 _atom_site_type_symbol
 _atom_site_label
 _atom_site_symmetry_multiplicity
 _atom_site_fract_x
 _atom_site_fract_y
 _atom_site_fract_z
 _atom_site_occupancy
  O  O0  1  0.50000000  0.00000000  0.00000000  1
  O  O1  1  0.57186550  0.14373100  0.30257019  1
  O  O2  1  0.42813450  0.85626900  0.69742981  1
  O  O3  1  0.63068807  0.26137613  0.62146086  1
  O  O4  1  0.36931193  0.73862387  0.37853914  1
  O  O5  1  0.67342834  0.34685667  0.91920045  1
  O  O6  1  0.32657166  0.65314333  0.08079955  1
  O  O7  1  0.80106518  0.60213036  0.56935765  1
  O  O8  1  0.12606331  0.25212662  0.11206466  1
  O  O9  1  0.87393669  0.74787338  0.88793534  1
  O  O10  1  0.74214518  0.48429036  0.24436125  1
  O  O11  1  0.25785482  0.51570964  0.75563875  1
  O  O12  1  0.19893482  0.39786964  0.43064235  1
  Ti  Ti13  1  0.33089727  0.66179455  0.55559132  1
  Ti  Ti14  1  0.66910273  0.33820545  0.44440868  1
  Ti  Ti15  1  0.74839195  0.49678389  0.77685232  1
  Ti  Ti16  1  0.25160805  0.50321611  0.22314768  1
  Ti  Ti17  1  0.37769369  0.75538737  0.90059389  1
  Ti  Ti18  1  0.62230631  0.24461263  0.09940611  1
  Ba  Ba19  1  0.94861496  0.89722993  0.22093073  1
  Ba  Ba20  1  0.05138504  0.10277007  0.77906927  1
