# generated using pymatgen
data_Na3SiSnBO7
_symmetry_space_group_name_H-M   'P 1'
_cell_length_a   9.11599859
_cell_length_b   6.77297868
_cell_length_c   5.31303828
_cell_angle_alpha   90.00000000
_cell_angle_beta   88.92873409
_cell_angle_gamma   90.00000000
_symmetry_Int_Tables_number   1
_chemical_formula_structural   Na3SiSnBO7
_chemical_formula_sum   'Na6 Si2 Sn2 B2 O14'
_cell_volume   327.98273884
_cell_formula_units_Z   2
loop_
 _symmetry_equiv_pos_site_id
 _symmetry_equiv_pos_as_xyz
  1  'x, y, z'
loop_
 _atom_site_type_symbol
 _atom_site_label
 _atom_site_symmetry_multiplicity
 _atom_site_fract_x
 _atom_site_fract_y
 _atom_site_fract_z
 _atom_site_occupancy
  Na  Na0  1  0.07721629  0.25000000  0.75770034  1
  Na  Na1  1  0.24720538  0.00546867  0.25278741  1
  Na  Na2  1  0.24720538  0.49453133  0.25278741  1
  Na  Na3  1  0.75279462  0.50546867  0.74721259  1
  Na  Na4  1  0.75279462  0.99453133  0.74721259  1
  Na  Na5  1  0.92278371  0.75000000  0.24229966  1
  Si  Si6  1  0.42306786  0.25000000  0.70955016  1
  Si  Si7  1  0.57693214  0.75000000  0.29044984  1
  Sn  Sn8  1  0.34068569  0.75000000  0.78375689  1
  Sn  Sn9  1  0.65931431  0.25000000  0.21624311  1
  B  B10  1  0.06091186  0.75000000  0.73291325  1
  B  B11  1  0.93908814  0.25000000  0.26708675  1
  O  O12  1  0.08504275  0.25000000  0.30022547  1
  O  O13  1  0.12918297  0.75000000  0.96877426  1
  O  O14  1  0.16512303  0.75000000  0.52992738  1
  O  O15  1  0.31978911  0.05891986  0.78326416  1
  O  O16  1  0.31978911  0.44108014  0.78326416  1
  O  O17  1  0.45838511  0.25000000  0.40059573  1
  O  O18  1  0.41951891  0.75000000  0.14607799  1
  O  O19  1  0.58048109  0.25000000  0.85392201  1
  O  O20  1  0.54161489  0.75000000  0.59940427  1
  O  O21  1  0.68021089  0.55891986  0.21673584  1
  O  O22  1  0.68021089  0.94108014  0.21673584  1
  O  O23  1  0.83487697  0.25000000  0.47007262  1
  O  O24  1  0.87081703  0.25000000  0.03122574  1
  O  O25  1  0.91495725  0.75000000  0.69977453  1
