# generated using pymatgen
data_LiVSi4(HO6)2
_symmetry_space_group_name_H-M   'P 1'
_cell_length_a   7.40030545
_cell_length_b   8.27731305
_cell_length_c   9.09388760
_cell_angle_alpha   62.59071159
_cell_angle_beta   86.37731450
_cell_angle_gamma   88.56031337
_symmetry_Int_Tables_number   1
_chemical_formula_structural   LiVSi4(HO6)2
_chemical_formula_sum   'Li2 V2 Si8 H4 O24'
_cell_volume   493.51658238
_cell_formula_units_Z   2
loop_
 _symmetry_equiv_pos_site_id
 _symmetry_equiv_pos_as_xyz
  1  'x, y, z'
loop_
 _atom_site_type_symbol
 _atom_site_label
 _atom_site_symmetry_multiplicity
 _atom_site_fract_x
 _atom_site_fract_y
 _atom_site_fract_z
 _atom_site_occupancy
  Li  Li0  1  0.34574201  0.37524083  0.85456887  1
  Li  Li1  1  0.65425799  0.62475917  0.14543113  1
  V  V2  1  0.00000000  0.50000000  0.00000000  1
  V  V3  1  0.50000000  0.00000000  0.00000000  1
  Si  Si4  1  0.12120822  0.07012881  0.16832446  1
  Si  Si5  1  0.23626895  0.29690367  0.31618110  1
  Si  Si6  1  0.26007268  0.10988797  0.68793755  1
  Si  Si7  1  0.39581628  0.74482186  0.82408129  1
  Si  Si8  1  0.60418372  0.25517814  0.17591871  1
  Si  Si9  1  0.73992732  0.89011203  0.31206245  1
  Si  Si10  1  0.76373105  0.70309633  0.68381890  1
  Si  Si11  1  0.87879178  0.92987119  0.83167554  1
  H  H12  1  0.10906743  0.60406079  0.62038847  1
  H  H13  1  0.19801607  0.54809632  0.49175054  1
  H  H14  1  0.80198393  0.45190368  0.50824946  1
  H  H15  1  0.89093257  0.39593921  0.37961153  1
  O  O16  1  0.08980378  0.45028281  0.20850757  1
  O  O17  1  0.06349862  0.04715105  0.78788154  1
  O  O18  1  0.18084666  0.10162417  0.32491462  1
  O  O19  1  0.09589553  0.27857825  0.01665502  1
  O  O20  1  0.21744211  0.62298572  0.54701275  1
  O  O21  1  0.23251372  0.27900602  0.50327686  1
  O  O22  1  0.27679719  0.96366635  0.11307526  1
  O  O23  1  0.22549384  0.60376392  0.88919002  1
  O  O24  1  0.34971832  0.93851216  0.66597496  1
  O  O25  1  0.44226605  0.36040006  0.23031829  1
  O  O26  1  0.38855025  0.16607687  0.79679681  1
  O  O27  1  0.53419209  0.20926783  0.03134861  1
  O  O28  1  0.46580791  0.79073217  0.96865139  1
  O  O29  1  0.61144975  0.83392313  0.20320319  1
  O  O30  1  0.55773395  0.63959994  0.76968171  1
  O  O31  1  0.65028168  0.06148784  0.33402504  1
  O  O32  1  0.77450616  0.39623608  0.11080998  1
  O  O33  1  0.72320281  0.03633365  0.88692474  1
  O  O34  1  0.76748628  0.72099398  0.49672314  1
  O  O35  1  0.78255789  0.37701428  0.45298725  1
  O  O36  1  0.90410447  0.72142175  0.98334498  1
  O  O37  1  0.81915434  0.89837583  0.67508538  1
  O  O38  1  0.93650138  0.95284895  0.21211846  1
  O  O39  1  0.91019622  0.54971719  0.79149243  1
