# generated using pymatgen
data_Li2Zn3(Ge3O8)2
_symmetry_space_group_name_H-M   'P 1'
_cell_length_a   8.32152258
_cell_length_b   8.31675564
_cell_length_c   8.31584565
_cell_angle_alpha   90.00000000
_cell_angle_beta   90.00000000
_cell_angle_gamma   89.74770780
_symmetry_Int_Tables_number   1
_chemical_formula_structural   Li2Zn3(Ge3O8)2
_chemical_formula_sum   'Li4 Zn6 Ge12 O32'
_cell_volume   575.51804750
_cell_formula_units_Z   2
loop_
 _symmetry_equiv_pos_site_id
 _symmetry_equiv_pos_as_xyz
  1  'x, y, z'
loop_
 _atom_site_type_symbol
 _atom_site_label
 _atom_site_symmetry_multiplicity
 _atom_site_fract_x
 _atom_site_fract_y
 _atom_site_fract_z
 _atom_site_occupancy
  Li  Li0  1  0.62614924  0.62407891  0.62391825  1
  Li  Li1  1  0.75248868  0.24909754  0.75024142  1
  Li  Li2  1  0.74751132  0.75090246  0.25024142  1
  Li  Li3  1  0.87385076  0.37592109  0.12391825  1
  Zn  Zn4  1  0.99738008  0.00068715  0.99800607  1
  Zn  Zn5  1  0.99890991  0.49832334  0.49950795  1
  Zn  Zn6  1  0.24832703  0.25022417  0.25129972  1
  Zn  Zn7  1  0.25167297  0.74977583  0.75129972  1
  Zn  Zn8  1  0.50261992  0.99931285  0.49800607  1
  Zn  Zn9  1  0.50109009  0.50167666  0.99950795  1
  Ge  Ge10  1  0.12857833  0.11776463  0.62514283  1
  Ge  Ge11  1  0.11734139  0.63073504  0.13234002  1
  Ge  Ge12  1  0.12414249  0.36980895  0.87887693  1
  Ge  Ge13  1  0.38265861  0.36926496  0.63234002  1
  Ge  Ge14  1  0.37585751  0.63019105  0.37887693  1
  Ge  Ge15  1  0.37142167  0.88223537  0.12514283  1
  Ge  Ge16  1  0.62274818  0.12788098  0.11551563  1
  Ge  Ge17  1  0.62870572  0.37999688  0.37845039  1
  Ge  Ge18  1  0.61993198  0.88315841  0.87317196  1
  Ge  Ge19  1  0.88006802  0.11684159  0.37317196  1
  Ge  Ge20  1  0.87129428  0.62000312  0.87845039  1
  Ge  Ge21  1  0.87725182  0.87211902  0.61551563  1
  O  O22  1  0.12858067  0.39362331  0.10302573  1
  O  O23  1  0.14070749  0.36225835  0.63947792  1
  O  O24  1  0.14910637  0.85669426  0.11193175  1
  O  O25  1  0.10585702  0.89625705  0.63778414  1
  O  O26  1  0.10094128  0.13799884  0.39588917  1
  O  O27  1  0.11350889  0.14874538  0.85429079  1
  O  O28  1  0.14624140  0.61179936  0.35263320  1
  O  O29  1  0.11224785  0.61245909  0.88882750  1
  O  O30  1  0.39414298  0.10374295  0.13778414  1
  O  O31  1  0.38775215  0.38754091  0.38882750  1
  O  O32  1  0.35089363  0.14330574  0.61193175  1
  O  O33  1  0.35375860  0.38820064  0.85263320  1
  O  O34  1  0.35929251  0.63774165  0.13947792  1
  O  O35  1  0.38649111  0.85125462  0.35429079  1
  O  O36  1  0.37141933  0.60637669  0.60302573  1
  O  O37  1  0.39905872  0.86200116  0.89588917  1
  O  O38  1  0.63859410  0.14167017  0.36010335  1
  O  O39  1  0.64203467  0.10581683  0.89734221  1
  O  O40  1  0.62121608  0.35294922  0.14240327  1
  O  O41  1  0.60297626  0.36930142  0.60731290  1
  O  O42  1  0.60445818  0.60107371  0.37026822  1
  O  O43  1  0.64765829  0.64370261  0.87774894  1
  O  O44  1  0.61022299  0.88983908  0.11095938  1
  O  O45  1  0.64199104  0.87737998  0.64853039  1
  O  O46  1  0.85800896  0.12262002  0.14853039  1
  O  O47  1  0.88977701  0.11016092  0.61095938  1
  O  O48  1  0.85234171  0.35629739  0.37774894  1
  O  O49  1  0.89554182  0.39892629  0.87026822  1
  O  O50  1  0.89702374  0.63069858  0.10731290  1
  O  O51  1  0.87878392  0.64705078  0.64240327  1
  O  O52  1  0.85796533  0.89418317  0.39734221  1
  O  O53  1  0.86140590  0.85832983  0.86010335  1
