# generated using pymatgen
data_V2OF4
_symmetry_space_group_name_H-M   'P 1'
_cell_length_a   4.92698814
_cell_length_b   6.86738257
_cell_length_c   5.71055390
_cell_angle_alpha   102.07372267
_cell_angle_beta   90.01373728
_cell_angle_gamma   68.99986189
_symmetry_Int_Tables_number   1
_chemical_formula_structural   V2OF4
_chemical_formula_sum   'V4 O2 F8'
_cell_volume   175.80370166
_cell_formula_units_Z   2
loop_
 _symmetry_equiv_pos_site_id
 _symmetry_equiv_pos_as_xyz
  1  'x, y, z'
loop_
 _atom_site_type_symbol
 _atom_site_label
 _atom_site_symmetry_multiplicity
 _atom_site_fract_x
 _atom_site_fract_y
 _atom_site_fract_z
 _atom_site_occupancy
  V  V0  1  0.88955493  0.72567831  0.71217929  1
  V  V1  1  0.38270419  0.72471707  0.21235533  1
  V  V2  1  0.61541540  0.27348619  0.78513171  1
  V  V3  1  0.10857304  0.27251959  0.28499510  1
  O  O4  1  0.86930828  0.99985271  0.74902382  1
  O  O5  1  0.12995815  0.99835930  0.24804267  1
  F  F6  1  0.69499217  0.76578654  0.03576643  1
  F  F7  1  0.53551782  0.76915648  0.53660079  1
  F  F8  1  0.27803043  0.59578371  0.86731093  1
  F  F9  1  0.12280424  0.59616830  0.36729432  1
  F  F10  1  0.87399094  0.40285057  0.62955639  1
  F  F11  1  0.71977925  0.40168460  0.13071209  1
  F  F12  1  0.46165423  0.23114444  0.46126578  1
  F  F13  1  0.30449492  0.23030422  0.96100535  1
