# generated using pymatgen
data_Li2SmIn
_symmetry_space_group_name_H-M   'P 1'
_cell_length_a   4.92285664
_cell_length_b   4.92286367
_cell_length_c   4.92286270
_cell_angle_alpha   59.99981564
_cell_angle_beta   59.99985114
_cell_angle_gamma   59.99990065
_symmetry_Int_Tables_number   1
_chemical_formula_structural   Li2SmIn
_chemical_formula_sum   'Li2 Sm1 In1'
_cell_volume   84.35994788
_cell_formula_units_Z   1
loop_
 _symmetry_equiv_pos_site_id
 _symmetry_equiv_pos_as_xyz
  1  'x, y, z'
loop_
 _atom_site_type_symbol
 _atom_site_label
 _atom_site_symmetry_multiplicity
 _atom_site_fract_x
 _atom_site_fract_y
 _atom_site_fract_z
 _atom_site_occupancy
  Li  Li0  1  0.99999971  0.99999962  0.99999978  1
  Li  Li1  1  0.49999970  0.49999973  0.50000002  1
  Sm  Sm2  1  0.74999907  0.74999911  0.74999925  1
  In  In3  1  0.24999951  0.24999953  0.24999895  1
