# generated using pymatgen
data_Li8FeCo3O8
_symmetry_space_group_name_H-M   'P 1'
_cell_length_a   5.36866019
_cell_length_b   5.51275628
_cell_length_c   6.99770853
_cell_angle_alpha   89.83236457
_cell_angle_beta   89.43441109
_cell_angle_gamma   89.17389204
_symmetry_Int_Tables_number   1
_chemical_formula_structural   Li8FeCo3O8
_chemical_formula_sum   'Li8 Fe1 Co3 O8'
_cell_volume   207.07256869
_cell_formula_units_Z   1
loop_
 _symmetry_equiv_pos_site_id
 _symmetry_equiv_pos_as_xyz
  1  'x, y, z'
loop_
 _atom_site_type_symbol
 _atom_site_label
 _atom_site_symmetry_multiplicity
 _atom_site_fract_x
 _atom_site_fract_y
 _atom_site_fract_z
 _atom_site_occupancy
  Li  Li0  1  0.81746070  0.95178594  0.40676494  1
  Li  Li1  1  0.64329351  0.71072650  0.74935895  1
  Li  Li2  1  0.15759639  0.78271603  0.24721339  1
  Li  Li3  1  0.30487507  0.52650274  0.90671113  1
  Li  Li4  1  0.81819977  0.46774089  0.09588142  1
  Li  Li5  1  0.65475370  0.21662108  0.75008671  1
  Li  Li6  1  0.15481573  0.28070195  0.25822742  1
  Li  Li7  1  0.31776137  0.04574610  0.59293915  1
  Fe  Fe8  1  0.55270695  0.05524714  0.10544097  1
  Co  Co9  1  0.04780949  0.94773061  0.88477104  1
  Co  Co10  1  0.55161173  0.55495077  0.38990239  1
  Co  Co11  1  0.05027790  0.44902060  0.61195191  1
  O  O12  1  0.42676533  0.94278403  0.85657378  1
  O  O13  1  0.45509083  0.90248084  0.36660847  1
  O  O14  1  0.94824744  0.59653721  0.86205753  1
  O  O15  1  0.93407076  0.56096951  0.36063091  1
  O  O16  1  0.43024431  0.43894572  0.64067284  1
  O  O17  1  0.45558138  0.41098412  0.13807894  1
  O  O18  1  0.95417903  0.09767481  0.63372307  1
  O  O19  1  0.94058260  0.05901840  0.14154604  1
