# generated using pymatgen
data_CaAlF5
_symmetry_space_group_name_H-M   'P 1'
_cell_length_a   5.45050221
_cell_length_b   5.45050221
_cell_length_c   7.43976310
_cell_angle_alpha   69.98010128
_cell_angle_beta   69.98010124
_cell_angle_gamma   71.99384655
_symmetry_Int_Tables_number   1
_chemical_formula_structural   CaAlF5
_chemical_formula_sum   'Ca2 Al2 F10'
_cell_volume   190.44991001
_cell_formula_units_Z   2
loop_
 _symmetry_equiv_pos_site_id
 _symmetry_equiv_pos_as_xyz
  1  'x, y, z'
loop_
 _atom_site_type_symbol
 _atom_site_label
 _atom_site_symmetry_multiplicity
 _atom_site_fract_x
 _atom_site_fract_y
 _atom_site_fract_z
 _atom_site_occupancy
  F  F0  1  0.79497061  0.76076765  0.61356750  1
  F  F1  1  0.23923235  0.20502939  0.88643250  1
  F  F2  1  0.20502939  0.23923235  0.38643250  1
  F  F3  1  0.76076765  0.79497061  0.11356750  1
  F  F4  1  0.94197990  0.05802010  0.75000000  1
  F  F5  1  0.05802010  0.94197990  0.25000000  1
  F  F6  1  0.72749809  0.29468196  0.02606438  1
  F  F7  1  0.70531804  0.27250191  0.47393562  1
  F  F8  1  0.27250191  0.70531804  0.97393562  1
  F  F9  1  0.29468196  0.72749809  0.52606438  1
  Al  Al10  1  0.00000000  0.00000000  0.50000000  1
  Al  Al11  1  0.00000000  0.00000000  0.00000000  1
  Ca  Ca12  1  0.45849643  0.54150357  0.25000000  1
  Ca  Ca13  1  0.54150357  0.45849643  0.75000000  1
