# generated using pymatgen
data_Ba2MgSi2O7
_symmetry_space_group_name_H-M   'P 1'
_cell_length_a   5.48856692
_cell_length_b   8.30788294
_cell_length_c   8.30788294
_cell_angle_alpha   90.00000000
_cell_angle_beta   90.00000000
_cell_angle_gamma   90.00000000
_symmetry_Int_Tables_number   1
_chemical_formula_structural   Ba2MgSi2O7
_chemical_formula_sum   'Ba4 Mg2 Si4 O14'
_cell_volume   378.82593251
_cell_formula_units_Z   2
loop_
 _symmetry_equiv_pos_site_id
 _symmetry_equiv_pos_as_xyz
  1  'x, y, z'
loop_
 _atom_site_type_symbol
 _atom_site_label
 _atom_site_symmetry_multiplicity
 _atom_site_fract_x
 _atom_site_fract_y
 _atom_site_fract_z
 _atom_site_occupancy
  O  O0  1  0.82280275  0.69464356  0.57765887  1
  O  O1  1  0.82280275  0.30535644  0.42234113  1
  O  O2  1  0.17719725  0.42234113  0.69464356  1
  O  O3  1  0.17719725  0.57765887  0.30535644  1
  O  O4  1  0.82280275  0.92234113  0.80535644  1
  O  O5  1  0.17719725  0.80535644  0.07765887  1
  O  O6  1  0.17719725  0.19464356  0.92234113  1
  O  O7  1  0.82280275  0.07765887  0.19464356  1
  O  O8  1  0.25055651  0.86004224  0.63995776  1
  O  O9  1  0.74944349  0.63995776  0.13995776  1
  O  O10  1  0.14104882  0.50000000  0.00000000  1
  O  O11  1  0.85895118  0.00000000  0.50000000  1
  O  O12  1  0.25055651  0.13995776  0.36004224  1
  O  O13  1  0.74944349  0.36004224  0.86004224  1
  Mg  Mg14  1  0.00000000  0.00000000  0.00000000  1
  Mg  Mg15  1  0.00000000  0.50000000  0.50000000  1
  Si  Si16  1  0.95488587  0.86322180  0.63677820  1
  Si  Si17  1  0.95488587  0.13677820  0.36322180  1
  Si  Si18  1  0.04511413  0.63677820  0.13677820  1
  Si  Si19  1  0.04511413  0.36322180  0.86322180  1
  Ba  Ba20  1  0.51039049  0.66527395  0.83472605  1
  Ba  Ba21  1  0.48960951  0.83472605  0.33472605  1
  Ba  Ba22  1  0.48960951  0.16527395  0.66527395  1
  Ba  Ba23  1  0.51039049  0.33472605  0.16527395  1
