# generated using pymatgen
data_Li2CrO3
_symmetry_space_group_name_H-M   'P 1'
_cell_length_a   4.93987732
_cell_length_b   4.99909738
_cell_length_c   8.37457493
_cell_angle_alpha   89.98184346
_cell_angle_beta   90.07991839
_cell_angle_gamma   89.95263249
_symmetry_Int_Tables_number   1
_chemical_formula_structural   Li2CrO3
_chemical_formula_sum   'Li8 Cr4 O12'
_cell_volume   206.80924064
_cell_formula_units_Z   4
loop_
 _symmetry_equiv_pos_site_id
 _symmetry_equiv_pos_as_xyz
  1  'x, y, z'
loop_
 _atom_site_type_symbol
 _atom_site_label
 _atom_site_symmetry_multiplicity
 _atom_site_fract_x
 _atom_site_fract_y
 _atom_site_fract_z
 _atom_site_occupancy
  Li  Li0  1  0.49976066  0.00080524  0.92021273  1
  Li  Li1  1  0.00028664  0.00115924  0.56561689  1
  Li  Li2  1  0.99915902  -0.00008060  0.25606471  1
  Li  Li3  1  0.50080805  0.99970101  0.23020109  1
  Li  Li4  1  0.00119919  0.49855946  0.72958160  1
  Li  Li5  1  0.49877752  0.49849919  0.75553631  1
  Li  Li6  1  0.49980453  0.49996542  0.06604880  1
  Li  Li7  1  0.00048065  0.50017098  0.42031170  1
  Cr  Cr8  1  -0.00005514  0.00036413  0.90571803  1
  Cr  Cr9  1  0.50060550  0.99891882  0.57996420  1
  Cr  Cr10  1  -0.00000454  0.50018768  0.07984912  1
  Cr  Cr11  1  0.50058568  0.49899310  0.40545598  1
  O  O12  1  0.24917492  0.14363075  0.74294648  1
  O  O13  1  0.28102070  0.16739758  0.42065554  1
  O  O14  1  0.21891410  0.16719766  0.06554912  1
  O  O15  1  0.71913014  0.33244402  0.56584207  1
  O  O16  1  0.78065987  0.33329616  0.92027792  1
  O  O17  1  0.74991247  0.35714525  0.24309678  1
  O  O18  1  0.24986749  0.64097709  0.24311266  1
  O  O19  1  0.21850664  0.66765607  0.92033644  1
  O  O20  1  0.28184270  0.66758766  0.56552381  1
  O  O21  1  0.78121818  0.83282075  0.06578964  1
  O  O22  1  0.71890810  0.83201217  0.41981479  1
  O  O23  1  0.74943893  0.86058418  0.74302458  1
