# generated using pymatgen
data_CoF4
_symmetry_space_group_name_H-M   'P 1'
_cell_length_a   5.59643520
_cell_length_b   5.59741973
_cell_length_c   6.45926208
_cell_angle_alpha   115.92342760
_cell_angle_beta   115.71963318
_cell_angle_gamma   89.97085379
_symmetry_Int_Tables_number   1
_chemical_formula_structural   CoF4
_chemical_formula_sum   'Co2 F8'
_cell_volume   159.41887222
_cell_formula_units_Z   2
loop_
 _symmetry_equiv_pos_site_id
 _symmetry_equiv_pos_as_xyz
  1  'x, y, z'
loop_
 _atom_site_type_symbol
 _atom_site_label
 _atom_site_symmetry_multiplicity
 _atom_site_fract_x
 _atom_site_fract_y
 _atom_site_fract_z
 _atom_site_occupancy
  Co  Co0  1  0.99779300  0.49909943  0.99864689  1
  Co  Co1  1  0.49913585  0.99964539  0.99885514  1
  F  F2  1  0.96105474  0.45856661  0.23356289  1
  F  F3  1  0.72158830  0.22732184  0.76005445  1
  F  F4  1  0.03561882  0.53874683  0.76389212  1
  F  F5  1  0.22560662  0.03867174  0.76412848  1
  F  F6  1  0.27287624  0.77186419  0.23718751  1
  F  F7  1  0.46391335  0.27291741  0.23775555  1
  F  F8  1  0.77051628  0.95780466  0.23331217  1
  F  F9  1  0.53654381  0.72799991  0.76007280  1
