# generated using pymatgen
data_LiCr2O4
_symmetry_space_group_name_H-M   'P 1'
_cell_length_a   5.08743607
_cell_length_b   5.79209241
_cell_length_c   5.79801056
_cell_angle_alpha   119.11060478
_cell_angle_beta   90.29003257
_cell_angle_gamma   89.69588591
_symmetry_Int_Tables_number   1
_chemical_formula_structural   LiCr2O4
_chemical_formula_sum   'Li2 Cr4 O8'
_cell_volume   149.26537154
_cell_formula_units_Z   2
loop_
 _symmetry_equiv_pos_site_id
 _symmetry_equiv_pos_as_xyz
  1  'x, y, z'
loop_
 _atom_site_type_symbol
 _atom_site_label
 _atom_site_symmetry_multiplicity
 _atom_site_fract_x
 _atom_site_fract_y
 _atom_site_fract_z
 _atom_site_occupancy
  Li  Li0  1  0.50042443  0.48514413  0.98445266  1
  Li  Li1  1  0.99953199  0.76489262  0.26548974  1
  Cr  Cr2  1  0.00123791  0.01560021  0.98378666  1
  Cr  Cr3  1  0.49878583  0.23435087  0.26615860  1
  Cr  Cr4  1  0.99902746  0.48447643  0.51625476  1
  Cr  Cr5  1  0.50097253  0.76546255  0.73373833  1
  O  O6  1  0.82138347  0.36098671  0.16244992  1
  O  O7  1  0.15792773  0.13471355  0.34409840  1
  O  O8  1  0.67868303  0.88895686  0.08753189  1
  O  O9  1  0.65756358  0.40502496  0.61531231  1
  O  O10  1  0.32155971  0.58803098  0.38893764  1
  O  O11  1  0.34200340  0.11532425  0.90591554  1
  O  O12  1  0.84255148  0.84491433  0.63463138  1
  O  O13  1  0.17835944  0.66191054  0.86102615  1
