# generated using pymatgen
data_LuTlSe2
_symmetry_space_group_name_H-M   'P 1'
_cell_length_a   4.11410805
_cell_length_b   4.11410841
_cell_length_c   8.12549534
_cell_angle_alpha   75.33538848
_cell_angle_beta   75.33538676
_cell_angle_gamma   59.99999716
_symmetry_Int_Tables_number   1
_chemical_formula_structural   LuTlSe2
_chemical_formula_sum   'Lu1 Tl1 Se2'
_cell_volume   113.90289246
_cell_formula_units_Z   1
loop_
 _symmetry_equiv_pos_site_id
 _symmetry_equiv_pos_as_xyz
  1  'x, y, z'
loop_
 _atom_site_type_symbol
 _atom_site_label
 _atom_site_symmetry_multiplicity
 _atom_site_fract_x
 _atom_site_fract_y
 _atom_site_fract_z
 _atom_site_occupancy
  Lu  Lu0  1  0.00000000  0.00000000  0.00000000  1
  Tl  Tl1  1  0.50000000  0.50000000  0.50000000  1
  Se  Se2  1  0.73315524  0.73315524  0.80053427  1
  Se  Se3  1  0.26684476  0.26684476  0.19946573  1
