# generated using pymatgen
data_Li3V2(O2F)2
_symmetry_space_group_name_H-M   'P 1'
_cell_length_a   5.97824788
_cell_length_b   5.99784345
_cell_length_c   14.94073029
_cell_angle_alpha   90.00000090
_cell_angle_beta   90.09293776
_cell_angle_gamma   120.10848491
_symmetry_Int_Tables_number   1
_chemical_formula_structural   Li3V2(O2F)2
_chemical_formula_sum   'Li12 V8 O16 F8'
_cell_volume   463.44152414
_cell_formula_units_Z   4
loop_
 _symmetry_equiv_pos_site_id
 _symmetry_equiv_pos_as_xyz
  1  'x, y, z'
loop_
 _atom_site_type_symbol
 _atom_site_label
 _atom_site_symmetry_multiplicity
 _atom_site_fract_x
 _atom_site_fract_y
 _atom_site_fract_z
 _atom_site_occupancy
  Li  Li0  1  0.15255046  0.86347783  0.16641199  1
  Li  Li1  1  0.18328421  0.85237405  0.66711221  1
  Li  Li2  1  0.00155088  0.50077544  0.02689436  1
  Li  Li3  1  0.15255046  0.28907263  0.16641199  1
  Li  Li4  1  0.18328421  0.33091016  0.66711221  1
  Li  Li5  1  0.33770998  0.66885499  0.29241732  1
  Li  Li6  1  0.67264047  0.83632074  0.66306536  1
  Li  Li7  1  0.52896041  0.52558971  0.04588588  1
  Li  Li8  1  0.65349714  0.32674807  0.17523383  1
  Li  Li9  1  0.52896041  0.00336969  0.04588588  1
  Li  Li10  1  0.80963738  0.67068731  0.29658224  1
  Li  Li11  1  0.80963738  0.13895007  0.29658224  1
  V  V12  1  0.99310890  0.49655445  0.50819150  1
  V  V13  1  0.00610826  0.00305463  0.49302937  1
  V  V14  1  0.33483629  0.66741815  0.83549124  1
  V  V15  1  0.50206457  0.50409877  0.49945068  1
  V  V16  1  0.33877942  0.16938921  0.83605129  1
  V  V17  1  0.50206457  0.99796581  0.49945068  1
  V  V18  1  0.83381380  0.66575025  0.82730943  1
  V  V19  1  0.83381380  0.16806355  0.82730943  1
  O  O20  1  0.16544327  0.83285806  0.89663014  1
  O  O21  1  0.16172243  0.82889507  0.43747109  1
  O  O22  1  0.02087908  0.51044004  0.75909518  1
  O  O23  1  0.16172243  0.33282736  0.43747109  1
  O  O24  1  0.16544327  0.33258521  0.89663014  1
  O  O25  1  0.01556193  0.00778146  0.75527953  1
  O  O26  1  0.34420584  0.67210342  0.57716658  1
  O  O27  1  0.65217694  0.82608847  0.89602494  1
  O  O28  1  0.67321548  0.83660824  0.42583321  1
  O  O29  1  0.48871030  0.49847481  0.75973534  1
  O  O30  1  0.32006920  0.16003460  0.57174945  1
  O  O31  1  0.66028193  0.33014096  0.43823953  1
  O  O32  1  0.64879135  0.32439518  0.89847730  1
  O  O33  1  0.48871030  0.99023548  0.75973534  1
  O  O34  1  0.83408468  0.68553704  0.57224983  1
  O  O35  1  0.83408468  0.14854764  0.57224983  1
  F  F36  1  0.98445041  0.49222520  0.25681931  1
  F  F37  1  0.99836562  0.99918331  0.25129753  1
  F  F38  1  0.32755570  0.66377785  0.07186519  1
  F  F39  1  0.48509274  0.49022917  0.24569856  1
  F  F40  1  0.36019882  0.18009891  0.08999157  1
  F  F41  1  0.48509274  0.99486357  0.24569856  1
  F  F42  1  0.84931142  0.64902376  0.09102229  1
  F  F43  1  0.84931142  0.20028766  0.09102229  1
