# generated using pymatgen
data_KLuS2
_symmetry_space_group_name_H-M   'P 1'
_cell_length_a   3.97098418
_cell_length_b   3.97098446
_cell_length_c   7.68805473
_cell_angle_alpha   75.03334947
_cell_angle_beta   75.03334981
_cell_angle_gamma   59.99999769
_symmetry_Int_Tables_number   1
_chemical_formula_structural   KLuS2
_chemical_formula_sum   'K1 Lu1 S2'
_cell_volume   100.21197109
_cell_formula_units_Z   1
loop_
 _symmetry_equiv_pos_site_id
 _symmetry_equiv_pos_as_xyz
  1  'x, y, z'
loop_
 _atom_site_type_symbol
 _atom_site_label
 _atom_site_symmetry_multiplicity
 _atom_site_fract_x
 _atom_site_fract_y
 _atom_site_fract_z
 _atom_site_occupancy
  K  K0  1  0.00000000  -0.00000000  -0.00000000  1
  Lu  Lu1  1  0.50000000  0.50000000  0.50000000  1
  S  S2  1  0.76717886  0.76717886  0.69846341  1
  S  S3  1  0.23282114  0.23282114  0.30153659  1
