# generated using pymatgen
data_Li2Mg11(WO4)12
_symmetry_space_group_name_H-M   'P 1'
_cell_length_a   10.51339763
_cell_length_b   10.79198119
_cell_length_c   17.84812123
_cell_angle_alpha   90.00000000
_cell_angle_beta   89.48363168
_cell_angle_gamma   90.00000000
_symmetry_Int_Tables_number   1
_chemical_formula_structural   Li2Mg11(WO4)12
_chemical_formula_sum   'Li4 Mg22 W24 O96'
_cell_volume   2024.97254707
_cell_formula_units_Z   2
loop_
 _symmetry_equiv_pos_site_id
 _symmetry_equiv_pos_as_xyz
  1  'x, y, z'
loop_
 _atom_site_type_symbol
 _atom_site_label
 _atom_site_symmetry_multiplicity
 _atom_site_fract_x
 _atom_site_fract_y
 _atom_site_fract_z
 _atom_site_occupancy
  Li  Li0  1  0.38109827  0.25000000  0.70852786  1
  Li  Li1  1  0.62269550  0.75000000  0.29326178  1
  Li  Li2  1  0.87791004  0.25000000  0.70878501  1
  Li  Li3  1  0.94939998  0.75000000  0.75086479  1
  Mg  Mg4  1  0.05052962  0.25000000  0.25050677  1
  Mg  Mg5  1  0.12922191  0.57836803  0.47144160  1
  Mg  Mg6  1  0.12922191  0.92163197  0.47144160  1
  Mg  Mg7  1  0.12016764  0.07352215  0.96850549  1
  Mg  Mg8  1  0.12016764  0.42647785  0.96850549  1
  Mg  Mg9  1  0.21184702  0.75000000  0.74974066  1
  Mg  Mg10  1  0.30035860  0.25000000  0.24879808  1
  Mg  Mg11  1  0.37798243  0.57854478  0.02820437  1
  Mg  Mg12  1  0.37798243  0.92145522  0.02820437  1
  Mg  Mg13  1  0.37025770  0.07319039  0.53171346  1
  Mg  Mg14  1  0.37025770  0.42680961  0.53171346  1
  Mg  Mg15  1  0.55027937  0.25000000  0.25039134  1
  Mg  Mg16  1  0.62855393  0.57642006  0.47188767  1
  Mg  Mg17  1  0.62855393  0.92357994  0.47188767  1
  Mg  Mg18  1  0.62038436  0.42684305  0.96848659  1
  Mg  Mg19  1  0.62038436  0.07315695  0.96848659  1
  Mg  Mg20  1  0.68328406  0.75000000  0.75198327  1
  Mg  Mg21  1  0.80100493  0.25000000  0.24923581  1
  Mg  Mg22  1  0.88011625  0.92284011  0.02803786  1
  Mg  Mg23  1  0.88011625  0.57715989  0.02803786  1
  Mg  Mg24  1  0.87182296  0.07276681  0.53073537  1
  Mg  Mg25  1  0.87182296  0.42723319  0.53073537  1
  W  W26  1  0.11049554  0.75000000  0.94358993  1
  W  W27  1  0.11003623  0.02680060  0.65785643  1
  W  W28  1  0.11003623  0.47319940  0.65785643  1
  W  W29  1  0.13786336  0.52301967  0.15669072  1
  W  W30  1  0.13786336  0.97698033  0.15669072  1
  W  W31  1  0.14019743  0.25000000  0.44362238  1
  W  W32  1  0.36046865  0.75000000  0.55506552  1
  W  W33  1  0.36281309  0.47544230  0.84299938  1
  W  W34  1  0.36281309  0.02455770  0.84299938  1
  W  W35  1  0.39193034  0.52417744  0.34371092  1
  W  W36  1  0.39193034  0.97582256  0.34371092  1
  W  W37  1  0.38991378  0.25000000  0.05677911  1
  W  W38  1  0.61177443  0.75000000  0.94634574  1
  W  W39  1  0.61177793  0.03102999  0.65708633  1
  W  W40  1  0.61177793  0.46897001  0.65708633  1
  W  W41  1  0.63920732  0.52289672  0.15657519  1
  W  W42  1  0.63920732  0.97710328  0.15657519  1
  W  W43  1  0.64041916  0.25000000  0.44299726  1
  W  W44  1  0.85852610  0.75000000  0.55672329  1
  W  W45  1  0.86131148  0.47834699  0.84172162  1
  W  W46  1  0.86131148  0.02165301  0.84172162  1
  W  W47  1  0.88964590  0.52613990  0.34230058  1
  W  W48  1  0.88964590  0.97386010  0.34230058  1
  W  W49  1  0.89001509  0.25000000  0.05678657  1
  O  O50  1  0.02438074  0.60733581  0.37997574  1
  O  O51  1  0.02438074  0.89266419  0.37997574  1
  O  O52  1  0.03191075  0.25000000  0.99553448  1
  O  O53  1  0.03832510  0.01437937  0.07256878  1
  O  O54  1  0.03832510  0.48562063  0.07256878  1
  O  O55  1  0.04100134  0.11698110  0.46503568  1
  O  O56  1  0.04100134  0.38301890  0.46503568  1
  O  O57  1  0.03867029  0.61273391  0.21457030  1
  O  O58  1  0.03867029  0.88726609  0.21457030  1
  O  O59  1  0.07933046  0.88003420  0.70533726  1
  O  O60  1  0.07933046  0.61996580  0.70533726  1
  O  O61  1  0.07636564  0.75000000  0.84545614  1
  O  O62  1  0.17603795  0.25000000  0.34323218  1
  O  O63  1  0.17615719  0.12433092  0.20617080  1
  O  O64  1  0.17615719  0.37566908  0.20617080  1
  O  O65  1  0.20814522  0.61553923  0.96635867  1
  O  O66  1  0.20814522  0.88446077  0.96635867  1
  O  O67  1  0.20586593  0.51113467  0.57123099  1
  O  O68  1  0.20586593  0.98886533  0.57123099  1
  O  O69  1  0.21599204  0.12008606  0.70902152  1
  O  O70  1  0.21599204  0.37991394  0.70902152  1
  O  O71  1  0.21887933  0.75000000  0.49319021  1
  O  O72  1  0.22859965  0.11062336  0.88019374  1
  O  O73  1  0.22859965  0.38937664  0.88019374  1
  O  O74  1  0.27390932  0.60732770  0.12145609  1
  O  O75  1  0.27390932  0.89267230  0.12145609  1
  O  O76  1  0.28178731  0.25000000  0.50388224  1
  O  O77  1  0.29126217  0.11704275  0.03577222  1
  O  O78  1  0.29126217  0.38295725  0.03577222  1
  O  O79  1  0.29116994  0.01265392  0.42774172  1
  O  O80  1  0.29116994  0.48734608  0.42774172  1
  O  O81  1  0.29315657  0.61493425  0.28842312  1
  O  O82  1  0.29315657  0.88506575  0.28842312  1
  O  O83  1  0.31288124  0.75000000  0.65024168  1
  O  O84  1  0.31193037  0.61504270  0.79800785  1
  O  O85  1  0.31193037  0.88495730  0.79800785  1
  O  O86  1  0.42684429  0.25000000  0.15693957  1
  O  O87  1  0.42593190  0.12366153  0.29354977  1
  O  O88  1  0.42593190  0.37633847  0.29354977  1
  O  O89  1  0.45833813  0.61330080  0.53431633  1
  O  O90  1  0.45833813  0.88669920  0.53431633  1
  O  O91  1  0.45763573  0.11598751  0.78067405  1
  O  O92  1  0.45763573  0.38401249  0.78067405  1
  O  O93  1  0.46294571  0.51443094  0.92783995  1
  O  O94  1  0.46294571  0.98556906  0.92783995  1
  O  O95  1  0.46590016  0.75000000  0.00648289  1
  O  O96  1  0.47068619  0.11493492  0.62248938  1
  O  O97  1  0.47068619  0.38506508  0.62248938  1
  O  O98  1  0.53023547  0.61147018  0.37665663  1
  O  O99  1  0.53023547  0.88852982  0.37665663  1
  O  O100  1  0.53251092  0.25000000  0.99578622  1
  O  O101  1  0.53782025  0.01294015  0.07396050  1
  O  O102  1  0.53782025  0.48705985  0.07396050  1
  O  O103  1  0.54106160  0.11637930  0.46362927  1
  O  O104  1  0.54106160  0.38362070  0.46362927  1
  O  O105  1  0.54715422  0.61824854  0.21649142  1
  O  O106  1  0.54715422  0.88175146  0.21649142  1
  O  O107  1  0.58059671  0.61435898  0.70248736  1
  O  O108  1  0.58059671  0.88564102  0.70248736  1
  O  O109  1  0.57783609  0.75000000  0.84927804  1
  O  O110  1  0.67632467  0.25000000  0.34267045  1
  O  O111  1  0.67649174  0.12415121  0.20604386  1
  O  O112  1  0.67649174  0.37584879  0.20604386  1
  O  O113  1  0.71014632  0.61478659  0.96763115  1
  O  O114  1  0.71014632  0.88521341  0.96763115  1
  O  O115  1  0.70763717  0.50935722  0.57046047  1
  O  O116  1  0.70763717  0.99064278  0.57046047  1
  O  O117  1  0.71976396  0.12112461  0.70969158  1
  O  O118  1  0.71976396  0.37887539  0.70969158  1
  O  O119  1  0.71753519  0.75000000  0.49422488  1
  O  O120  1  0.72753716  0.10767419  0.87884240  1
  O  O121  1  0.72753716  0.39232581  0.87884240  1
  O  O122  1  0.77541651  0.60549021  0.12150301  1
  O  O123  1  0.77541651  0.89450979  0.12150301  1
  O  O124  1  0.78137213  0.25000000  0.50368847  1
  O  O125  1  0.79060077  0.11724338  0.03568626  1
  O  O126  1  0.79060077  0.38275662  0.03568626  1
  O  O127  1  0.79116703  0.01426796  0.42663139  1
  O  O128  1  0.79116703  0.48573204  0.42663139  1
  O  O129  1  0.78420955  0.62048904  0.29122262  1
  O  O130  1  0.78420955  0.87951096  0.29122262  1
  O  O131  1  0.81701204  0.75000000  0.65385878  1
  O  O132  1  0.81683717  0.62201872  0.79524449  1
  O  O133  1  0.81683717  0.87798128  0.79524449  1
  O  O134  1  0.92594666  0.25000000  0.15696370  1
  O  O135  1  0.92492586  0.12272746  0.29312992  1
  O  O136  1  0.92492586  0.37727254  0.29312992  1
  O  O137  1  0.95769405  0.61487520  0.53551116  1
  O  O138  1  0.95769405  0.88512480  0.53551116  1
  O  O139  1  0.95733068  0.11490664  0.78161459  1
  O  O140  1  0.95733068  0.38509336  0.78161459  1
  O  O141  1  0.96168787  0.98573419  0.92641940  1
  O  O142  1  0.96168787  0.51426581  0.92641940  1
  O  O143  1  0.96616337  0.75000000  0.00480945  1
  O  O144  1  0.97090343  0.11238323  0.62315522  1
  O  O145  1  0.97090343  0.38761677  0.62315522  1
