# generated using pymatgen
data_KSmSe2
_symmetry_space_group_name_H-M   'P 1'
_cell_length_a   4.30787080
_cell_length_b   4.30787041
_cell_length_c   8.06610451
_cell_angle_alpha   74.51207005
_cell_angle_beta   74.51206734
_cell_angle_gamma   60.00000311
_symmetry_Int_Tables_number   1
_chemical_formula_structural   KSmSe2
_chemical_formula_sum   'K1 Sm1 Se2'
_cell_volume   123.31773937
_cell_formula_units_Z   1
loop_
 _symmetry_equiv_pos_site_id
 _symmetry_equiv_pos_as_xyz
  1  'x, y, z'
loop_
 _atom_site_type_symbol
 _atom_site_label
 _atom_site_symmetry_multiplicity
 _atom_site_fract_x
 _atom_site_fract_y
 _atom_site_fract_z
 _atom_site_occupancy
  K  K0  1  0.00000000  0.00000000  0.00000000  1
  Sm  Sm1  1  0.50000000  0.50000000  0.50000000  1
  Se  Se2  1  0.76354869  0.76354869  0.70935394  1
  Se  Se3  1  0.23645131  0.23645131  0.29064606  1
