# generated using pymatgen
data_HoTlS2
_symmetry_space_group_name_H-M   'P 1'
_cell_length_a   4.01085965
_cell_length_b   4.01085934
_cell_length_c   7.89151100
_cell_angle_alpha   75.27826074
_cell_angle_beta   75.27825820
_cell_angle_gamma   60.00000258
_symmetry_Int_Tables_number   1
_chemical_formula_structural   HoTlS2
_chemical_formula_sum   'Ho1 Tl1 S2'
_cell_volume   105.10263927
_cell_formula_units_Z   1
loop_
 _symmetry_equiv_pos_site_id
 _symmetry_equiv_pos_as_xyz
  1  'x, y, z'
loop_
 _atom_site_type_symbol
 _atom_site_label
 _atom_site_symmetry_multiplicity
 _atom_site_fract_x
 _atom_site_fract_y
 _atom_site_fract_z
 _atom_site_occupancy
  Ho  Ho0  1  0.00000000  0.00000000  0.00000000  1
  Tl  Tl1  1  0.50000000  0.50000000  0.50000000  1
  S  S2  1  0.73222035  0.73222035  0.80333894  1
  S  S3  1  0.26777965  0.26777965  0.19666106  1
