# generated using pymatgen
data_Fe3Pt
_symmetry_space_group_name_H-M   'P 1'
_cell_length_a   2.72279992
_cell_length_b   2.72279992
_cell_length_c   8.38784110
_cell_angle_alpha   90.00000000
_cell_angle_beta   80.65920893
_cell_angle_gamma   120.00000000
_symmetry_Int_Tables_number   1
_chemical_formula_structural   Fe3Pt
_chemical_formula_sum   'Fe3 Pt1'
_cell_volume   52.89905712
_cell_formula_units_Z   1
loop_
 _symmetry_equiv_pos_site_id
 _symmetry_equiv_pos_as_xyz
  1  'x, y, z'
loop_
 _atom_site_type_symbol
 _atom_site_label
 _atom_site_symmetry_multiplicity
 _atom_site_fract_x
 _atom_site_fract_y
 _atom_site_fract_z
 _atom_site_occupancy
  Fe  Fe0  1  0.49050045  0.24525023  0.26424932  1
  Fe  Fe1  1  0.00000000  0.50000000  0.50000000  1
  Fe  Fe2  1  0.50949955  0.75474977  0.73575068  1
  Pt  Pt3  1  0.00000000  0.00000000  -0.00000000  1
