# generated using pymatgen
data_LiCr2(CO3)4
_symmetry_space_group_name_H-M   'P 1'
_cell_length_a   6.59163569
_cell_length_b   7.66545558
_cell_length_c   5.17864818
_cell_angle_alpha   88.34681087
_cell_angle_beta   113.62450609
_cell_angle_gamma   90.06464087
_symmetry_Int_Tables_number   1
_chemical_formula_structural   LiCr2(CO3)4
_chemical_formula_sum   'Li1 Cr2 C4 O12'
_cell_volume   239.62095891
_cell_formula_units_Z   1
loop_
 _symmetry_equiv_pos_site_id
 _symmetry_equiv_pos_as_xyz
  1  'x, y, z'
loop_
 _atom_site_type_symbol
 _atom_site_label
 _atom_site_symmetry_multiplicity
 _atom_site_fract_x
 _atom_site_fract_y
 _atom_site_fract_z
 _atom_site_occupancy
  Li  Li0  1  0.83421320  0.55286588  0.61964914  1
  Cr  Cr1  1  0.00339240  0.00133948  0.00027380  1
  Cr  Cr2  1  0.48985162  0.50496652  0.98472266  1
  C  C3  1  0.13093857  0.26806416  0.88027056  1
  C  C4  1  0.36143388  0.76587585  0.11437243  1
  C  C5  1  0.64451630  0.24219653  0.88496673  1
  C  C6  1  0.86668532  0.73427737  0.13059378  1
  O  O7  1  0.08733010  0.13164042  0.72332350  1
  O  O8  1  0.17590730  0.41750079  0.79685389  1
  O  O9  1  0.37858375  0.75346489  0.87642654  1
  O  O10  1  0.11071665  0.24264768  0.11810935  1
  O  O11  1  0.29463784  0.91004595  0.18483895  1
  O  O12  1  0.41762581  0.63021053  0.28329422  1
  O  O13  1  0.62257006  0.38291192  0.72902003  1
  O  O14  1  0.71092792  0.09451479  0.82504469  1
  O  O15  1  0.88653051  0.74892815  0.88965221  1
  O  O16  1  0.58932933  0.25352290  0.09500917  1
  O  O17  1  0.79964661  0.59369148  0.21350321  1
  O  O18  1  0.92159181  0.87019271  0.28375014  1
