# generated using pymatgen
data_TiMo3
_symmetry_space_group_name_H-M   'P 1'
_cell_length_a   3.17696476
_cell_length_b   4.44737494
_cell_length_c   5.25553390
_cell_angle_alpha   115.03131392
_cell_angle_beta   107.59276221
_cell_angle_gamma   90.00000000
_symmetry_Int_Tables_number   1
_chemical_formula_structural   TiMo3
_chemical_formula_sum   'Ti1 Mo3'
_cell_volume   63.42805710
_cell_formula_units_Z   1
loop_
 _symmetry_equiv_pos_site_id
 _symmetry_equiv_pos_as_xyz
  1  'x, y, z'
loop_
 _atom_site_type_symbol
 _atom_site_label
 _atom_site_symmetry_multiplicity
 _atom_site_fract_x
 _atom_site_fract_y
 _atom_site_fract_z
 _atom_site_occupancy
  Ti  Ti0  1  0.00000000  0.50000000  0.00000000  1
  Mo  Mo1  1  0.24403214  0.24403214  0.48806428  1
  Mo  Mo2  1  0.75596786  0.75596786  0.51193572  1
  Mo  Mo3  1  0.50000000  0.00000000  0.00000000  1
