# generated using pymatgen
data_LaNiC2
_symmetry_space_group_name_H-M   'P 1'
_cell_length_a   3.82731315
_cell_length_b   3.82731315
_cell_length_c   3.97763524
_cell_angle_alpha   90.00000000
_cell_angle_beta   90.00000000
_cell_angle_gamma   106.73987120
_symmetry_Int_Tables_number   1
_chemical_formula_structural   LaNiC2
_chemical_formula_sum   'La1 Ni1 C2'
_cell_volume   55.79653082
_cell_formula_units_Z   1
loop_
 _symmetry_equiv_pos_site_id
 _symmetry_equiv_pos_as_xyz
  1  'x, y, z'
loop_
 _atom_site_type_symbol
 _atom_site_label
 _atom_site_symmetry_multiplicity
 _atom_site_fract_x
 _atom_site_fract_y
 _atom_site_fract_z
 _atom_site_occupancy
  La  La0  1  0.00005712  -0.00005712  0.00000000  1
  Ni  Ni1  1  0.38738087  0.61261913  0.50000000  1
  C  C2  1  0.84817682  0.45061481  0.50000000  1
  C  C3  1  0.54938519  0.15182318  0.50000000  1
