# generated using pymatgen
data_LiMn2F7
_symmetry_space_group_name_H-M   'P 1'
_cell_length_a   8.22962577
_cell_length_b   13.00137407
_cell_length_c   9.71642095
_cell_angle_alpha   86.86255583
_cell_angle_beta   88.96167177
_cell_angle_gamma   103.00132726
_symmetry_Int_Tables_number   1
_chemical_formula_structural   LiMn2F7
_chemical_formula_sum   'Li8 Mn16 F56'
_cell_volume   1010.95827186
_cell_formula_units_Z   8
loop_
 _symmetry_equiv_pos_site_id
 _symmetry_equiv_pos_as_xyz
  1  'x, y, z'
loop_
 _atom_site_type_symbol
 _atom_site_label
 _atom_site_symmetry_multiplicity
 _atom_site_fract_x
 _atom_site_fract_y
 _atom_site_fract_z
 _atom_site_occupancy
  Li  Li0  1  0.97315666  0.29622692  0.13332822  1
  Li  Li1  1  0.97156716  0.29330990  0.63071232  1
  Li  Li2  1  0.38240545  0.80730860  0.15965139  1
  Li  Li3  1  0.60434118  0.18543883  0.40256430  1
  Li  Li4  1  0.60023869  0.17624392  0.90762725  1
  Li  Li5  1  0.01747892  0.89498230  0.64143224  1
  Li  Li6  1  0.04444595  0.72660261  0.36393102  1
  Li  Li7  1  0.06018704  0.72127883  0.87731388  1
  Mn  Mn8  1  0.31532830  0.95466148  0.37195292  1
  Mn  Mn9  1  0.32084214  0.95078628  0.87074558  1
  Mn  Mn10  1  0.17519965  0.54078184  0.14359581  1
  Mn  Mn11  1  0.17533768  0.53796428  0.64419049  1
  Mn  Mn12  1  0.21827676  0.17078966  0.12648131  1
  Mn  Mn13  1  0.21531844  0.16738417  0.62599564  1
  Mn  Mn14  1  0.38139825  0.37546838  0.40562192  1
  Mn  Mn15  1  0.37256019  0.37082489  0.90336222  1
  Mn  Mn16  1  0.58391933  0.61566523  0.14937158  1
  Mn  Mn17  1  0.57933938  0.61448142  0.64832721  1
  Mn  Mn18  1  0.80343039  0.83878967  0.88950371  1
  Mn  Mn19  1  0.78654955  0.84152070  0.38035661  1
  Mn  Mn20  1  0.80742619  0.46550556  0.40570910  1
  Mn  Mn21  1  0.80643911  0.46635200  0.90400827  1
  Mn  Mn22  1  0.68096174  0.03925107  0.62462024  1
  Mn  Mn23  1  0.69500721  0.03494240  0.12777800  1
  F  F24  1  0.01458764  0.84523661  0.46826543  1
  F  F25  1  0.02687466  0.84485475  0.96781710  1
  F  F26  1  0.01510544  0.43593689  0.25129910  1
  F  F27  1  0.01183556  0.43291015  0.75066244  1
  F  F28  1  0.20863757  0.87212151  0.23692957  1
  F  F29  1  0.20772516  0.87551917  0.73480630  1
  F  F30  1  0.14798961  0.64201350  0.75322859  1
  F  F31  1  0.15583445  0.64932784  0.25099398  1
  F  F32  1  0.21703479  0.43816329  0.02914674  1
  F  F33  1  0.21304020  0.43339107  0.52817308  1
  F  F34  1  0.12967523  0.24379212  0.49323153  1
  F  F35  1  0.13672879  0.25135514  0.99368334  1
  F  F36  1  0.15015073  0.05529342  0.03209990  1
  F  F37  1  0.14653842  0.04522358  0.53618387  1
  F  F38  1  0.34670443  0.83727564  0.46403135  1
  F  F39  1  0.34747236  0.82978598  0.96753289  1
  F  F40  1  0.35750352  0.63282354  0.05072591  1
  F  F41  1  0.36013252  0.62781912  0.55160673  1
  F  F42  1  0.28676056  0.28669432  0.73050589  1
  F  F43  1  0.29421588  0.29145893  0.23123859  1
  F  F44  1  0.30301645  0.09020632  0.26573854  1
  F  F45  1  0.30137917  0.08630245  0.76548504  1
  F  F46  1  0.40896606  0.51351544  0.26823881  1
  F  F47  1  0.39991906  0.50627732  0.76879907  1
  F  F48  1  0.54218517  0.94957083  0.75476491  1
  F  F49  1  0.53074296  0.94101308  0.24272245  1
  F  F50  1  0.54393523  0.72871506  0.24312681  1
  F  F51  1  0.55971726  0.72019964  0.75493645  1
  F  F52  1  0.41704861  0.22765362  0.51920670  1
  F  F53  1  0.42031842  0.22603904  0.01890438  1
  F  F54  1  0.46719544  0.03408899  0.99034403  1
  F  F55  1  0.47088548  0.04046368  0.48657544  1
  F  F56  1  0.60329238  0.50145439  0.04067843  1
  F  F57  1  0.59437978  0.49937620  0.53446749  1
  F  F58  1  0.70877869  0.91418336  0.02004519  1
  F  F59  1  0.72094126  0.92016012  0.52545018  1
  F  F60  1  0.71339452  0.70892663  0.00387775  1
  F  F61  1  0.70460952  0.71288624  0.49821072  1
  F  F62  1  0.62522836  0.36417498  0.33562636  1
  F  F63  1  0.62020175  0.36638710  0.83910902  1
  F  F64  1  0.65876508  0.15521442  0.72254217  1
  F  F65  1  0.66385174  0.14982007  0.22232647  1
  F  F66  1  0.84805835  0.96514572  0.26573275  1
  F  F67  1  0.86917692  0.95802674  0.76571821  1
  F  F68  1  0.88561181  0.76692783  0.75443100  1
  F  F69  1  0.86757384  0.76668759  0.25271850  1
  F  F70  1  0.76567309  0.56698052  0.27582240  1
  F  F71  1  0.76007267  0.56582723  0.77148345  1
  F  F72  1  0.83796784  0.35720486  0.02088070  1
  F  F73  1  0.83511255  0.35544996  0.52216418  1
  F  F74  1  0.79052107  0.13507185  0.48917864  1
  F  F75  1  0.79473492  0.13005534  0.98810938  1
  F  F76  1  0.97515534  0.56652454  0.99245122  1
  F  F77  1  0.97508313  0.56476289  0.49237222  1
  F  F78  1  0.01485349  0.15421858  0.71448467  1
  F  F79  1  0.01852368  0.16024779  0.21494068  1
