# generated using pymatgen
data_Tc3N
_symmetry_space_group_name_H-M   'P 1'
_cell_length_a   2.82078976
_cell_length_b   2.82035070
_cell_length_c   7.09919969
_cell_angle_alpha   90.00000000
_cell_angle_beta   90.00000000
_cell_angle_gamma   120.00514989
_symmetry_Int_Tables_number   1
_chemical_formula_structural   Tc3N
_chemical_formula_sum   'Tc3 N1'
_cell_volume   48.90928533
_cell_formula_units_Z   1
loop_
 _symmetry_equiv_pos_site_id
 _symmetry_equiv_pos_as_xyz
  1  'x, y, z'
loop_
 _atom_site_type_symbol
 _atom_site_label
 _atom_site_symmetry_multiplicity
 _atom_site_fract_x
 _atom_site_fract_y
 _atom_site_fract_z
 _atom_site_occupancy
  Tc  Tc0  1  0.66676869  0.33353738  0.50000000  1
  Tc  Tc1  1  0.33327378  0.66654755  0.80372232  1
  Tc  Tc2  1  0.33327378  0.66654755  0.19627768  1
  N  N3  1  0.66668376  0.33336752  0.00000000  1
