# generated using pymatgen
data_ErGa
_symmetry_space_group_name_H-M   'P 1'
_cell_length_a   4.05050143
_cell_length_b   4.28117043
_cell_length_c   5.79958676
_cell_angle_alpha   111.65967340
_cell_angle_beta   90.00000000
_cell_angle_gamma   90.00000000
_symmetry_Int_Tables_number   1
_chemical_formula_structural   ErGa
_chemical_formula_sum   'Er2 Ga2'
_cell_volume   93.46899180
_cell_formula_units_Z   2
loop_
 _symmetry_equiv_pos_site_id
 _symmetry_equiv_pos_as_xyz
  1  'x, y, z'
loop_
 _atom_site_type_symbol
 _atom_site_label
 _atom_site_symmetry_multiplicity
 _atom_site_fract_x
 _atom_site_fract_y
 _atom_site_fract_z
 _atom_site_occupancy
  Er  Er0  1  0.25000000  0.13986219  0.27972439  1
  Er  Er1  1  0.75000000  0.86013781  0.72027561  1
  Ga  Ga2  1  0.25000000  0.42310152  0.84620305  1
  Ga  Ga3  1  0.75000000  0.57689848  0.15379695  1
