# generated using pymatgen
data_Li5TiV3O8
_symmetry_space_group_name_H-M   'P 1'
_cell_length_a   8.56956627
_cell_length_b   8.53999799
_cell_length_c   8.73075365
_cell_angle_alpha   89.99904193
_cell_angle_beta   89.99879911
_cell_angle_gamma   89.99794298
_symmetry_Int_Tables_number   1
_chemical_formula_structural   Li5TiV3O8
_chemical_formula_sum   'Li20 Ti4 V12 O32'
_cell_volume   638.95216203
_cell_formula_units_Z   4
loop_
 _symmetry_equiv_pos_site_id
 _symmetry_equiv_pos_as_xyz
  1  'x, y, z'
loop_
 _atom_site_type_symbol
 _atom_site_label
 _atom_site_symmetry_multiplicity
 _atom_site_fract_x
 _atom_site_fract_y
 _atom_site_fract_z
 _atom_site_occupancy
  Li  Li0  1  0.04796184  0.95005923  0.04506027  1
  Li  Li1  1  0.87225169  0.13705760  0.11240112  1
  Li  Li2  1  0.11312373  0.12253142  0.85109003  1
  Li  Li3  1  0.36371656  0.11194741  0.63424373  1
  Li  Li4  1  0.69467381  0.19430362  0.31385352  1
  Li  Li5  1  0.30536270  0.30568727  0.81385236  1
  Li  Li6  1  0.63632690  0.38793901  0.13413854  1
  Li  Li7  1  0.88694714  0.37746723  0.35101922  1
  Li  Li8  1  0.12778250  0.36294983  0.61244383  1
  Li  Li9  1  0.95203717  0.54998151  0.54510228  1
  Li  Li10  1  0.45223102  0.45020923  0.95489804  1
  Li  Li11  1  0.62783525  0.63710514  0.88751499  1
  Li  Li12  1  0.38677078  0.62255773  0.14867889  1
  Li  Li13  1  0.13626273  0.61179625  0.36572491  1
  Li  Li14  1  0.80524464  0.69448606  0.68617056  1
  Li  Li15  1  0.19468263  0.80555943  0.18613735  1
  Li  Li16  1  0.86371182  0.88816334  0.86577261  1
  Li  Li17  1  0.61314028  0.87748076  0.64880580  1
  Li  Li18  1  0.37211835  0.86291210  0.38746111  1
  Li  Li19  1  0.54775603  0.04979190  0.45490570  1
  Ti  Ti20  1  0.12538750  0.12076733  0.37663130  1
  Ti  Ti21  1  0.87462050  0.37924177  0.87667504  1
  Ti  Ti22  1  0.37454551  0.62083758  0.62338536  1
  Ti  Ti23  1  0.62545619  0.87916625  0.12341304  1
  V  V24  1  0.62421281  0.12183384  0.88284648  1
  V  V25  1  0.36945839  0.12415789  0.13132866  1
  V  V26  1  0.63057059  0.37580858  0.63134946  1
  V  V27  1  0.37582017  0.37814593  0.38287593  1
  V  V28  1  0.87565930  0.62189491  0.11712862  1
  V  V29  1  0.13041190  0.62407071  0.86863495  1
  V  V30  1  0.86953577  0.87591210  0.36864174  1
  V  V31  1  0.12431685  0.87809754  0.61711019  1
  V  V32  1  0.87116764  0.12660786  0.62484674  1
  V  V33  1  0.12891804  0.37341533  0.12484438  1
  V  V34  1  0.62874003  0.62642739  0.37513125  1
  V  V35  1  0.37125302  0.87354767  0.87511719  1
  O  O36  1  0.37196595  0.11061232  0.88170574  1
  O  O37  1  0.62310413  0.11321095  0.12831452  1
  O  O38  1  0.88971511  0.12796971  0.38135300  1
  O  O39  1  0.11692851  0.12876133  0.61045050  1
  O  O40  1  0.35661056  0.12415464  0.38266809  1
  O  O41  1  0.63341132  0.12446439  0.63744596  1
  O  O42  1  0.87602374  0.13684952  0.87018341  1
  O  O43  1  0.11917652  0.13205397  0.14430130  1
  O  O44  1  0.88087018  0.36797640  0.64430541  1
  O  O45  1  0.12400396  0.36315173  0.37019222  1
  O  O46  1  0.36662823  0.37553615  0.13744801  1
  O  O47  1  0.64338649  0.37583601  0.88268730  1
  O  O48  1  0.88310823  0.37125270  0.11044213  1
  O  O49  1  0.11032441  0.37201659  0.88136075  1
  O  O50  1  0.37693008  0.38681315  0.62834123  1
  O  O51  1  0.62805589  0.38936220  0.38174509  1
  O  O52  1  0.87677874  0.61328188  0.87168253  1
  O  O53  1  0.12794931  0.61053684  0.11826653  1
  O  O54  1  0.61028444  0.62786832  0.61861733  1
  O  O55  1  0.38303981  0.62878501  0.38954501  1
  O  O56  1  0.14335011  0.62409282  0.61728296  1
  O  O57  1  0.86647786  0.62449899  0.36251033  1
  O  O58  1  0.62385662  0.63679070  0.12976323  1
  O  O59  1  0.38076546  0.63213136  0.85572419  1
  O  O60  1  0.61920391  0.86786603  0.35569389  1
  O  O61  1  0.37613558  0.86321604  0.62975624  1
  O  O62  1  0.13353498  0.87547537  0.86249183  1
  O  O63  1  0.85665961  0.87590959  0.11727039  1
  O  O64  1  0.61695412  0.87120315  0.88953007  1
  O  O65  1  0.38969060  0.87211624  0.11859464  1
  O  O66  1  0.87205564  0.88948366  0.61823745  1
  O  O67  1  0.12319014  0.88672550  0.37166155  1
