# generated using pymatgen
data_ErFeC2
_symmetry_space_group_name_H-M   'P 1'
_cell_length_a   3.56590308
_cell_length_b   3.72088275
_cell_length_c   3.72088275
_cell_angle_alpha   104.90022567
_cell_angle_beta   90.00000000
_cell_angle_gamma   90.00000000
_symmetry_Int_Tables_number   1
_chemical_formula_structural   ErFeC2
_chemical_formula_sum   'Er1 Fe1 C2'
_cell_volume   47.70975877
_cell_formula_units_Z   1
loop_
 _symmetry_equiv_pos_site_id
 _symmetry_equiv_pos_as_xyz
  1  'x, y, z'
loop_
 _atom_site_type_symbol
 _atom_site_label
 _atom_site_symmetry_multiplicity
 _atom_site_fract_x
 _atom_site_fract_y
 _atom_site_fract_z
 _atom_site_occupancy
  Er  Er0  1  0.00000000  0.99504547  0.00495453  1
  Fe  Fe1  1  0.50000000  0.38668466  0.61331534  1
  C  C2  1  0.50000000  0.85652134  0.45325147  1
  C  C3  1  0.50000000  0.54674853  0.14347866  1
