# generated using pymatgen
data_HfNi
_symmetry_space_group_name_H-M   'P 1'
_cell_length_a   3.23778688
_cell_length_b   4.08579334
_cell_length_c   5.14825507
_cell_angle_alpha   90.00000000
_cell_angle_beta   108.32790281
_cell_angle_gamma   90.00000000
_symmetry_Int_Tables_number   1
_chemical_formula_structural   HfNi
_chemical_formula_sum   'Hf2 Ni2'
_cell_volume   64.65105085
_cell_formula_units_Z   2
loop_
 _symmetry_equiv_pos_site_id
 _symmetry_equiv_pos_as_xyz
  1  'x, y, z'
loop_
 _atom_site_type_symbol
 _atom_site_label
 _atom_site_symmetry_multiplicity
 _atom_site_fract_x
 _atom_site_fract_y
 _atom_site_fract_z
 _atom_site_occupancy
  Hf  Hf0  1  0.85968253  0.75000000  0.71936507  1
  Hf  Hf1  1  0.14031747  0.25000000  0.28063493  1
  Ni  Ni2  1  0.58371070  0.75000000  0.16742141  1
  Ni  Ni3  1  0.41628930  0.25000000  0.83257859  1
