# generated using pymatgen
data_Ti2Re
_symmetry_space_group_name_H-M   'P 1'
_cell_length_a   2.83960475
_cell_length_b   4.39219213
_cell_length_c   4.39225028
_cell_angle_alpha   119.99344516
_cell_angle_beta   89.99469850
_cell_angle_gamma   90.00682158
_symmetry_Int_Tables_number   1
_chemical_formula_structural   Ti2Re
_chemical_formula_sum   'Ti2 Re1'
_cell_volume   47.44447130
_cell_formula_units_Z   1
loop_
 _symmetry_equiv_pos_site_id
 _symmetry_equiv_pos_as_xyz
  1  'x, y, z'
loop_
 _atom_site_type_symbol
 _atom_site_label
 _atom_site_symmetry_multiplicity
 _atom_site_fract_x
 _atom_site_fract_y
 _atom_site_fract_z
 _atom_site_occupancy
  Ti  Ti0  1  0.29675695  0.33335295  0.66669208  1
  Ti  Ti1  1  0.70324305  0.66664705  0.33330792  1
  Re  Re2  1  -0.00000000  -0.00000000  -0.00000000  1
