# generated using pymatgen
data_Ba2NCl
_symmetry_space_group_name_H-M   'P 1'
_cell_length_a   4.15711194
_cell_length_b   4.15711194
_cell_length_c   8.05392158
_cell_angle_alpha   75.04382964
_cell_angle_beta   75.04382964
_cell_angle_gamma   59.99999773
_symmetry_Int_Tables_number   1
_chemical_formula_structural   Ba2NCl
_chemical_formula_sum   'Ba2 N1 Cl1'
_cell_volume   115.06059693
_cell_formula_units_Z   1
loop_
 _symmetry_equiv_pos_site_id
 _symmetry_equiv_pos_as_xyz
  1  'x, y, z'
loop_
 _atom_site_type_symbol
 _atom_site_label
 _atom_site_symmetry_multiplicity
 _atom_site_fract_x
 _atom_site_fract_y
 _atom_site_fract_z
 _atom_site_occupancy
  Ba  Ba0  1  0.76860795  0.76860795  0.69417615  1
  Ba  Ba1  1  0.23139205  0.23139205  0.30582385  1
  N  N2  1  0.50000000  0.50000000  0.50000000  1
  Cl  Cl3  1  0.00000000  0.00000000  -0.00000000  1
