# generated using pymatgen
data_BaGaGeH
_symmetry_space_group_name_H-M   'P 1'
_cell_length_a   4.37803925
_cell_length_b   4.37804340
_cell_length_c   5.26955941
_cell_angle_alpha   90.00000004
_cell_angle_beta   89.99969664
_cell_angle_gamma   120.00003088
_symmetry_Int_Tables_number   1
_chemical_formula_structural   BaGaGeH
_chemical_formula_sum   'Ba1 Ga1 Ge1 H1'
_cell_volume   87.47108520
_cell_formula_units_Z   1
loop_
 _symmetry_equiv_pos_site_id
 _symmetry_equiv_pos_as_xyz
  1  'x, y, z'
loop_
 _atom_site_type_symbol
 _atom_site_label
 _atom_site_symmetry_multiplicity
 _atom_site_fract_x
 _atom_site_fract_y
 _atom_site_fract_z
 _atom_site_occupancy
  Ba  Ba0  1  0.99999852  0.99999926  0.00002062  1
  Ga  Ga1  1  0.66660953  0.33330476  0.55053320  1
  Ge  Ge2  1  0.33338989  0.66669494  0.44636295  1
  H  H3  1  0.66660206  0.33330103  0.88298324  1
