# generated using pymatgen
data_KEuS2
_symmetry_space_group_name_H-M   'P 1'
_cell_length_a   4.19747761
_cell_length_b   4.19747761
_cell_length_c   7.74659975
_cell_angle_alpha   74.28074994
_cell_angle_beta   74.28074994
_cell_angle_gamma   60.00001410
_symmetry_Int_Tables_number   1
_chemical_formula_structural   KEuS2
_chemical_formula_sum   'K1 Eu1 S2'
_cell_volume   112.26749431
_cell_formula_units_Z   1
loop_
 _symmetry_equiv_pos_site_id
 _symmetry_equiv_pos_as_xyz
  1  'x, y, z'
loop_
 _atom_site_type_symbol
 _atom_site_label
 _atom_site_symmetry_multiplicity
 _atom_site_fract_x
 _atom_site_fract_y
 _atom_site_fract_z
 _atom_site_occupancy
  K  K0  1  -0.00000000  -0.00000000  0.00000000  1
  Eu  Eu1  1  0.50000000  0.50000000  0.50000000  1
  S  S2  1  0.23415991  0.23415991  0.29752028  1
  S  S3  1  0.76584009  0.76584009  0.70247972  1
