# generated using pymatgen
data_VI2
_symmetry_space_group_name_H-M   'P 1'
_cell_length_a   4.11261605
_cell_length_b   4.11276166
_cell_length_c   7.14242413
_cell_angle_alpha   90.00004399
_cell_angle_beta   90.00781664
_cell_angle_gamma   120.00131915
_symmetry_Int_Tables_number   1
_chemical_formula_structural   VI2
_chemical_formula_sum   'V1 I2'
_cell_volume   104.62180235
_cell_formula_units_Z   1
loop_
 _symmetry_equiv_pos_site_id
 _symmetry_equiv_pos_as_xyz
  1  'x, y, z'
loop_
 _atom_site_type_symbol
 _atom_site_label
 _atom_site_symmetry_multiplicity
 _atom_site_fract_x
 _atom_site_fract_y
 _atom_site_fract_z
 _atom_site_occupancy
  V  V0  1  0.00000000  0.00000000  0.00000000  1
  I  I1  1  0.66655360  0.33327680  0.77987387  1
  I  I2  1  0.33344640  0.66672320  0.22012613  1
