# generated using pymatgen
data_Li2Sn4P4O15
_symmetry_space_group_name_H-M   'P 1'
_cell_length_a   9.35968644
_cell_length_b   9.35968644
_cell_length_c   20.34017144
_cell_angle_alpha   86.86276711
_cell_angle_beta   93.13723289
_cell_angle_gamma   66.90211041
_symmetry_Int_Tables_number   1
_chemical_formula_structural   Li2Sn4P4O15
_chemical_formula_sum   'Li8 Sn16 P16 O60'
_cell_volume   1630.93436939
_cell_formula_units_Z   4
loop_
 _symmetry_equiv_pos_site_id
 _symmetry_equiv_pos_as_xyz
  1  'x, y, z'
loop_
 _atom_site_type_symbol
 _atom_site_label
 _atom_site_symmetry_multiplicity
 _atom_site_fract_x
 _atom_site_fract_y
 _atom_site_fract_z
 _atom_site_occupancy
  Li  Li0  1  0.54012877  0.02876803  0.73941102  1
  Li  Li1  1  0.55847357  0.54229321  0.90244704  1
  Li  Li2  1  0.54229321  0.55847357  0.59755296  1
  Li  Li3  1  0.97123197  0.45987123  0.23941102  1
  Li  Li4  1  0.02876803  0.54012877  0.76058898  1
  Li  Li5  1  0.45770679  0.44152643  0.40244704  1
  Li  Li6  1  0.44152643  0.45770679  0.09755296  1
  Li  Li7  1  0.45987123  0.97123197  0.26058898  1
  Sn  Sn8  1  0.09592183  0.85012089  0.56569731  1
  Sn  Sn9  1  0.07302382  0.33491174  0.93664396  1
  Sn  Sn10  1  0.00000000  0.50000000  0.50000000  1
  Sn  Sn11  1  0.14987911  0.90407817  0.06569731  1
  Sn  Sn12  1  0.19394412  0.19394412  0.75000000  1
  Sn  Sn13  1  0.47897946  0.47897946  0.75000000  1
  Sn  Sn14  1  0.97516732  0.97516732  0.75000000  1
  Sn  Sn15  1  0.66508826  0.92697618  0.43664396  1
  Sn  Sn16  1  0.33491174  0.07302382  0.56335604  1
  Sn  Sn17  1  0.02483268  0.02483268  0.25000000  1
  Sn  Sn18  1  0.80605588  0.80605588  0.25000000  1
  Sn  Sn19  1  0.52102054  0.52102054  0.25000000  1
  Sn  Sn20  1  0.85012089  0.09592183  0.93430269  1
  Sn  Sn21  1  0.92697618  0.66508826  0.06335604  1
  Sn  Sn22  1  0.90407817  0.14987911  0.43430269  1
  Sn  Sn23  1  0.50000000  0.00000000  0.00000000  1
  P  P24  1  0.26112991  0.87651558  0.89589913  1
  P  P25  1  0.04946174  0.71176813  0.88741852  1
  P  P26  1  0.36425669  0.83456809  0.67808142  1
  P  P27  1  0.12348442  0.73887009  0.39589913  1
  P  P28  1  0.28823187  0.95053826  0.38741852  1
  P  P29  1  0.22977369  0.46262506  0.62781913  1
  P  P30  1  0.16543191  0.63574331  0.17808142  1
  P  P31  1  0.46262506  0.22977369  0.87218087  1
  P  P32  1  0.53737494  0.77022631  0.12781913  1
  P  P33  1  0.83456809  0.36425669  0.82191858  1
  P  P34  1  0.77022631  0.53737494  0.37218087  1
  P  P35  1  0.71176813  0.04946174  0.61258148  1
  P  P36  1  0.87651558  0.26112991  0.60410087  1
  P  P37  1  0.63574331  0.16543191  0.32191858  1
  P  P38  1  0.95053826  0.28823187  0.11258148  1
  P  P39  1  0.73887009  0.12348442  0.10410087  1
  O  O40  1  0.20914260  0.93779094  0.82278774  1
  O  O41  1  0.18624873  0.86426084  0.67482245  1
  O  O42  1  0.21212259  0.72628774  0.90925441  1
  O  O43  1  0.43712905  0.80334566  0.91524334  1
  O  O44  1  0.05490943  0.57222898  0.93304791  1
  O  O45  1  0.06220906  0.79085740  0.32278774  1
  O  O46  1  0.43110160  0.77673105  0.61206149  1
  O  O47  1  0.09540206  0.61141105  0.59159864  1
  O  O48  1  0.99997407  0.37547721  0.81762429  1
  O  O49  1  0.13573916  0.81375127  0.17482245  1
  O  O50  1  0.45491889  0.72425312  0.73834622  1
  O  O51  1  0.27371226  0.78787741  0.40925441  1
  O  O52  1  0.19665434  0.56287095  0.41524334  1
  O  O53  1  0.42777102  0.94509057  0.43304791  1
  O  O54  1  0.18339987  0.43549636  0.69888766  1
  O  O55  1  0.68846561  0.04353211  0.68588103  1
  O  O56  1  0.17091510  0.99931575  0.94277778  1
  O  O57  1  0.91512325  0.86240661  0.90325158  1
  O  O58  1  0.32679332  0.23148865  0.91420297  1
  O  O59  1  0.22326895  0.56889840  0.11206149  1
  O  O60  1  0.47997930  0.38657060  0.87000917  1
  O  O61  1  0.38858895  0.90459794  0.09159864  1
  O  O62  1  0.38657060  0.47997930  0.62999083  1
  O  O63  1  0.23148865  0.32679332  0.58579703  1
  O  O64  1  0.86240661  0.91512325  0.59674842  1
  O  O65  1  0.99931575  0.17091510  0.55722222  1
  O  O66  1  0.62452279  0.00002593  0.31762429  1
  O  O67  1  0.27574688  0.54508111  0.23834622  1
  O  O68  1  0.04353211  0.68846561  0.81411897  1
  O  O69  1  0.43549636  0.18339987  0.80111234  1
  O  O70  1  0.56450364  0.81660013  0.19888766  1
  O  O71  1  0.95646789  0.31153439  0.18588103  1
  O  O72  1  0.72425312  0.45491889  0.76165378  1
  O  O73  1  0.37547721  0.99997407  0.68237571  1
  O  O74  1  0.00068425  0.82908490  0.44277778  1
  O  O75  1  0.13759339  0.08487675  0.40325158  1
  O  O76  1  0.76851135  0.67320668  0.41420297  1
  O  O77  1  0.61342940  0.52002070  0.37000917  1
  O  O78  1  0.61141105  0.09540206  0.90840136  1
  O  O79  1  0.52002070  0.61342940  0.12999083  1
  O  O80  1  0.77673105  0.43110160  0.88793851  1
  O  O81  1  0.67320668  0.76851135  0.08579703  1
  O  O82  1  0.08487675  0.13759339  0.09674842  1
  O  O83  1  0.82908490  0.00068425  0.05722222  1
  O  O84  1  0.31153439  0.95646789  0.31411897  1
  O  O85  1  0.81660013  0.56450364  0.30111234  1
  O  O86  1  0.57222898  0.05490943  0.56695209  1
  O  O87  1  0.80334566  0.43712905  0.58475666  1
  O  O88  1  0.72628774  0.21212259  0.59074559  1
  O  O89  1  0.54508111  0.27574688  0.26165378  1
  O  O90  1  0.86426084  0.18624873  0.82517755  1
  O  O91  1  0.00002593  0.62452279  0.18237571  1
  O  O92  1  0.90459794  0.38858895  0.40840136  1
  O  O93  1  0.56889840  0.22326895  0.38793851  1
  O  O94  1  0.93779094  0.20914260  0.67721226  1
  O  O95  1  0.94509057  0.42777102  0.06695209  1
  O  O96  1  0.56287095  0.19665434  0.08475666  1
  O  O97  1  0.78787741  0.27371226  0.09074559  1
  O  O98  1  0.81375127  0.13573916  0.32517755  1
  O  O99  1  0.79085740  0.06220906  0.17721226  1
