# generated using pymatgen
data_Ba4Mg(SiN3)2
_symmetry_space_group_name_H-M   'P 1'
_cell_length_a   6.99150153
_cell_length_b   6.99150153
_cell_length_c   11.04630088
_cell_angle_alpha   101.87430282
_cell_angle_beta   101.87430282
_cell_angle_gamma   110.47493750
_symmetry_Int_Tables_number   1
_chemical_formula_structural   Ba4Mg(SiN3)2
_chemical_formula_sum   'Ba8 Mg2 Si4 N12'
_cell_volume   471.75607303
_cell_formula_units_Z   2
loop_
 _symmetry_equiv_pos_site_id
 _symmetry_equiv_pos_as_xyz
  1  'x, y, z'
loop_
 _atom_site_type_symbol
 _atom_site_label
 _atom_site_symmetry_multiplicity
 _atom_site_fract_x
 _atom_site_fract_y
 _atom_site_fract_z
 _atom_site_occupancy
  Ba  Ba0  1  0.52495580  0.27495580  0.54991161  1
  Ba  Ba1  1  0.22504420  0.97504420  0.95008839  1
  Ba  Ba2  1  0.47504420  0.72504420  0.45008839  1
  Ba  Ba3  1  0.77495580  0.02495580  0.04991161  1
  Ba  Ba4  1  0.70643458  0.45643458  0.91286916  1
  Ba  Ba5  1  0.04356542  0.79356542  0.58713084  1
  Ba  Ba6  1  0.29356542  0.54356542  0.08713084  1
  Ba  Ba7  1  0.95643458  0.20643458  0.41286916  1
  Mg  Mg8  1  0.87500000  0.62500000  0.25000000  1
  Mg  Mg9  1  0.12500000  0.37500000  0.75000000  1
  Si  Si10  1  0.21716921  0.96716921  0.25000000  1
  Si  Si11  1  0.53283079  0.28283079  0.25000000  1
  Si  Si12  1  0.78283079  0.03283079  0.75000000  1
  Si  Si13  1  0.46716921  0.71716921  0.75000000  1
  N  N14  1  0.01345098  0.77211305  0.11380694  1
  N  N15  1  0.15830612  0.89964404  0.38619306  1
  N  N16  1  0.72788695  0.48654902  0.38619306  1
  N  N17  1  0.60035596  0.34169388  0.11380694  1
  N  N18  1  0.98654902  0.22788695  0.88619306  1
  N  N19  1  0.84169388  0.10035596  0.61380694  1
  N  N20  1  0.27211305  0.51345098  0.61380694  1
  N  N21  1  0.39964404  0.65830612  0.88619306  1
  N  N22  1  0.48996771  0.01003229  0.25000000  1
  N  N23  1  0.26003229  0.23996771  0.25000000  1
  N  N24  1  0.51003229  0.98996771  0.75000000  1
  N  N25  1  0.73996771  0.76003229  0.75000000  1
