# generated using pymatgen
data_Mn3CoSn2(PO4)6
_symmetry_space_group_name_H-M   'P 1'
_cell_length_a   8.58531112
_cell_length_b   8.77834143
_cell_length_c   8.77834173
_cell_angle_alpha   60.00000237
_cell_angle_beta   59.25341511
_cell_angle_gamma   59.25341210
_symmetry_Int_Tables_number   1
_chemical_formula_structural   Mn3CoSn2(PO4)6
_chemical_formula_sum   'Mn3 Co1 Sn2 P6 O24'
_cell_volume   462.45750656
_cell_formula_units_Z   1
loop_
 _symmetry_equiv_pos_site_id
 _symmetry_equiv_pos_as_xyz
  1  'x, y, z'
loop_
 _atom_site_type_symbol
 _atom_site_label
 _atom_site_symmetry_multiplicity
 _atom_site_fract_x
 _atom_site_fract_y
 _atom_site_fract_z
 _atom_site_occupancy
  Mn  Mn0  1  0.04513612  0.65162096  0.65162096  1
  Mn  Mn1  1  0.45181800  0.84939433  0.84939433  1
  Mn  Mn2  1  0.94948281  0.35017273  0.35017273  1
  Co  Co3  1  0.54693941  0.15101986  0.15101986  1
  Sn  Sn4  1  0.99751105  0.00082932  0.00082932  1
  Sn  Sn5  1  0.50048875  0.49983675  0.49983675  1
  P  P6  1  0.25285012  0.24837618  0.54712752  1
  P  P7  1  0.25285012  0.95164618  0.24837618  1
  P  P8  1  0.25285012  0.54712752  0.95164618  1
  P  P9  1  0.74849309  0.44658342  0.05376521  1
  P  P10  1  0.74849309  0.05376521  0.75115828  1
  P  P11  1  0.74849309  0.75115828  0.44658342  1
  O  O12  1  0.06783380  0.09568787  0.32386004  1
  O  O13  1  0.06783380  0.51261828  0.09568787  1
  O  O14  1  0.06783380  0.32386004  0.51261828  1
  O  O15  1  0.21915420  0.09581416  0.75061793  1
  O  O16  1  0.43374598  0.17303051  0.39495733  1
  O  O17  1  0.29152185  0.39840251  0.56052602  1
  O  O18  1  0.21915420  0.93441370  0.09581416  1
  O  O19  1  0.29152185  0.74955062  0.39840251  1
  O  O20  1  0.56537780  0.59688787  0.01779219  1
  O  O21  1  0.29152185  0.56052602  0.74955062  1
  O  O22  1  0.77347533  0.24510645  0.07223774  1
  O  O23  1  0.56537780  0.01779219  0.81994214  1
  O  O24  1  0.43374598  0.99826618  0.17303051  1
  O  O25  1  0.21915420  0.75061793  0.93441370  1
  O  O26  1  0.71678401  0.42773599  0.25655906  1
  O  O27  1  0.43374598  0.39495733  0.99826618  1
  O  O28  1  0.71678401  0.25655906  0.59892095  1
  O  O29  1  0.77347533  0.07223774  0.90918048  1
  O  O30  1  0.71678401  0.59892095  0.42773599  1
  O  O31  1  0.56537780  0.81994214  0.59688787  1
  O  O32  1  0.77347533  0.90918048  0.24510645  1
  O  O33  1  0.93363776  0.68059138  0.47785621  1
  O  O34  1  0.93363776  0.47785621  0.90791565  1
  O  O35  1  0.93363776  0.90791565  0.68059138  1
