# generated using pymatgen
data_Cs2Sr2Li3B3(PO4)6
_symmetry_space_group_name_H-M   'P 1'
_cell_length_a   12.87837775
_cell_length_b   12.87837775
_cell_length_c   12.87837775
_cell_angle_alpha   90.00000000
_cell_angle_beta   90.00000000
_cell_angle_gamma   90.00000000
_symmetry_Int_Tables_number   1
_chemical_formula_structural   Cs2Sr2Li3B3(PO4)6
_chemical_formula_sum   'Cs8 Sr8 Li12 B12 P24 O96'
_cell_volume   2135.91260711
_cell_formula_units_Z   4
loop_
 _symmetry_equiv_pos_site_id
 _symmetry_equiv_pos_as_xyz
  1  'x, y, z'
loop_
 _atom_site_type_symbol
 _atom_site_label
 _atom_site_symmetry_multiplicity
 _atom_site_fract_x
 _atom_site_fract_y
 _atom_site_fract_z
 _atom_site_occupancy
  Cs  Cs0  1  0.64862670  0.35137330  0.85137330  1
  Cs  Cs1  1  0.14862670  0.14862670  0.14862670  1
  Cs  Cs2  1  0.85137330  0.64862670  0.35137330  1
  Cs  Cs3  1  0.35137330  0.85137330  0.64862670  1
  Cs  Cs4  1  0.65355964  0.84644036  0.15355964  1
  Cs  Cs5  1  0.84644036  0.15355964  0.65355964  1
  Cs  Cs6  1  0.34644036  0.34644036  0.34644036  1
  Cs  Cs7  1  0.15355964  0.65355964  0.84644036  1
  Sr  Sr8  1  0.59397627  0.59397627  0.59397627  1
  Sr  Sr9  1  0.40602373  0.09397627  0.90602373  1
  Sr  Sr10  1  0.09397627  0.90602373  0.40602373  1
  Sr  Sr11  1  0.90602373  0.40602373  0.09397627  1
  Sr  Sr12  1  0.42981828  0.57018172  0.07018172  1
  Sr  Sr13  1  0.92981828  0.92981828  0.92981828  1
  Sr  Sr14  1  0.07018172  0.42981828  0.57018172  1
  Sr  Sr15  1  0.57018172  0.07018172  0.42981828  1
  Li  Li16  1  0.69539970  0.56119787  0.09767782  1
  Li  Li17  1  0.90232218  0.19539970  0.93880213  1
  Li  Li18  1  0.06119787  0.40232218  0.30460030  1
  Li  Li19  1  0.19539970  0.93880213  0.90232218  1
  Li  Li20  1  0.40232218  0.30460030  0.06119787  1
  Li  Li21  1  0.56119787  0.09767782  0.69539970  1
  Li  Li22  1  0.30460030  0.06119787  0.40232218  1
  Li  Li23  1  0.09767782  0.69539970  0.56119787  1
  Li  Li24  1  0.93880213  0.90232218  0.19539970  1
  Li  Li25  1  0.80460030  0.43880213  0.59767782  1
  Li  Li26  1  0.59767782  0.80460030  0.43880213  1
  Li  Li27  1  0.43880213  0.59767782  0.80460030  1
  B  B28  1  0.64611116  0.13306039  0.12111065  1
  B  B29  1  0.87888935  0.14611116  0.36693961  1
  B  B30  1  0.63306039  0.37888935  0.35388884  1
  B  B31  1  0.14611116  0.36693961  0.87888935  1
  B  B32  1  0.37888935  0.35388884  0.63306039  1
  B  B33  1  0.13306039  0.12111065  0.64611116  1
  B  B34  1  0.35388884  0.63306039  0.37888935  1
  B  B35  1  0.12111065  0.64611116  0.13306039  1
  B  B36  1  0.36693961  0.87888935  0.14611116  1
  B  B37  1  0.85388884  0.86693961  0.62111065  1
  B  B38  1  0.62111065  0.85388884  0.86693961  1
  B  B39  1  0.86693961  0.62111065  0.85388884  1
  P  P40  1  0.94538165  0.41648821  0.81759652  1
  P  P41  1  0.18240348  0.44538165  0.08351179  1
  P  P42  1  0.91648821  0.68240348  0.05461835  1
  P  P43  1  0.44538165  0.08351179  0.18240348  1
  P  P44  1  0.68240348  0.05461835  0.91648821  1
  P  P45  1  0.41648821  0.81759652  0.94538165  1
  P  P46  1  0.05461835  0.91648821  0.68240348  1
  P  P47  1  0.81759652  0.94538165  0.41648821  1
  P  P48  1  0.08351179  0.18240348  0.44538165  1
  P  P49  1  0.55461835  0.58351179  0.31759652  1
  P  P50  1  0.31759652  0.55461835  0.58351179  1
  P  P51  1  0.58351179  0.31759652  0.55461835  1
  P  P52  1  0.61926183  0.34728991  0.13806625  1
  P  P53  1  0.86193375  0.11926183  0.15271009  1
  P  P54  1  0.84728991  0.36193375  0.38073817  1
  P  P55  1  0.11926183  0.15271009  0.86193375  1
  P  P56  1  0.36193375  0.38073817  0.84728991  1
  P  P57  1  0.34728991  0.13806625  0.61926183  1
  P  P58  1  0.38073817  0.84728991  0.36193375  1
  P  P59  1  0.13806625  0.61926183  0.34728991  1
  P  P60  1  0.15271009  0.86193375  0.11926183  1
  P  P61  1  0.88073817  0.65271009  0.63806625  1
  P  P62  1  0.63806625  0.88073817  0.65271009  1
  P  P63  1  0.65271009  0.63806625  0.88073817  1
  O  O64  1  0.60242929  0.59852639  0.21087510  1
  O  O65  1  0.78912490  0.10242929  0.90147361  1
  O  O66  1  0.09852639  0.28912490  0.39757071  1
  O  O67  1  0.10242929  0.90147361  0.78912490  1
  O  O68  1  0.28912490  0.39757071  0.09852639  1
  O  O69  1  0.59852639  0.21087510  0.60242929  1
  O  O70  1  0.39757071  0.09852639  0.28912490  1
  O  O71  1  0.21087510  0.60242929  0.59852639  1
  O  O72  1  0.90147361  0.78912490  0.10242929  1
  O  O73  1  0.89757071  0.40147361  0.71087510  1
  O  O74  1  0.71087510  0.89757071  0.40147361  1
  O  O75  1  0.40147361  0.71087510  0.89757071  1
  O  O76  1  0.06684080  0.40117619  0.80100217  1
  O  O77  1  0.19899783  0.56684080  0.09882381  1
  O  O78  1  0.90117619  0.69899783  0.93315920  1
  O  O79  1  0.56684080  0.09882381  0.19899783  1
  O  O80  1  0.69899783  0.93315920  0.90117619  1
  O  O81  1  0.40117619  0.80100217  0.06684080  1
  O  O82  1  0.93315920  0.90117619  0.69899783  1
  O  O83  1  0.80100217  0.06684080  0.40117619  1
  O  O84  1  0.09882381  0.19899783  0.56684080  1
  O  O85  1  0.43315920  0.59882381  0.30100217  1
  O  O86  1  0.30100217  0.43315920  0.59882381  1
  O  O87  1  0.59882381  0.30100217  0.43315920  1
  O  O88  1  0.71193830  0.41164067  0.10196509  1
  O  O89  1  0.89803491  0.21193830  0.08835933  1
  O  O90  1  0.91164067  0.39803491  0.28806170  1
  O  O91  1  0.21193830  0.08835933  0.89803491  1
  O  O92  1  0.39803491  0.28806170  0.91164067  1
  O  O93  1  0.41164067  0.10196509  0.71193830  1
  O  O94  1  0.28806170  0.91164067  0.39803491  1
  O  O95  1  0.10196509  0.71193830  0.41164067  1
  O  O96  1  0.08835933  0.89803491  0.21193830  1
  O  O97  1  0.78806170  0.58835933  0.60196509  1
  O  O98  1  0.60196509  0.78806170  0.58835933  1
  O  O99  1  0.58835933  0.60196509  0.78806170  1
  O  O100  1  0.93932604  0.53199930  0.85925690  1
  O  O101  1  0.14074310  0.43932604  0.96800070  1
  O  O102  1  0.03199930  0.64074310  0.06067396  1
  O  O103  1  0.43932604  0.96800070  0.14074310  1
  O  O104  1  0.64074310  0.06067396  0.03199930  1
  O  O105  1  0.53199930  0.85925690  0.93932604  1
  O  O106  1  0.06067396  0.03199930  0.64074310  1
  O  O107  1  0.85925690  0.93932604  0.53199930  1
  O  O108  1  0.96800070  0.14074310  0.43932604  1
  O  O109  1  0.56067396  0.46800070  0.35925690  1
  O  O110  1  0.35925690  0.56067396  0.46800070  1
  O  O111  1  0.46800070  0.35925690  0.56067396  1
  O  O112  1  0.90239469  0.34483703  0.90183926  1
  O  O113  1  0.09816074  0.40239469  0.15516297  1
  O  O114  1  0.84483703  0.59816074  0.09760531  1
  O  O115  1  0.40239469  0.15516297  0.09816074  1
  O  O116  1  0.59816074  0.09760531  0.84483703  1
  O  O117  1  0.34483703  0.90183926  0.90239469  1
  O  O118  1  0.09760531  0.84483703  0.59816074  1
  O  O119  1  0.90183926  0.90239469  0.34483703  1
  O  O120  1  0.15516297  0.09816074  0.40239469  1
  O  O121  1  0.59760531  0.65516297  0.40183926  1
  O  O122  1  0.40183926  0.59760531  0.65516297  1
  O  O123  1  0.65516297  0.40183926  0.59760531  1
  O  O124  1  0.62556393  0.23815575  0.08206518  1
  O  O125  1  0.91793482  0.12556393  0.26184425  1
  O  O126  1  0.73815575  0.41793482  0.37443607  1
  O  O127  1  0.12556393  0.26184425  0.91793482  1
  O  O128  1  0.41793482  0.37443607  0.73815575  1
  O  O129  1  0.23815575  0.08206518  0.62556393  1
  O  O130  1  0.37443607  0.73815575  0.41793482  1
  O  O131  1  0.08206518  0.62556393  0.23815575  1
  O  O132  1  0.26184425  0.91793482  0.12556393  1
  O  O133  1  0.87443607  0.76184425  0.58206518  1
  O  O134  1  0.58206518  0.87443607  0.76184425  1
  O  O135  1  0.76184425  0.58206518  0.87443607  1
  O  O136  1  0.62429765  0.32127317  0.25659681  1
  O  O137  1  0.74340319  0.12429765  0.17872683  1
  O  O138  1  0.82127317  0.24340319  0.37570235  1
  O  O139  1  0.12429765  0.17872683  0.74340319  1
  O  O140  1  0.24340319  0.37570235  0.82127317  1
  O  O141  1  0.32127317  0.25659681  0.62429765  1
  O  O142  1  0.37570235  0.82127317  0.24340319  1
  O  O143  1  0.25659681  0.62429765  0.32127317  1
  O  O144  1  0.17872683  0.74340319  0.12429765  1
  O  O145  1  0.87570235  0.67872683  0.75659681  1
  O  O146  1  0.75659681  0.87570235  0.67872683  1
  O  O147  1  0.67872683  0.75659681  0.87570235  1
  O  O148  1  0.51450590  0.39548842  0.10977873  1
  O  O149  1  0.89022127  0.01450590  0.10451158  1
  O  O150  1  0.89548842  0.39022127  0.48549410  1
  O  O151  1  0.01450590  0.10451158  0.89022127  1
  O  O152  1  0.39022127  0.48549410  0.89548842  1
  O  O153  1  0.39548842  0.10977873  0.51450590  1
  O  O154  1  0.48549410  0.89548842  0.39022127  1
  O  O155  1  0.10977873  0.51450590  0.39548842  1
  O  O156  1  0.10451158  0.89022127  0.01450590  1
  O  O157  1  0.98549410  0.60451158  0.60977873  1
  O  O158  1  0.60977873  0.98549410  0.60451158  1
  O  O159  1  0.60451158  0.60977873  0.98549410  1
