# generated using pymatgen
data_CeGa
_symmetry_space_group_name_H-M   'P 1'
_cell_length_a   4.13452372
_cell_length_b   4.42045123
_cell_length_c   5.98933539
_cell_angle_alpha   111.65561352
_cell_angle_beta   90.00000000
_cell_angle_gamma   90.00000000
_symmetry_Int_Tables_number   1
_chemical_formula_structural   CeGa
_chemical_formula_sum   'Ce2 Ga2'
_cell_volume   101.73775395
_cell_formula_units_Z   2
loop_
 _symmetry_equiv_pos_site_id
 _symmetry_equiv_pos_as_xyz
  1  'x, y, z'
loop_
 _atom_site_type_symbol
 _atom_site_label
 _atom_site_symmetry_multiplicity
 _atom_site_fract_x
 _atom_site_fract_y
 _atom_site_fract_z
 _atom_site_occupancy
  Ce  Ce0  1  0.25000000  0.14247080  0.28494161  1
  Ce  Ce1  1  0.75000000  0.85752920  0.71505839  1
  Ga  Ga2  1  0.25000000  0.42792073  0.85584145  1
  Ga  Ga3  1  0.75000000  0.57207927  0.14415855  1
