# generated using pymatgen
data_Li5(CoO2)4
_symmetry_space_group_name_H-M   'P 1'
_cell_length_a   8.21225129
_cell_length_b   8.20267244
_cell_length_c   8.35746555
_cell_angle_alpha   89.84774796
_cell_angle_beta   89.84030430
_cell_angle_gamma   89.92564341
_symmetry_Int_Tables_number   1
_chemical_formula_structural   Li5(CoO2)4
_chemical_formula_sum   'Li20 Co16 O32'
_cell_volume   562.97435512
_cell_formula_units_Z   4
loop_
 _symmetry_equiv_pos_site_id
 _symmetry_equiv_pos_as_xyz
  1  'x, y, z'
loop_
 _atom_site_type_symbol
 _atom_site_label
 _atom_site_symmetry_multiplicity
 _atom_site_fract_x
 _atom_site_fract_y
 _atom_site_fract_z
 _atom_site_occupancy
  Li  Li0  1  0.89511310  0.91012277  0.08930741  1
  Li  Li1  1  0.89552517  0.61598406  0.40249455  1
  Li  Li2  1  0.89773713  0.11146654  0.87796187  1
  Li  Li3  1  0.76059319  0.76266044  0.24067850  1
  Li  Li4  1  0.74623887  0.27187148  0.75422541  1
  Li  Li5  1  0.61310558  0.60627573  0.12029750  1
  Li  Li6  1  0.61636076  0.87130826  0.41285516  1
  Li  Li7  1  0.62220419  0.11312979  0.60608288  1
  Li  Li8  1  0.59633864  0.40592287  0.91317621  1
  Li  Li9  1  0.41439856  0.08710954  0.41437869  1
  Li  Li10  1  0.40518922  0.88996366  0.61924782  1
  Li  Li11  1  0.39891517  0.63116167  0.91370998  1
  Li  Li12  1  0.37242300  0.39826271  0.10695421  1
  Li  Li13  1  0.26710975  0.22673275  0.26146250  1
  Li  Li14  1  0.24489071  0.74676605  0.74352352  1
  Li  Li15  1  0.10352741  0.12500173  0.09340804  1
  Li  Li16  1  0.10843610  0.39419777  0.36402324  1
  Li  Li17  1  0.11694889  0.59965469  0.59629603  1
  Li  Li18  1  0.11894674  0.90342172  0.89343678  1
  Li  Li19  1  0.90653785  0.38883808  0.58990548  1
  Co  Co20  1  0.87885295  0.62845840  0.87552635  1
  Co  Co21  1  0.87868486  0.88050784  0.62903635  1
  Co  Co22  1  0.62794855  0.62250985  0.62829480  1
  Co  Co23  1  0.37811723  0.88003084  0.12825958  1
  Co  Co24  1  0.37652940  0.37508080  0.62196921  1
  Co  Co25  1  0.13016703  0.88230235  0.37414329  1
  Co  Co26  1  0.12454197  0.63851971  0.12751962  1
  Co  Co27  1  0.62630632  0.37529485  0.37090035  1
  Co  Co28  1  0.38064819  0.13018394  0.87037730  1
  Co  Co29  1  0.87666331  0.37825464  0.12344062  1
  Co  Co30  1  0.87469013  0.12974596  0.37591582  1
  Co  Co31  1  0.63110339  0.88122530  0.87412012  1
  Co  Co32  1  0.62996559  0.13067907  0.12150887  1
  Co  Co33  1  0.37984857  0.62365003  0.37679756  1
  Co  Co34  1  0.12880319  0.37899937  0.87376992  1
  Co  Co35  1  0.12611406  0.13156310  0.62709112  1
  O  O36  1  0.88852480  0.38764062  0.88793371  1
  O  O37  1  0.87210204  0.61476951  0.10880346  1
  O  O38  1  0.88388417  0.12663572  0.61791870  1
  O  O39  1  0.87179588  0.89111313  0.39491922  1
  O  O40  1  0.88121987  0.63953606  0.63923778  1
  O  O41  1  0.86452118  0.36892182  0.35877285  1
  O  O42  1  0.86977041  0.86896528  0.86207335  1
  O  O43  1  0.86666502  0.14123970  0.13783094  1
  O  O44  1  0.64226015  0.87991877  0.64238883  1
  O  O45  1  0.63852228  0.36719327  0.13682176  1
  O  O46  1  0.63755043  0.13655038  0.35799753  1
  O  O47  1  0.63943019  0.64182509  0.87703026  1
  O  O48  1  0.63442439  0.89565620  0.10565353  1
  O  O49  1  0.61471390  0.36782725  0.60409004  1
  O  O50  1  0.62350167  0.61472629  0.37380724  1
  O  O51  1  0.62175336  0.12519387  0.88390875  1
  O  O52  1  0.39424843  0.13422396  0.10320875  1
  O  O53  1  0.39137275  0.88937045  0.86595363  1
  O  O54  1  0.38862318  0.38077859  0.38602271  1
  O  O55  1  0.37532446  0.61131245  0.61189705  1
  O  O56  1  0.38160309  0.86100795  0.38557219  1
  O  O57  1  0.38217933  0.63045952  0.14360755  1
  O  O58  1  0.36701250  0.37023202  0.85918583  1
  O  O59  1  0.36565815  0.13753979  0.63637990  1
  O  O60  1  0.14091378  0.62371678  0.37110809  1
  O  O61  1  0.12552433  0.89062315  0.12421025  1
  O  O62  1  0.14051806  0.14149796  0.86069862  1
  O  O63  1  0.13888670  0.36753773  0.63955812  1
  O  O64  1  0.11731833  0.61555198  0.87714278  1
  O  O65  1  0.11407891  0.89586358  0.62975671  1
  O  O66  1  0.11805311  0.37069122  0.11212481  1
  O  O67  1  0.11097136  0.13828755  0.39598344  1
