# generated using pymatgen
data_ErCu2
_symmetry_space_group_name_H-M   'P 1'
_cell_length_a   4.29218187
_cell_length_b   5.38952570
_cell_length_c   5.38952570
_cell_angle_alpha   77.42286491
_cell_angle_beta   66.53450615
_cell_angle_gamma   66.53450615
_symmetry_Int_Tables_number   1
_chemical_formula_structural   ErCu2
_chemical_formula_sum   'Er2 Cu4'
_cell_volume   104.64651467
_cell_formula_units_Z   2
loop_
 _symmetry_equiv_pos_site_id
 _symmetry_equiv_pos_as_xyz
  1  'x, y, z'
loop_
 _atom_site_type_symbol
 _atom_site_label
 _atom_site_symmetry_multiplicity
 _atom_site_fract_x
 _atom_site_fract_y
 _atom_site_fract_z
 _atom_site_occupancy
  Er  Er0  1  0.54194517  0.70805483  0.20805483  1
  Er  Er1  1  0.45805483  0.29194517  0.79194517  1
  Cu  Cu2  1  0.16525923  0.28448592  0.38499562  1
  Cu  Cu3  1  0.83474077  0.71551408  0.61500438  1
  Cu  Cu4  1  0.83474077  0.11500438  0.21551408  1
  Cu  Cu5  1  0.16525923  0.88499562  0.78448592  1
