# generated using pymatgen
data_Na7Al4P9O32
_symmetry_space_group_name_H-M   'P 1'
_cell_length_a   14.22363403
_cell_length_b   14.22363403
_cell_length_c   6.23738288
_cell_angle_alpha   90.00000000
_cell_angle_beta   90.00000000
_cell_angle_gamma   90.00000000
_symmetry_Int_Tables_number   1
_chemical_formula_structural   Na7Al4P9O32
_chemical_formula_sum   'Na14 Al8 P18 O64'
_cell_volume   1261.89593955
_cell_formula_units_Z   2
loop_
 _symmetry_equiv_pos_site_id
 _symmetry_equiv_pos_as_xyz
  1  'x, y, z'
loop_
 _atom_site_type_symbol
 _atom_site_label
 _atom_site_symmetry_multiplicity
 _atom_site_fract_x
 _atom_site_fract_y
 _atom_site_fract_z
 _atom_site_occupancy
  Na  Na0  1  0.25902532  0.92303145  0.59226752  1
  Na  Na1  1  0.75902532  0.57696855  0.90773248  1
  Na  Na2  1  0.74097468  0.07696855  0.59226752  1
  Na  Na3  1  0.24097468  0.42303145  0.90773248  1
  Na  Na4  1  0.92303145  0.74097468  0.40773248  1
  Na  Na5  1  0.57696855  0.24097468  0.09226752  1
  Na  Na6  1  0.07696855  0.25902532  0.40773248  1
  Na  Na7  1  0.42303145  0.75902532  0.09226752  1
  Na  Na8  1  0.50000000  -0.00000000  0.81538355  1
  Na  Na9  1  0.00000000  0.50000000  0.68461645  1
  Na  Na10  1  0.00000000  0.50000000  0.18461645  1
  Na  Na11  1  0.50000000  -0.00000000  0.31538355  1
  Na  Na12  1  0.00000000  -0.00000000  0.50000000  1
  Na  Na13  1  0.50000000  0.50000000  0.00000000  1
  Al  Al14  1  0.12212184  0.82085908  0.13713314  1
  Al  Al15  1  0.62212184  0.67914092  0.36286686  1
  Al  Al16  1  0.87787816  0.17914092  0.13713314  1
  Al  Al17  1  0.37787816  0.32085908  0.36286686  1
  Al  Al18  1  0.82085908  0.87787816  0.86286686  1
  Al  Al19  1  0.67914092  0.37787816  0.63713314  1
  Al  Al20  1  0.17914092  0.12212184  0.86286686  1
  Al  Al21  1  0.32085908  0.62212184  0.63713314  1
  P  P22  1  0.24204222  0.12772207  0.35008059  1
  P  P23  1  0.74204222  0.37227793  0.14991941  1
  P  P24  1  0.75795778  0.87227793  0.35008059  1
  P  P25  1  0.25795778  0.62772207  0.14991941  1
  P  P26  1  0.12772207  0.75795778  0.64991941  1
  P  P27  1  0.37227793  0.25795778  0.85008059  1
  P  P28  1  0.87227793  0.24204222  0.64991941  1
  P  P29  1  0.62772207  0.74204222  0.85008059  1
  P  P30  1  0.29963677  0.96179077  0.10053892  1
  P  P31  1  0.79963677  0.53820923  0.39946108  1
  P  P32  1  0.70036323  0.03820923  0.10053892  1
  P  P33  1  0.20036323  0.46179077  0.39946108  1
  P  P34  1  0.96179077  0.70036323  0.89946108  1
  P  P35  1  0.53820923  0.20036323  0.60053892  1
  P  P36  1  0.03820923  0.29963677  0.89946108  1
  P  P37  1  0.46179077  0.79963677  0.60053892  1
  P  P38  1  0.00000000  -0.00000000  0.00000000  1
  P  P39  1  0.50000000  0.50000000  0.50000000  1
  O  O40  1  0.39898319  0.92706571  0.06089665  1
  O  O41  1  0.89898319  0.57293429  0.43910335  1
  O  O42  1  0.60101681  0.07293429  0.06089665  1
  O  O43  1  0.10101681  0.42706571  0.43910335  1
  O  O44  1  0.92706571  0.60101681  0.93910335  1
  O  O45  1  0.57293429  0.10101681  0.56089665  1
  O  O46  1  0.07293429  0.39898319  0.93910335  1
  O  O47  1  0.42706571  0.89898319  0.56089665  1
  O  O48  1  0.31364462  0.04193671  0.28812960  1
  O  O49  1  0.81364462  0.45806329  0.21187040  1
  O  O50  1  0.68635538  0.95806329  0.28812960  1
  O  O51  1  0.18635538  0.54193671  0.21187040  1
  O  O52  1  0.04193671  0.68635538  0.71187040  1
  O  O53  1  0.45806329  0.18635538  0.78812960  1
  O  O54  1  0.95806329  0.31364462  0.71187040  1
  O  O55  1  0.54193671  0.81364462  0.78812960  1
  O  O56  1  0.23599064  0.88750475  0.20402196  1
  O  O57  1  0.73599064  0.61249525  0.29597804  1
  O  O58  1  0.76400936  0.11249525  0.20402196  1
  O  O59  1  0.26400936  0.38750475  0.29597804  1
  O  O60  1  0.88750475  0.76400936  0.79597804  1
  O  O61  1  0.61249525  0.26400936  0.70402196  1
  O  O62  1  0.11249525  0.23599064  0.79597804  1
  O  O63  1  0.38750475  0.73599064  0.70402196  1
  O  O64  1  0.25596728  0.01090293  0.90658808  1
  O  O65  1  0.75596728  0.48909707  0.59341192  1
  O  O66  1  0.74403272  0.98909707  0.90658808  1
  O  O67  1  0.24403272  0.51090293  0.59341192  1
  O  O68  1  0.01090293  0.74403272  0.09341192  1
  O  O69  1  0.48909707  0.24403272  0.40658808  1
  O  O70  1  0.98909707  0.25596728  0.09341192  1
  O  O71  1  0.51090293  0.75596728  0.40658808  1
  O  O72  1  0.30488069  0.21147589  0.37929117  1
  O  O73  1  0.80488069  0.28852411  0.12070883  1
  O  O74  1  0.69511931  0.78852411  0.37929117  1
  O  O75  1  0.19511931  0.71147589  0.12070883  1
  O  O76  1  0.21147589  0.69511931  0.62070883  1
  O  O77  1  0.28852411  0.19511931  0.87929117  1
  O  O78  1  0.78852411  0.30488069  0.62070883  1
  O  O79  1  0.71147589  0.80488069  0.87929117  1
  O  O80  1  0.19281835  0.09646801  0.55715043  1
  O  O81  1  0.69281835  0.40353199  0.94284957  1
  O  O82  1  0.80718165  0.90353199  0.55715043  1
  O  O83  1  0.30718165  0.59646801  0.94284957  1
  O  O84  1  0.09646801  0.80718165  0.44284957  1
  O  O85  1  0.40353199  0.30718165  0.05715043  1
  O  O86  1  0.90353199  0.19281835  0.44284957  1
  O  O87  1  0.59646801  0.69281835  0.05715043  1
  O  O88  1  0.16871359  0.13730010  0.17163636  1
  O  O89  1  0.66871359  0.36269990  0.32836364  1
  O  O90  1  0.83128641  0.86269990  0.17163636  1
  O  O91  1  0.33128641  0.63730010  0.32836364  1
  O  O92  1  0.13730010  0.83128641  0.82836364  1
  O  O93  1  0.36269990  0.33128641  0.67163636  1
  O  O94  1  0.86269990  0.16871359  0.82836364  1
  O  O95  1  0.63730010  0.66871359  0.67163636  1
  O  O96  1  0.05225340  0.93164824  0.15250317  1
  O  O97  1  0.55225340  0.56835176  0.34749683  1
  O  O98  1  0.94774660  0.06835176  0.15250317  1
  O  O99  1  0.44774660  0.43164824  0.34749683  1
  O  O100  1  0.93164824  0.94774660  0.84749683  1
  O  O101  1  0.56835176  0.44774660  0.65250317  1
  O  O102  1  0.06835176  0.05225340  0.84749683  1
  O  O103  1  0.43164824  0.55225340  0.65250317  1
