# generated using pymatgen
data_YBe2B5O11
_symmetry_space_group_name_H-M   'P 1'
_cell_length_a   25.83481064
_cell_length_b   4.36660161
_cell_length_c   6.72502867
_cell_angle_alpha   90.00000000
_cell_angle_beta   90.00000000
_cell_angle_gamma   90.00000000
_symmetry_Int_Tables_number   1
_chemical_formula_structural   YBe2B5O11
_chemical_formula_sum   'Y4 Be8 B20 O44'
_cell_volume   758.65267484
_cell_formula_units_Z   4
loop_
 _symmetry_equiv_pos_site_id
 _symmetry_equiv_pos_as_xyz
  1  'x, y, z'
loop_
 _atom_site_type_symbol
 _atom_site_label
 _atom_site_symmetry_multiplicity
 _atom_site_fract_x
 _atom_site_fract_y
 _atom_site_fract_z
 _atom_site_occupancy
  Y  Y0  1  0.91956972  0.86468424  0.36823687  1
  Y  Y1  1  0.08043028  0.13531576  0.86823687  1
  Y  Y2  1  0.58043028  0.36468424  0.86823687  1
  Y  Y3  1  0.41956972  0.63531576  0.36823687  1
  Be  Be4  1  0.79088514  0.16966975  0.45145644  1
  Be  Be5  1  0.20911486  0.83033025  0.95145644  1
  Be  Be6  1  0.70911486  0.66966975  0.95145644  1
  Be  Be7  1  0.29088514  0.33033025  0.45145644  1
  Be  Be8  1  0.79326799  0.66708353  0.22725751  1
  Be  Be9  1  0.20673201  0.33291647  0.72725751  1
  Be  Be10  1  0.70673201  0.16708353  0.72725751  1
  Be  Be11  1  0.29326799  0.83291647  0.22725751  1
  B  B12  1  0.86987546  0.37430999  0.03989845  1
  B  B13  1  0.13012454  0.62569001  0.53989845  1
  B  B14  1  0.63012454  0.87430999  0.53989845  1
  B  B15  1  0.36987546  0.12569001  0.03989845  1
  B  B16  1  0.87077937  0.14604175  0.70974074  1
  B  B17  1  0.12922063  0.85395825  0.20974074  1
  B  B18  1  0.62922063  0.64604175  0.20974074  1
  B  B19  1  0.37077937  0.35395825  0.70974074  1
  B  B20  1  0.94340978  0.02589581  0.93893941  1
  B  B21  1  0.05659022  0.97410419  0.43893941  1
  B  B22  1  0.55659022  0.52589581  0.43893941  1
  B  B23  1  0.44340978  0.47410419  0.93893941  1
  B  B24  1  0.99797287  0.53753896  0.95963293  1
  B  B25  1  0.00202713  0.46246104  0.45963293  1
  B  B26  1  0.50202713  0.03753896  0.45963293  1
  B  B27  1  0.49797287  0.96246104  0.95963293  1
  B  B28  1  0.75170624  0.18157267  0.08652968  1
  B  B29  1  0.24829376  0.81842733  0.58652968  1
  B  B30  1  0.74829376  0.68157267  0.58652968  1
  B  B31  1  0.25170624  0.31842733  0.08652968  1
  O  O32  1  0.85003578  0.35157112  0.84652482  1
  O  O33  1  0.14996422  0.64842888  0.34652482  1
  O  O34  1  0.64996422  0.85157112  0.34652482  1
  O  O35  1  0.35003578  0.14842888  0.84652482  1
  O  O36  1  0.04739987  0.62849966  0.92815446  1
  O  O37  1  0.95260013  0.37150034  0.42815446  1
  O  O38  1  0.45260013  0.12849966  0.42815446  1
  O  O39  1  0.54739987  0.87150034  0.92815446  1
  O  O40  1  0.91720136  0.99286628  0.74582710  1
  O  O41  1  0.08279864  0.00713372  0.24582710  1
  O  O42  1  0.58279864  0.49286628  0.24582710  1
  O  O43  1  0.41720136  0.50713372  0.74582710  1
  O  O44  1  0.99052176  0.22157860  0.92728354  1
  O  O45  1  0.00947824  0.77842140  0.42728354  1
  O  O46  1  0.50947824  0.72157860  0.42728354  1
  O  O47  1  0.49052176  0.27842140  0.92728354  1
  O  O48  1  0.90772425  0.15707922  0.08774129  1
  O  O49  1  0.09227575  0.84292078  0.58774129  1
  O  O50  1  0.59227575  0.65707922  0.58774129  1
  O  O51  1  0.40772425  0.34292078  0.08774129  1
  O  O52  1  0.84950273  0.08619198  0.52807137  1
  O  O53  1  0.15049727  0.91380802  0.02807137  1
  O  O54  1  0.65049727  0.58619198  0.02807137  1
  O  O55  1  0.34950273  0.41380802  0.52807137  1
  O  O56  1  0.85395783  0.58000672  0.17843052  1
  O  O57  1  0.14604217  0.41999328  0.67843052  1
  O  O58  1  0.64604217  0.08000672  0.67843052  1
  O  O59  1  0.35395783  0.91999328  0.17843052  1
  O  O60  1  0.95727802  0.72347280  0.01936055  1
  O  O61  1  0.04272198  0.27652720  0.51936055  1
  O  O62  1  0.54272198  0.22347280  0.51936055  1
  O  O63  1  0.45727802  0.77652720  0.01936055  1
  O  O64  1  0.78337053  0.03219579  0.22193439  1
  O  O65  1  0.21662947  0.96780421  0.72193439  1
  O  O66  1  0.71662947  0.53219579  0.72193439  1
  O  O67  1  0.28337053  0.46780421  0.22193439  1
  O  O68  1  0.75206088  0.49635301  0.08540844  1
  O  O69  1  0.24793912  0.50364699  0.58540844  1
  O  O70  1  0.74793912  0.99635301  0.58540844  1
  O  O71  1  0.25206088  0.00364699  0.08540844  1
  O  O72  1  0.72042683  0.03128761  0.95318148  1
  O  O73  1  0.27957317  0.96871239  0.45318148  1
  O  O74  1  0.77957317  0.53128761  0.45318148  1
  O  O75  1  0.22042683  0.46871239  0.95318148  1
