# generated using pymatgen
data_Rb2Li3B(P2O7)2
_symmetry_space_group_name_H-M   'P 1'
_cell_length_a   7.17903385
_cell_length_b   14.10266727
_cell_length_c   14.10266727
_cell_angle_alpha   118.72769026
_cell_angle_beta   90.00000000
_cell_angle_gamma   90.00000000
_symmetry_Int_Tables_number   1
_chemical_formula_structural   Rb2Li3B(P2O7)2
_chemical_formula_sum   'Rb8 Li12 B4 P16 O56'
_cell_volume   1252.06106832
_cell_formula_units_Z   4
loop_
 _symmetry_equiv_pos_site_id
 _symmetry_equiv_pos_as_xyz
  1  'x, y, z'
loop_
 _atom_site_type_symbol
 _atom_site_label
 _atom_site_symmetry_multiplicity
 _atom_site_fract_x
 _atom_site_fract_y
 _atom_site_fract_z
 _atom_site_occupancy
  Rb  Rb0  1  0.79918423  0.38590069  0.38590069  1
  Rb  Rb1  1  0.20081577  0.61409931  0.61409931  1
  Rb  Rb2  1  0.29918423  0.11409931  0.11409931  1
  Rb  Rb3  1  0.70081577  0.88590069  0.88590069  1
  Rb  Rb4  1  0.75000000  0.90400884  0.40400884  1
  Rb  Rb5  1  0.25000000  0.59599116  0.09599116  1
  Rb  Rb6  1  0.25000000  0.09599116  0.59599116  1
  Rb  Rb7  1  0.75000000  0.40400884  0.90400884  1
  Li  Li8  1  0.50000000  0.11857655  0.88142345  1
  Li  Li9  1  -0.00000000  0.61857655  0.38142345  1
  Li  Li10  1  0.50000000  0.88142345  0.11857655  1
  Li  Li11  1  -0.00000000  0.38142345  0.61857655  1
  Li  Li12  1  0.97637360  0.86819414  0.60242108  1
  Li  Li13  1  0.02362640  0.39757892  0.13180586  1
  Li  Li14  1  0.47637360  0.89757892  0.63180586  1
  Li  Li15  1  0.52362640  0.36819414  0.10242108  1
  Li  Li16  1  0.02362640  0.13180586  0.39757892  1
  Li  Li17  1  0.97637360  0.60242108  0.86819414  1
  Li  Li18  1  0.52362640  0.10242108  0.36819414  1
  Li  Li19  1  0.47637360  0.63180586  0.89757892  1
  B  B20  1  -0.00000000  0.11998602  0.88001398  1
  B  B21  1  0.50000000  0.61998602  0.38001398  1
  B  B22  1  -0.00000000  0.88001398  0.11998602  1
  B  B23  1  0.50000000  0.38001398  0.61998602  1
  P  P24  1  0.76003512  0.09185854  0.71401081  1
  P  P25  1  0.23996488  0.28598919  0.90814146  1
  P  P26  1  0.26003512  0.78598919  0.40814146  1
  P  P27  1  0.73996488  0.59185854  0.21401081  1
  P  P28  1  0.23996488  0.90814146  0.28598919  1
  P  P29  1  0.76003512  0.71401081  0.09185854  1
  P  P30  1  0.73996488  0.21401081  0.59185854  1
  P  P31  1  0.26003512  0.40814146  0.78598919  1
  P  P32  1  0.80223745  0.19713006  0.07195729  1
  P  P33  1  0.19776255  0.92804271  0.80286994  1
  P  P34  1  0.30223745  0.42804271  0.30286994  1
  P  P35  1  0.69776255  0.69713006  0.57195729  1
  P  P36  1  0.19776255  0.80286994  0.92804271  1
  P  P37  1  0.80223745  0.07195729  0.19713006  1
  P  P38  1  0.69776255  0.57195729  0.69713006  1
  P  P39  1  0.30223745  0.30286994  0.42804271  1
  O  O40  1  0.89540525  0.01414802  0.63160186  1
  O  O41  1  0.10459475  0.36839814  0.98585198  1
  O  O42  1  0.39540525  0.86839814  0.48585198  1
  O  O43  1  0.60459475  0.51414802  0.13160186  1
  O  O44  1  0.10459475  0.98585198  0.36839814  1
  O  O45  1  0.89540525  0.63160186  0.01414802  1
  O  O46  1  0.60459475  0.13160186  0.51414802  1
  O  O47  1  0.39540525  0.48585198  0.86839814  1
  O  O48  1  0.83167524  0.14444474  0.83527110  1
  O  O49  1  0.16832476  0.16472890  0.85555526  1
  O  O50  1  0.33167524  0.66472890  0.35555526  1
  O  O51  1  0.66832476  0.64444474  0.33527110  1
  O  O52  1  0.16832476  0.85555526  0.16472890  1
  O  O53  1  0.83167524  0.83527110  0.14444474  1
  O  O54  1  0.66832476  0.33527110  0.64444474  1
  O  O55  1  0.33167524  0.35555526  0.66472890  1
  O  O56  1  0.56245891  0.05350409  0.71375898  1
  O  O57  1  0.43754109  0.28624102  0.94649591  1
  O  O58  1  0.06245891  0.78624102  0.44649591  1
  O  O59  1  0.93754109  0.55350409  0.21375898  1
  O  O60  1  0.43754109  0.94649591  0.28624102  1
  O  O61  1  0.56245891  0.71375898  0.05350409  1
  O  O62  1  0.93754109  0.21375898  0.55350409  1
  O  O63  1  0.06245891  0.44649591  0.78624102  1
  O  O64  1  0.75000000  0.20110390  0.70110390  1
  O  O65  1  0.25000000  0.29889610  0.79889610  1
  O  O66  1  0.25000000  0.79889610  0.29889610  1
  O  O67  1  0.75000000  0.70110390  0.20110390  1
  O  O68  1  0.86755148  0.16322455  0.16322455  1
  O  O69  1  0.13244852  0.83677545  0.83677545  1
  O  O70  1  0.36755148  0.33677545  0.33677545  1
  O  O71  1  0.63244852  0.66322455  0.66322455  1
  O  O72  1  0.78149320  0.31935708  0.13380816  1
  O  O73  1  0.21850680  0.86619184  0.68064292  1
  O  O74  1  0.28149320  0.36619184  0.18064292  1
  O  O75  1  0.71850680  0.81935708  0.63380816  1
  O  O76  1  0.21850680  0.68064292  0.86619184  1
  O  O77  1  0.78149320  0.13380816  0.31935708  1
  O  O78  1  0.71850680  0.63380816  0.81935708  1
  O  O79  1  0.28149320  0.18064292  0.36619184  1
  O  O80  1  0.63477754  0.13293856  0.01144886  1
  O  O81  1  0.36522246  0.98855114  0.86706144  1
  O  O82  1  0.13477754  0.48855114  0.36706144  1
  O  O83  1  0.86522246  0.63293856  0.51144886  1
  O  O84  1  0.36522246  0.86706144  0.98855114  1
  O  O85  1  0.63477754  0.01144886  0.13293856  1
  O  O86  1  0.86522246  0.51144886  0.63293856  1
  O  O87  1  0.13477754  0.36706144  0.48855114  1
  O  O88  1  0.98314624  0.16741862  0.99911705  1
  O  O89  1  0.01685376  0.00088295  0.83258138  1
  O  O90  1  0.48314624  0.50088295  0.33258138  1
  O  O91  1  0.51685376  0.66741862  0.49911705  1
  O  O92  1  0.01685376  0.83258138  0.00088295  1
  O  O93  1  0.98314624  0.99911705  0.16741862  1
  O  O94  1  0.51685376  0.49911705  0.66741862  1
  O  O95  1  0.48314624  0.33258138  0.50088295  1
