# generated using pymatgen
data_Rb3B(SO4)3
_symmetry_space_group_name_H-M   'P 1'
_cell_length_a   7.40094888
_cell_length_b   14.25686545
_cell_length_c   14.25686545
_cell_angle_alpha   63.75523250
_cell_angle_beta   74.95620058
_cell_angle_gamma   74.95620058
_symmetry_Int_Tables_number   1
_chemical_formula_structural   Rb3B(SO4)3
_chemical_formula_sum   'Rb12 B4 S12 O48'
_cell_volume   1284.65776014
_cell_formula_units_Z   4
loop_
 _symmetry_equiv_pos_site_id
 _symmetry_equiv_pos_as_xyz
  1  'x, y, z'
loop_
 _atom_site_type_symbol
 _atom_site_label
 _atom_site_symmetry_multiplicity
 _atom_site_fract_x
 _atom_site_fract_y
 _atom_site_fract_z
 _atom_site_occupancy
  Rb  Rb0  1  0.45079859  0.29354567  0.06072164  1
  Rb  Rb1  1  0.30506591  0.20645433  0.43927836  1
  Rb  Rb2  1  0.04920141  0.93927836  0.70645433  1
  Rb  Rb3  1  0.19493409  0.56072164  0.79354567  1
  Rb  Rb4  1  0.54920141  0.70645433  0.93927836  1
  Rb  Rb5  1  0.69493409  0.79354567  0.56072164  1
  Rb  Rb6  1  0.95079859  0.06072164  0.29354567  1
  Rb  Rb7  1  0.80506591  0.43927836  0.20645433  1
  Rb  Rb8  1  0.25000000  0.55671878  0.44328122  1
  Rb  Rb9  1  0.75000000  0.94328122  0.05671878  1
  Rb  Rb10  1  0.75000000  0.44328122  0.55671878  1
  Rb  Rb11  1  0.25000000  0.05671878  0.94328122  1
  B  B12  1  0.08083449  0.66916551  0.16916551  1
  B  B13  1  0.41916551  0.83083449  0.33083449  1
  B  B14  1  0.91916551  0.33083449  0.83083449  1
  B  B15  1  0.58083449  0.16916551  0.66916551  1
  S  S16  1  0.29234039  0.46879665  0.21755948  1
  S  S17  1  0.47869651  0.03120335  0.28244052  1
  S  S18  1  0.20765961  0.78244052  0.53120335  1
  S  S19  1  0.02130349  0.71755948  0.96879665  1
  S  S20  1  0.70765961  0.53120335  0.78244052  1
  S  S21  1  0.52130349  0.96879665  0.71755948  1
  S  S22  1  0.79234039  0.21755948  0.46879665  1
  S  S23  1  0.97869651  0.28244052  0.03120335  1
  S  S24  1  0.25000000  0.81138425  0.18861575  1
  S  S25  1  0.75000000  0.68861575  0.31138425  1
  S  S26  1  0.75000000  0.18861575  0.81138425  1
  S  S27  1  0.25000000  0.31138425  0.68861575  1
  O  O28  1  0.12643475  0.71964621  0.05459650  1
  O  O29  1  0.40067746  0.78035379  0.44540350  1
  O  O30  1  0.37356525  0.94540350  0.28035379  1
  O  O31  1  0.09932254  0.55459650  0.21964621  1
  O  O32  1  0.87356525  0.28035379  0.94540350  1
  O  O33  1  0.59932254  0.21964621  0.55459650  1
  O  O34  1  0.62643475  0.05459650  0.71964621  1
  O  O35  1  0.90067746  0.44540350  0.78035379  1
  O  O36  1  0.22485642  0.38194408  0.21562065  1
  O  O37  1  0.32242116  0.11805592  0.28437935  1
  O  O38  1  0.27514358  0.78437935  0.61805592  1
  O  O39  1  0.17757884  0.71562065  0.88194408  1
  O  O40  1  0.77514358  0.61805592  0.78437935  1
  O  O41  1  0.67757884  0.88194408  0.71562065  1
  O  O42  1  0.72485642  0.21562065  0.38194408  1
  O  O43  1  0.82242116  0.28437935  0.11805592  1
  O  O44  1  0.58140214  0.16492883  0.89116211  1
  O  O45  1  0.13749308  0.33507117  0.60883789  1
  O  O46  1  0.91859786  0.10883789  0.83507117  1
  O  O47  1  0.36250692  0.39116211  0.66492883  1
  O  O48  1  0.41859786  0.83507117  0.10883789  1
  O  O49  1  0.86250692  0.66492883  0.39116211  1
  O  O50  1  0.08140214  0.89116211  0.16492883  1
  O  O51  1  0.63749308  0.60883789  0.33507117  1
  O  O52  1  0.21139087  0.70033023  0.21335058  1
  O  O53  1  0.62507168  0.79966977  0.28664942  1
  O  O54  1  0.28860913  0.78664942  0.29966977  1
  O  O55  1  0.87492832  0.71335058  0.20033023  1
  O  O56  1  0.78860913  0.29966977  0.78664942  1
  O  O57  1  0.37492832  0.20033023  0.71335058  1
  O  O58  1  0.71139087  0.21335058  0.70033023  1
  O  O59  1  0.12507168  0.28664942  0.79966977  1
  O  O60  1  0.35888470  0.43877646  0.31722627  1
  O  O61  1  0.61488744  0.06122354  0.18277373  1
  O  O62  1  0.14111530  0.68277373  0.56122354  1
  O  O63  1  0.88511256  0.81722627  0.93877646  1
  O  O64  1  0.64111530  0.56122354  0.68277373  1
  O  O65  1  0.38511256  0.93877646  0.81722627  1
  O  O66  1  0.85888470  0.31722627  0.43877646  1
  O  O67  1  0.11488744  0.18277373  0.06122354  1
  O  O68  1  0.42636878  0.51991406  0.12352886  1
  O  O69  1  0.56981169  0.98008594  0.37647114  1
  O  O70  1  0.07363122  0.87647114  0.48008594  1
  O  O71  1  0.93018831  0.62352886  0.01991406  1
  O  O72  1  0.57363122  0.48008594  0.87647114  1
  O  O73  1  0.43018831  0.01991406  0.62352886  1
  O  O74  1  0.92636878  0.12352886  0.51991406  1
  O  O75  1  0.06981169  0.37647114  0.98008594  1
