# generated using pymatgen
data_LaAg2
_symmetry_space_group_name_H-M   'P 1'
_cell_length_a   4.89832849
_cell_length_b   6.06694168
_cell_length_c   6.06694168
_cell_angle_alpha   75.80108716
_cell_angle_beta   66.19093625
_cell_angle_gamma   66.19093625
_symmetry_Int_Tables_number   1
_chemical_formula_structural   LaAg2
_chemical_formula_sum   'La2 Ag4'
_cell_volume   150.18278364
_cell_formula_units_Z   2
loop_
 _symmetry_equiv_pos_site_id
 _symmetry_equiv_pos_as_xyz
  1  'x, y, z'
loop_
 _atom_site_type_symbol
 _atom_site_label
 _atom_site_symmetry_multiplicity
 _atom_site_fract_x
 _atom_site_fract_y
 _atom_site_fract_z
 _atom_site_occupancy
  La  La0  1  0.53801236  0.71198764  0.21198764  1
  La  La1  1  0.46198764  0.28801236  0.78801236  1
  Ag  Ag2  1  0.16519927  0.28757503  0.38202643  1
  Ag  Ag3  1  0.83480073  0.71242497  0.61797357  1
  Ag  Ag4  1  0.83480073  0.11797357  0.21242497  1
  Ag  Ag5  1  0.16519927  0.88202643  0.78757503  1
