# generated using pymatgen
data_Co2O3F
_symmetry_space_group_name_H-M   'P 1'
_cell_length_a   6.71370655
_cell_length_b   5.26402579
_cell_length_c   5.26402579
_cell_angle_alpha   74.07328767
_cell_angle_beta   73.99472164
_cell_angle_gamma   73.99472164
_symmetry_Int_Tables_number   1
_chemical_formula_structural   Co2O3F
_chemical_formula_sum   'Co6 O9 F3'
_cell_volume   167.88444088
_cell_formula_units_Z   3
loop_
 _symmetry_equiv_pos_site_id
 _symmetry_equiv_pos_as_xyz
  1  'x, y, z'
loop_
 _atom_site_type_symbol
 _atom_site_label
 _atom_site_symmetry_multiplicity
 _atom_site_fract_x
 _atom_site_fract_y
 _atom_site_fract_z
 _atom_site_occupancy
  Co  Co0  1  0.83462970  0.66726212  0.66693469  1
  Co  Co1  1  0.33407145  0.68907844  0.64189045  1
  Co  Co2  1  0.66592855  0.35810955  0.31092156  1
  Co  Co3  1  0.16537030  0.33306531  0.33273788  1
  Co  Co4  1  0.50000000  0.98628597  0.01371403  1
  Co  Co5  1  0.00000000  0.97321653  0.02678347  1
  O  O6  1  0.63087978  0.57802367  0.55260959  1
  O  O7  1  0.29525474  0.89160727  0.90365225  1
  O  O8  1  0.96232786  0.22705920  0.24081890  1
  O  O9  1  0.36912022  0.44739041  0.42197633  1
  O  O10  1  0.03767214  0.75918110  0.77294080  1
  O  O11  1  0.70474526  0.09634775  0.10839273  1
  O  O12  1  0.33271753  0.97446840  0.35749197  1
  O  O13  1  0.66728247  0.64250803  0.02553160  1
  O  O14  1  0.00000000  0.68297984  0.31702016  1
  F  F15  1  0.34434845  0.36460380  0.94546978  1
  F  F16  1  0.65565155  0.05453022  0.63539620  1
  F  F17  1  0.00000000  0.27428440  0.72571560  1
