# generated using pymatgen
data_RbCrN2
_symmetry_space_group_name_H-M   'P 1'
_cell_length_a   5.76594108
_cell_length_b   11.53180201
_cell_length_c   16.30952828
_cell_angle_alpha   90.00000000
_cell_angle_beta   90.01744811
_cell_angle_gamma   90.00000000
_symmetry_Int_Tables_number   1
_chemical_formula_structural   RbCrN2
_chemical_formula_sum   'Rb16 Cr16 N32'
_cell_volume   1084.44806276
_cell_formula_units_Z   16
loop_
 _symmetry_equiv_pos_site_id
 _symmetry_equiv_pos_as_xyz
  1  'x, y, z'
loop_
 _atom_site_type_symbol
 _atom_site_label
 _atom_site_symmetry_multiplicity
 _atom_site_fract_x
 _atom_site_fract_y
 _atom_site_fract_z
 _atom_site_occupancy
  Rb  Rb0  1  0.25001536  0.00000268  0.43737859  1
  Rb  Rb1  1  0.75001834  0.49999763  0.56262145  1
  Rb  Rb2  1  0.74998464  0.50000268  0.06262141  1
  Rb  Rb3  1  0.24998166  0.99999763  0.93737855  1
  Rb  Rb4  1  0.74998464  0.99999732  0.56262141  1
  Rb  Rb5  1  0.24998166  0.50000237  0.43737855  1
  Rb  Rb6  1  0.25001536  0.49999732  0.93737859  1
  Rb  Rb7  1  0.75001834  0.00000237  0.06262145  1
  Rb  Rb8  1  0.26132619  0.24999188  0.31248867  1
  Rb  Rb9  1  0.76132683  0.25000793  0.68751232  1
  Rb  Rb10  1  0.73867381  0.74999188  0.18751133  1
  Rb  Rb11  1  0.23867317  0.75000793  0.81248768  1
  Rb  Rb12  1  0.73867381  0.75000812  0.68751133  1
  Rb  Rb13  1  0.23867317  0.74999207  0.31248768  1
  Rb  Rb14  1  0.26132619  0.25000812  0.81248867  1
  Rb  Rb15  1  0.76132683  0.24999207  0.18751232  1
  Cr  Cr16  1  0.75001665  0.99996330  0.31252746  1
  Cr  Cr17  1  0.25006037  0.50000793  0.68745811  1
  Cr  Cr18  1  0.24998335  0.49996330  0.18747254  1
  Cr  Cr19  1  0.74993963  0.00000793  0.81254189  1
  Cr  Cr20  1  0.24998335  0.00003670  0.68747254  1
  Cr  Cr21  1  0.74993963  0.49999207  0.31254189  1
  Cr  Cr22  1  0.75001665  0.50003670  0.81252746  1
  Cr  Cr23  1  0.25006037  0.99999207  0.18745811  1
  Cr  Cr24  1  0.75834899  0.24998824  0.43752629  1
  Cr  Cr25  1  0.25832812  0.24999600  0.56243319  1
  Cr  Cr26  1  0.24165101  0.74998824  0.06247371  1
  Cr  Cr27  1  0.74167188  0.74999600  0.93756681  1
  Cr  Cr28  1  0.24165101  0.75001176  0.56247371  1
  Cr  Cr29  1  0.74167188  0.75000400  0.43756681  1
  Cr  Cr30  1  0.75834899  0.25001176  0.93752629  1
  Cr  Cr31  1  0.25832812  0.25000400  0.06243319  1
  N  N32  1  0.01459820  0.25001470  0.49696819  1
  N  N33  1  0.51458861  0.24998558  0.50301657  1
  N  N34  1  0.98540180  0.75001470  0.00303181  1
  N  N35  1  0.48541139  0.74998558  0.99698343  1
  N  N36  1  0.98540180  0.74998530  0.50303181  1
  N  N37  1  0.48541139  0.75001442  0.49698343  1
  N  N38  1  0.01459820  0.24998530  0.99696819  1
  N  N39  1  0.51458861  0.25001442  0.00301657  1
  N  N40  1  0.75175034  0.37500517  0.37511938  1
  N  N41  1  0.25174497  0.12497997  0.62491080  1
  N  N42  1  0.24824966  0.87500517  0.12488062  1
  N  N43  1  0.74825503  0.62497997  0.87508920  1
  N  N44  1  0.24824966  0.62499483  0.62488062  1
  N  N45  1  0.74825503  0.87502003  0.37508920  1
  N  N46  1  0.75175034  0.12499483  0.87511938  1
  N  N47  1  0.25174497  0.37502003  0.12491080  1
  N  N48  1  0.75180638  0.12495872  0.37512725  1
  N  N49  1  0.25180148  0.37506187  0.62490572  1
  N  N50  1  0.24819362  0.62495872  0.12487275  1
  N  N51  1  0.74819852  0.87506187  0.87509428  1
  N  N52  1  0.24819362  0.87504128  0.62487275  1
  N  N53  1  0.74819852  0.62493813  0.37509428  1
  N  N54  1  0.75180638  0.37504128  0.87512725  1
  N  N55  1  0.25180148  0.12493813  0.12490572  1
  N  N56  1  0.49995038  0.49998280  0.25000773  1
  N  N57  1  0.99993981  0.00001730  0.74999505  1
  N  N58  1  0.50004962  0.99998280  0.24999227  1
  N  N59  1  0.00006019  0.50001730  0.75000495  1
  N  N60  1  0.50004962  0.50001720  0.74999227  1
  N  N61  1  0.00006019  0.99998270  0.25000495  1
  N  N62  1  0.49995038  0.00001720  0.75000773  1
  N  N63  1  0.99993981  0.49998270  0.24999505  1
