# generated using pymatgen
data_MnZn2N3
_symmetry_space_group_name_H-M   'P 1'
_cell_length_a   5.54638838
_cell_length_b   9.57782055
_cell_length_c   5.24222048
_cell_angle_alpha   90.00000000
_cell_angle_beta   90.00000000
_cell_angle_gamma   90.00000000
_symmetry_Int_Tables_number   1
_chemical_formula_structural   MnZn2N3
_chemical_formula_sum   'Mn4 Zn8 N12'
_cell_volume   278.47887508
_cell_formula_units_Z   4
loop_
 _symmetry_equiv_pos_site_id
 _symmetry_equiv_pos_as_xyz
  1  'x, y, z'
loop_
 _atom_site_type_symbol
 _atom_site_label
 _atom_site_symmetry_multiplicity
 _atom_site_fract_x
 _atom_site_fract_y
 _atom_site_fract_z
 _atom_site_occupancy
  Mn  Mn0  1  0.66447775  0.50000000  0.03877894  1
  Mn  Mn1  1  0.33552225  0.50000000  0.53877894  1
  Mn  Mn2  1  0.16447775  0.00000000  0.03877894  1
  Mn  Mn3  1  0.83552225  0.00000000  0.53877894  1
  Zn  Zn4  1  0.83292130  0.66474473  0.52672780  1
  Zn  Zn5  1  0.83292130  0.33525527  0.52672780  1
  Zn  Zn6  1  0.16707870  0.33525527  0.02672780  1
  Zn  Zn7  1  0.16707870  0.66474473  0.02672780  1
  Zn  Zn8  1  0.33292130  0.16474473  0.52672780  1
  Zn  Zn9  1  0.33292130  0.83525527  0.52672780  1
  Zn  Zn10  1  0.66707870  0.83525527  0.02672780  1
  Zn  Zn11  1  0.66707870  0.16474473  0.02672780  1
  N  N12  1  0.81712369  0.65193094  0.13870011  1
  N  N13  1  0.81712369  0.34806906  0.13870011  1
  N  N14  1  0.18287631  0.34806906  0.63870011  1
  N  N15  1  0.18287631  0.65193094  0.63870011  1
  N  N16  1  0.63833830  0.50000000  0.68598624  1
  N  N17  1  0.36166170  0.50000000  0.18598624  1
  N  N18  1  0.31712369  0.15193094  0.13870011  1
  N  N19  1  0.31712369  0.84806906  0.13870011  1
  N  N20  1  0.68287631  0.84806906  0.63870011  1
  N  N21  1  0.68287631  0.15193094  0.63870011  1
  N  N22  1  0.13833830  0.00000000  0.68598624  1
  N  N23  1  0.86166170  0.00000000  0.18598624  1
