# generated using pymatgen
data_Sr2CrN3
_symmetry_space_group_name_H-M   'P 1'
_cell_length_a   6.18661414
_cell_length_b   11.01026169
_cell_length_c   12.29930202
_cell_angle_alpha   90.00000000
_cell_angle_beta   90.00000000
_cell_angle_gamma   27.14615947
_symmetry_Int_Tables_number   1
_chemical_formula_structural   Sr2CrN3
_chemical_formula_sum   'Sr8 Cr4 N12'
_cell_volume   382.24814407
_cell_formula_units_Z   4
loop_
 _symmetry_equiv_pos_site_id
 _symmetry_equiv_pos_as_xyz
  1  'x, y, z'
loop_
 _atom_site_type_symbol
 _atom_site_label
 _atom_site_symmetry_multiplicity
 _atom_site_fract_x
 _atom_site_fract_y
 _atom_site_fract_z
 _atom_site_occupancy
  Sr  Sr0  1  0.00000000  0.44291439  0.64161724  1
  Sr  Sr1  1  -0.00000000  0.55708561  0.35838276  1
  Sr  Sr2  1  -0.00000000  0.05708561  0.14161724  1
  Sr  Sr3  1  0.00000000  0.94291439  0.85838276  1
  Sr  Sr4  1  0.00000000  0.14241095  0.57975717  1
  Sr  Sr5  1  -0.00000000  0.85758905  0.42024283  1
  Sr  Sr6  1  -0.00000000  0.35758905  0.07975717  1
  Sr  Sr7  1  0.00000000  0.64241095  0.92024283  1
  Cr  Cr8  1  0.00000000  0.25649369  0.83575540  1
  Cr  Cr9  1  -0.00000000  0.74350631  0.16424460  1
  Cr  Cr10  1  -0.00000000  0.24350631  0.33575540  1
  Cr  Cr11  1  0.00000000  0.75649369  0.66424460  1
  N  N12  1  0.00000000  0.15948532  0.95134949  1
  N  N13  1  -0.00000000  0.84051468  0.04865051  1
  N  N14  1  -0.00000000  0.34051468  0.45134949  1
  N  N15  1  0.00000000  0.65948532  0.54865051  1
  N  N16  1  0.00000000  0.41143053  0.86827414  1
  N  N17  1  -0.00000000  0.58856947  0.13172586  1
  N  N18  1  -0.00000000  0.08856947  0.36827414  1
  N  N19  1  0.00000000  0.91143053  0.63172586  1
  N  N20  1  0.50000000  0.47349251  0.75000000  1
  N  N21  1  0.50000000  0.02650749  0.25000000  1
  N  N22  1  0.50000000  0.52650749  0.25000000  1
  N  N23  1  0.50000000  0.97349251  0.75000000  1
