# generated using pymatgen
data_EuTl3
_symmetry_space_group_name_H-M   'P 1'
_cell_length_a   4.94733348
_cell_length_b   4.94936981
_cell_length_c   4.94939121
_cell_angle_alpha   89.50765570
_cell_angle_beta   89.61872122
_cell_angle_gamma   90.29426550
_symmetry_Int_Tables_number   1
_chemical_formula_structural   EuTl3
_chemical_formula_sum   'Eu1 Tl3'
_cell_volume   121.18290682
_cell_formula_units_Z   1
loop_
 _symmetry_equiv_pos_site_id
 _symmetry_equiv_pos_as_xyz
  1  'x, y, z'
loop_
 _atom_site_type_symbol
 _atom_site_label
 _atom_site_symmetry_multiplicity
 _atom_site_fract_x
 _atom_site_fract_y
 _atom_site_fract_z
 _atom_site_occupancy
  Eu  Eu0  1  0.00000016  0.00000017  0.00000013  1
  Tl  Tl1  1  0.49999984  0.49999996  0.99999999  1
  Tl  Tl2  1  0.50000003  0.99999998  0.50000018  1
  Tl  Tl3  1  0.99999997  0.49999990  0.49999969  1
