# generated using pymatgen
data_YbNiC2
_symmetry_space_group_name_H-M   'P 1'
_cell_length_a   3.54946609
_cell_length_b   3.75756779
_cell_length_c   3.75756779
_cell_angle_alpha   106.15764840
_cell_angle_beta   90.00000000
_cell_angle_gamma   90.00000000
_symmetry_Int_Tables_number   1
_chemical_formula_structural   YbNiC2
_chemical_formula_sum   'Yb1 Ni1 C2'
_cell_volume   48.13643141
_cell_formula_units_Z   1
loop_
 _symmetry_equiv_pos_site_id
 _symmetry_equiv_pos_as_xyz
  1  'x, y, z'
loop_
 _atom_site_type_symbol
 _atom_site_label
 _atom_site_symmetry_multiplicity
 _atom_site_fract_x
 _atom_site_fract_y
 _atom_site_fract_z
 _atom_site_occupancy
  Yb  Yb0  1  0.00000000  0.00535921  0.99464079  1
  Ni  Ni1  1  0.50000000  0.38566503  0.61433497  1
  C  C2  1  0.50000000  0.84415499  0.45017923  1
  C  C3  1  0.50000000  0.54982077  0.15584501  1
