# generated using pymatgen
data_GdAu2
_symmetry_space_group_name_H-M   'P 1'
_cell_length_a   3.79562511
_cell_length_b   3.79671423
_cell_length_c   5.28985768
_cell_angle_alpha   110.98090075
_cell_angle_beta   111.02963943
_cell_angle_gamma   89.95180779
_symmetry_Int_Tables_number   1
_chemical_formula_structural   GdAu2
_chemical_formula_sum   'Gd1 Au2'
_cell_volume   65.72019411
_cell_formula_units_Z   1
loop_
 _symmetry_equiv_pos_site_id
 _symmetry_equiv_pos_as_xyz
  1  'x, y, z'
loop_
 _atom_site_type_symbol
 _atom_site_label
 _atom_site_symmetry_multiplicity
 _atom_site_fract_x
 _atom_site_fract_y
 _atom_site_fract_z
 _atom_site_occupancy
  Gd  Gd0  1  0.99999837  0.99999895  0.99999870  1
  Au  Au1  1  0.66478835  0.66442830  0.32947435  1
  Au  Au2  1  0.33521328  0.33557275  0.67052695  1
