# generated using pymatgen
data_Ti6Co3O16
_symmetry_space_group_name_H-M   'P 1'
_cell_length_a   8.42659687
_cell_length_b   8.47557116
_cell_length_c   8.39405580
_cell_angle_alpha   90.00000000
_cell_angle_beta   89.83872719
_cell_angle_gamma   90.00000000
_symmetry_Int_Tables_number   1
_chemical_formula_structural   Ti6Co3O16
_chemical_formula_sum   'Ti12 Co6 O32'
_cell_volume   599.50294875
_cell_formula_units_Z   2
loop_
 _symmetry_equiv_pos_site_id
 _symmetry_equiv_pos_as_xyz
  1  'x, y, z'
loop_
 _atom_site_type_symbol
 _atom_site_label
 _atom_site_symmetry_multiplicity
 _atom_site_fract_x
 _atom_site_fract_y
 _atom_site_fract_z
 _atom_site_occupancy
  Ti  Ti0  1  0.13264063  0.11507551  0.63993429  1
  Ti  Ti1  1  0.10645404  0.63256870  0.14075263  1
  Ti  Ti2  1  0.11696795  0.35407543  0.88623856  1
  Ti  Ti3  1  0.38046695  0.38000520  0.63911001  1
  Ti  Ti4  1  0.36387478  0.63525016  0.38552329  1
  Ti  Ti5  1  0.35525473  0.88892569  0.11837472  1
  Ti  Ti6  1  0.63612522  0.13525016  0.11447671  1
  Ti  Ti7  1  0.64474527  0.38892569  0.38162528  1
  Ti  Ti8  1  0.61953305  0.88000520  0.86088999  1
  Ti  Ti9  1  0.89354596  0.13256870  0.35924737  1
  Ti  Ti10  1  0.86735937  0.61507551  0.86006571  1
  Ti  Ti11  1  0.88303205  0.85407543  0.61376144  1
  Co  Co12  1  0.25498225  0.25743118  0.25410314  1
  Co  Co13  1  0.24108192  0.74147356  0.75780066  1
  Co  Co14  1  0.50057775  0.00569347  0.49133890  1
  Co  Co15  1  0.49942225  0.50569347  0.00866110  1
  Co  Co16  1  0.75891808  0.24147356  0.74219934  1
  Co  Co17  1  0.74501775  0.75743118  0.24589686  1
  O  O18  1  0.14829354  0.38989147  0.11481433  1
  O  O19  1  0.11315345  0.14270086  0.38529585  1
  O  O20  1  0.15287804  0.35087725  0.65270723  1
  O  O21  1  0.14679980  0.85199318  0.12284433  1
  O  O22  1  0.12041507  0.14048770  0.86078682  1
  O  O23  1  0.14978861  0.62249942  0.35538816  1
  O  O24  1  0.10886646  0.88795448  0.63553646  1
  O  O25  1  0.10221730  0.60844494  0.89358281  1
  O  O26  1  0.38299746  0.11027656  0.15014990  1
  O  O27  1  0.36375113  0.13468820  0.60336419  1
  O  O28  1  0.38582732  0.39113446  0.38755332  1
  O  O29  1  0.36812619  0.39623890  0.86391946  1
  O  O30  1  0.36721748  0.63827879  0.13559562  1
  O  O31  1  0.39664716  0.85734904  0.36337323  1
  O  O32  1  0.36666288  0.60755118  0.60924750  1
  O  O33  1  0.39301816  0.85913567  0.89175392  1
  O  O34  1  0.63278252  0.13827879  0.36440438  1
  O  O35  1  0.60335284  0.35734904  0.13662677  1
  O  O36  1  0.60698184  0.35913567  0.60824608  1
  O  O37  1  0.61700254  0.61027656  0.34985010  1
  O  O38  1  0.63333712  0.10755118  0.89075250  1
  O  O39  1  0.63624887  0.63468820  0.89663581  1
  O  O40  1  0.61417268  0.89113446  0.11244668  1
  O  O41  1  0.63187381  0.89623890  0.63608054  1
  O  O42  1  0.85021139  0.12249942  0.14461184  1
  O  O43  1  0.89778270  0.10844494  0.60641719  1
  O  O44  1  0.85320020  0.35199318  0.37715567  1
  O  O45  1  0.88684655  0.64270086  0.11470415  1
  O  O46  1  0.87958493  0.64048770  0.63921318  1
  O  O47  1  0.89113354  0.38795448  0.86446354  1
  O  O48  1  0.85170646  0.88989147  0.38518567  1
  O  O49  1  0.84712196  0.85087725  0.84729277  1
