# generated using pymatgen
data_TmGa
_symmetry_space_group_name_H-M   'P 1'
_cell_length_a   3.99975542
_cell_length_b   4.30867609
_cell_length_c   5.76939476
_cell_angle_alpha   111.92595037
_cell_angle_beta   90.00000000
_cell_angle_gamma   90.00000000
_symmetry_Int_Tables_number   1
_chemical_formula_structural   TmGa
_chemical_formula_sum   'Tm2 Ga2'
_cell_volume   92.23584935
_cell_formula_units_Z   2
loop_
 _symmetry_equiv_pos_site_id
 _symmetry_equiv_pos_as_xyz
  1  'x, y, z'
loop_
 _atom_site_type_symbol
 _atom_site_label
 _atom_site_symmetry_multiplicity
 _atom_site_fract_x
 _atom_site_fract_y
 _atom_site_fract_z
 _atom_site_occupancy
  Tm  Tm0  1  0.75000000  0.13906380  0.27812760  1
  Tm  Tm1  1  0.25000000  0.86093620  0.72187240  1
  Ga  Ga2  1  0.75000000  0.42139353  0.84278706  1
  Ga  Ga3  1  0.25000000  0.57860647  0.15721294  1
