# generated using pymatgen
data_HfCo
_symmetry_space_group_name_H-M   'P 1'
_cell_length_a   3.16824565
_cell_length_b   4.21246206
_cell_length_c   5.00733674
_cell_angle_alpha   90.00000000
_cell_angle_beta   108.44296103
_cell_angle_gamma   90.00000000
_symmetry_Int_Tables_number   1
_chemical_formula_structural   HfCo
_chemical_formula_sum   'Hf2 Co2'
_cell_volume   63.39611639
_cell_formula_units_Z   2
loop_
 _symmetry_equiv_pos_site_id
 _symmetry_equiv_pos_as_xyz
  1  'x, y, z'
loop_
 _atom_site_type_symbol
 _atom_site_label
 _atom_site_symmetry_multiplicity
 _atom_site_fract_x
 _atom_site_fract_y
 _atom_site_fract_z
 _atom_site_occupancy
  Hf  Hf0  1  0.86000237  0.75000000  0.72000473  1
  Hf  Hf1  1  0.13999763  0.25000000  0.27999527  1
  Co  Co2  1  0.58625483  0.75000000  0.17250966  1
  Co  Co3  1  0.41374517  0.25000000  0.82749034  1
