# generated using pymatgen
data_NaN3
_symmetry_space_group_name_H-M   'P 1'
_cell_length_a   3.69600563
_cell_length_b   3.71087087
_cell_length_c   6.69936323
_cell_angle_alpha   54.91589576
_cell_angle_beta   57.12844689
_cell_angle_gamma   60.00799967
_symmetry_Int_Tables_number   1
_chemical_formula_structural   NaN3
_chemical_formula_sum   'Na1 N3'
_cell_volume   60.74492456
_cell_formula_units_Z   1
loop_
 _symmetry_equiv_pos_site_id
 _symmetry_equiv_pos_as_xyz
  1  'x, y, z'
loop_
 _atom_site_type_symbol
 _atom_site_label
 _atom_site_symmetry_multiplicity
 _atom_site_fract_x
 _atom_site_fract_y
 _atom_site_fract_z
 _atom_site_occupancy
  Na  Na0  1  0.88899595  0.11216622  0.00000833  1
  N  N1  1  0.86970465  0.12994106  0.49990938  1
  N  N2  1  0.70631506  0.00006551  0.73053423  1
  N  N3  1  0.03498435  0.25782721  0.26954806  1
