# generated using pymatgen
data_LaNi
_symmetry_space_group_name_H-M   'P 1'
_cell_length_a   3.84357470
_cell_length_b   4.41410828
_cell_length_c   5.73080871
_cell_angle_alpha   90.00000000
_cell_angle_beta   109.59340504
_cell_angle_gamma   90.00000000
_symmetry_Int_Tables_number   1
_chemical_formula_structural   LaNi
_chemical_formula_sum   'La2 Ni2'
_cell_volume   91.59872059
_cell_formula_units_Z   2
loop_
 _symmetry_equiv_pos_site_id
 _symmetry_equiv_pos_as_xyz
  1  'x, y, z'
loop_
 _atom_site_type_symbol
 _atom_site_label
 _atom_site_symmetry_multiplicity
 _atom_site_fract_x
 _atom_site_fract_y
 _atom_site_fract_z
 _atom_site_occupancy
  La  La0  1  0.86448935  0.75000000  0.72897870  1
  La  La1  1  0.13551065  0.25000000  0.27102130  1
  Ni  Ni2  1  0.57298302  0.75000000  0.14596603  1
  Ni  Ni3  1  0.42701698  0.25000000  0.85403397  1
