# generated using pymatgen
data_Fe3Ni
_symmetry_space_group_name_H-M   'P 1'
_cell_length_a   2.50337932
_cell_length_b   2.50337933
_cell_length_c   8.41658037
_cell_angle_alpha   90.00000000
_cell_angle_beta   81.44741680
_cell_angle_gamma   119.99999991
_symmetry_Int_Tables_number   1
_chemical_formula_structural   Fe3Ni
_chemical_formula_sum   'Fe3 Ni1'
_cell_volume   45.00076123
_cell_formula_units_Z   1
loop_
 _symmetry_equiv_pos_site_id
 _symmetry_equiv_pos_as_xyz
  1  'x, y, z'
loop_
 _atom_site_type_symbol
 _atom_site_label
 _atom_site_symmetry_multiplicity
 _atom_site_fract_x
 _atom_site_fract_y
 _atom_site_fract_z
 _atom_site_occupancy
  Fe  Fe0  1  0.50026313  0.25013157  0.24960530  1
  Fe  Fe1  1  -0.00000000  0.50000000  0.50000000  1
  Fe  Fe2  1  0.49973687  0.74986843  0.75039470  1
  Ni  Ni3  1  -0.00000000  0.00000000  0.00000000  1
