# generated using pymatgen
data_TmSi
_symmetry_space_group_name_H-M   'P 1'
_cell_length_a   3.79574734
_cell_length_b   4.20658892
_cell_length_c   5.60330657
_cell_angle_alpha   112.04697632
_cell_angle_beta   90.00000000
_cell_angle_gamma   90.00000000
_symmetry_Int_Tables_number   1
_chemical_formula_structural   TmSi
_chemical_formula_sum   'Tm2 Si2'
_cell_volume   82.92654696
_cell_formula_units_Z   2
loop_
 _symmetry_equiv_pos_site_id
 _symmetry_equiv_pos_as_xyz
  1  'x, y, z'
loop_
 _atom_site_type_symbol
 _atom_site_label
 _atom_site_symmetry_multiplicity
 _atom_site_fract_x
 _atom_site_fract_y
 _atom_site_fract_z
 _atom_site_occupancy
  Tm  Tm0  1  0.75000000  0.14048947  0.28097893  1
  Tm  Tm1  1  0.25000000  0.85951053  0.71902107  1
  Si  Si2  1  0.75000000  0.42223526  0.84447051  1
  Si  Si3  1  0.25000000  0.57776474  0.15552949  1
