# generated using pymatgen
data_YNiC2
_symmetry_space_group_name_H-M   'P 1'
_cell_length_a   3.60274533
_cell_length_b   3.76432540
_cell_length_c   3.76432540
_cell_angle_alpha   106.23300618
_cell_angle_beta   90.00000000
_cell_angle_gamma   90.00000000
_symmetry_Int_Tables_number   1
_chemical_formula_structural   YNiC2
_chemical_formula_sum   'Y1 Ni1 C2'
_cell_volume   49.01614924
_cell_formula_units_Z   1
loop_
 _symmetry_equiv_pos_site_id
 _symmetry_equiv_pos_as_xyz
  1  'x, y, z'
loop_
 _atom_site_type_symbol
 _atom_site_label
 _atom_site_symmetry_multiplicity
 _atom_site_fract_x
 _atom_site_fract_y
 _atom_site_fract_z
 _atom_site_occupancy
  Y  Y0  1  0.00000000  0.99821909  0.00178091  1
  Ni  Ni1  1  0.50000000  0.38544472  0.61455528  1
  C  C2  1  0.50000000  0.84821060  0.45487441  1
  C  C3  1  0.50000000  0.54512559  0.15178940  1
