# generated using pymatgen
data_YPd
_symmetry_space_group_name_H-M   'P 1'
_cell_length_a   3.70369609
_cell_length_b   4.62431382
_cell_length_c   5.61692075
_cell_angle_alpha   90.00000000
_cell_angle_beta   109.25001961
_cell_angle_gamma   90.00000000
_symmetry_Int_Tables_number   1
_chemical_formula_structural   YPd
_chemical_formula_sum   'Y2 Pd2'
_cell_volume   90.82257963
_cell_formula_units_Z   2
loop_
 _symmetry_equiv_pos_site_id
 _symmetry_equiv_pos_as_xyz
  1  'x, y, z'
loop_
 _atom_site_type_symbol
 _atom_site_label
 _atom_site_symmetry_multiplicity
 _atom_site_fract_x
 _atom_site_fract_y
 _atom_site_fract_z
 _atom_site_occupancy
  Y  Y0  1  0.86317649  0.75000000  0.72635297  1
  Y  Y1  1  0.13682351  0.25000000  0.27364703  1
  Pd  Pd2  1  0.58545246  0.75000000  0.17090492  1
  Pd  Pd3  1  0.41454754  0.25000000  0.82909508  1
