# generated using pymatgen
data_NpPt
_symmetry_space_group_name_H-M   'P 1'
_cell_length_a   3.82604208
_cell_length_b   4.40367208
_cell_length_c   5.63377834
_cell_angle_alpha   90.00000000
_cell_angle_beta   109.85023423
_cell_angle_gamma   90.00000000
_symmetry_Int_Tables_number   1
_chemical_formula_structural   NpPt
_chemical_formula_sum   'Np2 Pt2'
_cell_volume   89.28156370
_cell_formula_units_Z   2
loop_
 _symmetry_equiv_pos_site_id
 _symmetry_equiv_pos_as_xyz
  1  'x, y, z'
loop_
 _atom_site_type_symbol
 _atom_site_label
 _atom_site_symmetry_multiplicity
 _atom_site_fract_x
 _atom_site_fract_y
 _atom_site_fract_z
 _atom_site_occupancy
  Np  Np0  1  0.85845621  0.75000000  0.71691241  1
  Np  Np1  1  0.14154379  0.25000000  0.28308759  1
  Pt  Pt2  1  0.58868639  0.75000000  0.17737278  1
  Pt  Pt3  1  0.41131361  0.25000000  0.82262722  1
