# generated using pymatgen
data_LiV(OF)2
_symmetry_space_group_name_H-M   'P 1'
_cell_length_a   7.55247824
_cell_length_b   5.01640333
_cell_length_c   7.47056509
_cell_angle_alpha   90.00000000
_cell_angle_beta   102.61252294
_cell_angle_gamma   90.00000000
_symmetry_Int_Tables_number   1
_chemical_formula_structural   LiV(OF)2
_chemical_formula_sum   'Li4 V4 O8 F8'
_cell_volume   276.20207231
_cell_formula_units_Z   4
loop_
 _symmetry_equiv_pos_site_id
 _symmetry_equiv_pos_as_xyz
  1  'x, y, z'
loop_
 _atom_site_type_symbol
 _atom_site_label
 _atom_site_symmetry_multiplicity
 _atom_site_fract_x
 _atom_site_fract_y
 _atom_site_fract_z
 _atom_site_occupancy
  Li  Li0  1  0.37176867  0.74488846  0.63465429  1
  Li  Li1  1  0.37176867  0.75511154  0.13465429  1
  Li  Li2  1  0.62823133  0.24488846  0.86534571  1
  Li  Li3  1  0.62823133  0.25511154  0.36534571  1
  V  V4  1  0.20730900  0.26014496  0.81617065  1
  V  V5  1  0.20730900  0.23985504  0.31617065  1
  V  V6  1  0.79269100  0.76014496  0.68382935  1
  V  V7  1  0.79269100  0.73985504  0.18382935  1
  O  O8  1  0.31010817  0.53452795  0.90534625  1
  O  O9  1  0.38389469  0.06456906  0.79739701  1
  O  O10  1  0.31010817  0.96547205  0.40534625  1
  O  O11  1  0.38389469  0.43543094  0.29739701  1
  O  O12  1  0.61610531  0.56456906  0.70260299  1
  O  O13  1  0.68989183  0.03452795  0.59465375  1
  O  O14  1  0.61610531  0.93543094  0.20260299  1
  O  O15  1  0.68989183  0.46547205  0.09465375  1
  F  F16  1  0.03920308  0.92755272  0.71599237  1
  F  F17  1  0.03920308  0.57244728  0.21599237  1
  F  F18  1  0.18350231  0.38890141  0.55503453  1
  F  F19  1  0.18350231  0.11109859  0.05503453  1
  F  F20  1  0.81649769  0.88890141  0.94496547  1
  F  F21  1  0.81649769  0.61109859  0.44496547  1
  F  F22  1  0.96079692  0.42755272  0.78400763  1
  F  F23  1  0.96079692  0.07244728  0.28400763  1
