# generated using pymatgen
data_TiNi
_symmetry_space_group_name_H-M   'P 1'
_cell_length_a   2.91782251
_cell_length_b   4.01415842
_cell_length_c   4.91727946
_cell_angle_alpha   90.00000000
_cell_angle_beta   107.17717629
_cell_angle_gamma   90.00000000
_symmetry_Int_Tables_number   1
_chemical_formula_structural   TiNi
_chemical_formula_sum   'Ti2 Ni2'
_cell_volume   55.02521202
_cell_formula_units_Z   2
loop_
 _symmetry_equiv_pos_site_id
 _symmetry_equiv_pos_as_xyz
  1  'x, y, z'
loop_
 _atom_site_type_symbol
 _atom_site_label
 _atom_site_symmetry_multiplicity
 _atom_site_fract_x
 _atom_site_fract_y
 _atom_site_fract_z
 _atom_site_occupancy
  Ti  Ti0  1  0.35746983  0.25000000  0.71472319  1
  Ti  Ti1  1  0.64253017  0.75000000  0.28527681  1
  Ni  Ni2  1  0.08553567  0.25000000  0.17031945  1
  Ni  Ni3  1  0.91446433  0.75000000  0.82968055  1
