# generated using pymatgen
data_SrSi3Au
_symmetry_space_group_name_H-M   'P 1'
_cell_length_a   4.46269465
_cell_length_b   4.46269465
_cell_length_c   5.86681484
_cell_angle_alpha   112.35435353
_cell_angle_beta   112.35435353
_cell_angle_gamma   90.00000000
_symmetry_Int_Tables_number   1
_chemical_formula_structural   SrSi3Au
_chemical_formula_sum   'Sr1 Si3 Au1'
_cell_volume   98.50031396
_cell_formula_units_Z   1
loop_
 _symmetry_equiv_pos_site_id
 _symmetry_equiv_pos_as_xyz
  1  'x, y, z'
loop_
 _atom_site_type_symbol
 _atom_site_label
 _atom_site_symmetry_multiplicity
 _atom_site_fract_x
 _atom_site_fract_y
 _atom_site_fract_z
 _atom_site_occupancy
  Sr  Sr0  1  0.99921722  0.99921722  0.99843444  1
  Si  Si1  1  0.37674649  0.37674649  0.75349298  1
  Si  Si2  1  0.75652682  0.25652682  0.51305363  1
  Si  Si3  1  0.25652682  0.75652682  0.51305363  1
  Au  Au4  1  0.63348266  0.63348266  0.26696532  1
