# generated using pymatgen
data_Li6V2O5F2
_symmetry_space_group_name_H-M   'P 1'
_cell_length_a   5.87935952
_cell_length_b   5.87825278
_cell_length_c   9.87122519
_cell_angle_alpha   80.87426448
_cell_angle_beta   90.32969649
_cell_angle_gamma   60.65876895
_symmetry_Int_Tables_number   1
_chemical_formula_structural   Li6V2O5F2
_chemical_formula_sum   'Li12 V4 O10 F4'
_cell_volume   292.24067296
_cell_formula_units_Z   2
loop_
 _symmetry_equiv_pos_site_id
 _symmetry_equiv_pos_as_xyz
  1  'x, y, z'
loop_
 _atom_site_type_symbol
 _atom_site_label
 _atom_site_symmetry_multiplicity
 _atom_site_fract_x
 _atom_site_fract_y
 _atom_site_fract_z
 _atom_site_occupancy
  Li  Li0  1  0.48236580  0.86173239  0.61057873  1
  Li  Li1  1  0.90282340  0.87839159  0.59281829  1
  Li  Li2  1  0.66577759  0.86228025  0.10381991  1
  Li  Li3  1  0.21690627  0.86075993  0.09959293  1
  Li  Li4  1  0.32972309  0.60819070  0.87942754  1
  Li  Li5  1  0.08036445  0.57872966  0.39298463  1
  Li  Li6  1  0.92133671  0.41545526  0.61129192  1
  Li  Li7  1  0.65634656  0.42061539  0.10727747  1
  Li  Li8  1  0.81783710  0.11703703  0.90328351  1
  Li  Li9  1  0.31233370  0.13281904  0.89000945  1
  Li  Li10  1  0.07412292  0.14350561  0.41003014  1
  Li  Li11  1  0.52472813  0.13889345  0.39067430  1
  V  V12  1  0.82483934  0.60501159  0.87480148  1
  V  V13  1  0.55131901  0.63732373  0.36880651  1
  V  V14  1  0.43758793  0.37398160  0.63465381  1
  V  V15  1  0.19085160  0.36760562  0.13143883  1
  O  O16  1  0.50824413  0.75592983  0.97474718  1
  O  O17  1  0.74229068  0.75543935  0.47303925  1
  O  O18  1  0.13757333  0.50126692  0.75540085  1
  O  O19  1  0.63414278  0.49561923  0.74697900  1
  O  O20  1  0.00389659  0.72678812  0.00476060  1
  O  O21  1  0.00430498  0.25180504  0.00670389  1
  O  O22  1  0.36528964  0.50064341  0.24971106  1
  O  O23  1  0.72035644  0.28008545  0.49791114  1
  O  O24  1  0.26017004  0.24135940  0.52822582  1
  O  O25  1  0.35384079  0.00426483  0.24884488  1
  F  F26  1  0.23855415  0.76029166  0.50156429  1
  F  F27  1  0.86588560  0.49355976  0.24777488  1
  F  F28  1  0.66315119  0.99353244  0.74912466  1
  F  F29  1  0.51303809  0.23707869  0.01372205  1
