# generated using pymatgen
data_BaSi
_symmetry_space_group_name_H-M   'P 1'
_cell_length_a   4.19828113
_cell_length_b   5.02903964
_cell_length_c   6.57141620
_cell_angle_alpha   112.49801824
_cell_angle_beta   89.14893600
_cell_angle_gamma   89.97381165
_symmetry_Int_Tables_number   1
_chemical_formula_structural   BaSi
_chemical_formula_sum   'Ba2 Si2'
_cell_volume   128.16800073
_cell_formula_units_Z   2
loop_
 _symmetry_equiv_pos_site_id
 _symmetry_equiv_pos_as_xyz
  1  'x, y, z'
loop_
 _atom_site_type_symbol
 _atom_site_label
 _atom_site_symmetry_multiplicity
 _atom_site_fract_x
 _atom_site_fract_y
 _atom_site_fract_z
 _atom_site_occupancy
  Ba  Ba0  1  0.74076197  0.63720414  0.27443602  1
  Ba  Ba1  1  0.25923483  0.36279109  0.72555179  1
  Si  Si2  1  0.75267527  0.94337475  0.88697466  1
  Si  Si3  1  0.24732793  0.05663002  0.11303753  1
