# generated using pymatgen
data_TaP
_symmetry_space_group_name_H-M   'P 1'
_cell_length_a   3.34017253
_cell_length_b   3.34017253
_cell_length_c   6.17161989
_cell_angle_alpha   105.70041045
_cell_angle_beta   105.70041045
_cell_angle_gamma   90.00000000
_symmetry_Int_Tables_number   1
_chemical_formula_structural   TaP
_chemical_formula_sum   'Ta2 P2'
_cell_volume   63.61356823
_cell_formula_units_Z   2
loop_
 _symmetry_equiv_pos_site_id
 _symmetry_equiv_pos_as_xyz
  1  'x, y, z'
loop_
 _atom_site_type_symbol
 _atom_site_label
 _atom_site_symmetry_multiplicity
 _atom_site_fract_x
 _atom_site_fract_y
 _atom_site_fract_z
 _atom_site_occupancy
  Ta  Ta0  1  0.24924525  0.74924525  0.49849051  1
  Ta  Ta1  1  0.99924525  0.99924525  0.99849051  1
  P  P2  1  0.66675475  0.16675475  0.33350949  1
  P  P3  1  0.41675475  0.41675475  0.83350949  1
