# generated using pymatgen
data_F2
_symmetry_space_group_name_H-M   'P 1'
_cell_length_a   3.09748628
_cell_length_b   3.09748628
_cell_length_c   5.52907227
_cell_angle_alpha   81.78307919
_cell_angle_beta   81.78307919
_cell_angle_gamma   63.45628001
_symmetry_Int_Tables_number   1
_chemical_formula_structural   F2
_chemical_formula_sum   F4
_cell_volume   46.78185423
_cell_formula_units_Z   2
loop_
 _symmetry_equiv_pos_site_id
 _symmetry_equiv_pos_as_xyz
  1  'x, y, z'
loop_
 _atom_site_type_symbol
 _atom_site_label
 _atom_site_symmetry_multiplicity
 _atom_site_fract_x
 _atom_site_fract_y
 _atom_site_fract_z
 _atom_site_occupancy
  F  F0  1  0.76561539  0.71906740  0.29310115  1
  F  F1  1  0.28093260  0.23438461  0.20689885  1
  F  F2  1  0.23438461  0.28093260  0.70689885  1
  F  F3  1  0.71906740  0.76561539  0.79310115  1
