# generated using pymatgen
data_Li2V2F7
_symmetry_space_group_name_H-M   'P 1'
_cell_length_a   8.57254352
_cell_length_b   6.90767176
_cell_length_c   5.46706173
_cell_angle_alpha   85.21299759
_cell_angle_beta   104.16948178
_cell_angle_gamma   109.38207666
_symmetry_Int_Tables_number   1
_chemical_formula_structural   Li2V2F7
_chemical_formula_sum   'Li4 V4 F14'
_cell_volume   296.09968107
_cell_formula_units_Z   2
loop_
 _symmetry_equiv_pos_site_id
 _symmetry_equiv_pos_as_xyz
  1  'x, y, z'
loop_
 _atom_site_type_symbol
 _atom_site_label
 _atom_site_symmetry_multiplicity
 _atom_site_fract_x
 _atom_site_fract_y
 _atom_site_fract_z
 _atom_site_occupancy
  Li  Li0  1  0.10389399  0.76348888  0.33338450  1
  Li  Li1  1  0.25434779  0.97937400  0.86676917  1
  Li  Li2  1  0.74565221  0.02062600  0.13323083  1
  Li  Li3  1  0.89610601  0.23651112  0.66661550  1
  V  V4  1  0.17892312  0.27443868  0.29383156  1
  V  V5  1  0.32777586  0.51623121  0.81958308  1
  V  V6  1  0.67222414  0.48376879  0.18041692  1
  V  V7  1  0.82107688  0.72556132  0.70616844  1
  F  F8  1  0.05821250  0.82063722  0.63397605  1
  F  F9  1  0.10885456  0.38628826  0.90939065  1
  F  F10  1  0.22611568  0.56972251  0.45999642  1
  F  F11  1  0.37322593  0.78434184  0.92966208  1
  F  F12  1  0.29624220  0.24322565  0.68076981  1
  F  F13  1  0.18635363  0.00725824  0.16243735  1
  F  F14  1  0.42343206  0.42305468  0.18366586  1
  F  F15  1  0.57656794  0.57694532  0.81633414  1
  F  F16  1  0.81364637  0.99274176  0.83756265  1
  F  F17  1  0.70375780  0.75677435  0.31923019  1
  F  F18  1  0.62677407  0.21565816  0.07033792  1
  F  F19  1  0.77388432  0.43027749  0.54000358  1
  F  F20  1  0.89114544  0.61371174  0.09060935  1
  F  F21  1  0.94178750  0.17936278  0.36602395  1
