# generated using pymatgen
data_Yb(MgBi)2
_symmetry_space_group_name_H-M   'P 1'
_cell_length_a   4.78940124
_cell_length_b   4.78968801
_cell_length_c   7.70024958
_cell_angle_alpha   90.00000002
_cell_angle_beta   90.00188936
_cell_angle_gamma   120.00197237
_symmetry_Int_Tables_number   1
_chemical_formula_structural   Yb(MgBi)2
_chemical_formula_sum   'Yb1 Mg2 Bi2'
_cell_volume   152.97316384
_cell_formula_units_Z   1
loop_
 _symmetry_equiv_pos_site_id
 _symmetry_equiv_pos_as_xyz
  1  'x, y, z'
loop_
 _atom_site_type_symbol
 _atom_site_label
 _atom_site_symmetry_multiplicity
 _atom_site_fract_x
 _atom_site_fract_y
 _atom_site_fract_z
 _atom_site_occupancy
  Yb  Yb0  1  0.00000000  -0.00000000  -0.00000000  1
  Mg  Mg1  1  0.66665528  0.33332764  0.62955794  1
  Mg  Mg2  1  0.33334472  0.66667236  0.37044206  1
  Bi  Bi3  1  0.66665156  0.33332578  0.23865827  1
  Bi  Bi4  1  0.33334844  0.66667422  0.76134173  1
