# generated using pymatgen
data_Ho2InNi2
_symmetry_space_group_name_H-M   'P 1'
_cell_length_a   3.60998888
_cell_length_b   3.93727700
_cell_length_c   7.36275190
_cell_angle_alpha   105.50831025
_cell_angle_beta   90.00000000
_cell_angle_gamma   90.00000000
_symmetry_Int_Tables_number   1
_chemical_formula_structural   Ho2InNi2
_chemical_formula_sum   'Ho2 In1 Ni2'
_cell_volume   100.84051222
_cell_formula_units_Z   1
loop_
 _symmetry_equiv_pos_site_id
 _symmetry_equiv_pos_as_xyz
  1  'x, y, z'
loop_
 _atom_site_type_symbol
 _atom_site_label
 _atom_site_symmetry_multiplicity
 _atom_site_fract_x
 _atom_site_fract_y
 _atom_site_fract_z
 _atom_site_occupancy
  Ho  Ho0  1  0.50000000  0.63921331  0.27842661  1
  Ho  Ho1  1  0.50000000  0.36078669  0.72157339  1
  In  In2  1  0.00000000  -0.00000000  0.00000000  1
  Ni  Ni3  1  -0.00000000  0.80095650  0.60191300  1
  Ni  Ni4  1  0.00000000  0.19904350  0.39808700  1
