# generated using pymatgen
data_Li6VO4F
_symmetry_space_group_name_H-M   'P 1'
_cell_length_a   5.01674017
_cell_length_b   5.24991640
_cell_length_c   9.60035318
_cell_angle_alpha   90.00000000
_cell_angle_beta   90.00000000
_cell_angle_gamma   64.47726728
_symmetry_Int_Tables_number   1
_chemical_formula_structural   Li6VO4F
_chemical_formula_sum   'Li12 V2 O8 F2'
_cell_volume   228.17456152
_cell_formula_units_Z   2
loop_
 _symmetry_equiv_pos_site_id
 _symmetry_equiv_pos_as_xyz
  1  'x, y, z'
loop_
 _atom_site_type_symbol
 _atom_site_label
 _atom_site_symmetry_multiplicity
 _atom_site_fract_x
 _atom_site_fract_y
 _atom_site_fract_z
 _atom_site_occupancy
  Li  Li0  1  0.56570950  0.59002845  0.74229765  1
  Li  Li1  1  0.80519162  0.62171824  0.24361479  1
  Li  Li2  1  0.27433955  0.51898179  0.00115249  1
  Li  Li3  1  0.21598022  0.55577753  0.50346488  1
  Li  Li4  1  0.78401978  0.44422247  0.00346488  1
  Li  Li5  1  0.72566045  0.48101821  0.50115249  1
  Li  Li6  1  0.43429050  0.40997155  0.24229765  1
  Li  Li7  1  0.19480838  0.37828176  0.74361479  1
  Li  Li8  1  0.72254645  0.98327111  0.44959009  1
  Li  Li9  1  0.66701456  0.99545304  0.06238518  1
  Li  Li10  1  0.27745355  0.01672889  0.94959009  1
  Li  Li11  1  0.33298544  0.00454696  0.56238518  1
  V  V12  1  0.81736698  0.00339066  0.74150390  1
  V  V13  1  0.18263302  0.99660934  0.24150390  1
  O  O14  1  0.45861466  0.71804868  0.09961246  1
  O  O15  1  0.41218421  0.74272876  0.39115671  1
  O  O16  1  0.84673981  0.69994963  0.61704786  1
  O  O17  1  0.15326019  0.30005037  0.11704786  1
  O  O18  1  0.54138534  0.28195132  0.59961246  1
  O  O19  1  0.58781579  0.25727124  0.89115671  1
  O  O20  1  0.78927301  0.02024141  0.25283124  1
  O  O21  1  0.21072699  0.97975859  0.75283124  1
  F  F22  1  0.92784159  0.66414055  0.89534175  1
  F  F23  1  0.07215841  0.33585945  0.39534175  1
