# generated using pymatgen
data_Dy2InNi2
_symmetry_space_group_name_H-M   'P 1'
_cell_length_a   3.62576860
_cell_length_b   3.95621634
_cell_length_c   7.39755386
_cell_angle_alpha   105.50962832
_cell_angle_beta   90.00000000
_cell_angle_gamma   90.00000000
_symmetry_Int_Tables_number   1
_chemical_formula_structural   Dy2InNi2
_chemical_formula_sum   'Dy2 In1 Ni2'
_cell_volume   102.24887120
_cell_formula_units_Z   1
loop_
 _symmetry_equiv_pos_site_id
 _symmetry_equiv_pos_as_xyz
  1  'x, y, z'
loop_
 _atom_site_type_symbol
 _atom_site_label
 _atom_site_symmetry_multiplicity
 _atom_site_fract_x
 _atom_site_fract_y
 _atom_site_fract_z
 _atom_site_occupancy
  Dy  Dy0  1  0.50000000  0.63876016  0.27752032  1
  Dy  Dy1  1  0.50000000  0.36123984  0.72247968  1
  In  In2  1  0.00000000  0.00000000  0.00000000  1
  Ni  Ni3  1  0.00000000  0.80066957  0.60133913  1
  Ni  Ni4  1  0.00000000  0.19933043  0.39866087  1
