# generated using pymatgen
data_SrGe3Pt
_symmetry_space_group_name_H-M   'P 1'
_cell_length_a   4.52678916
_cell_length_b   4.52678916
_cell_length_c   6.08929651
_cell_angle_alpha   111.82052465
_cell_angle_beta   111.82052465
_cell_angle_gamma   90.00000000
_symmetry_Int_Tables_number   1
_chemical_formula_structural   SrGe3Pt
_chemical_formula_sum   'Sr1 Ge3 Pt1'
_cell_volume   106.15005455
_cell_formula_units_Z   1
loop_
 _symmetry_equiv_pos_site_id
 _symmetry_equiv_pos_as_xyz
  1  'x, y, z'
loop_
 _atom_site_type_symbol
 _atom_site_label
 _atom_site_symmetry_multiplicity
 _atom_site_fract_x
 _atom_site_fract_y
 _atom_site_fract_z
 _atom_site_occupancy
  Sr  Sr0  1  0.00043243  0.00043243  0.00086485  1
  Ge  Ge1  1  0.75511115  0.25511115  0.51022230  1
  Ge  Ge2  1  0.25511115  0.75511115  0.51022230  1
  Ge  Ge3  1  0.40376833  0.40376833  0.80753666  1
  Pt  Pt4  1  0.64557695  0.64557695  0.29115390  1
