# generated using pymatgen
data_Pr2Ni2Sn
_symmetry_space_group_name_H-M   'P 1'
_cell_length_a   4.40624737
_cell_length_b   5.61127598
_cell_length_c   5.61127598
_cell_angle_alpha   61.71285443
_cell_angle_beta   66.88210095
_cell_angle_gamma   66.88210095
_symmetry_Int_Tables_number   1
_chemical_formula_structural   Pr2Ni2Sn
_chemical_formula_sum   'Pr2 Ni2 Sn1'
_cell_volume   108.64298629
_cell_formula_units_Z   1
loop_
 _symmetry_equiv_pos_site_id
 _symmetry_equiv_pos_as_xyz
  1  'x, y, z'
loop_
 _atom_site_type_symbol
 _atom_site_label
 _atom_site_symmetry_multiplicity
 _atom_site_fract_x
 _atom_site_fract_y
 _atom_site_fract_z
 _atom_site_occupancy
  Pr  Pr0  1  0.79672736  0.70327264  0.70327264  1
  Pr  Pr1  1  0.20327264  0.29672736  0.29672736  1
  Ni  Ni2  1  0.50000000  0.28583855  0.71416145  1
  Ni  Ni3  1  0.50000000  0.71416145  0.28583855  1
  Sn  Sn4  1  0.00000000  0.00000000  0.00000000  1
