# generated using pymatgen
data_LaCoSi3
_symmetry_space_group_name_H-M   'P 1'
_cell_length_a   4.17286227
_cell_length_b   4.17286227
_cell_length_c   5.67915684
_cell_angle_alpha   111.55437460
_cell_angle_beta   111.55437460
_cell_angle_gamma   90.00000000
_symmetry_Int_Tables_number   1
_chemical_formula_structural   LaCoSi3
_chemical_formula_sum   'La1 Co1 Si3'
_cell_volume   84.49492513
_cell_formula_units_Z   1
loop_
 _symmetry_equiv_pos_site_id
 _symmetry_equiv_pos_as_xyz
  1  'x, y, z'
loop_
 _atom_site_type_symbol
 _atom_site_label
 _atom_site_symmetry_multiplicity
 _atom_site_fract_x
 _atom_site_fract_y
 _atom_site_fract_z
 _atom_site_occupancy
  La  La0  1  0.00400020  0.00400020  0.00800041  1
  Co  Co1  1  0.66236989  0.66236989  0.32473978  1
  Si  Si2  1  0.42631944  0.42631944  0.85263888  1
  Si  Si3  1  0.76115523  0.26115523  0.52231047  1
  Si  Si4  1  0.26115523  0.76115523  0.52231047  1
