# generated using pymatgen
data_BaGe3Pd
_symmetry_space_group_name_H-M   'P 1'
_cell_length_a   4.60295298
_cell_length_b   4.60295298
_cell_length_c   6.23523113
_cell_angle_alpha   111.66064351
_cell_angle_beta   111.66064351
_cell_angle_gamma   90.00000000
_symmetry_Int_Tables_number   1
_chemical_formula_structural   BaGe3Pd
_chemical_formula_sum   'Ba1 Ge3 Pd1'
_cell_volume   112.68016585
_cell_formula_units_Z   1
loop_
 _symmetry_equiv_pos_site_id
 _symmetry_equiv_pos_as_xyz
  1  'x, y, z'
loop_
 _atom_site_type_symbol
 _atom_site_label
 _atom_site_symmetry_multiplicity
 _atom_site_fract_x
 _atom_site_fract_y
 _atom_site_fract_z
 _atom_site_occupancy
  Ba  Ba0  1  0.60379706  0.60379706  0.20759411  1
  Ge  Ge1  1  0.85617516  0.35617516  0.71235032  1
  Ge  Ge2  1  0.35617516  0.85617516  0.71235032  1
  Ge  Ge3  1  0.00228253  0.00228253  0.00456506  1
  Pd  Pd4  1  0.24990009  0.24990009  0.49980019  1
