# generated using pymatgen
data_TbSi3Ir
_symmetry_space_group_name_H-M   'P 1'
_cell_length_a   4.19979384
_cell_length_b   4.19979384
_cell_length_c   5.73304102
_cell_angle_alpha   111.48636290
_cell_angle_beta   111.48636290
_cell_angle_gamma   90.00000000
_symmetry_Int_Tables_number   1
_chemical_formula_structural   TbSi3Ir
_chemical_formula_sum   'Tb1 Si3 Ir1'
_cell_volume   86.49700521
_cell_formula_units_Z   1
loop_
 _symmetry_equiv_pos_site_id
 _symmetry_equiv_pos_as_xyz
  1  'x, y, z'
loop_
 _atom_site_type_symbol
 _atom_site_label
 _atom_site_symmetry_multiplicity
 _atom_site_fract_x
 _atom_site_fract_y
 _atom_site_fract_z
 _atom_site_occupancy
  Tb  Tb0  1  0.99819407  0.99819407  0.99638814  1
  Si  Si1  1  0.41425038  0.41425038  0.82850076  1
  Si  Si2  1  0.76464603  0.26464603  0.52929205  1
  Si  Si3  1  0.26464603  0.76464603  0.52929205  1
  Ir  Ir4  1  0.65226350  0.65226350  0.30452700  1
