# generated using pymatgen
data_Yb(ZnSb)2
_symmetry_space_group_name_H-M   'P 1'
_cell_length_a   4.49373080
_cell_length_b   4.49612256
_cell_length_c   7.39527471
_cell_angle_alpha   89.99999997
_cell_angle_beta   90.06563134
_cell_angle_gamma   120.01760047
_symmetry_Int_Tables_number   1
_chemical_formula_structural   Yb(ZnSb)2
_chemical_formula_sum   'Yb1 Zn2 Sb2'
_cell_volume   129.37569776
_cell_formula_units_Z   1
loop_
 _symmetry_equiv_pos_site_id
 _symmetry_equiv_pos_as_xyz
  1  'x, y, z'
loop_
 _atom_site_type_symbol
 _atom_site_label
 _atom_site_symmetry_multiplicity
 _atom_site_fract_x
 _atom_site_fract_y
 _atom_site_fract_z
 _atom_site_occupancy
  Yb  Yb0  1  -0.00000000  -0.00000000  0.00000000  1
  Zn  Zn1  1  0.33331545  0.66665772  0.63524833  1
  Zn  Zn2  1  0.66668455  0.33334228  0.36475167  1
  Sb  Sb3  1  0.33340934  0.66670467  0.25434992  1
  Sb  Sb4  1  0.66659066  0.33329533  0.74565008  1
