# generated using pymatgen
data_BaCa2I6
_symmetry_space_group_name_H-M   'P 1'
_cell_length_a   8.08963058
_cell_length_b   8.08963058
_cell_length_c   24.00320083
_cell_angle_alpha   90.00000000
_cell_angle_beta   90.00000000
_cell_angle_gamma   90.00000000
_symmetry_Int_Tables_number   1
_chemical_formula_structural   BaCa2I6
_chemical_formula_sum   'Ba4 Ca8 I24'
_cell_volume   1570.82041921
_cell_formula_units_Z   4
loop_
 _symmetry_equiv_pos_site_id
 _symmetry_equiv_pos_as_xyz
  1  'x, y, z'
loop_
 _atom_site_type_symbol
 _atom_site_label
 _atom_site_symmetry_multiplicity
 _atom_site_fract_x
 _atom_site_fract_y
 _atom_site_fract_z
 _atom_site_occupancy
  Ba  Ba0  1  0.00000000  0.00000000  0.00000000  1
  Ba  Ba1  1  0.00000000  0.50000000  0.50000000  1
  Ba  Ba2  1  0.50000000  0.00000000  0.50000000  1
  Ba  Ba3  1  0.50000000  0.50000000  0.00000000  1
  Ca  Ca4  1  0.00000000  0.50000000  0.16915457  1
  Ca  Ca5  1  0.00000000  0.00000000  0.32614515  1
  Ca  Ca6  1  0.00000000  0.00000000  0.67385485  1
  Ca  Ca7  1  0.00000000  0.50000000  0.83084543  1
  Ca  Ca8  1  0.50000000  0.50000000  0.32614515  1
  Ca  Ca9  1  0.50000000  0.00000000  0.16915457  1
  Ca  Ca10  1  0.50000000  0.00000000  0.83084543  1
  Ca  Ca11  1  0.50000000  0.50000000  0.67385485  1
  I  I12  1  0.19528725  0.79569170  0.58625455  1
  I  I13  1  0.20990108  0.71478736  0.08787193  1
  I  I14  1  0.28521264  0.20990108  0.91212807  1
  I  I15  1  0.29569170  0.69528725  0.41374545  1
  I  I16  1  0.21179466  0.29464710  0.25265180  1
  I  I17  1  0.20535290  0.28820534  0.74734820  1
  I  I18  1  0.29464710  0.78820534  0.74734820  1
  I  I19  1  0.28820534  0.79464710  0.25265180  1
  I  I20  1  0.21478736  0.70990108  0.91212807  1
  I  I21  1  0.20430830  0.19528725  0.41374545  1
  I  I22  1  0.29009892  0.21478736  0.08787193  1
  I  I23  1  0.30471275  0.29569170  0.58625455  1
  I  I24  1  0.69528725  0.70430830  0.58625455  1
  I  I25  1  0.70990108  0.78521264  0.08787193  1
  I  I26  1  0.78521264  0.29009892  0.91212807  1
  I  I27  1  0.79569170  0.80471275  0.41374545  1
  I  I28  1  0.71179466  0.20535290  0.25265180  1
  I  I29  1  0.70535290  0.21179466  0.74734820  1
  I  I30  1  0.79464710  0.71179466  0.74734820  1
  I  I31  1  0.78820534  0.70535290  0.25265180  1
  I  I32  1  0.70430830  0.30471275  0.41374545  1
  I  I33  1  0.71478736  0.79009892  0.91212807  1
  I  I34  1  0.79009892  0.28521264  0.08787193  1
  I  I35  1  0.80471275  0.20430830  0.58625455  1
