# generated using pymatgen
data_ScAu4
_symmetry_space_group_name_H-M   'P 1'
_cell_length_a   4.10006384
_cell_length_b   5.13977030
_cell_length_c   5.13977030
_cell_angle_alpha   80.84611726
_cell_angle_beta   66.49328108
_cell_angle_gamma   66.49328108
_symmetry_Int_Tables_number   1
_chemical_formula_structural   ScAu4
_chemical_formula_sum   'Sc1 Au4'
_cell_volume   91.08132026
_cell_formula_units_Z   1
loop_
 _symmetry_equiv_pos_site_id
 _symmetry_equiv_pos_as_xyz
  1  'x, y, z'
loop_
 _atom_site_type_symbol
 _atom_site_label
 _atom_site_symmetry_multiplicity
 _atom_site_fract_x
 _atom_site_fract_y
 _atom_site_fract_z
 _atom_site_occupancy
  Sc  Sc0  1  0.00000000  0.00000000  0.00000000  1
  Au  Au1  1  0.60124562  0.60153556  0.19597320  1
  Au  Au2  1  0.39875438  0.39846444  0.80402680  1
  Au  Au3  1  0.20278118  0.19597320  0.39846444  1
  Au  Au4  1  0.79721882  0.80402680  0.60153556  1
