# generated using pymatgen
data_SmSi3Ir
_symmetry_space_group_name_H-M   'P 1'
_cell_length_a   4.23529525
_cell_length_b   4.23529525
_cell_length_c   5.76199016
_cell_angle_alpha   111.56275540
_cell_angle_beta   111.56275540
_cell_angle_gamma   90.00000000
_symmetry_Int_Tables_number   1
_chemical_formula_structural   SmSi3Ir
_chemical_formula_sum   'Sm1 Si3 Ir1'
_cell_volume   88.29966883
_cell_formula_units_Z   1
loop_
 _symmetry_equiv_pos_site_id
 _symmetry_equiv_pos_as_xyz
  1  'x, y, z'
loop_
 _atom_site_type_symbol
 _atom_site_label
 _atom_site_symmetry_multiplicity
 _atom_site_fract_x
 _atom_site_fract_y
 _atom_site_fract_z
 _atom_site_occupancy
  Sm  Sm0  1  0.99788672  0.99788672  0.99577344  1
  Si  Si1  1  0.41427360  0.41427360  0.82854719  1
  Si  Si2  1  0.76414975  0.26414975  0.52829949  1
  Si  Si3  1  0.26414975  0.76414975  0.52829949  1
  Ir  Ir4  1  0.65354019  0.65354019  0.30708038  1
