# generated using pymatgen
data_LiCoPO4
_symmetry_space_group_name_H-M   'P 1'
_cell_length_a   10.51116504
_cell_length_b   10.51116472
_cell_length_c   12.08981038
_cell_angle_alpha   90.00000000
_cell_angle_beta   90.00000000
_cell_angle_gamma   119.99999785
_symmetry_Int_Tables_number   1
_chemical_formula_structural   LiCoPO4
_chemical_formula_sum   'Li12 Co12 P12 O48'
_cell_volume   1156.78281354
_cell_formula_units_Z   12
loop_
 _symmetry_equiv_pos_site_id
 _symmetry_equiv_pos_as_xyz
  1  'x, y, z'
loop_
 _atom_site_type_symbol
 _atom_site_label
 _atom_site_symmetry_multiplicity
 _atom_site_fract_x
 _atom_site_fract_y
 _atom_site_fract_z
 _atom_site_occupancy
  Li  Li0  1  0.00000000  0.74523829  0.83333300  1
  Li  Li1  1  0.00000000  0.25476171  0.83333300  1
  Li  Li2  1  0.25049047  0.74950953  0.16666700  1
  Li  Li3  1  0.25049047  0.50098093  0.50000000  1
  Li  Li4  1  0.49901907  0.74950953  0.83333300  1
  Li  Li5  1  0.25476171  0.25476171  0.16666700  1
  Li  Li6  1  0.25476171  0.00000000  0.50000000  1
  Li  Li7  1  0.74523829  0.74523829  0.16666700  1
  Li  Li8  1  0.50098093  0.25049047  0.83333300  1
  Li  Li9  1  0.74950953  0.49901907  0.50000000  1
  Li  Li10  1  0.74950953  0.25049047  0.16666700  1
  Li  Li11  1  0.74523829  1.00000000  0.50000000  1
  Co  Co12  1  0.00000000  0.50000000  0.00821147  1
  Co  Co13  1  0.00000000  0.50000000  0.65845553  1
  Co  Co14  1  0.00000000  0.50000000  0.33333300  1
  Co  Co15  1  0.00000000  0.00000000  0.16666700  1
  Co  Co16  1  0.00000000  0.00000000  0.50000000  1
  Co  Co17  1  0.00000000  0.00000000  0.83333300  1
  Co  Co18  1  0.50000000  0.50000000  0.34154447  1
  Co  Co19  1  0.50000000  0.50000000  0.66666700  1
  Co  Co20  1  0.50000000  0.50000000  0.99178853  1
  Co  Co21  1  0.50000000  0.00000000  0.32512153  1
  Co  Co22  1  0.50000000  0.00000000  0.00000000  1
  Co  Co23  1  0.50000000  0.00000000  0.67487847  1
  P  P24  1  0.00000000  0.75581915  0.33333300  1
  P  P25  1  0.24744270  0.75255730  0.66666700  1
  P  P26  1  0.00000000  0.24418085  0.33333300  1
  P  P27  1  0.24744270  0.49488441  0.00000000  1
  P  P28  1  0.24418085  0.24418085  0.66666700  1
  P  P29  1  0.50511559  0.75255730  0.33333300  1
  P  P30  1  0.24418085  0.00000000  0.00000000  1
  P  P31  1  0.49488441  0.24744270  0.33333300  1
  P  P32  1  0.75581915  0.75581915  0.66666700  1
  P  P33  1  0.75255730  0.50511559  0.00000000  1
  P  P34  1  0.75255730  0.24744270  0.66666700  1
  P  P35  1  0.75581915  0.00000000  0.00000000  1
  O  O36  1  0.07195468  0.87987408  0.42139735  1
  O  O37  1  0.12012592  0.92804532  0.91193665  1
  O  O38  1  0.10190158  0.69759739  0.73245909  1
  O  O39  1  0.10821936  0.71316186  0.27840676  1
  O  O40  1  0.28683814  0.89178064  0.05492624  1
  O  O41  1  0.30240261  0.89809842  0.60087491  1
  O  O42  1  0.20135157  0.61721670  0.59024789  1
  O  O43  1  0.10190158  0.40430419  0.93420791  1
  O  O44  1  0.20135157  0.58413387  0.07641811  1
  O  O45  1  0.10821936  0.39505750  0.38825924  1
  O  O46  1  0.07195468  0.19208061  0.24526965  1
  O  O47  1  0.38278330  0.79864843  0.74308511  1
  O  O48  1  0.41586613  0.79864843  0.25691489  1
  O  O49  1  0.12012592  0.19208061  0.75473035  1
  O  O50  1  0.28683814  0.39505750  0.61174076  1
  O  O51  1  0.38278330  0.58413387  0.92358189  1
  O  O52  1  0.30240261  0.40430419  0.06579209  1
  O  O53  1  0.41586613  0.61721670  0.40975211  1
  O  O54  1  0.19208061  0.12012592  0.57860265  1
  O  O55  1  0.19208061  0.07195468  0.08806335  1
  O  O56  1  0.59569581  0.89809842  0.39912509  1
  O  O57  1  0.60494250  0.89178064  0.94507376  1
  O  O58  1  0.60494250  0.71316186  0.72159324  1
  O  O59  1  0.40430419  0.30240261  0.26754091  1
  O  O60  1  0.59569581  0.69759739  0.26754091  1
  O  O61  1  0.39505750  0.28683814  0.72159324  1
  O  O62  1  0.39505750  0.10821936  0.94507376  1
  O  O63  1  0.40430419  0.10190158  0.39912509  1
  O  O64  1  0.80791939  0.92804532  0.08806335  1
  O  O65  1  0.80791939  0.87987408  0.57860265  1
  O  O66  1  0.58413387  0.38278330  0.40975211  1
  O  O67  1  0.69759739  0.59569581  0.06579209  1
  O  O68  1  0.61721670  0.41586613  0.92358189  1
  O  O69  1  0.71316186  0.60494250  0.61174076  1
  O  O70  1  0.87987408  0.80791939  0.75473035  1
  O  O71  1  0.58413387  0.20135157  0.25691489  1
  O  O72  1  0.61721670  0.20135157  0.74308511  1
  O  O73  1  0.92804532  0.80791939  0.24526965  1
  O  O74  1  0.89178064  0.60494250  0.38825924  1
  O  O75  1  0.79864843  0.41586613  0.07641811  1
  O  O76  1  0.89809842  0.59569581  0.93420791  1
  O  O77  1  0.79864843  0.38278330  0.59024789  1
  O  O78  1  0.69759739  0.10190158  0.60087491  1
  O  O79  1  0.71316186  0.10821936  0.05492624  1
  O  O80  1  0.89178064  0.28683814  0.27840676  1
  O  O81  1  0.89809842  0.30240261  0.73245909  1
  O  O82  1  0.87987408  0.07195468  0.91193665  1
  O  O83  1  0.92804532  0.12012592  0.42139735  1
