# generated using pymatgen
data_ThSi3Ru
_symmetry_space_group_name_H-M   'P 1'
_cell_length_a   4.24385243
_cell_length_b   4.24385243
_cell_length_c   5.78359295
_cell_angle_alpha   111.52377618
_cell_angle_beta   111.52377618
_cell_angle_gamma   90.00000000
_symmetry_Int_Tables_number   1
_chemical_formula_structural   ThSi3Ru
_chemical_formula_sum   'Th1 Si3 Ru1'
_cell_volume   89.04587412
_cell_formula_units_Z   1
loop_
 _symmetry_equiv_pos_site_id
 _symmetry_equiv_pos_as_xyz
  1  'x, y, z'
loop_
 _atom_site_type_symbol
 _atom_site_label
 _atom_site_symmetry_multiplicity
 _atom_site_fract_x
 _atom_site_fract_y
 _atom_site_fract_z
 _atom_site_occupancy
  Th  Th0  1  0.99727162  0.99727162  0.99454324  1
  Si  Si1  1  0.41632234  0.41632234  0.83264468  1
  Si  Si2  1  0.76282647  0.26282647  0.52565293  1
  Si  Si3  1  0.26282647  0.76282647  0.52565293  1
  Ru  Ru4  1  0.65475311  0.65475311  0.30950622  1
