# generated using pymatgen
data_SmSi3Os
_symmetry_space_group_name_H-M   'P 1'
_cell_length_a   4.22377247
_cell_length_b   4.22377247
_cell_length_c   5.79635086
_cell_angle_alpha   111.36743538
_cell_angle_beta   111.36743538
_cell_angle_gamma   90.00000000
_symmetry_Int_Tables_number   1
_chemical_formula_structural   SmSi3Os
_chemical_formula_sum   'Sm1 Si3 Os1'
_cell_volume   88.62415484
_cell_formula_units_Z   1
loop_
 _symmetry_equiv_pos_site_id
 _symmetry_equiv_pos_as_xyz
  1  'x, y, z'
loop_
 _atom_site_type_symbol
 _atom_site_label
 _atom_site_symmetry_multiplicity
 _atom_site_fract_x
 _atom_site_fract_y
 _atom_site_fract_z
 _atom_site_occupancy
  Sm  Sm0  1  0.99793038  0.99793038  0.99586076  1
  Si  Si1  1  0.41839074  0.41839074  0.83678147  1
  Si  Si2  1  0.76165871  0.26165871  0.52331742  1
  Si  Si3  1  0.26165871  0.76165871  0.52331742  1
  Os  Os4  1  0.65436146  0.65436146  0.30872293  1
