# generated using pymatgen
data_EuGe3Ir
_symmetry_space_group_name_H-M   'P 1'
_cell_length_a   4.47230854
_cell_length_b   4.47230854
_cell_length_c   5.97319328
_cell_angle_alpha   111.98506901
_cell_angle_beta   111.98506901
_cell_angle_gamma   90.00000000
_symmetry_Int_Tables_number   1
_chemical_formula_structural   EuGe3Ir
_chemical_formula_sum   'Eu1 Ge3 Ir1'
_cell_volume   101.35527639
_cell_formula_units_Z   1
loop_
 _symmetry_equiv_pos_site_id
 _symmetry_equiv_pos_as_xyz
  1  'x, y, z'
loop_
 _atom_site_type_symbol
 _atom_site_label
 _atom_site_symmetry_multiplicity
 _atom_site_fract_x
 _atom_site_fract_y
 _atom_site_fract_z
 _atom_site_occupancy
  Eu  Eu0  1  0.00035127  0.00035127  0.00070254  1
  Ge  Ge1  1  0.74507601  0.24507601  0.49015203  1
  Ge  Ge2  1  0.24507601  0.74507601  0.49015203  1
  Ge  Ge3  1  0.58438082  0.58438082  0.16876164  1
  Ir  Ir4  1  0.34771588  0.34771588  0.69543177  1
