# generated using pymatgen
data_Sr(CuSn)2
_symmetry_space_group_name_H-M   'P 1'
_cell_length_a   4.32713065
_cell_length_b   4.88444668
_cell_length_c   6.06751001
_cell_angle_alpha   106.39198570
_cell_angle_beta   110.89043751
_cell_angle_gamma   90.00000000
_symmetry_Int_Tables_number   1
_chemical_formula_structural   Sr(CuSn)2
_chemical_formula_sum   'Sr1 Cu2 Sn2'
_cell_volume   114.21404216
_cell_formula_units_Z   1
loop_
 _symmetry_equiv_pos_site_id
 _symmetry_equiv_pos_as_xyz
  1  'x, y, z'
loop_
 _atom_site_type_symbol
 _atom_site_label
 _atom_site_symmetry_multiplicity
 _atom_site_fract_x
 _atom_site_fract_y
 _atom_site_fract_z
 _atom_site_occupancy
  Sr  Sr0  1  0.00000000  -0.00000000  0.00000000  1
  Cu  Cu1  1  0.26069711  0.86277357  0.52139422  1
  Cu  Cu2  1  0.73930289  0.13722643  0.47860578  1
  Sn  Sn3  1  0.64525818  0.57290523  0.29051636  1
  Sn  Sn4  1  0.35474182  0.42709477  0.70948364  1
