# generated using pymatgen
data_EuSi3Rh
_symmetry_space_group_name_H-M   'P 1'
_cell_length_a   4.22168701
_cell_length_b   4.22168701
_cell_length_c   5.80611271
_cell_angle_alpha   111.31871095
_cell_angle_beta   111.31871095
_cell_angle_gamma   90.00000000
_symmetry_Int_Tables_number   1
_chemical_formula_structural   EuSi3Rh
_chemical_formula_sum   'Eu1 Si3 Rh1'
_cell_volume   88.75535682
_cell_formula_units_Z   1
loop_
 _symmetry_equiv_pos_site_id
 _symmetry_equiv_pos_as_xyz
  1  'x, y, z'
loop_
 _atom_site_type_symbol
 _atom_site_label
 _atom_site_symmetry_multiplicity
 _atom_site_fract_x
 _atom_site_fract_y
 _atom_site_fract_z
 _atom_site_occupancy
  Eu  Eu0  1  0.00078812  0.00078812  0.00157625  1
  Si  Si1  1  0.41458524  0.41458524  0.82917048  1
  Si  Si2  1  0.76397753  0.26397753  0.52795506  1
  Si  Si3  1  0.26397753  0.76397753  0.52795506  1
  Rh  Rh4  1  0.65467158  0.65467158  0.30934315  1
