# generated using pymatgen
data_LiMnPO4
_symmetry_space_group_name_H-M   'P 1'
_cell_length_a   7.26167506
_cell_length_b   7.26167506
_cell_length_c   7.26167506
_cell_angle_alpha   90.00000000
_cell_angle_beta   90.00000000
_cell_angle_gamma   90.00000000
_symmetry_Int_Tables_number   1
_chemical_formula_structural   LiMnPO4
_chemical_formula_sum   'Li4 Mn4 P4 O16'
_cell_volume   382.92210229
_cell_formula_units_Z   4
loop_
 _symmetry_equiv_pos_site_id
 _symmetry_equiv_pos_as_xyz
  1  'x, y, z'
loop_
 _atom_site_type_symbol
 _atom_site_label
 _atom_site_symmetry_multiplicity
 _atom_site_fract_x
 _atom_site_fract_y
 _atom_site_fract_z
 _atom_site_occupancy
  Li  Li0  1  0.20201981  0.70201981  0.79798019  1
  Li  Li1  1  0.29798019  0.29798019  0.29798019  1
  Li  Li2  1  0.70201981  0.79798019  0.20201981  1
  Li  Li3  1  0.79798019  0.20201981  0.70201981  1
  Mn  Mn4  1  0.25397195  0.74602805  0.24602805  1
  Mn  Mn5  1  0.24602805  0.25397195  0.74602805  1
  Mn  Mn6  1  0.75397195  0.75397195  0.75397195  1
  Mn  Mn7  1  0.74602805  0.24602805  0.25397195  1
  P  P8  1  0.02952825  0.02952825  0.02952825  1
  P  P9  1  0.97047175  0.52952825  0.47047175  1
  P  P10  1  0.47047175  0.97047175  0.52952825  1
  P  P11  1  0.52952825  0.47047175  0.97047175  1
  O  O12  1  0.97985375  0.60477210  0.67293015  1
  O  O13  1  0.14990961  0.14990961  0.14990961  1
  O  O14  1  0.17293015  0.52014625  0.39522790  1
  O  O15  1  0.10477210  0.82706985  0.02014625  1
  O  O16  1  0.39522790  0.17293015  0.52014625  1
  O  O17  1  0.32706985  0.47985375  0.89522790  1
  O  O18  1  0.35009039  0.85009039  0.64990961  1
  O  O19  1  0.52014625  0.39522790  0.17293015  1
  O  O20  1  0.47985375  0.89522790  0.32706985  1
  O  O21  1  0.64990961  0.35009039  0.85009039  1
  O  O22  1  0.67293015  0.97985375  0.60477210  1
  O  O23  1  0.60477210  0.67293015  0.97985375  1
  O  O24  1  0.89522790  0.32706985  0.47985375  1
  O  O25  1  0.82706985  0.02014625  0.10477210  1
  O  O26  1  0.85009039  0.64990961  0.35009039  1
  O  O27  1  0.02014625  0.10477210  0.82706985  1
