# generated using pymatgen
data_U2OsC2
_symmetry_space_group_name_H-M   'P 1'
_cell_length_a   3.44975069
_cell_length_b   3.44975069
_cell_length_c   6.71217040
_cell_angle_alpha   104.89078044
_cell_angle_beta   104.89078044
_cell_angle_gamma   90.00000000
_symmetry_Int_Tables_number   1
_chemical_formula_structural   U2OsC2
_chemical_formula_sum   'U2 Os1 C2'
_cell_volume   74.41827164
_cell_formula_units_Z   1
loop_
 _symmetry_equiv_pos_site_id
 _symmetry_equiv_pos_as_xyz
  1  'x, y, z'
loop_
 _atom_site_type_symbol
 _atom_site_label
 _atom_site_symmetry_multiplicity
 _atom_site_fract_x
 _atom_site_fract_y
 _atom_site_fract_z
 _atom_site_occupancy
  U  U0  1  0.64593130  0.64593130  0.29186259  1
  U  U1  1  0.35406870  0.35406870  0.70813741  1
  Os  Os2  1  0.00000000  0.00000000  0.00000000  1
  C  C3  1  0.82908812  0.82908812  0.65817625  1
  C  C4  1  0.17091188  0.17091188  0.34182375  1
