# generated using pymatgen
data_TbSi3Rh
_symmetry_space_group_name_H-M   'P 1'
_cell_length_a   4.17530588
_cell_length_b   4.17530588
_cell_length_c   5.72371156
_cell_angle_alpha   111.39143075
_cell_angle_beta   111.39143075
_cell_angle_gamma   90.00000000
_symmetry_Int_Tables_number   1
_chemical_formula_structural   TbSi3Rh
_chemical_formula_sum   'Tb1 Si3 Rh1'
_cell_volume   85.48355250
_cell_formula_units_Z   1
loop_
 _symmetry_equiv_pos_site_id
 _symmetry_equiv_pos_as_xyz
  1  'x, y, z'
loop_
 _atom_site_type_symbol
 _atom_site_label
 _atom_site_symmetry_multiplicity
 _atom_site_fract_x
 _atom_site_fract_y
 _atom_site_fract_z
 _atom_site_occupancy
  Tb  Tb0  1  0.99867364  0.99867364  0.99734728  1
  Si  Si1  1  0.41472777  0.41472777  0.82945554  1
  Si  Si2  1  0.76392520  0.26392520  0.52785041  1
  Si  Si3  1  0.26392520  0.76392520  0.52785041  1
  Rh  Rh4  1  0.65274818  0.65274818  0.30549636  1
