# generated using pymatgen
data_Eu(ZnSb)2
_symmetry_space_group_name_H-M   'P 1'
_cell_length_a   4.58163333
_cell_length_b   4.57838642
_cell_length_c   7.42323496
_cell_angle_alpha   90.00000003
_cell_angle_beta   89.98382825
_cell_angle_gamma   119.97655053
_symmetry_Int_Tables_number   1
_chemical_formula_structural   Eu(ZnSb)2
_chemical_formula_sum   'Eu1 Zn2 Sb2'
_cell_volume   134.88360390
_cell_formula_units_Z   1
loop_
 _symmetry_equiv_pos_site_id
 _symmetry_equiv_pos_as_xyz
  1  'x, y, z'
loop_
 _atom_site_type_symbol
 _atom_site_label
 _atom_site_symmetry_multiplicity
 _atom_site_fract_x
 _atom_site_fract_y
 _atom_site_fract_z
 _atom_site_occupancy
  Eu  Eu0  1  0.00000000  0.00000000  -0.00000000  1
  Zn  Zn1  1  0.33309805  0.66654902  0.64087612  1
  Zn  Zn2  1  0.66690195  0.33345098  0.35912388  1
  Sb  Sb3  1  0.33310200  0.66655100  0.26288737  1
  Sb  Sb4  1  0.66689800  0.33344900  0.73711263  1
