# generated using pymatgen
data_NdCoSi3
_symmetry_space_group_name_H-M   'P 1'
_cell_length_a   4.13392107
_cell_length_b   4.13392107
_cell_length_c   5.65043371
_cell_angle_alpha   111.45717669
_cell_angle_beta   111.45717669
_cell_angle_gamma   90.00000000
_symmetry_Int_Tables_number   1
_chemical_formula_structural   NdCoSi3
_chemical_formula_sum   'Nd1 Co1 Si3'
_cell_volume   82.63653777
_cell_formula_units_Z   1
loop_
 _symmetry_equiv_pos_site_id
 _symmetry_equiv_pos_as_xyz
  1  'x, y, z'
loop_
 _atom_site_type_symbol
 _atom_site_label
 _atom_site_symmetry_multiplicity
 _atom_site_fract_x
 _atom_site_fract_y
 _atom_site_fract_z
 _atom_site_occupancy
  Nd  Nd0  1  0.00330208  0.00330208  0.00660416  1
  Co  Co1  1  0.66262134  0.66262134  0.32524267  1
  Si  Si2  1  0.42768121  0.42768121  0.85536242  1
  Si  Si3  1  0.76069769  0.26069769  0.52139538  1
  Si  Si4  1  0.26069769  0.76069769  0.52139538  1
