# generated using pymatgen
data_Co(BMo)2
_symmetry_space_group_name_H-M   'P 1'
_cell_length_a   3.16372329
_cell_length_b   4.52349857
_cell_length_c   4.52349857
_cell_angle_alpha   60.77633564
_cell_angle_beta   69.53111165
_cell_angle_gamma   69.53111165
_symmetry_Int_Tables_number   1
_chemical_formula_structural   Co(BMo)2
_chemical_formula_sum   'Co1 B2 Mo2'
_cell_volume   51.64599460
_cell_formula_units_Z   1
loop_
 _symmetry_equiv_pos_site_id
 _symmetry_equiv_pos_as_xyz
  1  'x, y, z'
loop_
 _atom_site_type_symbol
 _atom_site_label
 _atom_site_symmetry_multiplicity
 _atom_site_fract_x
 _atom_site_fract_y
 _atom_site_fract_z
 _atom_site_occupancy
  Co  Co0  1  0.00000000  -0.00000000  -0.00000000  1
  B  B1  1  0.50000000  0.29578980  0.70421020  1
  B  B2  1  0.50000000  0.70421020  0.29578980  1
  Mo  Mo3  1  0.19988153  0.30011847  0.30011847  1
  Mo  Mo4  1  0.80011847  0.69988153  0.69988153  1
