# generated using pymatgen
data_Nd2CdCu2
_symmetry_space_group_name_H-M   'P 1'
_cell_length_a   3.72578235
_cell_length_b   4.27323849
_cell_length_c   7.62347363
_cell_angle_alpha   106.27622454
_cell_angle_beta   90.00000000
_cell_angle_gamma   90.00000000
_symmetry_Int_Tables_number   1
_chemical_formula_structural   Nd2CdCu2
_chemical_formula_sum   'Nd2 Cd1 Cu2'
_cell_volume   116.51002971
_cell_formula_units_Z   1
loop_
 _symmetry_equiv_pos_site_id
 _symmetry_equiv_pos_as_xyz
  1  'x, y, z'
loop_
 _atom_site_type_symbol
 _atom_site_label
 _atom_site_symmetry_multiplicity
 _atom_site_fract_x
 _atom_site_fract_y
 _atom_site_fract_z
 _atom_site_occupancy
  Nd  Nd0  1  0.00000000  0.63028520  0.26057040  1
  Nd  Nd1  1  -0.00000000  0.36971480  0.73942960  1
  Cd  Cd2  1  0.50000000  -0.00000000  -0.00000000  1
  Cu  Cu3  1  0.50000000  0.79784815  0.59569630  1
  Cu  Cu4  1  0.50000000  0.20215185  0.40430370  1
