# generated using pymatgen
data_U2RuC2
_symmetry_space_group_name_H-M   'P 1'
_cell_length_a   3.44156128
_cell_length_b   3.44156128
_cell_length_c   6.73449477
_cell_angle_alpha   104.80424127
_cell_angle_beta   104.80424127
_cell_angle_gamma   90.00000000
_symmetry_Int_Tables_number   1
_chemical_formula_structural   U2RuC2
_chemical_formula_sum   'U2 Ru1 C2'
_cell_volume   74.37573915
_cell_formula_units_Z   1
loop_
 _symmetry_equiv_pos_site_id
 _symmetry_equiv_pos_as_xyz
  1  'x, y, z'
loop_
 _atom_site_type_symbol
 _atom_site_label
 _atom_site_symmetry_multiplicity
 _atom_site_fract_x
 _atom_site_fract_y
 _atom_site_fract_z
 _atom_site_occupancy
  U  U0  1  0.64514049  0.64514049  0.29028097  1
  U  U1  1  0.35485951  0.35485951  0.70971903  1
  Ru  Ru2  1  -0.00000000  -0.00000000  -0.00000000  1
  C  C3  1  0.82797210  0.82797210  0.65594420  1
  C  C4  1  0.17202790  0.17202790  0.34405580  1
