# generated using pymatgen
data_NdSi3Ru
_symmetry_space_group_name_H-M   'P 1'
_cell_length_a   4.23645472
_cell_length_b   4.23645472
_cell_length_c   5.80542611
_cell_angle_alpha   111.39959269
_cell_angle_beta   111.39959269
_cell_angle_gamma   90.00000000
_symmetry_Int_Tables_number   1
_chemical_formula_structural   NdSi3Ru
_chemical_formula_sum   'Nd1 Si3 Ru1'
_cell_volume   89.25040529
_cell_formula_units_Z   1
loop_
 _symmetry_equiv_pos_site_id
 _symmetry_equiv_pos_as_xyz
  1  'x, y, z'
loop_
 _atom_site_type_symbol
 _atom_site_label
 _atom_site_symmetry_multiplicity
 _atom_site_fract_x
 _atom_site_fract_y
 _atom_site_fract_z
 _atom_site_occupancy
  Nd  Nd0  1  0.99907337  0.99907337  0.99814674  1
  Si  Si1  1  0.41800118  0.41800118  0.83600236  1
  Si  Si2  1  0.76095591  0.26095591  0.52191181  1
  Si  Si3  1  0.26095591  0.76095591  0.52191181  1
  Ru  Ru4  1  0.65501363  0.65501363  0.31002726  1
