# generated using pymatgen
data_CuPO3
_symmetry_space_group_name_H-M   'P 1'
_cell_length_a   11.50132736
_cell_length_b   4.73416719
_cell_length_c   10.85654206
_cell_angle_alpha   90.00000000
_cell_angle_beta   65.95016458
_cell_angle_gamma   90.00000000
_symmetry_Int_Tables_number   1
_chemical_formula_structural   CuPO3
_chemical_formula_sum   'Cu8 P8 O24'
_cell_volume   539.81488704
_cell_formula_units_Z   8
loop_
 _symmetry_equiv_pos_site_id
 _symmetry_equiv_pos_as_xyz
  1  'x, y, z'
loop_
 _atom_site_type_symbol
 _atom_site_label
 _atom_site_symmetry_multiplicity
 _atom_site_fract_x
 _atom_site_fract_y
 _atom_site_fract_z
 _atom_site_occupancy
  Cu  Cu0  1  0.16512395  0.17148796  0.29197573  1
  Cu  Cu1  1  0.00973623  0.53037681  0.84870510  1
  Cu  Cu2  1  0.33487605  0.67148796  0.20802427  1
  Cu  Cu3  1  0.49026377  0.03037681  0.65129490  1
  Cu  Cu4  1  0.50973623  0.96962319  0.34870510  1
  Cu  Cu5  1  0.66512395  0.32851204  0.79197573  1
  Cu  Cu6  1  0.99026377  0.46962319  0.15129490  1
  Cu  Cu7  1  0.83487605  0.82851204  0.70802427  1
  P  P8  1  0.20171307  0.81430990  0.00510728  1
  P  P9  1  0.13905162  0.81289589  0.56568130  1
  P  P10  1  0.29828693  0.31430990  0.49489272  1
  P  P11  1  0.36094838  0.31289589  0.93431870  1
  P  P12  1  0.63905162  0.68710411  0.06568130  1
  P  P13  1  0.70171307  0.68569010  0.50510728  1
  P  P14  1  0.86094838  0.18710411  0.43431870  1
  P  P15  1  0.79828693  0.18569010  0.99489272  1
  O  O16  1  0.20123729  0.81971046  0.14368467  1
  O  O17  1  0.13485788  0.81125476  0.43108211  1
  O  O18  1  0.02087746  0.72626388  0.68918287  1
  O  O19  1  0.36514212  0.31125476  0.06891789  1
  O  O20  1  0.18313435  0.11823931  0.59905267  1
  O  O21  1  0.25625051  0.61627439  0.56836085  1
  O  O22  1  0.07906834  0.72550681  0.99484289  1
  O  O23  1  0.29876271  0.31971046  0.35631533  1
  O  O24  1  0.42093166  0.22550681  0.50515711  1
  O  O25  1  0.24374949  0.11627439  0.93163915  1
  O  O26  1  0.31686565  0.61823931  0.90094733  1
  O  O27  1  0.52087746  0.77373612  0.18918287  1
  O  O28  1  0.47912254  0.22626388  0.81081713  1
  O  O29  1  0.68313435  0.38176069  0.09905267  1
  O  O30  1  0.75625051  0.88372561  0.06836085  1
  O  O31  1  0.57906834  0.77449319  0.49484289  1
  O  O32  1  0.70123729  0.68028954  0.64368467  1
  O  O33  1  0.92093166  0.27449319  0.00515711  1
  O  O34  1  0.74374949  0.38372561  0.43163915  1
  O  O35  1  0.81686565  0.88176069  0.40094733  1
  O  O36  1  0.63485788  0.68874524  0.93108211  1
  O  O37  1  0.97912254  0.27373612  0.31081713  1
  O  O38  1  0.86514212  0.18874524  0.56891789  1
  O  O39  1  0.79876271  0.18028954  0.85631533  1
