# generated using pymatgen
data_Eu(ZnP)2
_symmetry_space_group_name_H-M   'P 1'
_cell_length_a   4.11382549
_cell_length_b   4.11378037
_cell_length_c   6.86241915
_cell_angle_alpha   89.99999995
_cell_angle_beta   90.00088315
_cell_angle_gamma   119.99964828
_symmetry_Int_Tables_number   1
_chemical_formula_structural   Eu(ZnP)2
_chemical_formula_sum   'Eu1 Zn2 P2'
_cell_volume   100.57646749
_cell_formula_units_Z   1
loop_
 _symmetry_equiv_pos_site_id
 _symmetry_equiv_pos_as_xyz
  1  'x, y, z'
loop_
 _atom_site_type_symbol
 _atom_site_label
 _atom_site_symmetry_multiplicity
 _atom_site_fract_x
 _atom_site_fract_y
 _atom_site_fract_z
 _atom_site_occupancy
  Eu  Eu0  1  0.00000000  -0.00000000  0.00000000  1
  Zn  Zn1  1  0.33333862  0.66666931  0.63726276  1
  Zn  Zn2  1  0.66666138  0.33333069  0.36273724  1
  P  P3  1  0.33333154  0.66666577  0.26669800  1
  P  P4  1  0.66666846  0.33333423  0.73330200  1
