# generated using pymatgen
data_LiMnF4
_symmetry_space_group_name_H-M   'P 1'
_cell_length_a   9.65037315
_cell_length_b   5.75646664
_cell_length_c   5.19436980
_cell_angle_alpha   90.00000000
_cell_angle_beta   90.00000000
_cell_angle_gamma   90.00000000
_symmetry_Int_Tables_number   1
_chemical_formula_structural   LiMnF4
_chemical_formula_sum   'Li4 Mn4 F16'
_cell_volume   288.55789657
_cell_formula_units_Z   4
loop_
 _symmetry_equiv_pos_site_id
 _symmetry_equiv_pos_as_xyz
  1  'x, y, z'
loop_
 _atom_site_type_symbol
 _atom_site_label
 _atom_site_symmetry_multiplicity
 _atom_site_fract_x
 _atom_site_fract_y
 _atom_site_fract_z
 _atom_site_occupancy
  Li  Li0  1  0.98974541  0.48711930  0.00474932  1
  Li  Li1  1  0.51025459  0.98711930  0.50474932  1
  Li  Li2  1  0.48974541  0.48711930  0.49525068  1
  Li  Li3  1  0.01025459  0.98711930  0.99525068  1
  Mn  Mn4  1  0.14880411  0.33210051  0.53510874  1
  Mn  Mn5  1  0.35119589  0.83210051  0.03510774  1
  Mn  Mn6  1  0.64880411  0.33210051  0.96489126  1
  Mn  Mn7  1  0.85119589  0.83210051  0.46489126  1
  F  F8  1  0.01113615  0.72900564  0.28663458  1
  F  F9  1  0.05972568  0.23906539  0.23284849  1
  F  F10  1  0.20568500  0.96644399  0.85849166  1
  F  F11  1  0.19784925  0.48319416  0.83537137  1
  F  F12  1  0.30215075  0.98319416  0.33537137  1
  F  F13  1  0.29431500  0.46644399  0.35849166  1
  F  F14  1  0.44027432  0.73906539  0.73284849  1
  F  F15  1  0.48886385  0.22900564  0.78663458  1
  F  F16  1  0.51113615  0.72900564  0.21336542  1
  F  F17  1  0.55972568  0.23906539  0.26715151  1
  F  F18  1  0.70568500  0.96644399  0.64150834  1
  F  F19  1  0.69784925  0.48319416  0.66462863  1
  F  F20  1  0.80215075  0.98319416  0.16462863  1
  F  F21  1  0.79431500  0.46644399  0.14150834  1
  F  F22  1  0.94027432  0.73906539  0.76715151  1
  F  F23  1  0.98886385  0.22900564  0.71336542  1
