# generated using pymatgen
data_Eu(CuSn)2
_symmetry_space_group_name_H-M   'P 1'
_cell_length_a   4.31566996
_cell_length_b   4.84937140
_cell_length_c   5.97709199
_cell_angle_alpha   107.38513850
_cell_angle_beta   111.16269911
_cell_angle_gamma   90.00000000
_symmetry_Int_Tables_number   1
_chemical_formula_structural   Eu(CuSn)2
_chemical_formula_sum   'Eu1 Cu2 Sn2'
_cell_volume   110.50429548
_cell_formula_units_Z   1
loop_
 _symmetry_equiv_pos_site_id
 _symmetry_equiv_pos_as_xyz
  1  'x, y, z'
loop_
 _atom_site_type_symbol
 _atom_site_label
 _atom_site_symmetry_multiplicity
 _atom_site_fract_x
 _atom_site_fract_y
 _atom_site_fract_z
 _atom_site_occupancy
  Eu  Eu0  1  -0.00000000  -0.00000000  -0.00000000  1
  Cu  Cu1  1  0.26096661  0.86117962  0.52193322  1
  Cu  Cu2  1  0.73903339  0.13882038  0.47806678  1
  Sn  Sn3  1  0.64347253  0.57107962  0.28694506  1
  Sn  Sn4  1  0.35652747  0.42892038  0.71305494  1
