# generated using pymatgen
data_CeAl3Cu
_symmetry_space_group_name_H-M   'P 1'
_cell_length_a   4.24880197
_cell_length_b   4.24880197
_cell_length_c   6.05992796
_cell_angle_alpha   110.52189631
_cell_angle_beta   110.52189631
_cell_angle_gamma   90.00000000
_symmetry_Int_Tables_number   1
_chemical_formula_structural   CeAl3Cu
_chemical_formula_sum   'Ce1 Al3 Cu1'
_cell_volume   95.00489545
_cell_formula_units_Z   1
loop_
 _symmetry_equiv_pos_site_id
 _symmetry_equiv_pos_as_xyz
  1  'x, y, z'
loop_
 _atom_site_type_symbol
 _atom_site_label
 _atom_site_symmetry_multiplicity
 _atom_site_fract_x
 _atom_site_fract_y
 _atom_site_fract_z
 _atom_site_occupancy
  Ce  Ce0  1  0.98547842  0.98547842  0.97095684  1
  Al  Al1  1  0.39164795  0.39164795  0.78329591  1
  Al  Al2  1  0.73500493  0.23500493  0.47000986  1
  Al  Al3  1  0.23500493  0.73500493  0.47000986  1
  Cu  Cu4  1  0.61715377  0.61715377  0.23430754  1
