# generated using pymatgen
data_Li7MnO5F
_symmetry_space_group_name_H-M   'P 1'
_cell_length_a   5.50713395
_cell_length_b   5.67138278
_cell_length_c   5.61139071
_cell_angle_alpha   90.66940192
_cell_angle_beta   60.57804825
_cell_angle_gamma   61.63091336
_symmetry_Int_Tables_number   1
_chemical_formula_structural   Li7MnO5F
_chemical_formula_sum   'Li7 Mn1 O5 F1'
_cell_volume   127.26987802
_cell_formula_units_Z   1
loop_
 _symmetry_equiv_pos_site_id
 _symmetry_equiv_pos_as_xyz
  1  'x, y, z'
loop_
 _atom_site_type_symbol
 _atom_site_label
 _atom_site_symmetry_multiplicity
 _atom_site_fract_x
 _atom_site_fract_y
 _atom_site_fract_z
 _atom_site_occupancy
  Li  Li0  1  0.13808605  0.34931871  0.74453134  1
  Li  Li1  1  0.39654985  0.33079504  0.11152071  1
  Li  Li2  1  0.25869049  0.69133858  0.49199991  1
  Li  Li3  1  0.83156479  0.29076900  0.46724553  1
  Li  Li4  1  0.56843927  0.66180348  0.93738901  1
  Li  Li5  1  0.83505678  0.66993213  0.22881387  1
  Li  Li6  1  0.68932117  0.95703946  0.67651314  1
  Mn  Mn7  1  0.03339532  0.98590517  0.96961633  1
  O  O8  1  0.12956794  0.24177019  0.07009590  1
  O  O9  1  0.11402729  0.78136943  0.23350720  1
  O  O10  1  0.47588753  0.76019441  0.64122925  1
  O  O11  1  0.83518368  0.23749028  0.79852488  1
  O  O12  1  0.88736496  0.76254709  0.88470840  1
  F  F13  1  0.51779687  0.27024204  0.38748952  1
