# generated using pymatgen
data_Ce2SeN2
_symmetry_space_group_name_H-M   'P 1'
_cell_length_a   3.93837245
_cell_length_b   3.93839349
_cell_length_c   7.01032233
_cell_angle_alpha   90.00000003
_cell_angle_beta   90.00051467
_cell_angle_gamma   120.00017719
_symmetry_Int_Tables_number   1
_chemical_formula_structural   Ce2SeN2
_chemical_formula_sum   'Ce2 Se1 N2'
_cell_volume   94.16808364
_cell_formula_units_Z   1
loop_
 _symmetry_equiv_pos_site_id
 _symmetry_equiv_pos_as_xyz
  1  'x, y, z'
loop_
 _atom_site_type_symbol
 _atom_site_label
 _atom_site_symmetry_multiplicity
 _atom_site_fract_x
 _atom_site_fract_y
 _atom_site_fract_z
 _atom_site_occupancy
  Ce  Ce0  1  0.33336381  0.66668191  0.29690682  1
  Ce  Ce1  1  0.66663619  0.33331809  0.70309318  1
  Se  Se2  1  -0.00000000  -0.00000000  0.00000000  1
  N  N3  1  0.33333251  0.66666626  0.62488500  1
  N  N4  1  0.66666749  0.33333374  0.37511500  1
