# generated using pymatgen
data_LaSi3Ru
_symmetry_space_group_name_H-M   'P 1'
_cell_length_a   4.26507298
_cell_length_b   4.26507298
_cell_length_c   5.82770850
_cell_angle_alpha   111.46486065
_cell_angle_beta   111.46486065
_cell_angle_gamma   90.00000000
_symmetry_Int_Tables_number   1
_chemical_formula_structural   LaSi3Ru
_chemical_formula_sum   'La1 Si3 Ru1'
_cell_volume   90.71154370
_cell_formula_units_Z   1
loop_
 _symmetry_equiv_pos_site_id
 _symmetry_equiv_pos_as_xyz
  1  'x, y, z'
loop_
 _atom_site_type_symbol
 _atom_site_label
 _atom_site_symmetry_multiplicity
 _atom_site_fract_x
 _atom_site_fract_y
 _atom_site_fract_z
 _atom_site_occupancy
  La  La0  1  0.00018984  0.00018984  0.00037967  1
  Si  Si1  1  0.41611136  0.41611136  0.83222272  1
  Si  Si2  1  0.76125458  0.26125458  0.52250915  1
  Si  Si3  1  0.26125458  0.76125458  0.52250915  1
  Ru  Ru4  1  0.65518965  0.65518965  0.31037930  1
