# generated using pymatgen
data_HoSi3Ir
_symmetry_space_group_name_H-M   'P 1'
_cell_length_a   4.18158419
_cell_length_b   4.18158419
_cell_length_c   5.73710473
_cell_angle_alpha   111.37271750
_cell_angle_beta   111.37271750
_cell_angle_gamma   90.00000000
_symmetry_Int_Tables_number   1
_chemical_formula_structural   HoSi3Ir
_chemical_formula_sum   'Ho1 Si3 Ir1'
_cell_volume   85.96741750
_cell_formula_units_Z   1
loop_
 _symmetry_equiv_pos_site_id
 _symmetry_equiv_pos_as_xyz
  1  'x, y, z'
loop_
 _atom_site_type_symbol
 _atom_site_label
 _atom_site_symmetry_multiplicity
 _atom_site_fract_x
 _atom_site_fract_y
 _atom_site_fract_z
 _atom_site_occupancy
  Ho  Ho0  1  0.99738861  0.99738861  0.99477722  1
  Si  Si1  1  0.41474907  0.41474907  0.82949814  1
  Si  Si2  1  0.76504913  0.26504913  0.53009826  1
  Si  Si3  1  0.26504913  0.76504913  0.53009826  1
  Ir  Ir4  1  0.65176406  0.65176406  0.30352813  1
