# generated using pymatgen
data_Tm2AlNi2
_symmetry_space_group_name_H-M   'P 1'
_cell_length_a   4.06398855
_cell_length_b   5.40240898
_cell_length_c   5.33351966
_cell_angle_alpha   120.42819255
_cell_angle_beta   112.39474985
_cell_angle_gamma   90.00000000
_symmetry_Int_Tables_number   1
_chemical_formula_structural   Tm2AlNi2
_chemical_formula_sum   'Tm2 Al1 Ni2'
_cell_volume   90.57983495
_cell_formula_units_Z   1
loop_
 _symmetry_equiv_pos_site_id
 _symmetry_equiv_pos_as_xyz
  1  'x, y, z'
loop_
 _atom_site_type_symbol
 _atom_site_label
 _atom_site_symmetry_multiplicity
 _atom_site_fract_x
 _atom_site_fract_y
 _atom_site_fract_z
 _atom_site_occupancy
  Tm  Tm0  1  0.79565158  0.29565158  0.59130316  1
  Tm  Tm1  1  0.20434842  0.70434842  0.40869684  1
  Al  Al2  1  0.00000000  -0.00000000  0.00000000  1
  Ni  Ni3  1  0.50000000  0.72645102  0.00000000  1
  Ni  Ni4  1  0.50000000  0.27354898  1.00000000  1
