# generated using pymatgen
data_GdSi3Ir
_symmetry_space_group_name_H-M   'P 1'
_cell_length_a   4.21181018
_cell_length_b   4.21161832
_cell_length_c   5.74715639
_cell_angle_alpha   111.52813344
_cell_angle_beta   111.52366024
_cell_angle_gamma   89.95893141
_symmetry_Int_Tables_number   1
_chemical_formula_structural   GdSi3Ir
_chemical_formula_sum   'Gd1 Si3 Ir1'
_cell_volume   87.15825405
_cell_formula_units_Z   1
loop_
 _symmetry_equiv_pos_site_id
 _symmetry_equiv_pos_as_xyz
  1  'x, y, z'
loop_
 _atom_site_type_symbol
 _atom_site_label
 _atom_site_symmetry_multiplicity
 _atom_site_fract_x
 _atom_site_fract_y
 _atom_site_fract_z
 _atom_site_occupancy
  Gd  Gd0  1  0.99939500  0.99934017  0.99848419  1
  Si  Si1  1  0.41513176  0.41512725  0.83015873  1
  Si  Si2  1  0.76483044  0.26497935  0.52991460  1
  Si  Si3  1  0.26497506  0.76483725  0.52994241  1
  Ir  Ir4  1  0.65366774  0.65371597  0.30750007  1
