# generated using pymatgen
data_EuGe3Rh
_symmetry_space_group_name_H-M   'P 1'
_cell_length_a   4.44831590
_cell_length_b   4.44831590
_cell_length_c   5.98046570
_cell_angle_alpha   111.83307313
_cell_angle_beta   111.83307313
_cell_angle_gamma   90.00000000
_symmetry_Int_Tables_number   1
_chemical_formula_structural   EuGe3Rh
_chemical_formula_sum   'Eu1 Ge3 Rh1'
_cell_volume   100.64867566
_cell_formula_units_Z   1
loop_
 _symmetry_equiv_pos_site_id
 _symmetry_equiv_pos_as_xyz
  1  'x, y, z'
loop_
 _atom_site_type_symbol
 _atom_site_label
 _atom_site_symmetry_multiplicity
 _atom_site_fract_x
 _atom_site_fract_y
 _atom_site_fract_z
 _atom_site_occupancy
  Eu  Eu0  1  0.00055789  0.00055789  0.00111578  1
  Ge  Ge1  1  0.74548703  0.24548703  0.49097406  1
  Ge  Ge2  1  0.24548703  0.74548703  0.49097406  1
  Ge  Ge3  1  0.58587142  0.58587142  0.17174284  1
  Rh  Rh4  1  0.34839663  0.34839663  0.69679326  1
