# generated using pymatgen
data_GaGeTe2
_symmetry_space_group_name_H-M   'P 1'
_cell_length_a   4.22143509
_cell_length_b   4.22143509
_cell_length_c   17.26808398
_cell_angle_alpha   90.01621752
_cell_angle_beta   89.98378248
_cell_angle_gamma   119.99013114
_symmetry_Int_Tables_number   1
_chemical_formula_structural   GaGeTe2
_chemical_formula_sum   'Ga2 Ge2 Te4'
_cell_volume   266.52513557
_cell_formula_units_Z   2
loop_
 _symmetry_equiv_pos_site_id
 _symmetry_equiv_pos_as_xyz
  1  'x, y, z'
loop_
 _atom_site_type_symbol
 _atom_site_label
 _atom_site_symmetry_multiplicity
 _atom_site_fract_x
 _atom_site_fract_y
 _atom_site_fract_z
 _atom_site_occupancy
  Ga  Ga0  1  0.66667211  0.33332789  0.67300298  1
  Ga  Ga1  1  0.33332789  0.66667211  0.32699702  1
  Ge  Ge2  1  0.33329049  0.66670951  0.17466054  1
  Ge  Ge3  1  0.66670951  0.33329049  0.82533946  1
  Te  Te4  1  0.66674943  0.33325057  0.09866458  1
  Te  Te5  1  0.33325057  0.66674943  0.90133542  1
  Te  Te6  1  0.33325167  0.66674833  0.60003017  1
  Te  Te7  1  0.66674833  0.33325167  0.39996983  1
