# generated using pymatgen
data_BaSi3Pt
_symmetry_space_group_name_H-M   'P 1'
_cell_length_a   4.43199025
_cell_length_b   4.43199025
_cell_length_c   5.98116067
_cell_angle_alpha   111.74620008
_cell_angle_beta   111.74620008
_cell_angle_gamma   90.00000000
_symmetry_Int_Tables_number   1
_chemical_formula_structural   BaSi3Pt
_chemical_formula_sum   'Ba1 Si3 Pt1'
_cell_volume   100.06714162
_cell_formula_units_Z   1
loop_
 _symmetry_equiv_pos_site_id
 _symmetry_equiv_pos_as_xyz
  1  'x, y, z'
loop_
 _atom_site_type_symbol
 _atom_site_label
 _atom_site_symmetry_multiplicity
 _atom_site_fract_x
 _atom_site_fract_y
 _atom_site_fract_z
 _atom_site_occupancy
  Ba  Ba0  1  0.60009724  0.60009724  0.20019449  1
  Si  Si1  1  0.99655999  0.99655999  0.99311998  1
  Si  Si2  1  0.85612571  0.35612571  0.71225141  1
  Si  Si3  1  0.35612571  0.85612571  0.71225141  1
  Pt  Pt4  1  0.24989135  0.24989135  0.49978270  1
