# generated using pymatgen
data_EuSi3Ir
_symmetry_space_group_name_H-M   'P 1'
_cell_length_a   4.25554184
_cell_length_b   4.25554184
_cell_length_c   5.81849418
_cell_angle_alpha   111.45011947
_cell_angle_beta   111.45011947
_cell_angle_gamma   90.00000000
_symmetry_Int_Tables_number   1
_chemical_formula_structural   EuSi3Ir
_chemical_formula_sum   'Eu1 Si3 Ir1'
_cell_volume   90.18535592
_cell_formula_units_Z   1
loop_
 _symmetry_equiv_pos_site_id
 _symmetry_equiv_pos_as_xyz
  1  'x, y, z'
loop_
 _atom_site_type_symbol
 _atom_site_label
 _atom_site_symmetry_multiplicity
 _atom_site_fract_x
 _atom_site_fract_y
 _atom_site_fract_z
 _atom_site_occupancy
  Eu  Eu0  1  0.00085936  0.00085936  0.00171871  1
  Si  Si1  1  0.41480029  0.41480029  0.82960058  1
  Si  Si2  1  0.76398585  0.26398585  0.52797171  1
  Si  Si3  1  0.26398585  0.76398585  0.52797171  1
  Ir  Ir4  1  0.65436865  0.65436865  0.30873729  1
