# generated using pymatgen
data_LiMn2O3F
_symmetry_space_group_name_H-M   'P 1'
_cell_length_a   10.58719513
_cell_length_b   5.96438193
_cell_length_c   5.36059043
_cell_angle_alpha   90.00000000
_cell_angle_beta   91.24986238
_cell_angle_gamma   90.00000000
_symmetry_Int_Tables_number   1
_chemical_formula_structural   LiMn2O3F
_chemical_formula_sum   'Li4 Mn8 O12 F4'
_cell_volume   338.41971115
_cell_formula_units_Z   4
loop_
 _symmetry_equiv_pos_site_id
 _symmetry_equiv_pos_as_xyz
  1  'x, y, z'
loop_
 _atom_site_type_symbol
 _atom_site_label
 _atom_site_symmetry_multiplicity
 _atom_site_fract_x
 _atom_site_fract_y
 _atom_site_fract_z
 _atom_site_occupancy
  Li  Li0  1  0.98289767  0.05680476  0.57201694  1
  Li  Li1  1  0.01414664  0.55059489  0.12237683  1
  Li  Li2  1  0.48585336  0.05059489  0.87762317  1
  Li  Li3  1  0.51710233  0.55680476  0.42798306  1
  Mn  Mn4  1  0.24237273  0.49761384  0.51432599  1
  Mn  Mn5  1  0.24418260  0.24769781  0.00151766  1
  Mn  Mn6  1  0.25581740  0.74769781  0.99848234  1
  Mn  Mn7  1  0.25762727  0.99761384  0.48567401  1
  Mn  Mn8  1  0.73154581  0.98917309  0.49490389  1
  Mn  Mn9  1  0.75482492  0.23527670  0.01080914  1
  Mn  Mn10  1  0.74517508  0.73527670  0.98919086  1
  Mn  Mn11  1  0.76845419  0.48917309  0.50509611  1
  O  O12  1  0.16685357  0.74342337  0.31728649  1
  O  O13  1  0.16042733  0.25111301  0.32676889  1
  O  O14  1  0.15210469  0.50336576  0.88245377  1
  O  O15  1  0.34789531  0.00336576  0.11754623  1
  O  O16  1  0.33314643  0.24342337  0.68271351  1
  O  O17  1  0.33957267  0.75111301  0.67323111  1
  O  O18  1  0.65248644  0.72160071  0.61348009  1
  O  O19  1  0.65821038  0.98304307  0.15518013  1
  O  O20  1  0.67252438  0.48931449  0.18717617  1
  O  O21  1  0.82747562  0.98931449  0.81282383  1
  O  O22  1  0.84178962  0.48304307  0.84481987  1
  O  O23  1  0.84751356  0.22160071  0.38651991  1
  F  F24  1  0.11729382  0.99985852  0.80039930  1
  F  F25  1  0.38270618  0.49985852  0.19960070  1
  F  F26  1  0.60920398  0.23111999  0.68043516  1
  F  F27  1  0.89079602  0.73111999  0.31956484  1
