# generated using pymatgen
data_SmSi3Rh
_symmetry_space_group_name_H-M   'P 1'
_cell_length_a   4.20540922
_cell_length_b   4.20540922
_cell_length_c   5.75015745
_cell_angle_alpha   111.44929824
_cell_angle_beta   111.44929824
_cell_angle_gamma   90.00000000
_symmetry_Int_Tables_number   1
_chemical_formula_structural   SmSi3Rh
_chemical_formula_sum   'Sm1 Si3 Rh1'
_cell_volume   87.03977020
_cell_formula_units_Z   1
loop_
 _symmetry_equiv_pos_site_id
 _symmetry_equiv_pos_as_xyz
  1  'x, y, z'
loop_
 _atom_site_type_symbol
 _atom_site_label
 _atom_site_symmetry_multiplicity
 _atom_site_fract_x
 _atom_site_fract_y
 _atom_site_fract_z
 _atom_site_occupancy
  Sm  Sm0  1  0.99904197  0.99904197  0.99808394  1
  Si  Si1  1  0.41446121  0.41446121  0.82892242  1
  Si  Si2  1  0.76328072  0.26328072  0.52656143  1
  Si  Si3  1  0.26328072  0.76328072  0.52656143  1
  Rh  Rh4  1  0.65393539  0.65393539  0.30787078  1
