# generated using pymatgen
data_BaSi3Pd
_symmetry_space_group_name_H-M   'P 1'
_cell_length_a   4.42314459
_cell_length_b   4.42314459
_cell_length_c   6.05656007
_cell_angle_alpha   111.41701131
_cell_angle_beta   111.41701131
_cell_angle_gamma   90.00000000
_symmetry_Int_Tables_number   1
_chemical_formula_structural   BaSi3Pd
_chemical_formula_sum   'Ba1 Si3 Pd1'
_cell_volume   101.46982832
_cell_formula_units_Z   1
loop_
 _symmetry_equiv_pos_site_id
 _symmetry_equiv_pos_as_xyz
  1  'x, y, z'
loop_
 _atom_site_type_symbol
 _atom_site_label
 _atom_site_symmetry_multiplicity
 _atom_site_fract_x
 _atom_site_fract_y
 _atom_site_fract_z
 _atom_site_occupancy
  Ba  Ba0  1  0.61488219  0.61488219  0.22976438  1
  Si  Si1  1  0.00385085  0.00385085  0.00770170  1
  Si  Si2  1  0.86847103  0.36847103  0.73694205  1
  Si  Si3  1  0.36847103  0.86847103  0.73694205  1
  Pd  Pd4  1  0.26102490  0.26102490  0.52204981  1
