# generated using pymatgen
data_PrAl3Cu
_symmetry_space_group_name_H-M   'P 1'
_cell_length_a   4.26173935
_cell_length_b   4.26173935
_cell_length_c   6.14090416
_cell_angle_alpha   110.30369170
_cell_angle_beta   110.30369170
_cell_angle_gamma   90.00000000
_symmetry_Int_Tables_number   1
_chemical_formula_structural   PrAl3Cu
_chemical_formula_sum   'Pr1 Al3 Cu1'
_cell_volume   97.18082820
_cell_formula_units_Z   1
loop_
 _symmetry_equiv_pos_site_id
 _symmetry_equiv_pos_as_xyz
  1  'x, y, z'
loop_
 _atom_site_type_symbol
 _atom_site_label
 _atom_site_symmetry_multiplicity
 _atom_site_fract_x
 _atom_site_fract_y
 _atom_site_fract_z
 _atom_site_occupancy
  Pr  Pr0  1  0.99926620  0.99926620  0.99853239  1
  Al  Al1  1  0.40662024  0.40662024  0.81324048  1
  Al  Al2  1  0.74883018  0.24883018  0.49766035  1
  Al  Al3  1  0.24883018  0.74883018  0.49766035  1
  Cu  Cu4  1  0.63245321  0.63245321  0.26490641  1
