# generated using pymatgen
data_DySi3Ir
_symmetry_space_group_name_H-M   'P 1'
_cell_length_a   4.18862757
_cell_length_b   4.18862757
_cell_length_c   5.75142489
_cell_angle_alpha   111.35455871
_cell_angle_beta   111.35455871
_cell_angle_gamma   90.00000000
_symmetry_Int_Tables_number   1
_chemical_formula_structural   DySi3Ir
_chemical_formula_sum   'Dy1 Si3 Ir1'
_cell_volume   86.49788565
_cell_formula_units_Z   1
loop_
 _symmetry_equiv_pos_site_id
 _symmetry_equiv_pos_as_xyz
  1  'x, y, z'
loop_
 _atom_site_type_symbol
 _atom_site_label
 _atom_site_symmetry_multiplicity
 _atom_site_fract_x
 _atom_site_fract_y
 _atom_site_fract_z
 _atom_site_occupancy
  Dy  Dy0  1  0.99954053  0.99954053  0.99908106  1
  Si  Si1  1  0.41988670  0.41988670  0.83977341  1
  Si  Si2  1  0.76929860  0.26929860  0.53859719  1
  Si  Si3  1  0.26929860  0.76929860  0.53859719  1
  Ir  Ir4  1  0.65697557  0.65697557  0.31395115  1
