# generated using pymatgen
data_Rb2Te2Pd
_symmetry_space_group_name_H-M   'P 1'
_cell_length_a   4.12622931
_cell_length_b   7.09971650
_cell_length_c   7.09971650
_cell_angle_alpha   70.33900571
_cell_angle_beta   73.10665041
_cell_angle_gamma   73.10665041
_symmetry_Int_Tables_number   1
_chemical_formula_structural   Rb2Te2Pd
_chemical_formula_sum   'Rb2 Te2 Pd1'
_cell_volume   183.06776166
_cell_formula_units_Z   1
loop_
 _symmetry_equiv_pos_site_id
 _symmetry_equiv_pos_as_xyz
  1  'x, y, z'
loop_
 _atom_site_type_symbol
 _atom_site_label
 _atom_site_symmetry_multiplicity
 _atom_site_fract_x
 _atom_site_fract_y
 _atom_site_fract_z
 _atom_site_occupancy
  Rb  Rb0  1  0.19700310  0.30299690  0.30299690  1
  Rb  Rb1  1  0.80299690  0.69700310  0.69700310  1
  Te  Te2  1  0.50000000  0.21157974  0.78842026  1
  Te  Te3  1  0.50000000  0.78842026  0.21157974  1
  Pd  Pd4  1  0.00000000  0.00000000  0.00000000  1
