# generated using pymatgen
data_Sr(AlGe)2
_symmetry_space_group_name_H-M   'P 1'
_cell_length_a   4.25896300
_cell_length_b   4.25956585
_cell_length_c   7.48273199
_cell_angle_alpha   89.99986264
_cell_angle_beta   89.99792905
_cell_angle_gamma   120.00450515
_symmetry_Int_Tables_number   1
_chemical_formula_structural   Sr(AlGe)2
_chemical_formula_sum   'Sr1 Al2 Ge2'
_cell_volume   117.55478388
_cell_formula_units_Z   1
loop_
 _symmetry_equiv_pos_site_id
 _symmetry_equiv_pos_as_xyz
  1  'x, y, z'
loop_
 _atom_site_type_symbol
 _atom_site_label
 _atom_site_symmetry_multiplicity
 _atom_site_fract_x
 _atom_site_fract_y
 _atom_site_fract_z
 _atom_site_occupancy
  Sr  Sr0  1  -0.00000000  0.00000000  -0.00000000  1
  Al  Al1  1  0.33344003  0.66668077  0.62561439  1
  Al  Al2  1  0.66655997  0.33331923  0.37438561  1
  Ge  Ge3  1  0.33340229  0.66664704  0.27165475  1
  Ge  Ge4  1  0.66659771  0.33335296  0.72834525  1
