# generated using pymatgen
data_Li4Mn3Co2Te3O16
_symmetry_space_group_name_H-M   'P 1'
_cell_length_a   6.27556077
_cell_length_b   6.27822156
_cell_length_c   9.83400549
_cell_angle_alpha   90.34588718
_cell_angle_beta   90.90686256
_cell_angle_gamma   120.17191834
_symmetry_Int_Tables_number   1
_chemical_formula_structural   Li4Mn3Co2Te3O16
_chemical_formula_sum   'Li4 Mn3 Co2 Te3 O16'
_cell_volume   334.87597469
_cell_formula_units_Z   1
loop_
 _symmetry_equiv_pos_site_id
 _symmetry_equiv_pos_as_xyz
  1  'x, y, z'
loop_
 _atom_site_type_symbol
 _atom_site_label
 _atom_site_symmetry_multiplicity
 _atom_site_fract_x
 _atom_site_fract_y
 _atom_site_fract_z
 _atom_site_occupancy
  Li  Li0  1  0.31561106  0.65937539  0.87559846  1
  Li  Li1  1  0.98405545  0.98960504  0.99498267  1
  Li  Li2  1  0.99139750  0.98478694  0.50452778  1
  Li  Li3  1  0.63739212  0.33887506  0.39514455  1
  Mn  Mn4  1  0.66394486  0.84012917  0.21552727  1
  Mn  Mn5  1  0.83049139  0.66106789  0.71546341  1
  Mn  Mn6  1  0.83566408  0.16829631  0.71502250  1
  Co  Co7  1  0.36506199  0.68992339  0.50303928  1
  Co  Co8  1  0.69422516  0.33083233  0.98372480  1
  Te  Te9  1  0.16870154  0.83497400  0.21451628  1
  Te  Te10  1  0.17203593  0.34696670  0.21753417  1
  Te  Te11  1  0.34331806  0.16851884  0.71523191  1
  O  O12  1  0.19213007  0.86797796  0.60016140  1
  O  O13  1  0.02719657  0.53546821  0.33335146  1
  O  O14  1  0.31219177  0.67739728  0.09916882  1
  O  O15  1  0.01152985  0.97989818  0.32157173  1
  O  O16  1  0.03224220  0.99438989  0.81434008  1
  O  O17  1  0.16689906  0.30763550  0.60971264  1
  O  O18  1  0.45659499  0.97347357  0.33404178  1
  O  O19  1  0.47215874  0.53103383  0.35217719  1
  O  O20  1  0.31574694  0.12344204  0.09760564  1
  O  O21  1  0.69908325  0.84740692  0.61399829  1
  O  O22  1  0.49148226  0.45308928  0.84092522  1
  O  O23  1  0.51620860  0.03415248  0.82434939  1
  O  O24  1  0.64028446  0.33793594  0.60293133  1
  O  O25  1  0.86802385  0.68422460  0.10160262  1
  O  O26  1  0.95180879  0.47641757  0.82108719  1
  O  O27  1  0.84452246  0.16300369  0.09050213  1
