# generated using pymatgen
data_Eu(CdAs)2
_symmetry_space_group_name_H-M   'P 1'
_cell_length_a   4.50801221
_cell_length_b   4.50756693
_cell_length_c   7.31064252
_cell_angle_alpha   90.00000003
_cell_angle_beta   90.03472383
_cell_angle_gamma   119.99672437
_symmetry_Int_Tables_number   1
_chemical_formula_structural   Eu(CdAs)2
_chemical_formula_sum   'Eu1 Cd2 As2'
_cell_volume   128.65529812
_cell_formula_units_Z   1
loop_
 _symmetry_equiv_pos_site_id
 _symmetry_equiv_pos_as_xyz
  1  'x, y, z'
loop_
 _atom_site_type_symbol
 _atom_site_label
 _atom_site_symmetry_multiplicity
 _atom_site_fract_x
 _atom_site_fract_y
 _atom_site_fract_z
 _atom_site_occupancy
  Eu  Eu0  1  0.00000000  0.00000000  0.00000000  1
  Cd  Cd1  1  0.33340273  0.66670136  0.63420343  1
  Cd  Cd2  1  0.66659727  0.33329864  0.36579657  1
  As  As3  1  0.33339195  0.66669597  0.24247026  1
  As  As4  1  0.66660805  0.33330403  0.75752974  1
