# generated using pymatgen
data_ThSi3Rh
_symmetry_space_group_name_H-M   'P 1'
_cell_length_a   4.28882638
_cell_length_b   4.28882638
_cell_length_c   5.71546805
_cell_angle_alpha   112.03634558
_cell_angle_beta   112.03634558
_cell_angle_gamma   90.00000000
_symmetry_Int_Tables_number   1
_chemical_formula_structural   ThSi3Rh
_chemical_formula_sum   'Th1 Si3 Rh1'
_cell_volume   89.11060605
_cell_formula_units_Z   1
loop_
 _symmetry_equiv_pos_site_id
 _symmetry_equiv_pos_as_xyz
  1  'x, y, z'
loop_
 _atom_site_type_symbol
 _atom_site_label
 _atom_site_symmetry_multiplicity
 _atom_site_fract_x
 _atom_site_fract_y
 _atom_site_fract_z
 _atom_site_occupancy
  Th  Th0  1  0.99959224  0.99959224  0.99918448  1
  Si  Si1  1  0.40970185  0.40970185  0.81940371  1
  Si  Si2  1  0.76464038  0.26464038  0.52928077  1
  Si  Si3  1  0.26464038  0.76464038  0.52928077  1
  Rh  Rh4  1  0.65542514  0.65542514  0.31085027  1
