# generated using pymatgen
data_Rb2Te2Pt
_symmetry_space_group_name_H-M   'P 1'
_cell_length_a   4.07036771
_cell_length_b   7.10226376
_cell_length_c   7.10226376
_cell_angle_alpha   70.73725412
_cell_angle_beta   73.34822084
_cell_angle_gamma   73.34822084
_symmetry_Int_Tables_number   1
_chemical_formula_structural   Rb2Te2Pt
_chemical_formula_sum   'Rb2 Te2 Pt1'
_cell_volume   181.46186661
_cell_formula_units_Z   1
loop_
 _symmetry_equiv_pos_site_id
 _symmetry_equiv_pos_as_xyz
  1  'x, y, z'
loop_
 _atom_site_type_symbol
 _atom_site_label
 _atom_site_symmetry_multiplicity
 _atom_site_fract_x
 _atom_site_fract_y
 _atom_site_fract_z
 _atom_site_occupancy
  Rb  Rb0  1  0.19893522  0.30106478  0.30106478  1
  Rb  Rb1  1  0.80106478  0.69893522  0.69893522  1
  Te  Te2  1  0.50000000  0.21099414  0.78900586  1
  Te  Te3  1  0.50000000  0.78900586  0.21099414  1
  Pt  Pt4  1  0.00000000  -0.00000000  -0.00000000  1
