# generated using pymatgen
data_ThSi3Os
_symmetry_space_group_name_H-M   'P 1'
_cell_length_a   4.25483660
_cell_length_b   4.25483660
_cell_length_c   5.82375540
_cell_angle_alpha   111.42604521
_cell_angle_beta   111.42604521
_cell_angle_gamma   90.00000000
_symmetry_Int_Tables_number   1
_chemical_formula_structural   ThSi3Os
_chemical_formula_sum   'Th1 Si3 Os1'
_cell_volume   90.27219820
_cell_formula_units_Z   1
loop_
 _symmetry_equiv_pos_site_id
 _symmetry_equiv_pos_as_xyz
  1  'x, y, z'
loop_
 _atom_site_type_symbol
 _atom_site_label
 _atom_site_symmetry_multiplicity
 _atom_site_fract_x
 _atom_site_fract_y
 _atom_site_fract_z
 _atom_site_occupancy
  Th  Th0  1  0.99481313  0.99481313  0.98962627  1
  Si  Si1  1  0.41772566  0.41772566  0.83545132  1
  Si  Si2  1  0.76329425  0.26329425  0.52658850  1
  Si  Si3  1  0.26329425  0.76329425  0.52658850  1
  Os  Os4  1  0.65487270  0.65487270  0.30974540  1
