# generated using pymatgen
data_LaAl3Cu
_symmetry_space_group_name_H-M   'P 1'
_cell_length_a   4.30989016
_cell_length_b   4.30989016
_cell_length_c   6.16412378
_cell_angle_alpha   110.46252791
_cell_angle_beta   110.46252791
_cell_angle_gamma   90.00000000
_symmetry_Int_Tables_number   1
_chemical_formula_structural   LaAl3Cu
_chemical_formula_sum   'La1 Al3 Cu1'
_cell_volume   99.52685199
_cell_formula_units_Z   1
loop_
 _symmetry_equiv_pos_site_id
 _symmetry_equiv_pos_as_xyz
  1  'x, y, z'
loop_
 _atom_site_type_symbol
 _atom_site_label
 _atom_site_symmetry_multiplicity
 _atom_site_fract_x
 _atom_site_fract_y
 _atom_site_fract_z
 _atom_site_occupancy
  La  La0  1  0.99752552  0.99752552  0.99505104  1
  Al  Al1  1  0.40279897  0.40279897  0.80559794  1
  Al  Al2  1  0.74650533  0.24650533  0.49301066  1
  Al  Al3  1  0.24650533  0.74650533  0.49301066  1
  Cu  Cu4  1  0.63066485  0.63066485  0.26132970  1
