# generated using pymatgen
data_Li3Mn2OF5
_symmetry_space_group_name_H-M   'P 1'
_cell_length_a   5.29261571
_cell_length_b   5.29671318
_cell_length_c   9.71580826
_cell_angle_alpha   100.90048438
_cell_angle_beta   79.27128644
_cell_angle_gamma   71.52102006
_symmetry_Int_Tables_number   1
_chemical_formula_structural   Li3Mn2OF5
_chemical_formula_sum   'Li6 Mn4 O2 F10'
_cell_volume   244.64740856
_cell_formula_units_Z   2
loop_
 _symmetry_equiv_pos_site_id
 _symmetry_equiv_pos_as_xyz
  1  'x, y, z'
loop_
 _atom_site_type_symbol
 _atom_site_label
 _atom_site_symmetry_multiplicity
 _atom_site_fract_x
 _atom_site_fract_y
 _atom_site_fract_z
 _atom_site_occupancy
  Li  Li0  1  0.46435218  0.28540490  0.06656408  1
  Li  Li1  1  0.85981858  0.38779400  0.27761500  1
  Li  Li2  1  0.22080417  0.02634913  0.55201684  1
  Li  Li3  1  0.78690015  0.95528450  0.41635763  1
  Li  Li4  1  0.11967360  0.63044038  0.76581263  1
  Li  Li5  1  0.54137683  0.70738199  0.91427877  1
  Mn  Mn6  1  0.96070239  0.78898757  0.07638870  1
  Mn  Mn7  1  0.28984725  0.45756010  0.41611495  1
  Mn  Mn8  1  0.62078896  0.12613719  0.75621864  1
  Mn  Mn9  1  0.03976078  0.20930012  0.91644989  1
  O  O10  1  0.28804256  0.45517208  0.91639836  1
  O  O11  1  0.79400955  0.96074963  0.91620888  1
  F  F12  1  0.65463103  0.14098506  0.25875894  1
  F  F13  1  0.21405247  0.04831573  0.08197457  1
  F  F14  1  0.70092270  0.53542394  0.08396167  1
  F  F15  1  0.97316289  0.82343943  0.57344909  1
  F  F16  1  0.08480415  0.61486552  0.25793394  1
  F  F17  1  0.53576064  0.70125487  0.41725382  1
  F  F18  1  0.87641949  0.38410540  0.75144051  1
  F  F19  1  0.04799298  0.21075108  0.41450475  1
  F  F20  1  0.44428771  0.25388204  0.57569141  1
  F  F21  1  0.36654293  0.86829335  0.75027791  1
