# generated using pymatgen
data_Ni(BW)2
_symmetry_space_group_name_H-M   'P 1'
_cell_length_a   3.20069008
_cell_length_b   4.52552068
_cell_length_c   4.52552068
_cell_angle_alpha   60.93038625
_cell_angle_beta   69.29070361
_cell_angle_gamma   69.29070361
_symmetry_Int_Tables_number   1
_chemical_formula_structural   Ni(BW)2
_chemical_formula_sum   'Ni1 B2 W2'
_cell_volume   52.24983577
_cell_formula_units_Z   1
loop_
 _symmetry_equiv_pos_site_id
 _symmetry_equiv_pos_as_xyz
  1  'x, y, z'
loop_
 _atom_site_type_symbol
 _atom_site_label
 _atom_site_symmetry_multiplicity
 _atom_site_fract_x
 _atom_site_fract_y
 _atom_site_fract_z
 _atom_site_occupancy
  Ni  Ni0  1  -0.00000000  0.00000000  -0.00000000  1
  B  B1  1  0.50000000  0.29784880  0.70215120  1
  B  B2  1  0.50000000  0.70215120  0.29784880  1
  W  W3  1  0.19980353  0.30019647  0.30019647  1
  W  W4  1  0.80019647  0.69980353  0.69980353  1
