# generated using pymatgen
data_Li7Mn(OF)3
_symmetry_space_group_name_H-M   'P 1'
_cell_length_a   5.51956358
_cell_length_b   6.07909582
_cell_length_c   9.77562586
_cell_angle_alpha   101.94616383
_cell_angle_beta   87.02534514
_cell_angle_gamma   62.95399059
_symmetry_Int_Tables_number   1
_chemical_formula_structural   Li7Mn(OF)3
_chemical_formula_sum   'Li14 Mn2 O6 F6'
_cell_volume   281.77169849
_cell_formula_units_Z   2
loop_
 _symmetry_equiv_pos_site_id
 _symmetry_equiv_pos_as_xyz
  1  'x, y, z'
loop_
 _atom_site_type_symbol
 _atom_site_label
 _atom_site_symmetry_multiplicity
 _atom_site_fract_x
 _atom_site_fract_y
 _atom_site_fract_z
 _atom_site_occupancy
  Li  Li0  1  0.16228470  0.36680410  0.74663605  1
  Li  Li1  1  0.18381734  0.34868809  0.05804286  1
  Li  Li2  1  0.47212110  0.09068982  0.20708517  1
  Li  Li3  1  0.97294031  0.94068750  0.31622170  1
  Li  Li4  1  0.34418266  0.60323834  0.44357611  1
  Li  Li5  1  0.37119970  0.63217542  0.75372658  1
  Li  Li6  1  0.37231462  0.63152924  0.09958071  1
  Li  Li7  1  0.63111946  0.35733874  0.88513256  1
  Li  Li8  1  0.68465858  0.36724650  0.23897683  1
  Li  Li9  1  0.67411304  0.35459892  0.55159067  1
  Li  Li10  1  0.98366736  0.03444884  0.67361729  1
  Li  Li11  1  0.45493166  0.99928614  0.82036174  1
  Li  Li12  1  0.79864075  0.65268982  0.95139199  1
  Li  Li13  1  0.85263224  0.64417964  0.60265160  1
  Mn  Mn14  1  0.00110777  0.01652360  0.99141619  1
  Mn  Mn15  1  0.49481614  0.02684675  0.50988211  1
  O  O16  1  0.03152577  0.26839070  0.88509438  1
  O  O17  1  0.58514518  0.22066216  0.37798471  1
  O  O18  1  0.54711585  0.24460902  0.70229237  1
  O  O19  1  0.57033522  0.24774310  0.05940826  1
  O  O20  1  0.42412696  0.74839352  0.93984848  1
  O  O21  1  0.46778911  0.75230821  0.60469609  1
  F  F22  1  0.07682536  0.20631296  0.19876194  1
  F  F23  1  0.03537607  0.28213289  0.57414677  1
  F  F24  1  0.40516223  0.73793931  0.28931383  1
  F  F25  1  0.96621245  0.79345789  0.48263634  1
  F  F26  1  0.96207987  0.73626740  0.78206996  1
  F  F27  1  0.97345452  0.72445437  0.12122573  1
