# generated using pymatgen
data_LaAl2BOs2
_symmetry_space_group_name_H-M   'P 1'
_cell_length_a   4.23859366
_cell_length_b   4.23864235
_cell_length_c   5.65705496
_cell_angle_alpha   90.00137968
_cell_angle_beta   90.00140512
_cell_angle_gamma   89.99741543
_symmetry_Int_Tables_number   1
_chemical_formula_structural   LaAl2BOs2
_chemical_formula_sum   'La1 Al2 B1 Os2'
_cell_volume   101.63398514
_cell_formula_units_Z   1
loop_
 _symmetry_equiv_pos_site_id
 _symmetry_equiv_pos_as_xyz
  1  'x, y, z'
loop_
 _atom_site_type_symbol
 _atom_site_label
 _atom_site_symmetry_multiplicity
 _atom_site_fract_x
 _atom_site_fract_y
 _atom_site_fract_z
 _atom_site_occupancy
  La  La0  1  0.99999887  0.99999928  0.49999917  1
  Al  Al1  1  0.50000266  0.50000255  0.74021879  1
  Al  Al2  1  0.49999785  0.49999793  0.25978165  1
  B  B3  1  0.00000022  0.00000008  0.00000002  1
  Os  Os4  1  0.50000030  0.00000022  0.00000030  1
  Os  Os5  1  0.00000009  0.49999995  0.00000007  1
