# generated using pymatgen
data_LaPRh
_symmetry_space_group_name_H-M   'P 1'
_cell_length_a   4.13783581
_cell_length_b   4.13783581
_cell_length_c   7.81640260
_cell_angle_alpha   105.34848614
_cell_angle_beta   105.34848614
_cell_angle_gamma   90.00000000
_symmetry_Int_Tables_number   1
_chemical_formula_structural   LaPRh
_chemical_formula_sum   'La2 P2 Rh2'
_cell_volume   124.10010882
_cell_formula_units_Z   2
loop_
 _symmetry_equiv_pos_site_id
 _symmetry_equiv_pos_as_xyz
  1  'x, y, z'
loop_
 _atom_site_type_symbol
 _atom_site_label
 _atom_site_symmetry_multiplicity
 _atom_site_fract_x
 _atom_site_fract_y
 _atom_site_fract_z
 _atom_site_occupancy
  La  La0  1  0.25426099  0.75426099  0.50852198  1
  La  La1  1  0.00426099  0.00426099  0.00852198  1
  P  P2  1  0.83431307  0.33431307  0.66862615  1
  P  P3  1  0.58431307  0.58431307  0.16862615  1
  Rh  Rh4  1  0.66862593  0.16862593  0.33725187  1
  Rh  Rh5  1  0.41862593  0.41862593  0.83725187  1
