# generated using pymatgen
data_Li3MnSi2O7
_symmetry_space_group_name_H-M   'P 1'
_cell_length_a   4.66534433
_cell_length_b   5.35343697
_cell_length_c   6.75930114
_cell_angle_alpha   99.34430083
_cell_angle_beta   89.14818663
_cell_angle_gamma   64.37012615
_symmetry_Int_Tables_number   1
_chemical_formula_structural   Li3MnSi2O7
_chemical_formula_sum   'Li3 Mn1 Si2 O7'
_cell_volume   149.49891177
_cell_formula_units_Z   1
loop_
 _symmetry_equiv_pos_site_id
 _symmetry_equiv_pos_as_xyz
  1  'x, y, z'
loop_
 _atom_site_type_symbol
 _atom_site_label
 _atom_site_symmetry_multiplicity
 _atom_site_fract_x
 _atom_site_fract_y
 _atom_site_fract_z
 _atom_site_occupancy
  Li  Li0  1  0.71388279  0.57742849  0.84908085  1
  Li  Li1  1  0.83743741  0.29551512  0.44830757  1
  Li  Li2  1  0.28435053  0.43032057  0.16783984  1
  Mn  Mn3  1  0.00061503  0.99291423  0.98822348  1
  Si  Si4  1  0.58459299  0.84485594  0.28754679  1
  Si  Si5  1  0.43836190  0.15822005  0.71067229  1
  O  O6  1  0.75010598  0.91218639  0.79185019  1
  O  O7  1  0.88283539  0.55936066  0.31036051  1
  O  O8  1  0.37177338  0.76866721  0.11328388  1
  O  O9  1  0.68801276  0.08042706  0.21503247  1
  O  O10  1  0.51382635  0.41227304  0.67577630  1
  O  O11  1  0.34015917  0.01787205  0.49733698  1
  O  O12  1  0.13497332  0.25006620  0.88274885  1
