# generated using pymatgen
data_Pr2Co2SiC
_symmetry_space_group_name_H-M   'P 1'
_cell_length_a   3.95073995
_cell_length_b   5.79459962
_cell_length_c   5.79459962
_cell_angle_alpha   62.77006406
_cell_angle_beta   70.06837867
_cell_angle_gamma   70.06837867
_symmetry_Int_Tables_number   1
_chemical_formula_structural   Pr2Co2SiC
_chemical_formula_sum   'Pr2 Co2 Si1 C1'
_cell_volume   108.14161039
_cell_formula_units_Z   1
loop_
 _symmetry_equiv_pos_site_id
 _symmetry_equiv_pos_as_xyz
  1  'x, y, z'
loop_
 _atom_site_type_symbol
 _atom_site_label
 _atom_site_symmetry_multiplicity
 _atom_site_fract_x
 _atom_site_fract_y
 _atom_site_fract_z
 _atom_site_occupancy
  Pr  Pr0  1  0.80975159  0.69024841  0.69024841  1
  Pr  Pr1  1  0.19024841  0.30975159  0.30975159  1
  Co  Co2  1  0.50000000  0.20554518  0.79445482  1
  Co  Co3  1  0.50000000  0.79445482  0.20554518  1
  Si  Si4  1  -0.00000000  0.00000000  0.00000000  1
  C  C5  1  0.50000000  0.50000000  0.50000000  1
