# generated using pymatgen
data_CeAg2
_symmetry_space_group_name_H-M   'P 1'
_cell_length_a   4.97915084
_cell_length_b   5.93225128
_cell_length_c   5.93225128
_cell_angle_alpha   66.78683508
_cell_angle_beta   65.18637778
_cell_angle_gamma   65.18637778
_symmetry_Int_Tables_number   1
_chemical_formula_structural   CeAg2
_chemical_formula_sum   'Ce2 Ag4'
_cell_volume   139.21661815
_cell_formula_units_Z   2
loop_
 _symmetry_equiv_pos_site_id
 _symmetry_equiv_pos_as_xyz
  1  'x, y, z'
loop_
 _atom_site_type_symbol
 _atom_site_label
 _atom_site_symmetry_multiplicity
 _atom_site_fract_x
 _atom_site_fract_y
 _atom_site_fract_z
 _atom_site_occupancy
  Ce  Ce0  1  0.51804730  0.73195270  0.23195270  1
  Ce  Ce1  1  0.48195270  0.26804730  0.76804730  1
  Ag  Ag2  1  0.16646556  0.31438769  0.35268120  1
  Ag  Ag3  1  0.83353444  0.68561231  0.64731880  1
  Ag  Ag4  1  0.83353444  0.14731880  0.18561231  1
  Ag  Ag5  1  0.16646556  0.85268120  0.81438769  1
