# generated using pymatgen
data_EuAu2
_symmetry_space_group_name_H-M   'P 1'
_cell_length_a   4.85368302
_cell_length_b   6.09820295
_cell_length_c   6.09820295
_cell_angle_alpha   75.08130270
_cell_angle_beta   66.54928947
_cell_angle_gamma   66.54928947
_symmetry_Int_Tables_number   1
_chemical_formula_structural   EuAu2
_chemical_formula_sum   'Eu2 Au4'
_cell_volume   150.85683902
_cell_formula_units_Z   2
loop_
 _symmetry_equiv_pos_site_id
 _symmetry_equiv_pos_as_xyz
  1  'x, y, z'
loop_
 _atom_site_type_symbol
 _atom_site_label
 _atom_site_symmetry_multiplicity
 _atom_site_fract_x
 _atom_site_fract_y
 _atom_site_fract_z
 _atom_site_occupancy
  Eu  Eu0  1  0.53960699  0.71039301  0.21039301  1
  Eu  Eu1  1  0.46039301  0.28960699  0.78960699  1
  Au  Au2  1  0.16309705  0.28842237  0.38538353  1
  Au  Au3  1  0.83690295  0.71157763  0.61461647  1
  Au  Au4  1  0.83690295  0.11461647  0.21157763  1
  Au  Au5  1  0.16309705  0.88538353  0.78842237  1
