# generated using pymatgen
data_Li3Co2(SiO4)2
_symmetry_space_group_name_H-M   'P 1'
_cell_length_a   5.21622871
_cell_length_b   5.21620931
_cell_length_c   6.74235372
_cell_angle_alpha   92.36927163
_cell_angle_beta   92.36913088
_cell_angle_gamma   87.15765614
_symmetry_Int_Tables_number   1
_chemical_formula_structural   Li3Co2(SiO4)2
_chemical_formula_sum   'Li3 Co2 Si2 O8'
_cell_volume   182.92805083
_cell_formula_units_Z   1
loop_
 _symmetry_equiv_pos_site_id
 _symmetry_equiv_pos_as_xyz
  1  'x, y, z'
loop_
 _atom_site_type_symbol
 _atom_site_label
 _atom_site_symmetry_multiplicity
 _atom_site_fract_x
 _atom_site_fract_y
 _atom_site_fract_z
 _atom_site_occupancy
  Li  Li0  1  0.57971816  0.10334121  0.54961728  1
  Li  Li1  1  0.89665460  0.42027450  0.45038357  1
  Li  Li2  1  0.13832238  0.86167512  0.49999811  1
  Co  Co3  1  0.80639712  0.19360331  0.99999900  1
  Co  Co4  1  0.20030822  0.79969436  -0.00000001  1
  Si  Si5  1  0.33181373  0.31859412  0.25016123  1
  Si  Si6  1  0.68140885  0.66818507  0.74983807  1
  O  O7  1  0.19250289  0.16750076  0.05323993  1
  O  O8  1  0.64504863  0.27784579  0.25173360  1
  O  O9  1  0.22471707  0.21218525  0.45127460  1
  O  O10  1  0.72215524  0.35494915  0.74826294  1
  O  O11  1  0.23746991  0.62808987  0.23284238  1
  O  O12  1  0.78781511  0.77528196  0.54872324  1
  O  O13  1  0.37191510  0.76253222  0.76715879  1
  O  O14  1  0.83250398  0.80749532  0.94675827  1
