# generated using pymatgen
data_YbAgBi
_symmetry_space_group_name_H-M   'P 1'
_cell_length_a   4.87814493
_cell_length_b   4.87814493
_cell_length_c   7.82133696
_cell_angle_alpha   90.00000000
_cell_angle_beta   90.00000000
_cell_angle_gamma   120.00274618
_symmetry_Int_Tables_number   1
_chemical_formula_structural   YbAgBi
_chemical_formula_sum   'Yb2 Ag2 Bi2'
_cell_volume   161.17920419
_cell_formula_units_Z   2
loop_
 _symmetry_equiv_pos_site_id
 _symmetry_equiv_pos_as_xyz
  1  'x, y, z'
loop_
 _atom_site_type_symbol
 _atom_site_label
 _atom_site_symmetry_multiplicity
 _atom_site_fract_x
 _atom_site_fract_y
 _atom_site_fract_z
 _atom_site_occupancy
  Yb  Yb0  1  0.99999918  0.00000082  0.25081287  1
  Yb  Yb1  1  0.00000082  0.99999918  0.75081287  1
  Ag  Ag2  1  0.33333880  0.66666120  0.43114634  1
  Ag  Ag3  1  0.66666120  0.33333880  0.93114634  1
  Bi  Bi4  1  0.33332902  0.66667098  0.03404079  1
  Bi  Bi5  1  0.66667098  0.33332902  0.53404079  1
