# generated using pymatgen
data_Sr2FeO3
_symmetry_space_group_name_H-M   'P 1'
_cell_length_a   3.56886300
_cell_length_b   3.97703736
_cell_length_c   7.08222480
_cell_angle_alpha   106.30652367
_cell_angle_beta   104.59347626
_cell_angle_gamma   90.00000000
_symmetry_Int_Tables_number   1
_chemical_formula_structural   Sr2FeO3
_chemical_formula_sum   'Sr2 Fe1 O3'
_cell_volume   93.09412109
_cell_formula_units_Z   1
loop_
 _symmetry_equiv_pos_site_id
 _symmetry_equiv_pos_as_xyz
  1  'x, y, z'
loop_
 _atom_site_type_symbol
 _atom_site_label
 _atom_site_symmetry_multiplicity
 _atom_site_fract_x
 _atom_site_fract_y
 _atom_site_fract_z
 _atom_site_occupancy
  Sr  Sr0  1  0.64993473  0.64993473  0.29986946  1
  Sr  Sr1  1  0.35006527  0.35006527  0.70013054  1
  Fe  Fe2  1  -0.00000000  -0.00000000  0.00000000  1
  O  O3  1  0.00000000  0.50000000  0.00000000  1
  O  O4  1  0.84194602  0.84194602  0.68389204  1
  O  O5  1  0.15805398  0.15805398  0.31610796  1
