# generated using pymatgen
data_EuCu2
_symmetry_space_group_name_H-M   'P 1'
_cell_length_a   4.40278408
_cell_length_b   5.63140292
_cell_length_c   5.63140292
_cell_angle_alpha   79.38562144
_cell_angle_beta   66.98864122
_cell_angle_gamma   66.98864122
_symmetry_Int_Tables_number   1
_chemical_formula_structural   EuCu2
_chemical_formula_sum   'Eu2 Cu4'
_cell_volume   118.20651957
_cell_formula_units_Z   2
loop_
 _symmetry_equiv_pos_site_id
 _symmetry_equiv_pos_as_xyz
  1  'x, y, z'
loop_
 _atom_site_type_symbol
 _atom_site_label
 _atom_site_symmetry_multiplicity
 _atom_site_fract_x
 _atom_site_fract_y
 _atom_site_fract_z
 _atom_site_occupancy
  Eu  Eu0  1  0.53978385  0.71021615  0.21021615  1
  Eu  Eu1  1  0.46021615  0.28978385  0.78978385  1
  Cu  Cu2  1  0.16438756  0.28397497  0.38724992  1
  Cu  Cu3  1  0.83561244  0.71602503  0.61275008  1
  Cu  Cu4  1  0.83561244  0.11275008  0.21602503  1
  Cu  Cu5  1  0.16438756  0.88724992  0.78397497  1
