# generated using pymatgen
data_V(SiO3)2
_symmetry_space_group_name_H-M   'P 1'
_cell_length_a   7.27716677
_cell_length_b   7.75267718
_cell_length_c   7.04401285
_cell_angle_alpha   61.06662616
_cell_angle_beta   76.00520654
_cell_angle_gamma   88.05933789
_symmetry_Int_Tables_number   1
_chemical_formula_structural   V(SiO3)2
_chemical_formula_sum   'V3 Si6 O18'
_cell_volume   335.85814968
_cell_formula_units_Z   3
loop_
 _symmetry_equiv_pos_site_id
 _symmetry_equiv_pos_as_xyz
  1  'x, y, z'
loop_
 _atom_site_type_symbol
 _atom_site_label
 _atom_site_symmetry_multiplicity
 _atom_site_fract_x
 _atom_site_fract_y
 _atom_site_fract_z
 _atom_site_occupancy
  V  V0  1  0.22429476  0.73950082  0.20199671  1
  V  V1  1  0.50000000  0.50000000  0.50000000  1
  V  V2  1  0.77570524  0.26049918  0.79800329  1
  Si  Si3  1  0.16744866  0.25682865  0.42876351  1
  Si  Si4  1  0.15789377  0.28166612  0.96316700  1
  Si  Si5  1  0.38595984  0.04490385  0.76833334  1
  Si  Si6  1  0.61404016  0.95509615  0.23166666  1
  Si  Si7  1  0.84210623  0.71833388  0.03683300  1
  Si  Si8  1  0.83255134  0.74317135  0.57123649  1
  O  O9  1  0.04543535  0.66741818  0.09225406  1
  O  O10  1  0.04541489  0.77005933  0.41279628  1
  O  O11  1  0.15680827  0.25089253  0.20714237  1
  O  O12  1  0.28315443  0.46628975  0.37077878  1
  O  O13  1  0.29171545  0.07847612  0.56558023  1
  O  O14  1  0.21906830  0.06968405  0.96467677  1
  O  O15  1  0.32263824  0.45080492  0.75844498  1
  O  O16  1  0.43614095  0.78475526  0.33762926  1
  O  O17  1  0.58218350  0.18225315  0.06644916  1
  O  O18  1  0.41781650  0.81774685  0.93355084  1
  O  O19  1  0.56385905  0.21524474  0.66237074  1
  O  O20  1  0.67736176  0.54919508  0.24155502  1
  O  O21  1  0.78093170  0.93031595  0.03532323  1
  O  O22  1  0.70828455  0.92152388  0.43441977  1
  O  O23  1  0.71684557  0.53371025  0.62922122  1
  O  O24  1  0.84319173  0.74910747  0.79285763  1
  O  O25  1  0.95458511  0.22994067  0.58720372  1
  O  O26  1  0.95456465  0.33258182  0.90774594  1
