# generated using pymatgen
data_ThGeSe
_symmetry_space_group_name_H-M   'P 1'
_cell_length_a   4.07362284
_cell_length_b   4.07362284
_cell_length_c   9.23409103
_cell_angle_alpha   102.74282290
_cell_angle_beta   102.74282290
_cell_angle_gamma   90.00000000
_symmetry_Int_Tables_number   1
_chemical_formula_structural   ThGeSe
_chemical_formula_sum   'Th2 Ge2 Se2'
_cell_volume   145.58809041
_cell_formula_units_Z   2
loop_
 _symmetry_equiv_pos_site_id
 _symmetry_equiv_pos_as_xyz
  1  'x, y, z'
loop_
 _atom_site_type_symbol
 _atom_site_label
 _atom_site_symmetry_multiplicity
 _atom_site_fract_x
 _atom_site_fract_y
 _atom_site_fract_z
 _atom_site_occupancy
  Th  Th0  1  0.86685021  0.86685021  0.73370042  1
  Th  Th1  1  0.13314979  0.13314979  0.26629958  1
  Ge  Ge2  1  0.50000000  0.00000000  0.00000000  1
  Ge  Ge3  1  0.00000000  0.50000000  0.00000000  1
  Se  Se4  1  0.68729556  0.68729556  0.37459112  1
  Se  Se5  1  0.31270444  0.31270444  0.62540888  1
