# generated using pymatgen
data_ScZnPd
_symmetry_space_group_name_H-M   'P 1'
_cell_length_a   4.32464036
_cell_length_b   5.06503856
_cell_length_c   5.31871328
_cell_angle_alpha   90.00000000
_cell_angle_beta   90.00000000
_cell_angle_gamma   115.27167162
_symmetry_Int_Tables_number   1
_chemical_formula_structural   ScZnPd
_chemical_formula_sum   'Sc2 Zn2 Pd2'
_cell_volume   105.35347232
_cell_formula_units_Z   2
loop_
 _symmetry_equiv_pos_site_id
 _symmetry_equiv_pos_as_xyz
  1  'x, y, z'
loop_
 _atom_site_type_symbol
 _atom_site_label
 _atom_site_symmetry_multiplicity
 _atom_site_fract_x
 _atom_site_fract_y
 _atom_site_fract_z
 _atom_site_occupancy
  Sc  Sc0  1  0.29385137  0.58770275  0.25000000  1
  Sc  Sc1  1  0.70614863  0.41229725  0.75000000  1
  Zn  Zn2  1  -0.00000000  -0.00000000  0.50000000  1
  Zn  Zn3  1  -0.00000000  -0.00000000  -0.00000000  1
  Pd  Pd4  1  0.59766907  0.19533814  0.25000000  1
  Pd  Pd5  1  0.40233093  0.80466186  0.75000000  1
