# generated using pymatgen
data_YAlZn
_symmetry_space_group_name_H-M   'P 1'
_cell_length_a   4.50263030
_cell_length_b   4.50263030
_cell_length_c   7.11570995
_cell_angle_alpha   90.00000000
_cell_angle_beta   90.00000000
_cell_angle_gamma   120.00712587
_symmetry_Int_Tables_number   1
_chemical_formula_structural   YAlZn
_chemical_formula_sum   'Y2 Al2 Zn2'
_cell_volume   124.92525887
_cell_formula_units_Z   2
loop_
 _symmetry_equiv_pos_site_id
 _symmetry_equiv_pos_as_xyz
  1  'x, y, z'
loop_
 _atom_site_type_symbol
 _atom_site_label
 _atom_site_symmetry_multiplicity
 _atom_site_fract_x
 _atom_site_fract_y
 _atom_site_fract_z
 _atom_site_occupancy
  Y  Y0  1  0.00000000  0.00000000  0.50000000  1
  Y  Y1  1  0.00000000  0.00000000  0.00000000  1
  Al  Al2  1  0.66667964  0.33332036  0.75000000  1
  Al  Al3  1  0.33332036  0.66667964  0.25000000  1
  Zn  Zn4  1  0.66668164  0.33331836  0.25000000  1
  Zn  Zn5  1  0.33331836  0.66668164  0.75000000  1
