# generated using pymatgen
data_Pr2Sb
_symmetry_space_group_name_H-M   'P 1'
_cell_length_a   4.61687111
_cell_length_b   4.61687111
_cell_length_c   9.54764748
_cell_angle_alpha   103.99165435
_cell_angle_beta   103.99165435
_cell_angle_gamma   90.00000000
_symmetry_Int_Tables_number   1
_chemical_formula_structural   Pr2Sb
_chemical_formula_sum   'Pr4 Sb2'
_cell_volume   191.24626543
_cell_formula_units_Z   2
loop_
 _symmetry_equiv_pos_site_id
 _symmetry_equiv_pos_as_xyz
  1  'x, y, z'
loop_
 _atom_site_type_symbol
 _atom_site_label
 _atom_site_symmetry_multiplicity
 _atom_site_fract_x
 _atom_site_fract_y
 _atom_site_fract_z
 _atom_site_occupancy
  Pr  Pr0  1  0.50000000  0.00000000  0.00000000  1
  Pr  Pr1  1  0.00000000  0.50000000  0.00000000  1
  Pr  Pr2  1  0.67983584  0.67983584  0.35967167  1
  Pr  Pr3  1  0.32016416  0.32016416  0.64032833  1
  Sb  Sb4  1  0.86202412  0.86202412  0.72404823  1
  Sb  Sb5  1  0.13797588  0.13797588  0.27595177  1
