# generated using pymatgen
data_DyCu2
_symmetry_space_group_name_H-M   'P 1'
_cell_length_a   4.30917772
_cell_length_b   5.41209080
_cell_length_c   5.41209080
_cell_angle_alpha   77.76992138
_cell_angle_beta   66.54014114
_cell_angle_gamma   66.54014114
_symmetry_Int_Tables_number   1
_chemical_formula_structural   DyCu2
_chemical_formula_sum   'Dy2 Cu4'
_cell_volume   106.00099997
_cell_formula_units_Z   2
loop_
 _symmetry_equiv_pos_site_id
 _symmetry_equiv_pos_as_xyz
  1  'x, y, z'
loop_
 _atom_site_type_symbol
 _atom_site_label
 _atom_site_symmetry_multiplicity
 _atom_site_fract_x
 _atom_site_fract_y
 _atom_site_fract_z
 _atom_site_occupancy
  Dy  Dy0  1  0.54151132  0.70848868  0.20848868  1
  Dy  Dy1  1  0.45848868  0.29151132  0.79151132  1
  Cu  Cu2  1  0.16541934  0.28469864  0.38446269  1
  Cu  Cu3  1  0.83458066  0.71530136  0.61553731  1
  Cu  Cu4  1  0.83458066  0.11553731  0.21530136  1
  Cu  Cu5  1  0.16541934  0.88446269  0.78469864  1
