# generated using pymatgen
data_Cr5(Si2O7)2
_symmetry_space_group_name_H-M   'P 1'
_cell_length_a   7.39774063
_cell_length_b   7.88187566
_cell_length_c   5.67118529
_cell_angle_alpha   90.95609907
_cell_angle_beta   106.06973076
_cell_angle_gamma   112.10507350
_symmetry_Int_Tables_number   1
_chemical_formula_structural   Cr5(Si2O7)2
_chemical_formula_sum   'Cr5 Si4 O14'
_cell_volume   291.67351431
_cell_formula_units_Z   1
loop_
 _symmetry_equiv_pos_site_id
 _symmetry_equiv_pos_as_xyz
  1  'x, y, z'
loop_
 _atom_site_type_symbol
 _atom_site_label
 _atom_site_symmetry_multiplicity
 _atom_site_fract_x
 _atom_site_fract_y
 _atom_site_fract_z
 _atom_site_occupancy
  Cr  Cr0  1  0.00000000  0.00000000  0.00000000  1
  Cr  Cr1  1  0.38829406  0.81178210  0.07451511  1
  Cr  Cr2  1  0.58128849  0.69840739  0.64492184  1
  Cr  Cr3  1  0.41871151  0.30159261  0.35507816  1
  Cr  Cr4  1  0.61170594  0.18821790  0.92548489  1
  Si  Si5  1  0.23341176  0.86449768  0.49739053  1
  Si  Si6  1  0.20932225  0.39029510  0.77774692  1
  Si  Si7  1  0.79067775  0.60970490  0.22225308  1
  Si  Si8  1  0.76658824  0.13550232  0.50260947  1
  O  O9  1  0.20665338  0.58160895  0.86141607  1
  O  O10  1  0.34933669  0.95668755  0.78451754  1
  O  O11  1  0.00794549  0.26105550  0.54760498  1
  O  O12  1  0.35636580  0.74875307  0.41394281  1
  O  O13  1  0.22301450  0.26202138  0.00921136  1
  O  O14  1  0.40510531  0.42850361  0.66036728  1
  O  O15  1  0.23498072  0.02847704  0.31533625  1
  O  O16  1  0.76501928  0.97152296  0.68466375  1
  O  O17  1  0.59489469  0.57149639  0.33963272  1
  O  O18  1  0.77698550  0.73797862  0.99078864  1
  O  O19  1  0.64363420  0.25124693  0.58605719  1
  O  O20  1  0.99205451  0.73894450  0.45239502  1
  O  O21  1  0.65066331  0.04331245  0.21548246  1
  O  O22  1  0.79334662  0.41839105  0.13858393  1
