# generated using pymatgen
data_HoOF
_symmetry_space_group_name_H-M   'P 1'
_cell_length_a   3.80302869
_cell_length_b   3.80302869
_cell_length_c   6.69814026
_cell_angle_alpha   73.50767446
_cell_angle_beta   73.50767446
_cell_angle_gamma   59.99998457
_symmetry_Int_Tables_number   1
_chemical_formula_structural   HoOF
_chemical_formula_sum   'Ho2 O2 F2'
_cell_volume   79.26088141
_cell_formula_units_Z   2
loop_
 _symmetry_equiv_pos_site_id
 _symmetry_equiv_pos_as_xyz
  1  'x, y, z'
loop_
 _atom_site_type_symbol
 _atom_site_label
 _atom_site_symmetry_multiplicity
 _atom_site_fract_x
 _atom_site_fract_y
 _atom_site_fract_z
 _atom_site_occupancy
  Ho  Ho0  1  0.74080255  0.74080255  0.77759234  1
  Ho  Ho1  1  0.25919745  0.25919745  0.22240766  1
  O  O2  1  0.62162045  0.62162045  0.13513864  1
  O  O3  1  0.37837955  0.37837955  0.86486136  1
  F  F4  1  0.86979659  0.86979659  0.39061024  1
  F  F5  1  0.13020341  0.13020341  0.60938976  1
