# generated using pymatgen
data_LaAu2
_symmetry_space_group_name_H-M   'P 1'
_cell_length_a   4.77366380
_cell_length_b   6.05749760
_cell_length_c   6.05749760
_cell_angle_alpha   74.95823159
_cell_angle_beta   66.79455449
_cell_angle_gamma   66.79455449
_symmetry_Int_Tables_number   1
_chemical_formula_structural   LaAu2
_chemical_formula_sum   'La2 Au4'
_cell_volume   146.83457536
_cell_formula_units_Z   2
loop_
 _symmetry_equiv_pos_site_id
 _symmetry_equiv_pos_as_xyz
  1  'x, y, z'
loop_
 _atom_site_type_symbol
 _atom_site_label
 _atom_site_symmetry_multiplicity
 _atom_site_fract_x
 _atom_site_fract_y
 _atom_site_fract_z
 _atom_site_occupancy
  La  La0  1  0.53416761  0.71583239  0.21583239  1
  La  La1  1  0.46583239  0.28416761  0.78416761  1
  Au  Au2  1  0.16389634  0.29795145  0.37425587  1
  Au  Au3  1  0.83610366  0.70204855  0.62574413  1
  Au  Au4  1  0.83610366  0.12574413  0.20204855  1
  Au  Au5  1  0.16389634  0.87425587  0.79795145  1
