# generated using pymatgen
data_DyOF
_symmetry_space_group_name_H-M   'P 1'
_cell_length_a   3.82136112
_cell_length_b   3.82136112
_cell_length_c   6.74230063
_cell_angle_alpha   73.53754467
_cell_angle_beta   73.53754467
_cell_angle_gamma   60.00000170
_symmetry_Int_Tables_number   1
_chemical_formula_structural   DyOF
_chemical_formula_sum   'Dy2 O2 F2'
_cell_volume   80.57156084
_cell_formula_units_Z   2
loop_
 _symmetry_equiv_pos_site_id
 _symmetry_equiv_pos_as_xyz
  1  'x, y, z'
loop_
 _atom_site_type_symbol
 _atom_site_label
 _atom_site_symmetry_multiplicity
 _atom_site_fract_x
 _atom_site_fract_y
 _atom_site_fract_z
 _atom_site_occupancy
  Dy  Dy0  1  0.74085676  0.74085676  0.77742972  1
  Dy  Dy1  1  0.25914324  0.25914324  0.22257028  1
  O  O2  1  0.62190362  0.62190362  0.13428914  1
  O  O3  1  0.37809638  0.37809638  0.86571086  1
  F  F4  1  0.87003205  0.87003205  0.38990384  1
  F  F5  1  0.12996795  0.12996795  0.61009616  1
