# generated using pymatgen
data_Ga2Ru
_symmetry_space_group_name_H-M   'P 1'
_cell_length_a   4.78290502
_cell_length_b   4.78290502
_cell_length_c   4.99981412
_cell_angle_alpha   103.83396129
_cell_angle_beta   103.83396129
_cell_angle_gamma   120.00623841
_symmetry_Int_Tables_number   1
_chemical_formula_structural   Ga2Ru
_chemical_formula_sum   'Ga4 Ru2'
_cell_volume   86.98459036
_cell_formula_units_Z   2
loop_
 _symmetry_equiv_pos_site_id
 _symmetry_equiv_pos_as_xyz
  1  'x, y, z'
loop_
 _atom_site_type_symbol
 _atom_site_label
 _atom_site_symmetry_multiplicity
 _atom_site_fract_x
 _atom_site_fract_y
 _atom_site_fract_z
 _atom_site_occupancy
  Ga  Ga0  1  0.95616836  0.54383164  0.75000000  1
  Ga  Ga1  1  0.29383164  0.20616836  0.75000000  1
  Ga  Ga2  1  0.04383164  0.45616836  0.25000000  1
  Ga  Ga3  1  0.70616836  0.79383164  0.25000000  1
  Ru  Ru4  1  0.62500000  0.87500000  0.75000000  1
  Ru  Ru5  1  0.37500000  0.12500000  0.25000000  1
