# generated using pymatgen
data_ErOF
_symmetry_space_group_name_H-M   'P 1'
_cell_length_a   3.78925635
_cell_length_b   3.78925635
_cell_length_c   6.69884773
_cell_angle_alpha   73.57087989
_cell_angle_beta   73.57087989
_cell_angle_gamma   60.00000787
_symmetry_Int_Tables_number   1
_chemical_formula_structural   ErOF
_chemical_formula_sum   'Er2 O2 F2'
_cell_volume   78.73141026
_cell_formula_units_Z   2
loop_
 _symmetry_equiv_pos_site_id
 _symmetry_equiv_pos_as_xyz
  1  'x, y, z'
loop_
 _atom_site_type_symbol
 _atom_site_label
 _atom_site_symmetry_multiplicity
 _atom_site_fract_x
 _atom_site_fract_y
 _atom_site_fract_z
 _atom_site_occupancy
  Er  Er0  1  0.74076055  0.74076055  0.77771834  1
  Er  Er1  1  0.25923945  0.25923945  0.22228166  1
  O  O2  1  0.62164826  0.62164826  0.13505523  1
  O  O3  1  0.37835174  0.37835174  0.86494477  1
  F  F4  1  0.87026329  0.87026329  0.38921012  1
  F  F5  1  0.12973671  0.12973671  0.61078988  1
