# generated using pymatgen
data_SrMoO3
_symmetry_space_group_name_H-M   'P 1'
_cell_length_a   5.66247968
_cell_length_b   5.77399583
_cell_length_c   5.77399583
_cell_angle_alpha   60.07718574
_cell_angle_beta   60.63686133
_cell_angle_gamma   60.63686133
_symmetry_Int_Tables_number   1
_chemical_formula_structural   SrMoO3
_chemical_formula_sum   'Sr2 Mo2 O6'
_cell_volume   134.83922314
_cell_formula_units_Z   2
loop_
 _symmetry_equiv_pos_site_id
 _symmetry_equiv_pos_as_xyz
  1  'x, y, z'
loop_
 _atom_site_type_symbol
 _atom_site_label
 _atom_site_symmetry_multiplicity
 _atom_site_fract_x
 _atom_site_fract_y
 _atom_site_fract_z
 _atom_site_occupancy
  Sr  Sr0  1  0.75000000  0.74521388  0.75478612  1
  Sr  Sr1  1  0.25000000  0.25478612  0.24521388  1
  Mo  Mo2  1  0.50000000  0.50000000  0.50000000  1
  Mo  Mo3  1  -0.00000000  0.00000000  0.00000000  1
  O  O4  1  0.75000000  0.17729110  0.32270890  1
  O  O5  1  0.25000000  0.82270890  0.67729110  1
  O  O6  1  0.20696775  0.29303225  0.79303225  1
  O  O7  1  0.29303225  0.70696775  0.20696775  1
  O  O8  1  0.70696775  0.29303225  0.79303225  1
  O  O9  1  0.79303225  0.70696775  0.20696775  1
