# generated using pymatgen
data_VAs2
_symmetry_space_group_name_H-M   'P 1'
_cell_length_a   3.29442214
_cell_length_b   4.84940230
_cell_length_c   6.77531794
_cell_angle_alpha   78.61885310
_cell_angle_beta   75.92927301
_cell_angle_gamma   70.14303952
_symmetry_Int_Tables_number   1
_chemical_formula_structural   VAs2
_chemical_formula_sum   'V2 As4'
_cell_volume   97.96776317
_cell_formula_units_Z   2
loop_
 _symmetry_equiv_pos_site_id
 _symmetry_equiv_pos_as_xyz
  1  'x, y, z'
loop_
 _atom_site_type_symbol
 _atom_site_label
 _atom_site_symmetry_multiplicity
 _atom_site_fract_x
 _atom_site_fract_y
 _atom_site_fract_z
 _atom_site_occupancy
  V  V0  1  0.15375564  0.88597564  0.80651307  1
  V  V1  1  0.84624436  0.11402436  0.19348693  1
  As  As2  1  0.40403699  0.29872595  0.89320006  1
  As  As3  1  0.59596301  0.70127405  0.10679994  1
  As  As4  1  0.85189221  0.76149824  0.53471733  1
  As  As5  1  0.14810779  0.23850176  0.46528267  1
