# generated using pymatgen
data_Eu2Cr2O5
_symmetry_space_group_name_H-M   'P 1'
_cell_length_a   5.49207832
_cell_length_b   5.61075669
_cell_length_c   8.80050134
_cell_angle_alpha   108.58884819
_cell_angle_beta   108.18173871
_cell_angle_gamma   90.00000000
_symmetry_Int_Tables_number   1
_chemical_formula_structural   Eu2Cr2O5
_chemical_formula_sum   'Eu4 Cr4 O10'
_cell_volume   242.70954708
_cell_formula_units_Z   2
loop_
 _symmetry_equiv_pos_site_id
 _symmetry_equiv_pos_as_xyz
  1  'x, y, z'
loop_
 _atom_site_type_symbol
 _atom_site_label
 _atom_site_symmetry_multiplicity
 _atom_site_fract_x
 _atom_site_fract_y
 _atom_site_fract_z
 _atom_site_occupancy
  Eu  Eu0  1  0.61567868  0.12405642  0.21984487  1
  Eu  Eu1  1  0.39583381  0.87594358  0.78015513  1
  Eu  Eu2  1  0.11567868  0.59578845  0.21984487  1
  Eu  Eu3  1  0.89583381  0.40421155  0.78015513  1
  Cr  Cr4  1  0.00971677  0.00000000  0.00000000  1
  Cr  Cr5  1  0.50971677  0.50000000  0.00000000  1
  Cr  Cr6  1  0.22559706  0.20455183  0.50000000  1
  Cr  Cr7  1  0.72559706  0.79544817  0.50000000  1
  O  O8  1  0.24386493  0.24102275  0.97390694  1
  O  O9  1  0.26995799  0.75897725  0.02609306  1
  O  O10  1  0.74386493  0.23288419  0.97390694  1
  O  O11  1  0.76995799  0.76711581  0.02609306  1
  O  O12  1  0.15235217  0.18183353  0.25911196  1
  O  O13  1  0.89324021  0.81816647  0.74088804  1
  O  O14  1  0.65235217  0.57727843  0.25911196  1
  O  O15  1  0.39324021  0.42272157  0.74088804  1
  O  O16  1  0.85775839  0.14213319  0.50000000  1
  O  O17  1  0.35775839  0.85786681  0.50000000  1
