# generated using pymatgen
data_LiVF3
_symmetry_space_group_name_H-M   'P 1'
_cell_length_a   7.22086247
_cell_length_b   7.22086212
_cell_length_c   5.86504572
_cell_angle_alpha   70.14136851
_cell_angle_beta   109.85862840
_cell_angle_gamma   115.56536063
_symmetry_Int_Tables_number   1
_chemical_formula_structural   LiVF3
_chemical_formula_sum   'Li4 V4 F12'
_cell_volume   252.65341098
_cell_formula_units_Z   4
loop_
 _symmetry_equiv_pos_site_id
 _symmetry_equiv_pos_as_xyz
  1  'x, y, z'
loop_
 _atom_site_type_symbol
 _atom_site_label
 _atom_site_symmetry_multiplicity
 _atom_site_fract_x
 _atom_site_fract_y
 _atom_site_fract_z
 _atom_site_occupancy
  Li  Li0  1  0.06851397  0.06851397  0.75000000  1
  Li  Li1  1  0.31483995  0.31483995  0.25000000  1
  Li  Li2  1  0.68516005  0.68516005  0.75000000  1
  Li  Li3  1  0.93148603  0.93148603  0.25000000  1
  V  V4  1  0.16311125  0.66276612  0.69254038  1
  V  V5  1  0.33723388  0.83688875  0.19254038  1
  V  V6  1  0.66276612  0.16311125  0.80745962  1
  V  V7  1  0.83688875  0.33723388  0.30745962  1
  F  F8  1  0.97285578  0.33633093  0.70704645  1
  F  F9  1  0.07513752  0.21636550  0.38414436  1
  F  F10  1  0.41264513  0.67987235  0.56740761  1
  F  F11  1  0.32012765  0.58735487  0.06740761  1
  F  F12  1  0.21636550  0.07513752  0.11585564  1
  F  F13  1  0.33633093  0.97285578  0.79295355  1
  F  F14  1  0.66366907  0.02714422  0.20704645  1
  F  F15  1  0.78363450  0.92486248  0.88414436  1
  F  F16  1  0.67987235  0.41264513  0.93259239  1
  F  F17  1  0.58735487  0.32012765  0.43259239  1
  F  F18  1  0.92486248  0.78363450  0.61585564  1
  F  F19  1  0.02714422  0.66366907  0.29295355  1
