# generated using pymatgen
data_Hf2Bi
_symmetry_space_group_name_H-M   'P 1'
_cell_length_a   3.77360440
_cell_length_b   6.34586250
_cell_length_c   6.66700083
_cell_angle_alpha   109.66093570
_cell_angle_beta   90.00000009
_cell_angle_gamma   107.29717746
_symmetry_Int_Tables_number   1
_chemical_formula_structural   Hf2Bi
_chemical_formula_sum   'Hf4 Bi2'
_cell_volume   142.65484770
_cell_formula_units_Z   2
loop_
 _symmetry_equiv_pos_site_id
 _symmetry_equiv_pos_as_xyz
  1  'x, y, z'
loop_
 _atom_site_type_symbol
 _atom_site_label
 _atom_site_symmetry_multiplicity
 _atom_site_fract_x
 _atom_site_fract_y
 _atom_site_fract_z
 _atom_site_occupancy
  Hf  Hf0  1  0.16393461  0.32786922  0.08975905  1
  Hf  Hf1  1  0.83606539  0.67213078  0.91024095  1
  Hf  Hf2  1  0.49672235  0.99344471  0.76490628  1
  Hf  Hf3  1  0.50327765  0.00655529  0.23509372  1
  Bi  Bi4  1  0.84313875  0.68627749  0.39152649  1
  Bi  Bi5  1  0.15686125  0.31372251  0.60847351  1
