# generated using pymatgen
data_Eu2Co2O5
_symmetry_space_group_name_H-M   'P 1'
_cell_length_a   5.33166478
_cell_length_b   5.67215221
_cell_length_c   8.64454095
_cell_angle_alpha   109.15210600
_cell_angle_beta   107.96182988
_cell_angle_gamma   90.00000000
_symmetry_Int_Tables_number   1
_chemical_formula_structural   Eu2Co2O5
_chemical_formula_sum   'Eu4 Co4 O10'
_cell_volume   233.42858141
_cell_formula_units_Z   2
loop_
 _symmetry_equiv_pos_site_id
 _symmetry_equiv_pos_as_xyz
  1  'x, y, z'
loop_
 _atom_site_type_symbol
 _atom_site_label
 _atom_site_symmetry_multiplicity
 _atom_site_fract_x
 _atom_site_fract_y
 _atom_site_fract_z
 _atom_site_occupancy
  Eu  Eu0  1  0.61322313  0.13542154  0.22090876  1
  Eu  Eu1  1  0.39231437  0.86457846  0.77909124  1
  Eu  Eu2  1  0.11322313  0.58548723  0.22090876  1
  Eu  Eu3  1  0.89231437  0.41451277  0.77909124  1
  Co  Co4  1  0.01146284  -0.00000000  -0.00000000  1
  Co  Co5  1  0.51146284  0.50000000  -0.00000000  1
  Co  Co6  1  0.21709452  0.18296712  0.50000000  1
  Co  Co7  1  0.71709452  0.81703288  0.50000000  1
  O  O8  1  0.24284009  0.23882400  0.96885176  1
  O  O9  1  0.27398834  0.76117600  0.03114824  1
  O  O10  1  0.74284009  0.23002775  0.96885176  1
  O  O11  1  0.77398834  0.76997225  0.03114824  1
  O  O12  1  0.17527129  0.20838307  0.27501530  1
  O  O13  1  0.90025599  0.79161693  0.72498470  1
  O  O14  1  0.67527129  0.56663223  0.27501530  1
  O  O15  1  0.40025599  0.43336777  0.72498470  1
  O  O16  1  0.83754944  0.14585487  0.50000000  1
  O  O17  1  0.33754944  0.85414513  0.50000000  1
