# generated using pymatgen
data_TmGeAu
_symmetry_space_group_name_H-M   'P 1'
_cell_length_a   4.44311793
_cell_length_b   4.44311793
_cell_length_c   7.23009391
_cell_angle_alpha   90.00000000
_cell_angle_beta   90.00000000
_cell_angle_gamma   120.00991928
_symmetry_Int_Tables_number   1
_chemical_formula_structural   TmGeAu
_chemical_formula_sum   'Tm2 Ge2 Au2'
_cell_volume   123.59668815
_cell_formula_units_Z   2
loop_
 _symmetry_equiv_pos_site_id
 _symmetry_equiv_pos_as_xyz
  1  'x, y, z'
loop_
 _atom_site_type_symbol
 _atom_site_label
 _atom_site_symmetry_multiplicity
 _atom_site_fract_x
 _atom_site_fract_y
 _atom_site_fract_z
 _atom_site_occupancy
  Tm  Tm0  1  0.99994598  0.00005402  0.49759653  1
  Tm  Tm1  1  0.00005402  0.99994598  0.99759653  1
  Ge  Ge2  1  0.33331894  0.66668106  0.79375153  1
  Ge  Ge3  1  0.66668106  0.33331894  0.29375153  1
  Au  Au4  1  0.33338849  0.66661151  0.20665194  1
  Au  Au5  1  0.66661151  0.33338849  0.70665194  1
