# generated using pymatgen
data_FePRh
_symmetry_space_group_name_H-M   'P 1'
_cell_length_a   3.60944437
_cell_length_b   6.09933478
_cell_length_c   6.10092076
_cell_angle_alpha   119.99139846
_cell_angle_beta   90.00000000
_cell_angle_gamma   90.00000000
_symmetry_Int_Tables_number   1
_chemical_formula_structural   FePRh
_chemical_formula_sum   'Fe3 P3 Rh3'
_cell_volume   116.32859323
_cell_formula_units_Z   3
loop_
 _symmetry_equiv_pos_site_id
 _symmetry_equiv_pos_as_xyz
  1  'x, y, z'
loop_
 _atom_site_type_symbol
 _atom_site_label
 _atom_site_symmetry_multiplicity
 _atom_site_fract_x
 _atom_site_fract_y
 _atom_site_fract_z
 _atom_site_occupancy
  Fe  Fe0  1  0.50000000  0.61035171  1.00000000  1
  Fe  Fe1  1  0.50000000  0.38969915  0.38962525  1
  Fe  Fe2  1  0.50000000  0.00007389  0.61037475  1
  P  P3  1  -0.00000000  0.33320103  0.66659275  1
  P  P4  1  -0.00000000  0.66660828  0.33340725  1
  P  P5  1  0.50000000  -0.00002345  1.00000000  1
  Rh  Rh6  1  -0.00000000  0.26868631  0.00000000  1
  Rh  Rh7  1  -0.00000000  0.73129544  0.73128780  1
  Rh  Rh8  1  -0.00000000  0.00000764  0.26871220  1
