# generated using pymatgen
data_Li6SbS2
_symmetry_space_group_name_H-M   'P 1'
_cell_length_a   6.00821416
_cell_length_b   6.18685988
_cell_length_c   18.03654067
_cell_angle_alpha   90.00000000
_cell_angle_beta   100.54084923
_cell_angle_gamma   90.00000000
_symmetry_Int_Tables_number   1
_chemical_formula_structural   Li6SbS2
_chemical_formula_sum   'Li24 Sb4 S8'
_cell_volume   659.13982405
_cell_formula_units_Z   4
loop_
 _symmetry_equiv_pos_site_id
 _symmetry_equiv_pos_as_xyz
  1  'x, y, z'
loop_
 _atom_site_type_symbol
 _atom_site_label
 _atom_site_symmetry_multiplicity
 _atom_site_fract_x
 _atom_site_fract_y
 _atom_site_fract_z
 _atom_site_occupancy
  Li  Li0  1  0.03747952  0.74400826  0.82201307  1
  Li  Li1  1  0.03997563  0.23955651  0.83583591  1
  Li  Li2  1  0.08849091  0.83163818  0.97124100  1
  Li  Li3  1  0.03747952  0.75599174  0.32201307  1
  Li  Li4  1  0.03997563  0.26044349  0.33583591  1
  Li  Li5  1  0.08849091  0.66836182  0.47124100  1
  Li  Li6  1  0.46290491  0.25814830  0.49840394  1
  Li  Li7  1  0.47432427  0.71718423  0.66981158  1
  Li  Li8  1  0.47803352  0.26329310  0.67304995  1
  Li  Li9  1  0.52196648  0.76329310  0.82695005  1
  Li  Li10  1  0.46290491  0.24185170  0.99840394  1
  Li  Li11  1  0.52567573  0.21718423  0.83018842  1
  Li  Li12  1  0.47432427  0.78281577  0.16981158  1
  Li  Li13  1  0.53709509  0.75814830  0.00159606  1
  Li  Li14  1  0.47803352  0.23670690  0.17304995  1
  Li  Li15  1  0.52196648  0.73670690  0.32695005  1
  Li  Li16  1  0.52567573  0.28281577  0.33018842  1
  Li  Li17  1  0.53709509  0.74185170  0.50159606  1
  Li  Li18  1  0.91150909  0.33163818  0.52875900  1
  Li  Li19  1  0.96002437  0.73955651  0.66416409  1
  Li  Li20  1  0.96252048  0.24400826  0.67798693  1
  Li  Li21  1  0.91150909  0.16836182  0.02875900  1
  Li  Li22  1  0.96002437  0.76044349  0.16416409  1
  Li  Li23  1  0.96252048  0.25599174  0.17798693  1
  Sb  Sb24  1  0.18228852  0.99450484  0.56769625  1
  Sb  Sb25  1  0.18228852  0.50549516  0.06769625  1
  Sb  Sb26  1  0.81771148  0.49450484  0.93230375  1
  Sb  Sb27  1  0.81771148  0.00549516  0.43230375  1
  S  S28  1  0.26066590  0.49035708  0.75231574  1
  S  S29  1  0.31301092  0.98780757  0.89900716  1
  S  S30  1  0.26066590  0.00964292  0.25231574  1
  S  S31  1  0.31301092  0.51219243  0.39900716  1
  S  S32  1  0.68698908  0.48780757  0.60099284  1
  S  S33  1  0.73933410  0.99035708  0.74768426  1
  S  S34  1  0.68698908  0.01219243  0.10099284  1
  S  S35  1  0.73933410  0.50964292  0.24768426  1
