# generated using pymatgen
data_LaAsRh
_symmetry_space_group_name_H-M   'P 1'
_cell_length_a   4.21684758
_cell_length_b   4.21684758
_cell_length_c   8.11798695
_cell_angle_alpha   105.05359636
_cell_angle_beta   105.05359636
_cell_angle_gamma   90.00000000
_symmetry_Int_Tables_number   1
_chemical_formula_structural   LaAsRh
_chemical_formula_sum   'La2 As2 Rh2'
_cell_volume   134.26240256
_cell_formula_units_Z   2
loop_
 _symmetry_equiv_pos_site_id
 _symmetry_equiv_pos_as_xyz
  1  'x, y, z'
loop_
 _atom_site_type_symbol
 _atom_site_label
 _atom_site_symmetry_multiplicity
 _atom_site_fract_x
 _atom_site_fract_y
 _atom_site_fract_z
 _atom_site_occupancy
  La  La0  1  0.25032749  0.75032749  0.50065497  1
  La  La1  1  0.00032749  0.00032749  0.00065497  1
  As  As2  1  0.83025636  0.33025636  0.66051272  1
  As  As3  1  0.58025636  0.58025636  0.16051272  1
  Rh  Rh4  1  0.66521615  0.16521615  0.33043231  1
  Rh  Rh5  1  0.41521615  0.41521615  0.83043231  1
