# generated using pymatgen
data_Li2V(CO3)2
_symmetry_space_group_name_H-M   'P 1'
_cell_length_a   4.89776803
_cell_length_b   6.42561619
_cell_length_c   8.27133161
_cell_angle_alpha   105.40651925
_cell_angle_beta   89.99989338
_cell_angle_gamma   90.00007386
_symmetry_Int_Tables_number   1
_chemical_formula_structural   Li2V(CO3)2
_chemical_formula_sum   'Li4 V2 C4 O12'
_cell_volume   250.95440533
_cell_formula_units_Z   2
loop_
 _symmetry_equiv_pos_site_id
 _symmetry_equiv_pos_as_xyz
  1  'x, y, z'
loop_
 _atom_site_type_symbol
 _atom_site_label
 _atom_site_symmetry_multiplicity
 _atom_site_fract_x
 _atom_site_fract_y
 _atom_site_fract_z
 _atom_site_occupancy
  Li  Li0  1  0.54060532  0.07369278  0.93231134  1
  Li  Li1  1  0.95595808  0.58581809  0.70416209  1
  Li  Li2  1  0.45594849  0.41418132  0.29583669  1
  Li  Li3  1  0.04060450  0.92630875  0.06769210  1
  V  V4  1  0.50486053  0.22368453  0.60702634  1
  V  V5  1  0.00485907  0.77631284  0.39297391  1
  C  C6  1  0.03054488  0.22235851  0.84601865  1
  C  C7  1  0.46420987  0.74631781  0.61277583  1
  C  C8  1  0.96419676  0.25368845  0.38722213  1
  C  C9  1  0.53053209  0.77764659  0.15397900  1
  O  O10  1  0.92120771  0.11730487  0.94301525  1
  O  O11  1  0.29501160  0.23885079  0.83894167  1
  O  O12  1  0.87998861  0.31522196  0.75641572  1
  O  O13  1  0.56942651  0.57490619  0.63981907  1
  O  O14  1  0.12442968  0.11362807  0.42865524  1
  O  O15  1  0.20316455  0.78059378  0.62831222  1
  O  O16  1  0.70316480  0.21940978  0.37168698  1
  O  O17  1  0.62443310  0.88636750  0.57134103  1
  O  O18  1  0.06942133  0.42509252  0.36018466  1
  O  O19  1  0.37998484  0.68477808  0.24358341  1
  O  O20  1  0.79501249  0.76114856  0.16106061  1
  O  O21  1  0.42121216  0.88269324  0.05699006  1
