# generated using pymatgen
data_LaHg2
_symmetry_space_group_name_H-M   'P 1'
_cell_length_a   5.10458097
_cell_length_b   5.12200373
_cell_length_c   3.59653682
_cell_angle_alpha   90.00000000
_cell_angle_beta   90.26166007
_cell_angle_gamma   120.11296963
_symmetry_Int_Tables_number   1
_chemical_formula_structural   LaHg2
_chemical_formula_sum   'La1 Hg2'
_cell_volume   81.34176083
_cell_formula_units_Z   1
loop_
 _symmetry_equiv_pos_site_id
 _symmetry_equiv_pos_as_xyz
  1  'x, y, z'
loop_
 _atom_site_type_symbol
 _atom_site_label
 _atom_site_symmetry_multiplicity
 _atom_site_fract_x
 _atom_site_fract_y
 _atom_site_fract_z
 _atom_site_occupancy
  La  La0  1  0.00000000  -0.00000000  0.00000000  1
  Hg  Hg1  1  0.66681125  0.33340563  0.51191002  1
  Hg  Hg2  1  0.33318875  0.66659437  0.48808998  1
