# generated using pymatgen
data_Li8Cr(FeO4)3
_symmetry_space_group_name_H-M   'P 1'
_cell_length_a   4.99697424
_cell_length_b   4.95696237
_cell_length_c   8.53103914
_cell_angle_alpha   90.01041486
_cell_angle_beta   89.99792263
_cell_angle_gamma   90.23129256
_symmetry_Int_Tables_number   1
_chemical_formula_structural   Li8Cr(FeO4)3
_chemical_formula_sum   'Li8 Cr1 Fe3 O12'
_cell_volume   211.31052115
_cell_formula_units_Z   1
loop_
 _symmetry_equiv_pos_site_id
 _symmetry_equiv_pos_as_xyz
  1  'x, y, z'
loop_
 _atom_site_type_symbol
 _atom_site_label
 _atom_site_symmetry_multiplicity
 _atom_site_fract_x
 _atom_site_fract_y
 _atom_site_fract_z
 _atom_site_occupancy
  Li  Li0  1  0.49999044  0.99999604  0.23318196  1
  Li  Li1  1  0.50001197  0.00004322  0.91951554  1
  Li  Li2  1  0.99999897  0.00000997  0.25504350  1
  Li  Li3  1  0.00000814  0.00002826  0.56710126  1
  Li  Li4  1  0.49999931  0.49998325  0.06680788  1
  Li  Li5  1  0.49998719  0.49997281  0.75580818  1
  Li  Li6  1  0.99999094  0.49998458  0.41766183  1
  Li  Li7  1  0.99999072  0.49997406  0.73115965  1
  Cr  Cr8  1  0.99999475  0.99978898  0.90262800  1
  Fe  Fe9  1  0.49995028  0.00002787  0.58549411  1
  Fe  Fe10  1  0.49996516  0.49994822  0.40131304  1
  Fe  Fe11  1  0.99997229  0.49996820  0.08374451  1
  O  O12  1  0.24183417  0.14816811  0.74773530  1
  O  O13  1  0.27983364  0.18161913  0.41496743  1
  O  O14  1  0.21453369  0.17345930  0.06701728  1
  O  O15  1  0.78046188  0.32294996  0.91707704  1
  O  O16  1  0.71907397  0.32127060  0.56981460  1
  O  O17  1  0.74913292  0.35312164  0.24177555  1
  O  O18  1  0.25081782  0.64688159  0.24175169  1
  O  O19  1  0.28093362  0.67874046  0.56981229  1
  O  O20  1  0.21957042  0.67714790  0.91709345  1
  O  O21  1  0.78543611  0.82653881  0.06708693  1
  O  O22  1  0.72010984  0.81844149  0.41501699  1
  O  O23  1  0.75839774  0.85193055  0.74782997  1
