# generated using pymatgen
data_NaPrPCO7
_symmetry_space_group_name_H-M   'P 1'
_cell_length_a   9.79634197
_cell_length_b   7.20851245
_cell_length_c   5.36373732
_cell_angle_alpha   90.00000000
_cell_angle_beta   89.23822931
_cell_angle_gamma   90.00000000
_symmetry_Int_Tables_number   1
_chemical_formula_structural   NaPrPCO7
_chemical_formula_sum   'Na2 Pr2 P2 C2 O14'
_cell_volume   378.73784633
_cell_formula_units_Z   2
loop_
 _symmetry_equiv_pos_site_id
 _symmetry_equiv_pos_as_xyz
  1  'x, y, z'
loop_
 _atom_site_type_symbol
 _atom_site_label
 _atom_site_symmetry_multiplicity
 _atom_site_fract_x
 _atom_site_fract_y
 _atom_site_fract_z
 _atom_site_occupancy
  Na  Na0  1  0.22853569  0.46670949  0.23043135  1
  Na  Na1  1  0.77146431  0.96670949  0.76956865  1
  Pr  Pr2  1  0.37175448  0.77777414  0.78026364  1
  Pr  Pr3  1  0.62824552  0.27777414  0.21973636  1
  P  P4  1  0.41618196  0.26992902  0.71684253  1
  P  P5  1  0.58381804  0.76992902  0.28315747  1
  C  C6  1  0.06945752  0.72355174  0.72315352  1
  C  C7  1  0.93054248  0.22355174  0.27684648  1
  O  O8  1  0.05586400  0.25747919  0.30899320  1
  O  O9  1  0.11787699  0.71524017  0.94566168  1
  O  O10  1  0.15432244  0.70285414  0.53885136  1
  O  O11  1  0.33674593  0.09311266  0.78753320  1
  O  O12  1  0.35411953  0.44367290  0.84302909  1
  O  O13  1  0.43007951  0.74917384  0.20506493  1
  O  O14  1  0.41995986  0.29835271  0.42829968  1
  O  O15  1  0.58004014  0.79835271  0.57170032  1
  O  O16  1  0.56992049  0.24917384  0.79493507  1
  O  O17  1  0.64588047  0.94367290  0.15697091  1
  O  O18  1  0.66325407  0.59311266  0.21246680  1
  O  O19  1  0.84567756  0.20285414  0.46114864  1
  O  O20  1  0.88212301  0.21524017  0.05433832  1
  O  O21  1  0.94413600  0.75747919  0.69100680  1
