# generated using pymatgen
data_LuTe
_symmetry_space_group_name_H-M   'P 1'
_cell_length_a   4.02917387
_cell_length_b   4.03356868
_cell_length_c   3.97872375
_cell_angle_alpha   89.98380119
_cell_angle_beta   90.01428045
_cell_angle_gamma   120.02462798
_symmetry_Int_Tables_number   1
_chemical_formula_structural   LuTe
_chemical_formula_sum   'Lu1 Te1'
_cell_volume   55.98504475
_cell_formula_units_Z   1
loop_
 _symmetry_equiv_pos_site_id
 _symmetry_equiv_pos_as_xyz
  1  'x, y, z'
loop_
 _atom_site_type_symbol
 _atom_site_label
 _atom_site_symmetry_multiplicity
 _atom_site_fract_x
 _atom_site_fract_y
 _atom_site_fract_z
 _atom_site_occupancy
  Lu  Lu0  1  0.66666684  0.33331647  0.75000821  1
  Te  Te1  1  0.33333716  0.66668353  0.24999079  1
