# generated using pymatgen
data_YSiPt2
_symmetry_space_group_name_H-M   'P 1'
_cell_length_a   5.54573852
_cell_length_b   6.94927278
_cell_length_c   7.36397653
_cell_angle_alpha   90.00000000
_cell_angle_beta   90.00000000
_cell_angle_gamma   90.00000000
_symmetry_Int_Tables_number   1
_chemical_formula_structural   YSiPt2
_chemical_formula_sum   'Y4 Si4 Pt8'
_cell_volume   283.79918499
_cell_formula_units_Z   4
loop_
 _symmetry_equiv_pos_site_id
 _symmetry_equiv_pos_as_xyz
  1  'x, y, z'
loop_
 _atom_site_type_symbol
 _atom_site_label
 _atom_site_symmetry_multiplicity
 _atom_site_fract_x
 _atom_site_fract_y
 _atom_site_fract_z
 _atom_site_occupancy
  Y  Y0  1  0.13649278  0.75000000  0.47157807  1
  Y  Y1  1  0.36350722  0.75000000  0.97157807  1
  Y  Y2  1  0.86350722  0.25000000  0.52842193  1
  Y  Y3  1  0.63649278  0.25000000  0.02842193  1
  Si  Si4  1  0.86235249  0.75000000  0.11993990  1
  Si  Si5  1  0.63764751  0.75000000  0.61993990  1
  Si  Si6  1  0.13764751  0.25000000  0.88006010  1
  Si  Si7  1  0.36235249  0.25000000  0.38006010  1
  Pt  Pt8  1  0.59282873  0.94883943  0.31962358  1
  Pt  Pt9  1  0.90717127  0.55116057  0.81962358  1
  Pt  Pt10  1  0.40717127  0.44883943  0.68037642  1
  Pt  Pt11  1  0.09282873  0.05116057  0.18037642  1
  Pt  Pt12  1  0.40717127  0.05116057  0.68037642  1
  Pt  Pt13  1  0.09282873  0.44883943  0.18037642  1
  Pt  Pt14  1  0.59282873  0.55116057  0.31962358  1
  Pt  Pt15  1  0.90717127  0.94883943  0.81962358  1
