# generated using pymatgen
data_Mn2OF3
_symmetry_space_group_name_H-M   'P 1'
_cell_length_a   3.12612978
_cell_length_b   5.07250773
_cell_length_c   10.45728762
_cell_angle_alpha   90.00000000
_cell_angle_beta   90.01919478
_cell_angle_gamma   90.00000000
_symmetry_Int_Tables_number   1
_chemical_formula_structural   Mn2OF3
_chemical_formula_sum   'Mn4 O2 F6'
_cell_volume   165.82452025
_cell_formula_units_Z   2
loop_
 _symmetry_equiv_pos_site_id
 _symmetry_equiv_pos_as_xyz
  1  'x, y, z'
loop_
 _atom_site_type_symbol
 _atom_site_label
 _atom_site_symmetry_multiplicity
 _atom_site_fract_x
 _atom_site_fract_y
 _atom_site_fract_z
 _atom_site_occupancy
  Mn  Mn0  1  0.24406920  0.52250033  0.85101102  1
  Mn  Mn1  1  0.24406920  0.97749967  0.35101102  1
  Mn  Mn2  1  0.74496439  0.08105720  0.63942871  1
  Mn  Mn3  1  0.74496439  0.41894280  0.13942871  1
  O  O4  1  0.24597607  0.27833613  0.70204616  1
  O  O5  1  0.24597607  0.22166387  0.20204616  1
  F  F6  1  0.24250856  0.86177736  0.55885715  1
  F  F7  1  0.24250856  0.63822264  0.05885715  1
  F  F8  1  0.74444501  0.30586589  0.93836396  1
  F  F9  1  0.74383777  0.77318075  0.79079200  1
  F  F10  1  0.74444501  0.19413411  0.43836396  1
  F  F11  1  0.74383777  0.72681925  0.29079200  1
