# generated using pymatgen
data_V3H4NO8
_symmetry_space_group_name_H-M   'P 1'
_cell_length_a   5.06067404
_cell_length_b   8.57638749
_cell_length_c   7.97213334
_cell_angle_alpha   90.00000000
_cell_angle_beta   97.40270228
_cell_angle_gamma   90.00000000
_symmetry_Int_Tables_number   1
_chemical_formula_structural   V3H4NO8
_chemical_formula_sum   'V6 H8 N2 O16'
_cell_volume   343.12498071
_cell_formula_units_Z   2
loop_
 _symmetry_equiv_pos_site_id
 _symmetry_equiv_pos_as_xyz
  1  'x, y, z'
loop_
 _atom_site_type_symbol
 _atom_site_label
 _atom_site_symmetry_multiplicity
 _atom_site_fract_x
 _atom_site_fract_y
 _atom_site_fract_z
 _atom_site_occupancy
  V  V0  1  0.05992684  0.55400852  0.31757631  1
  V  V1  1  0.05992684  0.94599148  0.31757631  1
  V  V2  1  0.42682322  0.25000000  0.57788521  1
  V  V3  1  0.57317678  0.75000000  0.42211479  1
  V  V4  1  0.94007316  0.05400852  0.68242369  1
  V  V5  1  0.94007316  0.44599148  0.68242369  1
  H  H6  1  0.33447626  0.25000000  0.94596283  1
  H  H7  1  0.43859993  0.84601755  0.91102617  1
  H  H8  1  0.43859993  0.65398245  0.91102617  1
  H  H9  1  0.30014538  0.25000000  0.15144370  1
  H  H10  1  0.69985462  0.75000000  0.84855630  1
  H  H11  1  0.56140007  0.15398245  0.08897383  1
  H  H12  1  0.56140007  0.34601755  0.08897383  1
  H  H13  1  0.66552374  0.75000000  0.05403717  1
  N  N14  1  0.56144736  0.75000000  0.93211835  1
  N  N15  1  0.43855264  0.25000000  0.06788165  1
  O  O16  1  0.06792023  0.56647873  0.82995362  1
  O  O17  1  0.06792023  0.93352127  0.82995362  1
  O  O18  1  0.09090328  0.25000000  0.75641681  1
  O  O19  1  0.18163577  0.08749408  0.50568668  1
  O  O20  1  0.18163577  0.41250592  0.50568668  1
  O  O21  1  0.38049215  0.75000000  0.57122189  1
  O  O22  1  0.38472798  0.60002840  0.27035434  1
  O  O23  1  0.38472798  0.89997160  0.27035434  1
  O  O24  1  0.61527202  0.39997160  0.72964566  1
  O  O25  1  0.61527202  0.10002840  0.72964566  1
  O  O26  1  0.61950785  0.25000000  0.42877811  1
  O  O27  1  0.81836423  0.58749408  0.49431332  1
  O  O28  1  0.81836423  0.91250592  0.49431332  1
  O  O29  1  0.90909672  0.75000000  0.24358319  1
  O  O30  1  0.93207977  0.06647873  0.17004638  1
  O  O31  1  0.93207977  0.43352127  0.17004638  1
