# generated using pymatgen
data_NaSbPCO7
_symmetry_space_group_name_H-M   'P 1'
_cell_length_a   9.22318297
_cell_length_b   6.66299872
_cell_length_c   5.54712802
_cell_angle_alpha   90.00000000
_cell_angle_beta   91.26329714
_cell_angle_gamma   90.00000000
_symmetry_Int_Tables_number   1
_chemical_formula_structural   NaSbPCO7
_chemical_formula_sum   'Na2 Sb2 P2 C2 O14'
_cell_volume   340.81065954
_cell_formula_units_Z   2
loop_
 _symmetry_equiv_pos_site_id
 _symmetry_equiv_pos_as_xyz
  1  'x, y, z'
loop_
 _atom_site_type_symbol
 _atom_site_label
 _atom_site_symmetry_multiplicity
 _atom_site_fract_x
 _atom_site_fract_y
 _atom_site_fract_z
 _atom_site_occupancy
  Na  Na0  1  0.21627634  0.48648732  0.23799581  1
  Na  Na1  1  0.78372366  0.98648732  0.76200419  1
  Sb  Sb2  1  0.35179972  0.76053349  0.79188883  1
  Sb  Sb3  1  0.64820028  0.26053349  0.20811117  1
  P  P4  1  0.42607851  0.25643597  0.72129909  1
  P  P5  1  0.57392149  0.75643597  0.27870091  1
  C  C6  1  0.07710916  0.73971496  0.72155198  1
  C  C7  1  0.92289084  0.23971496  0.27844802  1
  O  O8  1  0.05458969  0.24927666  0.30834376  1
  O  O9  1  0.14686916  0.74457797  0.93894426  1
  O  O10  1  0.17277849  0.72750563  0.54153221  1
  O  O11  1  0.33048195  0.07555854  0.79926194  1
  O  O12  1  0.34553354  0.43921146  0.83165768  1
  O  O13  1  0.41702448  0.73909902  0.16711270  1
  O  O14  1  0.43775325  0.27944796  0.44550923  1
  O  O15  1  0.56224675  0.77944796  0.55449077  1
  O  O16  1  0.58297552  0.23909902  0.83288730  1
  O  O17  1  0.65446646  0.93921146  0.16834232  1
  O  O18  1  0.66951805  0.57555854  0.20073806  1
  O  O19  1  0.82722151  0.22750563  0.45846779  1
  O  O20  1  0.85313084  0.24457797  0.06105574  1
  O  O21  1  0.94541031  0.74927666  0.69165624  1
