# generated using pymatgen
data_Li2SmPCO7
_symmetry_space_group_name_H-M   'P 1'
_cell_length_a   9.25935634
_cell_length_b   6.87808733
_cell_length_c   4.97218196
_cell_angle_alpha   90.00000000
_cell_angle_beta   87.02920671
_cell_angle_gamma   90.00000000
_symmetry_Int_Tables_number   1
_chemical_formula_structural   Li2SmPCO7
_chemical_formula_sum   'Li4 Sm2 P2 C2 O14'
_cell_volume   316.23610254
_cell_formula_units_Z   2
loop_
 _symmetry_equiv_pos_site_id
 _symmetry_equiv_pos_as_xyz
  1  'x, y, z'
loop_
 _atom_site_type_symbol
 _atom_site_label
 _atom_site_symmetry_multiplicity
 _atom_site_fract_x
 _atom_site_fract_y
 _atom_site_fract_z
 _atom_site_occupancy
  Li  Li0  1  0.19568501  0.47982987  0.20187846  1
  Li  Li1  1  0.19568501  0.02017013  0.20187846  1
  Li  Li2  1  0.80431499  0.52017013  0.79812154  1
  Li  Li3  1  0.80431499  0.97982987  0.79812154  1
  Sm  Sm4  1  0.37291621  0.75000000  0.74314376  1
  Sm  Sm5  1  0.62708379  0.25000000  0.25685624  1
  P  P6  1  0.40054647  0.25000000  0.73436768  1
  P  P7  1  0.59945353  0.75000000  0.26563232  1
  C  C8  1  0.06844919  0.75000000  0.74235403  1
  C  C9  1  0.93155081  0.25000000  0.25764597  1
  O  O10  1  0.06846097  0.25000000  0.27138218  1
  O  O11  1  0.13206656  0.75000000  0.97208370  1
  O  O12  1  0.15584082  0.75000000  0.52352285  1
  O  O13  1  0.33502588  0.06708805  0.87287213  1
  O  O14  1  0.33502588  0.43291195  0.87287213  1
  O  O15  1  0.43041473  0.75000000  0.23965857  1
  O  O16  1  0.37968378  0.25000000  0.42647347  1
  O  O17  1  0.62031622  0.75000000  0.57352653  1
  O  O18  1  0.56958527  0.25000000  0.76034143  1
  O  O19  1  0.66497412  0.56708805  0.12712787  1
  O  O20  1  0.66497412  0.93291195  0.12712787  1
  O  O21  1  0.84415918  0.25000000  0.47647715  1
  O  O22  1  0.86793344  0.25000000  0.02791630  1
  O  O23  1  0.93153903  0.75000000  0.72861782  1
