# generated using pymatgen
data_Ba2YBr7
_symmetry_space_group_name_H-M   'P 1'
_cell_length_a   13.66924764
_cell_length_b   8.20914138
_cell_length_c   15.29706823
_cell_angle_alpha   90.00000000
_cell_angle_beta   90.00000000
_cell_angle_gamma   90.00000000
_symmetry_Int_Tables_number   1
_chemical_formula_structural   Ba2YBr7
_chemical_formula_sum   'Ba8 Y4 Br28'
_cell_volume   1716.52665037
_cell_formula_units_Z   4
loop_
 _symmetry_equiv_pos_site_id
 _symmetry_equiv_pos_as_xyz
  1  'x, y, z'
loop_
 _atom_site_type_symbol
 _atom_site_label
 _atom_site_symmetry_multiplicity
 _atom_site_fract_x
 _atom_site_fract_y
 _atom_site_fract_z
 _atom_site_occupancy
  Ba  Ba0  1  0.24052350  0.25000000  0.47096124  1
  Ba  Ba1  1  0.25329065  0.25000000  0.77007660  1
  Ba  Ba2  1  0.24670935  0.75000000  0.27007660  1
  Ba  Ba3  1  0.25947650  0.75000000  0.97096124  1
  Ba  Ba4  1  0.74052350  0.25000000  0.02903876  1
  Ba  Ba5  1  0.75329065  0.25000000  0.72992340  1
  Ba  Ba6  1  0.74670935  0.75000000  0.22992340  1
  Ba  Ba7  1  0.75947650  0.75000000  0.52903876  1
  Y  Y8  1  0.93862534  0.25000000  0.28696335  1
  Y  Y9  1  0.56137466  0.75000000  0.78696335  1
  Y  Y10  1  0.43862534  0.25000000  0.21303665  1
  Y  Y11  1  0.06137466  0.75000000  0.71303665  1
  Br  Br12  1  0.10185218  0.75000000  0.11657322  1
  Br  Br13  1  0.08766286  0.02944065  0.34775609  1
  Br  Br14  1  0.08766286  0.47055935  0.34775609  1
  Br  Br15  1  0.10541912  0.96634678  0.85330246  1
  Br  Br16  1  0.10541912  0.53365322  0.85330246  1
  Br  Br17  1  0.18268755  0.96851401  0.62298818  1
  Br  Br18  1  0.18268755  0.53148599  0.62298818  1
  Br  Br19  1  0.31731245  0.03148599  0.12298818  1
  Br  Br20  1  0.31731245  0.46851401  0.12298818  1
  Br  Br21  1  0.39458088  0.03365322  0.35330246  1
  Br  Br22  1  0.39458088  0.46634678  0.35330246  1
  Br  Br23  1  0.41233714  0.52944065  0.84775609  1
  Br  Br24  1  0.41233714  0.97055935  0.84775609  1
  Br  Br25  1  0.39814782  0.25000000  0.61657322  1
  Br  Br26  1  0.60185218  0.75000000  0.38342678  1
  Br  Br27  1  0.58766286  0.02944065  0.15224391  1
  Br  Br28  1  0.58766286  0.47055935  0.15224391  1
  Br  Br29  1  0.60541912  0.96634678  0.64669754  1
  Br  Br30  1  0.60541912  0.53365322  0.64669754  1
  Br  Br31  1  0.68268755  0.96851401  0.87701182  1
  Br  Br32  1  0.68268755  0.53148599  0.87701182  1
  Br  Br33  1  0.81731245  0.46851401  0.37701182  1
  Br  Br34  1  0.81731245  0.03148599  0.37701182  1
  Br  Br35  1  0.89458088  0.46634678  0.14669754  1
  Br  Br36  1  0.89458088  0.03365322  0.14669754  1
  Br  Br37  1  0.91233714  0.52944065  0.65224391  1
  Br  Br38  1  0.91233714  0.97055935  0.65224391  1
  Br  Br39  1  0.89814782  0.25000000  0.88342678  1
