# generated using pymatgen
data_Li7Bi(BO4)2
_symmetry_space_group_name_H-M   'P 1'
_cell_length_a   6.40168438
_cell_length_b   8.04078190
_cell_length_c   7.53857772
_cell_angle_alpha   90.89918315
_cell_angle_beta   90.00000000
_cell_angle_gamma   66.54204590
_symmetry_Int_Tables_number   1
_chemical_formula_structural   Li7Bi(BO4)2
_chemical_formula_sum   'Li14 Bi2 B4 O16'
_cell_volume   355.92182832
_cell_formula_units_Z   2
loop_
 _symmetry_equiv_pos_site_id
 _symmetry_equiv_pos_as_xyz
  1  'x, y, z'
loop_
 _atom_site_type_symbol
 _atom_site_label
 _atom_site_symmetry_multiplicity
 _atom_site_fract_x
 _atom_site_fract_y
 _atom_site_fract_z
 _atom_site_occupancy
  Li  Li0  1  0.32555906  0.86121431  0.63069596  1
  Li  Li1  1  0.81322663  0.86121431  0.63069596  1
  Li  Li2  1  0.07544341  0.84911217  0.27671853  1
  Li  Li3  1  0.64297506  0.71405088  0.84969546  1
  Li  Li4  1  0.43079606  0.63751163  0.12587070  1
  Li  Li5  1  0.93169232  0.63751163  0.12587070  1
  Li  Li6  1  0.06830768  0.36248837  0.87412930  1
  Li  Li7  1  0.56920394  0.36248837  0.87412930  1
  Li  Li8  1  0.35702494  0.28594912  0.15030454  1
  Li  Li9  1  0.92455659  0.15088783  0.72328147  1
  Li  Li10  1  0.67444094  0.13878569  0.36930404  1
  Li  Li11  1  0.18677337  0.13878569  0.36930404  1
  Li  Li12  1  0.00000000  0.00000000  0.00000000  1
  Li  Li13  1  0.50000000  0.00000000  0.00000000  1
  Bi  Bi14  1  0.26508375  0.46983249  0.56428090  1
  Bi  Bi15  1  0.73491625  0.53016751  0.43571910  1
  B  B16  1  0.57264744  0.85470613  0.26547881  1
  B  B17  1  0.13756362  0.72487276  0.84510624  1
  B  B18  1  0.86243638  0.27512724  0.15489376  1
  B  B19  1  0.42735256  0.14529387  0.73452119  1
  O  O20  1  0.52386183  0.95227634  0.74030924  1
  O  O21  1  0.05022457  0.89955185  0.75626959  1
  O  O22  1  0.41818350  0.77363665  0.37219040  1
  O  O23  1  0.80818084  0.77363665  0.37219040  1
  O  O24  1  0.61794207  0.76411686  0.09190967  1
  O  O25  1  0.13228573  0.73542855  0.03576315  1
  O  O26  1  0.38930533  0.61077429  0.77248773  1
  O  O27  1  0.99991938  0.61077429  0.77248773  1
  O  O28  1  0.00008062  0.38922571  0.22751227  1
  O  O29  1  0.61069467  0.38922571  0.22751227  1
  O  O30  1  0.86771427  0.26457145  0.96423685  1
  O  O31  1  0.38205793  0.23588314  0.90809033  1
  O  O32  1  0.19181916  0.22636335  0.62780960  1
  O  O33  1  0.58181650  0.22636335  0.62780960  1
  O  O34  1  0.94977543  0.10044815  0.24373041  1
  O  O35  1  0.47613817  0.04772366  0.25969076  1
