# generated using pymatgen
data_LaGe3Rh
_symmetry_space_group_name_H-M   'P 1'
_cell_length_a   4.46044460
_cell_length_b   4.46044460
_cell_length_c   5.99668936
_cell_angle_alpha   111.83339402
_cell_angle_beta   111.83339398
_cell_angle_gamma   90.00000000
_symmetry_Int_Tables_number   1
_chemical_formula_structural   LaGe3Rh
_chemical_formula_sum   'La1 Ge3 Rh1'
_cell_volume   101.47226358
_cell_formula_units_Z   1
loop_
 _symmetry_equiv_pos_site_id
 _symmetry_equiv_pos_as_xyz
  1  'x, y, z'
loop_
 _atom_site_type_symbol
 _atom_site_label
 _atom_site_symmetry_multiplicity
 _atom_site_fract_x
 _atom_site_fract_y
 _atom_site_fract_z
 _atom_site_occupancy
  Ge  Ge0  1  0.84180262  0.34180262  0.68360524  1
  Ge  Ge1  1  0.34180262  0.84180262  0.68360524  1
  Ge  Ge2  1  0.00087393  0.00087393  0.00174785  1
  Rh  Rh3  1  0.23864271  0.23864271  0.47728541  1
  La  La4  1  0.57887813  0.57887813  0.15775626  1
