# generated using pymatgen
data_LaPIr
_symmetry_space_group_name_H-M   'P 1'
_cell_length_a   4.17086986
_cell_length_b   4.17086986
_cell_length_c   7.77393072
_cell_angle_alpha   105.56075899
_cell_angle_beta   105.56075899
_cell_angle_gamma   90.00000000
_symmetry_Int_Tables_number   1
_chemical_formula_structural   LaPIr
_chemical_formula_sum   'La2 P2 Ir2'
_cell_volume   125.12651624
_cell_formula_units_Z   2
loop_
 _symmetry_equiv_pos_site_id
 _symmetry_equiv_pos_as_xyz
  1  'x, y, z'
loop_
 _atom_site_type_symbol
 _atom_site_label
 _atom_site_symmetry_multiplicity
 _atom_site_fract_x
 _atom_site_fract_y
 _atom_site_fract_z
 _atom_site_occupancy
  La  La0  1  0.25449933  0.75449933  0.50899866  1
  La  La1  1  0.00449933  0.00449933  0.00899866  1
  P  P2  1  0.83312508  0.33312508  0.66625016  1
  P  P3  1  0.58312508  0.58312508  0.16625016  1
  Ir  Ir4  1  0.66597559  0.16597559  0.33195118  1
  Ir  Ir5  1  0.41597559  0.41597559  0.83195118  1
