# generated using pymatgen
data_TaAs2
_symmetry_space_group_name_H-M   'P 1'
_cell_length_a   3.42593835
_cell_length_b   5.02115138
_cell_length_c   7.07765627
_cell_angle_alpha   78.87211142
_cell_angle_beta   75.99391650
_cell_angle_gamma   70.05300518
_symmetry_Int_Tables_number   1
_chemical_formula_structural   TaAs2
_chemical_formula_sum   'Ta2 As4'
_cell_volume   110.22744763
_cell_formula_units_Z   2
loop_
 _symmetry_equiv_pos_site_id
 _symmetry_equiv_pos_as_xyz
  1  'x, y, z'
loop_
 _atom_site_type_symbol
 _atom_site_label
 _atom_site_symmetry_multiplicity
 _atom_site_fract_x
 _atom_site_fract_y
 _atom_site_fract_z
 _atom_site_occupancy
  As  As0  1  0.85937793  0.75358139  0.52766276  1
  As  As1  1  0.14062207  0.24641861  0.47233724  1
  As  As2  1  0.40567731  0.29630030  0.89234508  1
  As  As3  1  0.59432269  0.70369970  0.10765492  1
  Ta  Ta4  1  0.15691055  0.88155860  0.80462030  1
  Ta  Ta5  1  0.84308945  0.11844140  0.19537970  1
