# generated using pymatgen
data_BaYI5
_symmetry_space_group_name_H-M   'P 1'
_cell_length_a   8.20213907
_cell_length_b   14.58451993
_cell_length_c   11.02754977
_cell_angle_alpha   90.00000000
_cell_angle_beta   85.09053334
_cell_angle_gamma   90.00000000
_symmetry_Int_Tables_number   1
_chemical_formula_structural   BaYI5
_chemical_formula_sum   'Ba4 Y4 I20'
_cell_volume   1314.32270553
_cell_formula_units_Z   4
loop_
 _symmetry_equiv_pos_site_id
 _symmetry_equiv_pos_as_xyz
  1  'x, y, z'
loop_
 _atom_site_type_symbol
 _atom_site_label
 _atom_site_symmetry_multiplicity
 _atom_site_fract_x
 _atom_site_fract_y
 _atom_site_fract_z
 _atom_site_occupancy
  Ba  Ba0  1  0.05471037  0.04332833  0.82185652  1
  Ba  Ba1  1  0.40185147  0.37703259  0.62733809  1
  Ba  Ba2  1  0.59814853  0.87703259  0.37266191  1
  Ba  Ba3  1  0.94528963  0.54332833  0.17814348  1
  Y  Y4  1  0.00123307  0.62338629  0.59521751  1
  Y  Y5  1  0.50467009  0.23240170  0.12664694  1
  Y  Y6  1  0.49532991  0.73240170  0.87335306  1
  Y  Y7  1  0.99876693  0.12338629  0.40478249  1
  I  I8  1  0.97609868  0.75843304  0.38730255  1
  I  I9  1  0.07844430  0.49941660  0.79998443  1
  I  I10  1  0.14722335  0.27817293  0.23823490  1
  I  I11  1  0.23626332  0.52035839  0.41271037  1
  I  I12  1  0.32398231  0.22873873  0.88709688  1
  I  I13  1  0.25903832  0.01918253  0.53211461  1
  I  I14  1  0.20052691  0.71031672  0.04558005  1
  I  I15  1  0.33950732  0.73546594  0.62159528  1
  I  I16  1  0.41752163  0.03808209  0.18962249  1
  I  I17  1  0.43338170  0.93418311  0.86289091  1
  I  I18  1  0.56661830  0.43418311  0.13710909  1
  I  I19  1  0.58247837  0.53808209  0.81037751  1
  I  I20  1  0.66049268  0.23546594  0.37840472  1
  I  I21  1  0.79947309  0.21031672  0.95441995  1
  I  I22  1  0.74096168  0.51918253  0.46788539  1
  I  I23  1  0.67601769  0.72873873  0.11290312  1
  I  I24  1  0.76373668  0.02035839  0.58728963  1
  I  I25  1  0.85277665  0.77817293  0.76176510  1
  I  I26  1  0.92155570  0.99941660  0.20001557  1
  I  I27  1  0.02390132  0.25843304  0.61269745  1
