# generated using pymatgen
data_NaSbAsCO7
_symmetry_space_group_name_H-M   'P 1'
_cell_length_a   9.40365601
_cell_length_b   6.91753589
_cell_length_c   5.67436272
_cell_angle_alpha   90.00000000
_cell_angle_beta   88.99676625
_cell_angle_gamma   90.00000000
_symmetry_Int_Tables_number   1
_chemical_formula_structural   NaSbAsCO7
_chemical_formula_sum   'Na2 Sb2 As2 C2 O14'
_cell_volume   369.06143829
_cell_formula_units_Z   2
loop_
 _symmetry_equiv_pos_site_id
 _symmetry_equiv_pos_as_xyz
  1  'x, y, z'
loop_
 _atom_site_type_symbol
 _atom_site_label
 _atom_site_symmetry_multiplicity
 _atom_site_fract_x
 _atom_site_fract_y
 _atom_site_fract_z
 _atom_site_occupancy
  Na  Na0  1  0.20869552  0.49135497  0.23642047  1
  Na  Na1  1  0.79130448  0.99135497  0.76357953  1
  Sb  Sb2  1  0.34264351  0.75961595  0.79372688  1
  Sb  Sb3  1  0.65735649  0.25961595  0.20627312  1
  As  As4  1  0.42834372  0.25320264  0.71694903  1
  As  As5  1  0.57165628  0.75320264  0.28305097  1
  C  C6  1  0.07459961  0.74274195  0.72315235  1
  C  C7  1  0.92540039  0.24274195  0.27684765  1
  O  O8  1  0.05348386  0.25574577  0.30956020  1
  O  O9  1  0.13544289  0.74445689  0.93738979  1
  O  O10  1  0.17406556  0.72970905  0.54869244  1
  O  O11  1  0.32086455  0.05962743  0.79459685  1
  O  O12  1  0.33425442  0.45157244  0.82051141  1
  O  O13  1  0.40587930  0.73639376  0.15514636  1
  O  O14  1  0.45835491  0.27342813  0.41420926  1
  O  O15  1  0.54164509  0.77342813  0.58579074  1
  O  O16  1  0.59412070  0.23639376  0.84485364  1
  O  O17  1  0.66574558  0.95157244  0.17948859  1
  O  O18  1  0.67913545  0.55962743  0.20540315  1
  O  O19  1  0.82593444  0.22970905  0.45130756  1
  O  O20  1  0.86455711  0.24445689  0.06261021  1
  O  O21  1  0.94651614  0.75574577  0.69043980  1
