# generated using pymatgen
data_Ba2Y5Cl19
_symmetry_space_group_name_H-M   'P 1'
_cell_length_a   7.44765487
_cell_length_b   9.39336990
_cell_length_c   30.35127123
_cell_angle_alpha   90.00000000
_cell_angle_beta   91.02353530
_cell_angle_gamma   90.00000000
_symmetry_Int_Tables_number   1
_chemical_formula_structural   Ba2Y5Cl19
_chemical_formula_sum   'Ba4 Y10 Cl38'
_cell_volume   2122.99295399
_cell_formula_units_Z   2
loop_
 _symmetry_equiv_pos_site_id
 _symmetry_equiv_pos_as_xyz
  1  'x, y, z'
loop_
 _atom_site_type_symbol
 _atom_site_label
 _atom_site_symmetry_multiplicity
 _atom_site_fract_x
 _atom_site_fract_y
 _atom_site_fract_z
 _atom_site_occupancy
  Ba  Ba0  1  0.01961607  0.48083213  0.70668692  1
  Ba  Ba1  1  0.48038393  0.98083213  0.79331308  1
  Ba  Ba2  1  0.51961607  0.01916787  0.20668692  1
  Ba  Ba3  1  0.98038393  0.51916787  0.29331308  1
  Y  Y4  1  0.99800701  0.83249165  0.56913464  1
  Y  Y5  1  0.01223165  0.35931684  0.13591148  1
  Y  Y6  1  0.00000000  0.00000000  0.00000000  1
  Y  Y7  1  0.50199299  0.33249165  0.93086536  1
  Y  Y8  1  0.51223165  0.14068316  0.63591148  1
  Y  Y9  1  0.50000000  0.50000000  0.50000000  1
  Y  Y10  1  0.48776835  0.85931684  0.36408852  1
  Y  Y11  1  0.49800701  0.66750835  0.06913464  1
  Y  Y12  1  0.98776835  0.64068316  0.86408852  1
  Y  Y13  1  0.00199299  0.16750835  0.43086536  1
  Cl  Cl14  1  0.00000000  0.00000000  0.50000000  1
  Cl  Cl15  1  0.01082650  0.26833351  0.35116497  1
  Cl  Cl16  1  0.99444635  0.16249315  0.07134921  1
  Cl  Cl17  1  0.01655302  0.55860467  0.19694006  1
  Cl  Cl18  1  0.18459365  0.75648570  0.33242563  1
  Cl  Cl19  1  0.22235716  0.17803064  0.95819263  1
  Cl  Cl20  1  0.21240213  0.37103266  0.46550666  1
  Cl  Cl21  1  0.14561808  0.81517164  0.80706166  1
  Cl  Cl22  1  0.20555267  0.03588831  0.60397560  1
  Cl  Cl23  1  0.19107388  0.53240633  0.08428411  1
  Cl  Cl24  1  0.29444733  0.53588831  0.89602440  1
  Cl  Cl25  1  0.35438192  0.31517164  0.69293834  1
  Cl  Cl26  1  0.27764284  0.67803064  0.54180737  1
  Cl  Cl27  1  0.30892612  0.03240633  0.41571589  1
  Cl  Cl28  1  0.28759787  0.87103266  0.03449334  1
  Cl  Cl29  1  0.31540635  0.25648570  0.16757437  1
  Cl  Cl30  1  0.48344698  0.05860467  0.30305994  1
  Cl  Cl31  1  0.51082650  0.23166649  0.85116497  1
  Cl  Cl32  1  0.49444635  0.33750685  0.57134921  1
  Cl  Cl33  1  0.50555365  0.66249315  0.42865079  1
  Cl  Cl34  1  0.48917350  0.76833351  0.14883503  1
  Cl  Cl35  1  0.51655302  0.94139533  0.69694006  1
  Cl  Cl36  1  0.50000000  0.50000000  0.00000000  1
  Cl  Cl37  1  0.68459365  0.74351430  0.83242563  1
  Cl  Cl38  1  0.71240213  0.12896734  0.96550666  1
  Cl  Cl39  1  0.69107388  0.96759367  0.58428411  1
  Cl  Cl40  1  0.72235716  0.32196936  0.45819263  1
  Cl  Cl41  1  0.64561808  0.68482836  0.30706166  1
  Cl  Cl42  1  0.70555267  0.46411169  0.10397560  1
  Cl  Cl43  1  0.80892612  0.46759367  0.91571589  1
  Cl  Cl44  1  0.79444733  0.96411169  0.39602440  1
  Cl  Cl45  1  0.85438192  0.18482836  0.19293834  1
  Cl  Cl46  1  0.78759787  0.62896734  0.53449334  1
  Cl  Cl47  1  0.77764284  0.82196936  0.04180737  1
  Cl  Cl48  1  0.81540635  0.24351430  0.66757437  1
  Cl  Cl49  1  0.98344698  0.44139533  0.80305994  1
  Cl  Cl50  1  0.00555365  0.83750685  0.92865079  1
  Cl  Cl51  1  0.98917350  0.73166649  0.64883503  1
