# generated using pymatgen
data_KPrS2
_symmetry_space_group_name_H-M   'P 1'
_cell_length_a   7.79346739
_cell_length_b   7.79346739
_cell_length_c   7.79346739
_cell_angle_alpha   31.51967854
_cell_angle_beta   31.51967851
_cell_angle_gamma   31.51967853
_symmetry_Int_Tables_number   1
_chemical_formula_structural   KPrS2
_chemical_formula_sum   'K1 Pr1 S2'
_cell_volume   114.86225126
_cell_formula_units_Z   1
loop_
 _symmetry_equiv_pos_site_id
 _symmetry_equiv_pos_as_xyz
  1  'x, y, z'
loop_
 _atom_site_type_symbol
 _atom_site_label
 _atom_site_symmetry_multiplicity
 _atom_site_fract_x
 _atom_site_fract_y
 _atom_site_fract_z
 _atom_site_occupancy
  S  S0  1  0.73621616  0.73621616  0.73621616  1
  S  S1  1  0.26378384  0.26378384  0.26378384  1
  K  K2  1  0.50000000  0.50000000  0.50000000  1
  Pr  Pr3  1  0.00000000  0.00000000  0.00000000  1
