# generated using pymatgen
data_Bi5BO10
_symmetry_space_group_name_H-M   'P 1'
_cell_length_a   8.72357191
_cell_length_b   22.43860190
_cell_length_c   5.65100533
_cell_angle_alpha   90.00000000
_cell_angle_beta   111.49471037
_cell_angle_gamma   90.00000000
_symmetry_Int_Tables_number   1
_chemical_formula_structural   Bi5BO10
_chemical_formula_sum   'Bi20 B4 O40'
_cell_volume   1029.22315841
_cell_formula_units_Z   4
loop_
 _symmetry_equiv_pos_site_id
 _symmetry_equiv_pos_as_xyz
  1  'x, y, z'
loop_
 _atom_site_type_symbol
 _atom_site_label
 _atom_site_symmetry_multiplicity
 _atom_site_fract_x
 _atom_site_fract_y
 _atom_site_fract_z
 _atom_site_occupancy
  Bi  Bi0  1  0.99546753  0.69592427  0.71448111  1
  Bi  Bi1  1  0.99546753  0.80407573  0.21448111  1
  Bi  Bi2  1  0.28414733  0.05751149  0.86971294  1
  Bi  Bi3  1  0.36121672  0.31454263  0.90754183  1
  Bi  Bi4  1  0.33684521  0.81450008  0.88805447  1
  Bi  Bi5  1  0.35387398  0.55740096  0.86757129  1
  Bi  Bi6  1  0.28414733  0.44248851  0.36971294  1
  Bi  Bi7  1  0.36121672  0.18545737  0.40754183  1
  Bi  Bi8  1  0.33684521  0.68549992  0.38805447  1
  Bi  Bi9  1  0.35387398  0.94259904  0.36757129  1
  Bi  Bi10  1  0.64612602  0.05740096  0.63242871  1
  Bi  Bi11  1  0.66315479  0.31450008  0.61194553  1
  Bi  Bi12  1  0.63878328  0.81454263  0.59245817  1
  Bi  Bi13  1  0.71585267  0.55751149  0.63028706  1
  Bi  Bi14  1  0.64612602  0.44259904  0.13242871  1
  Bi  Bi15  1  0.66315479  0.18549992  0.11194553  1
  Bi  Bi16  1  0.63878328  0.68545737  0.09245817  1
  Bi  Bi17  1  0.71585267  0.94248851  0.13028706  1
  Bi  Bi18  1  0.00453247  0.19592427  0.78551889  1
  Bi  Bi19  1  0.00453247  0.30407573  0.28551889  1
  B  B20  1  0.00127325  0.92006188  0.70697606  1
  B  B21  1  0.00127325  0.57993812  0.20697606  1
  B  B22  1  0.99872675  0.42006188  0.79302394  1
  B  B23  1  0.99872675  0.07993812  0.29302394  1
  O  O24  1  0.08533250  0.38825265  0.01418643  1
  O  O25  1  0.07775048  0.46945886  0.74924037  1
  O  O26  1  0.08533250  0.11174735  0.51418643  1
  O  O27  1  0.15637336  0.90408553  0.87138474  1
  O  O28  1  0.15334462  0.25605672  0.66491138  1
  O  O29  1  0.07775048  0.03054114  0.24924037  1
  O  O30  1  0.15883026  0.76041932  0.59916318  1
  O  O31  1  0.15637336  0.59591447  0.37138474  1
  O  O32  1  0.15334462  0.24394328  0.16491138  1
  O  O33  1  0.15883026  0.73958068  0.09916318  1
  O  O34  1  0.24912018  0.36139557  0.53561278  1
  O  O35  1  0.24912018  0.13860443  0.03561278  1
  O  O36  1  0.38884130  0.85256603  0.56043501  1
  O  O37  1  0.47622754  0.47619237  0.75869735  1
  O  O38  1  0.46318216  0.10435607  0.75152889  1
  O  O39  1  0.48595032  0.25295572  0.71527672  1
  O  O40  1  0.51404968  0.75295572  0.78472328  1
  O  O41  1  0.53681784  0.60435607  0.74847111  1
  O  O42  1  0.38884130  0.64743397  0.06043501  1
  O  O43  1  0.52377246  0.97619237  0.74130265  1
  O  O44  1  0.47622754  0.02380763  0.25869735  1
  O  O45  1  0.61115870  0.35256603  0.93956499  1
  O  O46  1  0.46318216  0.39564393  0.25152889  1
  O  O47  1  0.48595032  0.24704428  0.21527672  1
  O  O48  1  0.51404968  0.74704428  0.28472328  1
  O  O49  1  0.53681784  0.89564393  0.24847111  1
  O  O50  1  0.52377246  0.52380763  0.24130265  1
  O  O51  1  0.61115870  0.14743397  0.43956499  1
  O  O52  1  0.75087982  0.86139557  0.96438722  1
  O  O53  1  0.75087982  0.63860443  0.46438722  1
  O  O54  1  0.84116974  0.26041932  0.90083682  1
  O  O55  1  0.84665538  0.75605672  0.83508862  1
  O  O56  1  0.84362664  0.40408553  0.62861526  1
  O  O57  1  0.84116974  0.23958068  0.40083682  1
  O  O58  1  0.92224952  0.96945886  0.75075963  1
  O  O59  1  0.84665538  0.74394328  0.33508862  1
  O  O60  1  0.84362664  0.09591447  0.12861526  1
  O  O61  1  0.91466750  0.88825265  0.48581357  1
  O  O62  1  0.92224952  0.53054114  0.25075963  1
  O  O63  1  0.91466750  0.61174735  0.98581357  1
