# generated using pymatgen
data_NaVAsO5
_symmetry_space_group_name_H-M   'P 1'
_cell_length_a   6.80704600
_cell_length_b   7.21441680
_cell_length_c   8.87977608
_cell_angle_alpha   90.00000000
_cell_angle_beta   90.00000000
_cell_angle_gamma   114.61023277
_symmetry_Int_Tables_number   1
_chemical_formula_structural   NaVAsO5
_chemical_formula_sum   'Na4 V4 As4 O20'
_cell_volume   396.46338522
_cell_formula_units_Z   4
loop_
 _symmetry_equiv_pos_site_id
 _symmetry_equiv_pos_as_xyz
  1  'x, y, z'
loop_
 _atom_site_type_symbol
 _atom_site_label
 _atom_site_symmetry_multiplicity
 _atom_site_fract_x
 _atom_site_fract_y
 _atom_site_fract_z
 _atom_site_occupancy
  O  O0  1  0.56782381  0.09354801  0.69312341  1
  O  O1  1  0.43217619  0.40645199  0.19312341  1
  O  O2  1  0.43217619  0.90645199  0.30687659  1
  O  O3  1  0.56782381  0.59354801  0.80687659  1
  O  O4  1  0.36448252  0.61967165  0.54124500  1
  O  O5  1  0.63551748  0.88032835  0.04124500  1
  O  O6  1  0.63551748  0.38032835  0.45875500  1
  O  O7  1  0.36448252  0.11967165  0.95875500  1
  O  O8  1  0.24823989  0.24921493  0.69083717  1
  O  O9  1  0.75176011  0.25078507  0.19083717  1
  O  O10  1  0.75176011  0.75078507  0.30916283  1
  O  O11  1  0.24823989  0.74921493  0.80916283  1
  O  O12  1  0.15213704  0.39062153  0.95718417  1
  O  O13  1  0.84786296  0.10937847  0.45718417  1
  O  O14  1  0.84786296  0.60937847  0.04281583  1
  O  O15  1  0.15213704  0.89062153  0.54281583  1
  O  O16  1  0.94762909  0.92284310  0.82030977  1
  O  O17  1  0.05237091  0.57715690  0.32030977  1
  O  O18  1  0.05237091  0.07715690  0.17969023  1
  O  O19  1  0.94762909  0.42284310  0.67969023  1
  Na  Na20  1  0.75758965  0.76674949  0.57753109  1
  Na  Na21  1  0.24241035  0.73325051  0.07753109  1
  Na  Na22  1  0.24241035  0.23325051  0.42246891  1
  Na  Na23  1  0.75758965  0.26674949  0.92246891  1
  V  V24  1  0.25570559  0.48283044  0.74165041  1
  V  V25  1  0.74429441  0.01716956  0.24165041  1
  V  V26  1  0.74429441  0.51716956  0.25834959  1
  V  V27  1  0.25570559  0.98283044  0.75834959  1
  As  As28  1  0.75103594  0.25226927  0.56585674  1
  As  As29  1  0.24896406  0.24773073  0.06585674  1
  As  As30  1  0.24896406  0.74773073  0.43414326  1
  As  As31  1  0.75103594  0.75226927  0.93414326  1
