# generated using pymatgen
data_Li2CuAsO4
_symmetry_space_group_name_H-M   'P 1'
_cell_length_a   6.97969758
_cell_length_b   5.17407892
_cell_length_c   10.90902839
_cell_angle_alpha   90.00000000
_cell_angle_beta   88.53106535
_cell_angle_gamma   90.00000000
_symmetry_Int_Tables_number   1
_chemical_formula_structural   Li2CuAsO4
_chemical_formula_sum   'Li8 Cu4 As4 O16'
_cell_volume   393.83379557
_cell_formula_units_Z   4
loop_
 _symmetry_equiv_pos_site_id
 _symmetry_equiv_pos_as_xyz
  1  'x, y, z'
loop_
 _atom_site_type_symbol
 _atom_site_label
 _atom_site_symmetry_multiplicity
 _atom_site_fract_x
 _atom_site_fract_y
 _atom_site_fract_z
 _atom_site_occupancy
  Li  Li0  1  0.98860579  0.23159826  0.84628505  1
  Li  Li1  1  0.98860579  0.26840174  0.34628505  1
  Li  Li2  1  0.32199186  0.26993437  0.69958486  1
  Li  Li3  1  0.32199186  0.23006563  0.19958486  1
  Li  Li4  1  0.67800814  0.76993437  0.80041514  1
  Li  Li5  1  0.67800814  0.73006563  0.30041514  1
  Li  Li6  1  0.01139421  0.73159826  0.65371495  1
  Li  Li7  1  0.01139421  0.76840174  0.15371495  1
  Cu  Cu8  1  0.50007369  0.30462470  0.91374586  1
  Cu  Cu9  1  0.49992631  0.80462470  0.58625414  1
  Cu  Cu10  1  0.50007369  0.19537530  0.41374586  1
  Cu  Cu11  1  0.49992631  0.69537530  0.08625414  1
  As  As12  1  0.23539808  0.75073079  0.88786473  1
  As  As13  1  0.23539808  0.74926921  0.38786473  1
  As  As14  1  0.76460192  0.25073079  0.61213527  1
  As  As15  1  0.76460192  0.24926921  0.11213527  1
  O  O16  1  0.02259114  0.85101473  0.82963743  1
  O  O17  1  0.02259114  0.64898527  0.32963743  1
  O  O18  1  0.24934068  0.41603937  0.86461227  1
  O  O19  1  0.24704230  0.70199621  0.54523023  1
  O  O20  1  0.24934068  0.08396063  0.36461227  1
  O  O21  1  0.41625266  0.91423327  0.80954341  1
  O  O22  1  0.24704230  0.79800379  0.04523023  1
  O  O23  1  0.41625266  0.58576673  0.30954341  1
  O  O24  1  0.58374734  0.41423327  0.69045659  1
  O  O25  1  0.75295770  0.20199621  0.95476977  1
  O  O26  1  0.58374734  0.08576673  0.19045659  1
  O  O27  1  0.75065932  0.91603937  0.63538773  1
  O  O28  1  0.75295770  0.29800379  0.45476977  1
  O  O29  1  0.75065932  0.58396063  0.13538773  1
  O  O30  1  0.97740886  0.35101473  0.67036257  1
  O  O31  1  0.97740886  0.14898527  0.17036257  1
