# generated using pymatgen
data_MnO2
_symmetry_space_group_name_H-M   'P 1'
_cell_length_a   2.92886939
_cell_length_b   7.16873004
_cell_length_c   7.16874797
_cell_angle_alpha   87.60819396
_cell_angle_beta   78.21343823
_cell_angle_gamma   78.21412450
_symmetry_Int_Tables_number   1
_chemical_formula_structural   MnO2
_chemical_formula_sum   'Mn4 O8'
_cell_volume   144.23706727
_cell_formula_units_Z   4
loop_
 _symmetry_equiv_pos_site_id
 _symmetry_equiv_pos_as_xyz
  1  'x, y, z'
loop_
 _atom_site_type_symbol
 _atom_site_label
 _atom_site_symmetry_multiplicity
 _atom_site_fract_x
 _atom_site_fract_y
 _atom_site_fract_z
 _atom_site_occupancy
  O  O0  1  0.83496005  0.70805174  0.62207893  1
  O  O1  1  0.45698855  0.37791035  0.70805944  1
  O  O2  1  0.54301168  0.62208931  0.29194157  1
  O  O3  1  0.16503937  0.29194902  0.37792218  1
  O  O4  1  0.15594229  0.04821073  0.63985697  1
  O  O5  1  0.79582386  0.36014577  0.04821389  1
  O  O6  1  0.84405797  0.95178850  0.36014358  1
  O  O7  1  0.20417653  0.63985480  0.95178611  1
  Mn  Mn8  1  0.65122245  0.18204374  0.51544854  1
  Mn  Mn9  1  0.16671302  0.48454589  0.18203995  1
  Mn  Mn10  1  0.83328813  0.51545208  0.81795992  1
  Mn  Mn11  1  0.34877797  0.81795715  0.48454963  1
