# generated using pymatgen
data_CaGa4
_symmetry_space_group_name_H-M   'P 1'
_cell_length_a   4.38625717
_cell_length_b   4.38625716
_cell_length_c   6.22506397
_cell_angle_alpha   110.62843719
_cell_angle_beta   110.62843720
_cell_angle_gamma   89.99999997
_symmetry_Int_Tables_number   1
_chemical_formula_structural   CaGa4
_chemical_formula_sum   'Ca1 Ga4'
_cell_volume   103.84170412
_cell_formula_units_Z   1
loop_
 _symmetry_equiv_pos_site_id
 _symmetry_equiv_pos_as_xyz
  1  'x, y, z'
loop_
 _atom_site_type_symbol
 _atom_site_label
 _atom_site_symmetry_multiplicity
 _atom_site_fract_x
 _atom_site_fract_y
 _atom_site_fract_z
 _atom_site_occupancy
  Ca  Ca0  1  0.00000000  0.00000000  0.00000000  1
  Ga  Ga1  1  0.75000000  0.25000000  0.50000000  1
  Ga  Ga2  1  0.25000000  0.75000000  0.50000000  1
  Ga  Ga3  1  0.38515869  0.38515869  0.77031738  1
  Ga  Ga4  1  0.61484131  0.61484131  0.22968262  1
