# generated using pymatgen
data_La(NiGe)2
_symmetry_space_group_name_H-M   'P 1'
_cell_length_a   4.20243074
_cell_length_b   4.20243074
_cell_length_c   5.78136224
_cell_angle_alpha   111.31200356
_cell_angle_beta   111.31200358
_cell_angle_gamma   90.00000003
_symmetry_Int_Tables_number   1
_chemical_formula_structural   La(NiGe)2
_chemical_formula_sum   'La1 Ni2 Ge2'
_cell_volume   87.58206089
_cell_formula_units_Z   1
loop_
 _symmetry_equiv_pos_site_id
 _symmetry_equiv_pos_as_xyz
  1  'x, y, z'
loop_
 _atom_site_type_symbol
 _atom_site_label
 _atom_site_symmetry_multiplicity
 _atom_site_fract_x
 _atom_site_fract_y
 _atom_site_fract_z
 _atom_site_occupancy
  Ni  Ni0  1  0.75000000  0.25000000  0.50000000  1
  Ni  Ni1  1  0.25000000  0.75000000  0.50000000  1
  Ge  Ge2  1  0.63431821  0.63431821  0.26863641  1
  Ge  Ge3  1  0.36568179  0.36568179  0.73136359  1
  La  La4  1  0.00000000  0.00000000  0.00000000  1
