# generated using pymatgen
data_Na6Bi2As(CO4)4
_symmetry_space_group_name_H-M   'P 1'
_cell_length_a   10.37262663
_cell_length_b   10.37262656
_cell_length_c   10.37262615
_cell_angle_alpha   89.99999819
_cell_angle_beta   59.99999850
_cell_angle_gamma   59.99999982
_symmetry_Int_Tables_number   1
_chemical_formula_structural   Na6Bi2As(CO4)4
_chemical_formula_sum   'Na12 Bi4 As2 C8 O32'
_cell_volume   789.13482834
_cell_formula_units_Z   2
loop_
 _symmetry_equiv_pos_site_id
 _symmetry_equiv_pos_as_xyz
  1  'x, y, z'
loop_
 _atom_site_type_symbol
 _atom_site_label
 _atom_site_symmetry_multiplicity
 _atom_site_fract_x
 _atom_site_fract_y
 _atom_site_fract_z
 _atom_site_occupancy
  Na  Na0  1  0.75000000  0.67574215  0.92574215  1
  Na  Na1  1  0.64851569  0.92574215  0.67574215  1
  Na  Na2  1  0.75000000  0.67574215  0.32425785  1
  Na  Na3  1  0.75000000  0.07425785  0.92574215  1
  Na  Na4  1  0.85148431  0.32425785  0.07425785  1
  Na  Na5  1  0.25000000  0.92574215  0.67574215  1
  Na  Na6  1  0.14851569  0.67574215  0.92574215  1
  Na  Na7  1  0.75000000  0.07425785  0.32425785  1
  Na  Na8  1  0.25000000  0.32425785  0.67574215  1
  Na  Na9  1  0.25000000  0.92574215  0.07425785  1
  Na  Na10  1  0.35148431  0.07425785  0.32425785  1
  Na  Na11  1  0.25000000  0.32425785  0.07425785  1
  Bi  Bi12  1  0.50000000  0.50000000  0.50000000  1
  Bi  Bi13  1  0.50000000  0.50000000  0.00000000  1
  Bi  Bi14  1  0.00000000  0.50000000  0.50000000  1
  Bi  Bi15  1  0.00000000  0.00000000  0.50000000  1
  As  As16  1  0.75000000  0.87500000  0.12500000  1
  As  As17  1  0.25000000  0.12500000  0.87500000  1
  C  C18  1  0.95368396  0.27315802  0.72684198  1
  C  C19  1  0.54631604  0.68052594  0.72684198  1
  C  C20  1  0.95368396  0.27315802  0.31947406  1
  C  C21  1  0.54631604  0.27315802  0.72684198  1
  C  C22  1  0.45368396  0.72684198  0.27315802  1
  C  C23  1  0.04631604  0.72684198  0.68052594  1
  C  C24  1  0.45368396  0.31947406  0.27315802  1
  C  C25  1  0.04631604  0.72684198  0.27315802  1
  O  O26  1  0.92543037  0.85565251  0.67925609  1
  O  O27  1  0.92543037  0.71891612  0.39531354  1
  O  O28  1  0.82360258  0.39531354  0.85565251  1
  O  O29  1  0.67639742  0.67925609  0.71891612  1
  O  O30  1  0.96033897  0.14434749  0.71891612  1
  O  O31  1  0.88589285  0.94294592  0.05705408  1
  O  O32  1  0.96033897  0.39531354  0.32074391  1
  O  O33  1  0.88589285  0.67116123  0.05705408  1
  O  O34  1  0.61410715  0.94294592  0.32883877  1
  O  O35  1  0.42543037  0.67925609  0.85565251  1
  O  O36  1  0.53966103  0.67925609  0.60468646  1
  O  O37  1  0.61410715  0.94294592  0.05705408  1
  O  O38  1  0.53966103  0.28108388  0.85565251  1
  O  O39  1  0.82360258  0.28108388  0.32074391  1
  O  O40  1  0.67639742  0.14434749  0.60468646  1
  O  O41  1  0.57456963  0.60468646  0.28108388  1
  O  O42  1  0.42543037  0.39531354  0.71891612  1
  O  O43  1  0.32360258  0.85565251  0.39531354  1
  O  O44  1  0.17639742  0.71891612  0.67925609  1
  O  O45  1  0.46033897  0.71891612  0.14434749  1
  O  O46  1  0.38589285  0.05705408  0.94294592  1
  O  O47  1  0.46033897  0.32074391  0.39531354  1
  O  O48  1  0.57456963  0.32074391  0.14434749  1
  O  O49  1  0.11410715  0.32883877  0.94294592  1
  O  O50  1  0.38589285  0.05705408  0.67116123  1
  O  O51  1  0.03966103  0.60468646  0.67925609  1
  O  O52  1  0.11410715  0.05705408  0.94294592  1
  O  O53  1  0.03966103  0.85565251  0.28108388  1
  O  O54  1  0.32360258  0.32074391  0.28108388  1
  O  O55  1  0.17639742  0.60468646  0.14434749  1
  O  O56  1  0.07456963  0.28108388  0.60468646  1
  O  O57  1  0.07456963  0.14434749  0.32074391  1
