# generated using pymatgen
data_LiCuPO4
_symmetry_space_group_name_H-M   'P 1'
_cell_length_a   8.52996864
_cell_length_b   4.88504271
_cell_length_c   7.74842080
_cell_angle_alpha   90.00000000
_cell_angle_beta   90.00000000
_cell_angle_gamma   90.00000000
_symmetry_Int_Tables_number   1
_chemical_formula_structural   LiCuPO4
_chemical_formula_sum   'Li4 Cu4 P4 O16'
_cell_volume   322.87096959
_cell_formula_units_Z   4
loop_
 _symmetry_equiv_pos_site_id
 _symmetry_equiv_pos_as_xyz
  1  'x, y, z'
loop_
 _atom_site_type_symbol
 _atom_site_label
 _atom_site_symmetry_multiplicity
 _atom_site_fract_x
 _atom_site_fract_y
 _atom_site_fract_z
 _atom_site_occupancy
  Li  Li0  1  0.19446374  0.43010000  0.51239954  1
  Li  Li1  1  0.30553626  0.43010000  0.01239954  1
  Li  Li2  1  0.69446374  0.93010000  0.98760046  1
  Li  Li3  1  0.80553626  0.93010000  0.48760046  1
  Cu  Cu4  1  0.04598549  0.95261066  0.84176490  1
  Cu  Cu5  1  0.45401451  0.95261066  0.34176490  1
  Cu  Cu6  1  0.54598549  0.45261066  0.65823510  1
  Cu  Cu7  1  0.95401451  0.45261066  0.15823510  1
  P  P8  1  0.07453011  0.98501188  0.25651731  1
  P  P9  1  0.42546989  0.98501188  0.75651731  1
  P  P10  1  0.57453011  0.48501188  0.24348269  1
  P  P11  1  0.92546989  0.48501188  0.74348269  1
  O  O12  1  0.04745707  0.25392660  0.36134994  1
  O  O13  1  0.08021770  0.31721056  0.73538589  1
  O  O14  1  0.09206940  0.11974467  0.06770457  1
  O  O15  1  0.21447667  0.81075863  0.30988861  1
  O  O16  1  0.28552333  0.81075863  0.80988861  1
  O  O17  1  0.40793060  0.11974467  0.56770457  1
  O  O18  1  0.41978230  0.31721056  0.23538589  1
  O  O19  1  0.45254293  0.25392660  0.86134994  1
  O  O20  1  0.54745707  0.75392660  0.13865006  1
  O  O21  1  0.58021770  0.81721056  0.76461411  1
  O  O22  1  0.59206940  0.61974467  0.43229543  1
  O  O23  1  0.71447667  0.31075863  0.19011139  1
  O  O24  1  0.78552333  0.31075863  0.69011139  1
  O  O25  1  0.90793060  0.61974467  0.93229543  1
  O  O26  1  0.91978230  0.81721056  0.26461411  1
  O  O27  1  0.95254293  0.75392660  0.63865006  1
