# generated using pymatgen
data_CeSiNi
_symmetry_space_group_name_H-M   'P 1'
_cell_length_a   4.01088460
_cell_length_b   4.01088460
_cell_length_c   7.57856220
_cell_angle_alpha   105.34439921
_cell_angle_beta   105.34439923
_cell_angle_gamma   89.99999998
_symmetry_Int_Tables_number   1
_chemical_formula_structural   CeSiNi
_chemical_formula_sum   'Ce2 Si2 Ni2'
_cell_volume   113.05877498
_cell_formula_units_Z   2
loop_
 _symmetry_equiv_pos_site_id
 _symmetry_equiv_pos_as_xyz
  1  'x, y, z'
loop_
 _atom_site_type_symbol
 _atom_site_label
 _atom_site_symmetry_multiplicity
 _atom_site_fract_x
 _atom_site_fract_y
 _atom_site_fract_z
 _atom_site_occupancy
  Si  Si0  1  0.16833023  0.66833023  0.33666045  1
  Si  Si1  1  0.41833023  0.41833023  0.83666045  1
  Ni  Ni2  1  0.58547302  0.58547302  0.17094604  1
  Ni  Ni3  1  0.33547302  0.83547302  0.67094604  1
  Ce  Ce4  1  0.75019676  0.25019676  0.50039351  1
  Ce  Ce5  1  1.00019676  1.00019676  1.00039351  1
