# generated using pymatgen
data_LaGe3Ir
_symmetry_space_group_name_H-M   'P 1'
_cell_length_a   4.47604066
_cell_length_b   4.47604066
_cell_length_c   5.99668387
_cell_angle_alpha   111.91370189
_cell_angle_beta   111.91370183
_cell_angle_gamma   90.00000003
_symmetry_Int_Tables_number   1
_chemical_formula_structural   LaGe3Ir
_chemical_formula_sum   'La1 Ge3 Ir1'
_cell_volume   102.04601032
_cell_formula_units_Z   1
loop_
 _symmetry_equiv_pos_site_id
 _symmetry_equiv_pos_as_xyz
  1  'x, y, z'
loop_
 _atom_site_type_symbol
 _atom_site_label
 _atom_site_symmetry_multiplicity
 _atom_site_fract_x
 _atom_site_fract_y
 _atom_site_fract_z
 _atom_site_occupancy
  Ge  Ge0  1  0.84243698  0.34243698  0.68487397  1
  Ge  Ge1  1  0.34243698  0.84243698  0.68487397  1
  Ge  Ge2  1  1.00047612  1.00047612  1.00095224  1
  La  La3  1  0.57938214  0.57938214  0.15876428  1
  Ir  Ir4  1  0.23830777  0.23830777  0.47661554  1
