# generated using pymatgen
data_Li2FeBO4
_symmetry_space_group_name_H-M   'P 1'
_cell_length_a   5.06606932
_cell_length_b   5.06606932
_cell_length_c   6.17738852
_cell_angle_alpha   89.20542080
_cell_angle_beta   90.79457920
_cell_angle_gamma   87.73182650
_symmetry_Int_Tables_number   1
_chemical_formula_structural   Li2FeBO4
_chemical_formula_sum   'Li4 Fe2 B2 O8'
_cell_volume   158.38709930
_cell_formula_units_Z   2
loop_
 _symmetry_equiv_pos_site_id
 _symmetry_equiv_pos_as_xyz
  1  'x, y, z'
loop_
 _atom_site_type_symbol
 _atom_site_label
 _atom_site_symmetry_multiplicity
 _atom_site_fract_x
 _atom_site_fract_y
 _atom_site_fract_z
 _atom_site_occupancy
  Li  Li0  1  0.32609615  0.67390385  0.71299723  1
  Li  Li1  1  0.17779563  0.17779563  0.50000000  1
  Li  Li2  1  0.82220437  0.82220437  0.50000000  1
  Li  Li3  1  0.67390385  0.32609615  0.28700277  1
  Fe  Fe4  1  0.19556799  0.19556799  0.00000000  1
  Fe  Fe5  1  0.80443201  0.80443201  0.00000000  1
  B  B6  1  0.31738553  0.68261447  0.25578228  1
  B  B7  1  0.68261447  0.31738553  0.74421772  1
  O  O8  1  0.19566715  0.80433285  0.03178867  1
  O  O9  1  0.19910214  0.80089786  0.43512545  1
  O  O10  1  0.61211289  0.71977270  0.24336243  1
  O  O11  1  0.28022730  0.38788711  0.24336243  1
  O  O12  1  0.38788711  0.28022730  0.75663757  1
  O  O13  1  0.71977270  0.61211289  0.75663757  1
  O  O14  1  0.80089786  0.19910214  0.56487455  1
  O  O15  1  0.80433285  0.19566715  0.96821133  1
