# generated using pymatgen
data_CeCoGe3
_symmetry_space_group_name_H-M   'P 1'
_cell_length_a   4.30983474
_cell_length_b   4.30983474
_cell_length_c   5.76770283
_cell_angle_alpha   111.93892007
_cell_angle_beta   111.93892000
_cell_angle_gamma   90.00000003
_symmetry_Int_Tables_number   1
_chemical_formula_structural   CeCoGe3
_chemical_formula_sum   'Ce1 Co1 Ge3'
_cell_volume   90.95724482
_cell_formula_units_Z   1
loop_
 _symmetry_equiv_pos_site_id
 _symmetry_equiv_pos_as_xyz
  1  'x, y, z'
loop_
 _atom_site_type_symbol
 _atom_site_label
 _atom_site_symmetry_multiplicity
 _atom_site_fract_x
 _atom_site_fract_y
 _atom_site_fract_z
 _atom_site_occupancy
  Co  Co0  1  0.00491493  0.00491493  0.00982985  1
  Ge  Ge1  1  0.59589773  0.09589773  0.19179546  1
  Ge  Ge2  1  0.77160755  0.77160755  0.54321510  1
  Ge  Ge3  1  0.09589773  0.59589773  0.19179546  1
  Ce  Ce4  1  0.33378206  0.33378206  0.66756413  1
