# generated using pymatgen
data_NpSi2
_symmetry_space_group_name_H-M   'P 1'
_cell_length_a   3.93095760
_cell_length_b   3.93095760
_cell_length_c   7.64578046
_cell_angle_alpha   104.89610146
_cell_angle_beta   104.89610146
_cell_angle_gamma   90.00000000
_symmetry_Int_Tables_number   1
_chemical_formula_structural   NpSi2
_chemical_formula_sum   'Np2 Si4'
_cell_volume   110.06180780
_cell_formula_units_Z   2
loop_
 _symmetry_equiv_pos_site_id
 _symmetry_equiv_pos_as_xyz
  1  'x, y, z'
loop_
 _atom_site_type_symbol
 _atom_site_label
 _atom_site_symmetry_multiplicity
 _atom_site_fract_x
 _atom_site_fract_y
 _atom_site_fract_z
 _atom_site_occupancy
  Np  Np0  1  0.25000000  0.75000000  0.50000000  1
  Np  Np1  1  -0.00000000  -0.00000000  -0.00000000  1
  Si  Si2  1  0.66791006  0.16791006  0.33582011  1
  Si  Si3  1  0.58208994  0.58208994  0.16417989  1
  Si  Si4  1  0.83208994  0.33208994  0.66417989  1
  Si  Si5  1  0.41791006  0.41791006  0.83582011  1
