# generated using pymatgen
data_Li3MnPCO7
_symmetry_space_group_name_H-M   'P 1'
_cell_length_a   5.03207332
_cell_length_b   6.86992692
_cell_length_c   8.73626282
_cell_angle_alpha   95.90144707
_cell_angle_beta   86.86449024
_cell_angle_gamma   97.41956246
_symmetry_Int_Tables_number   1
_chemical_formula_structural   Li3MnPCO7
_chemical_formula_sum   'Li6 Mn2 P2 C2 O14'
_cell_volume   297.63371856
_cell_formula_units_Z   2
loop_
 _symmetry_equiv_pos_site_id
 _symmetry_equiv_pos_as_xyz
  1  'x, y, z'
loop_
 _atom_site_type_symbol
 _atom_site_label
 _atom_site_symmetry_multiplicity
 _atom_site_fract_x
 _atom_site_fract_y
 _atom_site_fract_z
 _atom_site_occupancy
  Li  Li0  1  0.33571498  0.55259086  0.76423218  1
  Li  Li1  1  0.49822472  0.91999216  0.78668525  1
  Li  Li2  1  0.16991404  0.17977599  0.75298742  1
  Li  Li3  1  0.08443836  0.71648651  0.24158269  1
  Li  Li4  1  0.75607294  0.97637589  0.20779023  1
  Li  Li5  1  0.91895158  0.34369899  0.23038532  1
  Mn  Mn6  1  0.92314116  0.70192925  0.62805707  1
  Mn  Mn7  1  0.33148190  0.19412255  0.36651339  1
  P  P8  1  0.79406647  0.20343101  0.58318233  1
  P  P9  1  0.46054745  0.69254221  0.41130985  1
  C  C10  1  0.87198560  0.72564641  0.93653709  1
  C  C11  1  0.38254211  0.17075243  0.05823216  1
  O  O12  1  0.40240477  0.16175861  0.91118535  1
  O  O13  1  0.10288320  0.74258503  0.86113361  1
  O  O14  1  0.65913102  0.70023831  0.85297918  1
  O  O15  1  0.85338742  0.02130445  0.66318962  1
  O  O16  1  0.96187505  0.38484950  0.66811327  1
  O  O17  1  0.48868010  0.22570626  0.59217421  1
  O  O18  1  0.36671023  0.71800333  0.58504764  1
  O  O19  1  0.88790383  0.17822928  0.40953082  1
  O  O20  1  0.76583811  0.66987836  0.40243189  1
  O  O21  1  0.29238189  0.51119619  0.32663198  1
  O  O22  1  0.40170211  0.87463166  0.33114939  1
  O  O23  1  0.59561079  0.19638105  0.14142159  1
  O  O24  1  0.15193319  0.15353781  0.13362251  1
  O  O25  1  0.85180799  0.73469688  0.08331696  1
