# generated using pymatgen
data_FeAsRh
_symmetry_space_group_name_H-M   'P 1'
_cell_length_a   3.69031528
_cell_length_b   6.34938229
_cell_length_c   6.34938250
_cell_angle_alpha   60.17683279
_cell_angle_beta   90.00000000
_cell_angle_gamma   90.00000000
_symmetry_Int_Tables_number   1
_chemical_formula_structural   FeAsRh
_chemical_formula_sum   'Fe3 As3 Rh3'
_cell_volume   129.07085231
_cell_formula_units_Z   3
loop_
 _symmetry_equiv_pos_site_id
 _symmetry_equiv_pos_as_xyz
  1  'x, y, z'
loop_
 _atom_site_type_symbol
 _atom_site_label
 _atom_site_symmetry_multiplicity
 _atom_site_fract_x
 _atom_site_fract_y
 _atom_site_fract_z
 _atom_site_occupancy
  Fe  Fe0  1  0.50000000  0.60359495  0.39640505  1
  Fe  Fe1  1  0.50000000  0.39628327  0.00057285  1
  Fe  Fe2  1  0.50000000  0.99942715  0.60371673  1
  As  As3  1  0.00000000  0.33407931  0.33310012  1
  As  As4  1  0.00000000  0.66689988  0.66592069  1
  As  As5  1  0.50000000  0.99998439  0.00001561  1
  Rh  Rh6  1  0.00000000  0.26316543  0.73683457  1
  Rh  Rh7  1  0.00000000  0.73641953  -0.00004609  1
  Rh  Rh8  1  0.00000000  0.00004609  0.26358047  1
