# generated using pymatgen
data_TbInCu4
_symmetry_space_group_name_H-M   'P 1'
_cell_length_a   5.14801269
_cell_length_b   5.14801310
_cell_length_c   5.14801276
_cell_angle_alpha   60.00000218
_cell_angle_beta   59.99999956
_cell_angle_gamma   59.99999985
_symmetry_Int_Tables_number   1
_chemical_formula_structural   TbInCu4
_chemical_formula_sum   'Tb1 In1 Cu4'
_cell_volume   96.47257581
_cell_formula_units_Z   1
loop_
 _symmetry_equiv_pos_site_id
 _symmetry_equiv_pos_as_xyz
  1  'x, y, z'
loop_
 _atom_site_type_symbol
 _atom_site_label
 _atom_site_symmetry_multiplicity
 _atom_site_fract_x
 _atom_site_fract_y
 _atom_site_fract_z
 _atom_site_occupancy
  Tb  Tb0  1  0.00000000  -0.00000000  -0.00000000  1
  In  In1  1  0.25000000  0.25000000  0.25000000  1
  Cu  Cu2  1  0.12627094  0.62457635  0.62457635  1
  Cu  Cu3  1  0.62457635  0.62457635  0.62457635  1
  Cu  Cu4  1  0.62457635  0.12627094  0.62457635  1
  Cu  Cu5  1  0.62457635  0.62457635  0.12627094  1
