# generated using pymatgen
data_TaInS2
_symmetry_space_group_name_H-M   'P 1'
_cell_length_a   3.32490643
_cell_length_b   3.32490643
_cell_length_c   8.93644547
_cell_angle_alpha   90.00000000
_cell_angle_beta   90.00000000
_cell_angle_gamma   119.99961223
_symmetry_Int_Tables_number   1
_chemical_formula_structural   TaInS2
_chemical_formula_sum   'Ta1 In1 S2'
_cell_volume   85.55708799
_cell_formula_units_Z   1
loop_
 _symmetry_equiv_pos_site_id
 _symmetry_equiv_pos_as_xyz
  1  'x, y, z'
loop_
 _atom_site_type_symbol
 _atom_site_label
 _atom_site_symmetry_multiplicity
 _atom_site_fract_x
 _atom_site_fract_y
 _atom_site_fract_z
 _atom_site_occupancy
  Ta  Ta0  1  0.66667196  0.33332804  0.50000000  1
  In  In1  1  0.00000182  0.99999818  0.00000000  1
  S  S2  1  0.00001311  0.99998689  0.32442110  1
  S  S3  1  0.00001311  0.99998689  0.67557890  1
