# generated using pymatgen
data_Li4Mn5CuO12
_symmetry_space_group_name_H-M   'P 1'
_cell_length_a   5.09610673
_cell_length_b   5.16016397
_cell_length_c   10.26539402
_cell_angle_alpha   90.66710029
_cell_angle_beta   91.83302599
_cell_angle_gamma   60.24282110
_symmetry_Int_Tables_number   1
_chemical_formula_structural   Li4Mn5CuO12
_chemical_formula_sum   'Li4 Mn5 Cu1 O12'
_cell_volume   234.22770631
_cell_formula_units_Z   1
loop_
 _symmetry_equiv_pos_site_id
 _symmetry_equiv_pos_as_xyz
  1  'x, y, z'
loop_
 _atom_site_type_symbol
 _atom_site_label
 _atom_site_symmetry_multiplicity
 _atom_site_fract_x
 _atom_site_fract_y
 _atom_site_fract_z
 _atom_site_occupancy
  Li  Li0  1  0.16293752  0.50021348  0.75027025  1
  Li  Li1  1  0.33668910  0.49391520  0.25000187  1
  Li  Li2  1  0.66390692  0.49213075  0.75053126  1
  Li  Li3  1  0.83387876  0.50294323  0.25039184  1
  Mn  Mn4  1  0.16470047  0.66477282  0.50002746  1
  Mn  Mn5  1  0.66524668  0.66939985  0.99939847  1
  Mn  Mn6  1  0.33640075  0.32725679  -0.00020899  1
  Mn  Mn7  1  0.83560989  0.32117636  0.49987490  1
  Mn  Mn8  1  0.49675119  0.00021743  0.50021266  1
  Cu  Cu9  1  0.00117403  0.99799252  0.00055148  1
  O  O10  1  0.01136879  0.62245171  0.10704338  1
  O  O11  1  0.36367526  0.62530691  0.89335401  1
  O  O12  1  0.16353593  0.36497629  0.38869546  1
  O  O13  1  0.49514494  0.64047459  0.39607879  1
  O  O14  1  0.46592544  0.36596600  0.61249012  1
  O  O15  1  0.17791178  0.99221135  0.59276834  1
  O  O16  1  0.85609786  0.64216613  0.60303901  1
  O  O17  1  0.63800989  0.37180758  0.10747509  1
  O  O18  1  0.34245630  0.99716074  0.09196629  1
  O  O19  1  0.98978084  0.37382203  0.89247529  1
  O  O20  1  0.66054438  0.99944924  0.90840811  1
  O  O21  1  0.82177527  0.99342701  0.40663793  1
