# generated using pymatgen
data_InCl
_symmetry_space_group_name_H-M   'P 1'
_cell_length_a   12.55094838
_cell_length_b   12.55094838
_cell_length_c   12.55094838
_cell_angle_alpha   90.00000000
_cell_angle_beta   90.00000000
_cell_angle_gamma   90.00000000
_symmetry_Int_Tables_number   1
_chemical_formula_structural   InCl
_chemical_formula_sum   'In32 Cl32'
_cell_volume   1977.10452553
_cell_formula_units_Z   32
loop_
 _symmetry_equiv_pos_site_id
 _symmetry_equiv_pos_as_xyz
  1  'x, y, z'
loop_
 _atom_site_type_symbol
 _atom_site_label
 _atom_site_symmetry_multiplicity
 _atom_site_fract_x
 _atom_site_fract_y
 _atom_site_fract_z
 _atom_site_occupancy
  Cl  Cl0  1  0.94862546  0.00365414  0.30089044  1
  Cl  Cl1  1  0.30089044  0.94862546  0.00365414  1
  Cl  Cl2  1  0.00365414  0.30089044  0.94862546  1
  Cl  Cl3  1  0.49634586  0.69910956  0.44862546  1
  Cl  Cl4  1  0.80089044  0.55137454  0.99634586  1
  Cl  Cl5  1  0.99634586  0.80089044  0.55137454  1
  Cl  Cl6  1  0.19910956  0.05137454  0.50365414  1
  Cl  Cl7  1  0.69910956  0.44862546  0.49634586  1
  Cl  Cl8  1  0.50365414  0.19910956  0.05137454  1
  Cl  Cl9  1  0.44862546  0.49634586  0.69910956  1
  Cl  Cl10  1  0.05137454  0.50365414  0.19910956  1
  Cl  Cl11  1  0.55137454  0.99634586  0.80089044  1
  Cl  Cl12  1  0.05518480  0.98914129  0.80114761  1
  Cl  Cl13  1  0.80114761  0.05518480  0.98914129  1
  Cl  Cl14  1  0.98914129  0.80114761  0.05518480  1
  Cl  Cl15  1  0.51085871  0.19885239  0.55518480  1
  Cl  Cl16  1  0.30114761  0.44481520  0.01085871  1
  Cl  Cl17  1  0.01085871  0.30114761  0.44481520  1
  Cl  Cl18  1  0.69885239  0.94481520  0.48914129  1
  Cl  Cl19  1  0.19885239  0.55518480  0.51085871  1
  Cl  Cl20  1  0.48914129  0.69885239  0.94481520  1
  Cl  Cl21  1  0.55518480  0.51085871  0.19885239  1
  Cl  Cl22  1  0.94481520  0.48914129  0.69885239  1
  Cl  Cl23  1  0.44481520  0.01085871  0.30114761  1
  Cl  Cl24  1  0.20612257  0.20612257  0.20612257  1
  Cl  Cl25  1  0.29387743  0.79387743  0.70612257  1
  Cl  Cl26  1  0.70612257  0.29387743  0.79387743  1
  Cl  Cl27  1  0.79387743  0.70612257  0.29387743  1
  Cl  Cl28  1  0.79858263  0.79858263  0.79858263  1
  Cl  Cl29  1  0.70141737  0.20141737  0.29858263  1
  Cl  Cl30  1  0.29858263  0.70141737  0.20141737  1
  Cl  Cl31  1  0.20141737  0.29858263  0.70141737  1
  In  In32  1  0.24845365  0.22268913  0.97350094  1
  In  In33  1  0.97350094  0.24845365  0.22268913  1
  In  In34  1  0.22268913  0.97350094  0.24845365  1
  In  In35  1  0.27731087  0.02649906  0.74845365  1
  In  In36  1  0.47350094  0.25154635  0.77731087  1
  In  In37  1  0.77731087  0.47350094  0.25154635  1
  In  In38  1  0.52649906  0.75154635  0.72268913  1
  In  In39  1  0.02649906  0.74845365  0.27731087  1
  In  In40  1  0.72268913  0.52649906  0.75154635  1
  In  In41  1  0.74845365  0.27731087  0.02649906  1
  In  In42  1  0.75154635  0.72268913  0.52649906  1
  In  In43  1  0.25154635  0.77731087  0.47350094  1
  In  In44  1  0.75459702  0.77658221  0.02833920  1
  In  In45  1  0.02833920  0.75459702  0.77658221  1
  In  In46  1  0.77658221  0.02833920  0.75459702  1
  In  In47  1  0.72341779  0.97166080  0.25459702  1
  In  In48  1  0.52833920  0.74540298  0.22341779  1
  In  In49  1  0.22341779  0.52833920  0.74540298  1
  In  In50  1  0.47166080  0.24540298  0.27658221  1
  In  In51  1  0.97166080  0.25459702  0.72341779  1
  In  In52  1  0.27658221  0.47166080  0.24540298  1
  In  In53  1  0.25459702  0.72341779  0.97166080  1
  In  In54  1  0.24540298  0.27658221  0.47166080  1
  In  In55  1  0.74540298  0.22341779  0.52833920  1
  In  In56  1  0.02967754  0.02967754  0.02967754  1
  In  In57  1  0.47032246  0.97032246  0.52967754  1
  In  In58  1  0.52967754  0.47032246  0.97032246  1
  In  In59  1  0.97032246  0.52967754  0.47032246  1
  In  In60  1  0.46719401  0.46719401  0.46719401  1
  In  In61  1  0.03280599  0.53280599  0.96719401  1
  In  In62  1  0.96719401  0.03280599  0.53280599  1
  In  In63  1  0.53280599  0.96719401  0.03280599  1
