# generated using pymatgen
data_Li2VBO4
_symmetry_space_group_name_H-M   'P 1'
_cell_length_a   5.87253471
_cell_length_b   5.45339985
_cell_length_c   4.71976780
_cell_angle_alpha   90.00002646
_cell_angle_beta   90.00003193
_cell_angle_gamma   90.00018630
_symmetry_Int_Tables_number   1
_chemical_formula_structural   Li2VBO4
_chemical_formula_sum   'Li4 V2 B2 O8'
_cell_volume   151.15188489
_cell_formula_units_Z   2
loop_
 _symmetry_equiv_pos_site_id
 _symmetry_equiv_pos_as_xyz
  1  'x, y, z'
loop_
 _atom_site_type_symbol
 _atom_site_label
 _atom_site_symmetry_multiplicity
 _atom_site_fract_x
 _atom_site_fract_y
 _atom_site_fract_z
 _atom_site_occupancy
  Li  Li0  1  0.25493533  0.34134963  0.98984969  1
  Li  Li1  1  0.24506377  0.65865078  0.48985133  1
  Li  Li2  1  0.74506320  0.34134870  0.98985077  1
  Li  Li3  1  0.75493554  0.65865060  0.48985111  1
  V  V4  1  0.00000621  0.86269386  0.98139366  1
  V  V5  1  0.49999529  0.13730465  0.48139113  1
  B  B6  1  -0.00000107  0.17620260  0.50440501  1
  B  B7  1  0.50000086  0.82379743  0.00440392  1
  O  O8  1  0.00000042  0.17922159  0.81997670  1
  O  O9  1  0.99999906  0.91083926  0.40612291  1
  O  O10  1  0.28943767  0.69307203  0.90420014  1
  O  O11  1  0.21056374  0.30692767  0.40420074  1
  O  O12  1  0.49999962  0.08916007  0.90612152  1
  O  O13  1  0.49999864  0.82078031  0.31997608  1
  O  O14  1  0.78943666  0.30692720  0.40420204  1
  O  O15  1  0.71056507  0.69307362  0.90420326  1
