# generated using pymatgen
data_Ca11Bi10
_symmetry_space_group_name_H-M   'P 1'
_cell_length_a   12.37299594
_cell_length_b   12.37299595
_cell_length_c   12.50909874
_cell_angle_alpha   119.64073041
_cell_angle_beta   119.64073044
_cell_angle_gamma   89.99999998
_symmetry_Int_Tables_number   1
_chemical_formula_structural   Ca11Bi10
_chemical_formula_sum   'Ca22 Bi20'
_cell_volume   1368.70603348
_cell_formula_units_Z   2
loop_
 _symmetry_equiv_pos_site_id
 _symmetry_equiv_pos_as_xyz
  1  'x, y, z'
loop_
 _atom_site_type_symbol
 _atom_site_label
 _atom_site_symmetry_multiplicity
 _atom_site_fract_x
 _atom_site_fract_y
 _atom_site_fract_z
 _atom_site_occupancy
  Ca  Ca0  1  0.19075035  0.44141374  0.38150071  1
  Ca  Ca1  1  0.94008697  0.19075035  0.38150071  1
  Ca  Ca2  1  0.44141374  0.19075035  0.38150071  1
  Ca  Ca3  1  0.80924965  0.55858626  0.61849929  1
  Ca  Ca4  1  0.80924965  0.05991303  0.61849929  1
  Ca  Ca5  1  0.05991303  0.80924965  0.61849929  1
  Ca  Ca6  1  0.55858626  0.80924965  0.61849929  1
  Ca  Ca7  1  0.19075035  0.94008697  0.38150071  1
  Ca  Ca8  1  0.16007900  0.16007900  0.00000000  1
  Ca  Ca9  1  0.83992100  0.16007900  0.00000000  1
  Ca  Ca10  1  0.16007900  0.83992100  0.00000000  1
  Ca  Ca11  1  0.83992100  0.83992100  0.00000000  1
  Ca  Ca12  1  0.33564062  0.33564062  0.67128123  1
  Ca  Ca13  1  0.66435938  0.66435938  0.32871877  1
  Ca  Ca14  1  0.39646424  0.73791268  0.79292848  1
  Ca  Ca15  1  0.05501580  0.39646424  0.79292848  1
  Ca  Ca16  1  0.73791268  0.39646424  0.79292848  1
  Ca  Ca17  1  0.60353576  0.26208732  0.20707152  1
  Ca  Ca18  1  0.60353576  0.94498420  0.20707152  1
  Ca  Ca19  1  0.94498420  0.60353576  0.20707152  1
  Ca  Ca20  1  0.26208732  0.60353576  0.20707152  1
  Ca  Ca21  1  0.39646424  0.05501580  0.79292848  1
  Bi  Bi22  1  0.34775443  0.00000000  0.00000000  1
  Bi  Bi23  1  0.00000000  0.34775443  0.00000000  1
  Bi  Bi24  1  0.00000000  0.65224557  0.00000000  1
  Bi  Bi25  1  0.65224557  0.00000000  0.00000000  1
  Bi  Bi26  1  0.12802317  0.12802317  0.25604634  1
  Bi  Bi27  1  0.87197683  0.87197683  0.74395366  1
  Bi  Bi28  1  0.36911918  0.36911918  0.00000000  1
  Bi  Bi29  1  0.63088082  0.36911918  0.00000000  1
  Bi  Bi30  1  0.36911918  0.63088082  0.00000000  1
  Bi  Bi31  1  0.63088082  0.63088082  0.00000000  1
  Bi  Bi32  1  0.25000000  0.75000000  0.50000000  1
  Bi  Bi33  1  0.75000000  0.25000000  0.50000000  1
  Bi  Bi34  1  0.53195832  0.53195832  0.65492266  1
  Bi  Bi35  1  0.12296435  0.53195832  0.65492266  1
  Bi  Bi36  1  0.53195832  0.12296435  0.65492266  1
  Bi  Bi37  1  0.87703565  0.46804168  0.34507734  1
  Bi  Bi38  1  0.46804168  0.87703565  0.34507734  1
  Bi  Bi39  1  0.87703565  0.87703565  0.34507734  1
  Bi  Bi40  1  0.46804168  0.46804168  0.34507734  1
  Bi  Bi41  1  0.12296435  0.12296435  0.65492266  1
