# generated using pymatgen
data_H6OF4
_symmetry_space_group_name_H-M   'P 1'
_cell_length_a   5.55515114
_cell_length_b   6.62942008
_cell_length_c   7.03141747
_cell_angle_alpha   115.15291570
_cell_angle_beta   97.69521201
_cell_angle_gamma   110.09565573
_symmetry_Int_Tables_number   1
_chemical_formula_structural   H6OF4
_chemical_formula_sum   'H12 O2 F8'
_cell_volume   207.84621763
_cell_formula_units_Z   2
loop_
 _symmetry_equiv_pos_site_id
 _symmetry_equiv_pos_as_xyz
  1  'x, y, z'
loop_
 _atom_site_type_symbol
 _atom_site_label
 _atom_site_symmetry_multiplicity
 _atom_site_fract_x
 _atom_site_fract_y
 _atom_site_fract_z
 _atom_site_occupancy
  H  H0  1  0.44245480  0.22807533  0.99533342  1
  H  H1  1  0.55754520  0.77192467  0.00466658  1
  H  H2  1  0.36226569  0.23147091  0.75953607  1
  H  H3  1  0.63773431  0.76852909  0.24046393  1
  H  H4  1  0.11405426  0.07889175  0.83379519  1
  H  H5  1  0.88594574  0.92110825  0.16620481  1
  H  H6  1  0.14232386  0.57753949  0.76261274  1
  H  H7  1  0.85767614  0.42246051  0.23738726  1
  H  H8  1  0.72456340  0.30804017  0.61498032  1
  H  H9  1  0.27543660  0.69195983  0.38501968  1
  H  H10  1  0.70285647  0.81566615  0.61135324  1
  H  H11  1  0.29714353  0.18433385  0.38864676  1
  O  O12  1  0.29888587  0.22700378  0.88890569  1
  O  O13  1  0.70111413  0.77299622  0.11109431  1
  F  F14  1  0.30749477  0.74247522  0.84970363  1
  F  F15  1  0.69250523  0.25752478  0.15029637  1
  F  F16  1  0.92557862  0.33648711  0.63906995  1
  F  F17  1  0.07442138  0.66351289  0.36093005  1
  F  F18  1  0.47104914  0.25984359  0.58726890  1
  F  F19  1  0.52895086  0.74015641  0.41273110  1
  F  F20  1  0.16213272  0.12801532  0.24239073  1
  F  F21  1  0.83786728  0.87198468  0.75760927  1
