# generated using pymatgen
data_Li3Ti(BO3)2
_symmetry_space_group_name_H-M   'P 1'
_cell_length_a   7.08746048
_cell_length_b   5.02278830
_cell_length_c   7.97560881
_cell_angle_alpha   90.60252815
_cell_angle_beta   67.72965103
_cell_angle_gamma   93.08908337
_symmetry_Int_Tables_number   1
_chemical_formula_structural   Li3Ti(BO3)2
_chemical_formula_sum   'Li6 Ti2 B4 O12'
_cell_volume   262.34645307
_cell_formula_units_Z   2
loop_
 _symmetry_equiv_pos_site_id
 _symmetry_equiv_pos_as_xyz
  1  'x, y, z'
loop_
 _atom_site_type_symbol
 _atom_site_label
 _atom_site_symmetry_multiplicity
 _atom_site_fract_x
 _atom_site_fract_y
 _atom_site_fract_z
 _atom_site_occupancy
  Li  Li0  1  0.26117902  0.84295705  0.14710537  1
  Li  Li1  1  0.38970817  0.65307960  0.45116781  1
  Li  Li2  1  0.43995944  0.86174647  0.73747542  1
  Li  Li3  1  0.56004056  0.13825353  0.26252458  1
  Li  Li4  1  0.61029183  0.34692040  0.54883219  1
  Li  Li5  1  0.73882098  0.15704295  0.85289463  1
  Ti  Ti6  1  0.01258398  0.59594093  0.84054909  1
  Ti  Ti7  1  0.98741602  0.40405907  0.15945091  1
  B  B8  1  0.19740306  0.13553687  0.61154629  1
  B  B9  1  0.65612482  0.66605514  0.06973080  1
  B  B10  1  0.34387518  0.33394486  0.93026920  1
  B  B11  1  0.80259694  0.86446313  0.38845371  1
  O  O12  1  0.97632359  0.71957026  0.28376413  1
  O  O13  1  0.22308766  0.18706913  0.08523483  1
  O  O14  1  0.19306814  0.86889877  0.66021034  1
  O  O15  1  0.35878657  0.26279383  0.48239405  1
  O  O16  1  0.49269089  0.76178610  0.20005379  1
  O  O17  1  0.26119680  0.58893662  0.92853173  1
  O  O18  1  0.73880320  0.41106338  0.07146827  1
  O  O19  1  0.50730911  0.23821390  0.79994621  1
  O  O20  1  0.64121343  0.73720617  0.51760595  1
  O  O21  1  0.80693186  0.13110123  0.33978966  1
  O  O22  1  0.77691234  0.81293087  0.91476517  1
  O  O23  1  0.02367641  0.28042974  0.71623587  1
