# generated using pymatgen
data_Li3B2SbO6
_symmetry_space_group_name_H-M   'P 1'
_cell_length_a   5.35283815
_cell_length_b   9.05334942
_cell_length_c   10.66722237
_cell_angle_alpha   90.00000000
_cell_angle_beta   91.30078506
_cell_angle_gamma   90.00000000
_symmetry_Int_Tables_number   1
_chemical_formula_structural   Li3B2SbO6
_chemical_formula_sum   'Li12 B8 Sb4 O24'
_cell_volume   516.81226387
_cell_formula_units_Z   4
loop_
 _symmetry_equiv_pos_site_id
 _symmetry_equiv_pos_as_xyz
  1  'x, y, z'
loop_
 _atom_site_type_symbol
 _atom_site_label
 _atom_site_symmetry_multiplicity
 _atom_site_fract_x
 _atom_site_fract_y
 _atom_site_fract_z
 _atom_site_occupancy
  Li  Li0  1  0.15689207  0.97412450  0.67505155  1
  Li  Li1  1  0.17243195  0.65318082  0.61628429  1
  Li  Li2  1  0.17028804  0.98627606  0.09457927  1
  Li  Li3  1  0.32756805  0.15318082  0.88371571  1
  Li  Li4  1  0.32971196  0.48627606  0.40542073  1
  Li  Li5  1  0.34310793  0.47412450  0.82494845  1
  Li  Li6  1  0.65689207  0.52587550  0.17505155  1
  Li  Li7  1  0.67028804  0.51372394  0.59457927  1
  Li  Li8  1  0.67243195  0.84681918  0.11628429  1
  Li  Li9  1  0.82971196  0.01372394  0.90542073  1
  Li  Li10  1  0.82756805  0.34681918  0.38371571  1
  Li  Li11  1  0.84310793  0.02587550  0.32494845  1
  B  B12  1  0.16103192  0.32858101  0.62079337  1
  B  B13  1  0.16424221  0.67205022  0.13298910  1
  B  B14  1  0.33896808  0.82858101  0.87920663  1
  B  B15  1  0.33575779  0.17205022  0.36701090  1
  B  B16  1  0.66424221  0.82794978  0.63298910  1
  B  B17  1  0.66103192  0.17141899  0.12079337  1
  B  B18  1  0.83575779  0.32794978  0.86701090  1
  B  B19  1  0.83896808  0.67141899  0.37920663  1
  Sb  Sb20  1  0.15151272  0.32694094  0.12591710  1
  Sb  Sb21  1  0.34848728  0.82694094  0.37408290  1
  Sb  Sb22  1  0.65151272  0.17305906  0.62591710  1
  Sb  Sb23  1  0.84848728  0.67305906  0.87408290  1
  O  O24  1  0.08784135  0.33178860  0.89995794  1
  O  O25  1  0.08595266  0.64165816  0.41759698  1
  O  O26  1  0.16523691  0.94213686  0.87752752  1
  O  O27  1  0.19186085  0.04433169  0.36015178  1
  O  O28  1  0.21033771  0.30414384  0.33628075  1
  O  O29  1  0.27798239  0.68406703  0.84398322  1
  O  O30  1  0.22201761  0.18406703  0.65601678  1
  O  O31  1  0.28966229  0.80414384  0.16371925  1
  O  O32  1  0.30813915  0.54433169  0.13984822  1
  O  O33  1  0.33476309  0.44213686  0.62247248  1
  O  O34  1  0.41215865  0.83178860  0.60004206  1
  O  O35  1  0.41404734  0.14165816  0.08240302  1
  O  O36  1  0.58595266  0.85834184  0.91759698  1
  O  O37  1  0.58784135  0.16821140  0.39995794  1
  O  O38  1  0.66523691  0.55786314  0.37752752  1
  O  O39  1  0.69186085  0.45566831  0.86015178  1
  O  O40  1  0.71033771  0.19585616  0.83628075  1
  O  O41  1  0.77798239  0.81593297  0.34398322  1
  O  O42  1  0.72201761  0.31593297  0.15601678  1
  O  O43  1  0.78966229  0.69585616  0.66371925  1
  O  O44  1  0.80813915  0.95566831  0.63984822  1
  O  O45  1  0.83476309  0.05786314  0.12247248  1
  O  O46  1  0.91404734  0.35834184  0.58240302  1
  O  O47  1  0.91215865  0.66821140  0.10004206  1
