# generated using pymatgen
data_Ho2Zr2O7
_symmetry_space_group_name_H-M   'P 1'
_cell_length_a   7.85996664
_cell_length_b   13.78881752
_cell_length_c   5.51541035
_cell_angle_alpha   90.00000000
_cell_angle_beta   90.00000000
_cell_angle_gamma   98.44868464
_symmetry_Int_Tables_number   1
_chemical_formula_structural   Ho2Zr2O7
_chemical_formula_sum   'Ho8 Zr8 O28'
_cell_volume   591.27125645
_cell_formula_units_Z   4
loop_
 _symmetry_equiv_pos_site_id
 _symmetry_equiv_pos_as_xyz
  1  'x, y, z'
loop_
 _atom_site_type_symbol
 _atom_site_label
 _atom_site_symmetry_multiplicity
 _atom_site_fract_x
 _atom_site_fract_y
 _atom_site_fract_z
 _atom_site_occupancy
  Ho  Ho0  1  0.13740047  0.55902257  0.33021057  1
  Ho  Ho1  1  0.23653881  0.92687567  0.77863818  1
  Ho  Ho2  1  0.28676199  0.13411563  0.24220395  1
  Ho  Ho3  1  0.36196171  0.39907768  0.75815250  1
  Ho  Ho4  1  0.63803829  0.60092232  0.25815250  1
  Ho  Ho5  1  0.71323801  0.86588437  0.74220395  1
  Ho  Ho6  1  0.76346119  0.07312433  0.27863818  1
  Ho  Ho7  1  0.86259953  0.44097743  0.83021057  1
  Zr  Zr8  1  0.07451430  0.31963095  0.26616980  1
  Zr  Zr9  1  0.02741776  0.11810237  0.76289825  1
  Zr  Zr10  1  0.41050117  0.67316903  0.77750959  1
  Zr  Zr11  1  0.46820800  0.87588972  0.26430494  1
  Zr  Zr12  1  0.53179200  0.12411028  0.76430494  1
  Zr  Zr13  1  0.58949883  0.32683097  0.27750959  1
  Zr  Zr14  1  0.97258224  0.88189763  0.26289825  1
  Zr  Zr15  1  0.92548570  0.68036905  0.76616980  1
  O  O16  1  0.07805874  0.41756113  0.55466036  1
  O  O17  1  0.99675577  0.17350766  0.41754568  1
  O  O18  1  0.16998189  0.67554583  0.63317531  1
  O  O19  1  0.22184135  0.88369162  0.38563179  1
  O  O20  1  0.15227644  0.43527453  0.04469957  1
  O  O21  1  0.07666271  0.02192988  0.05129194  1
  O  O22  1  0.13998935  0.22996131  0.96659687  1
  O  O23  1  0.36540986  0.62054086  0.11209381  1
  O  O24  1  0.41550058  0.82729210  0.91292681  1
  O  O25  1  0.27112983  0.08278523  0.63148513  1
  O  O26  1  0.32376379  0.29843322  0.40626841  1
  O  O27  1  0.42015848  0.54663249  0.57518503  1
  O  O28  1  0.56262806  0.97694718  0.54686386  1
  O  O29  1  0.52664813  0.76649595  0.47397766  1
  O  O30  1  0.47335187  0.23350405  0.97397766  1
  O  O31  1  0.43737194  0.02305282  0.04686386  1
  O  O32  1  0.57984152  0.45336751  0.07518503  1
  O  O33  1  0.67623621  0.70156678  0.90626841  1
  O  O34  1  0.72887017  0.91721477  0.13148513  1
  O  O35  1  0.58449942  0.17270790  0.41292681  1
  O  O36  1  0.63459014  0.37945914  0.61209381  1
  O  O37  1  0.86001065  0.77003869  0.46659687  1
  O  O38  1  0.92333729  0.97807012  0.55129194  1
  O  O39  1  0.84772356  0.56472547  0.54469957  1
  O  O40  1  0.77815865  0.11630838  0.88563179  1
  O  O41  1  0.83001811  0.32445417  0.13317531  1
  O  O42  1  0.00324423  0.82649234  0.91754568  1
  O  O43  1  0.92194126  0.58243887  0.05466036  1
