# generated using pymatgen
data_CaUO4
_symmetry_space_group_name_H-M   'P 1'
_cell_length_a   6.34968470
_cell_length_b   6.34968470
_cell_length_c   6.34968469
_cell_angle_alpha   35.73942857
_cell_angle_beta   35.73942863
_cell_angle_gamma   35.73942853
_symmetry_Int_Tables_number   1
_chemical_formula_structural   CaUO4
_chemical_formula_sum   'Ca1 U1 O4'
_cell_volume   78.08688401
_cell_formula_units_Z   1
loop_
 _symmetry_equiv_pos_site_id
 _symmetry_equiv_pos_as_xyz
  1  'x, y, z'
loop_
 _atom_site_type_symbol
 _atom_site_label
 _atom_site_symmetry_multiplicity
 _atom_site_fract_x
 _atom_site_fract_y
 _atom_site_fract_z
 _atom_site_occupancy
  O  O0  1  0.63746921  0.63746921  0.63746921  1
  O  O1  1  0.36253079  0.36253079  0.36253079  1
  O  O2  1  0.11147715  0.11147715  0.11147715  1
  O  O3  1  0.88852285  0.88852285  0.88852285  1
  Ca  Ca4  1  0.50000000  0.50000000  0.50000000  1
  U  U5  1  0.00000000  0.00000000  0.00000000  1
