# generated using pymatgen
data_Li4Ti3Fe3(CoO8)2
_symmetry_space_group_name_H-M   'P 1'
_cell_length_a   5.93221631
_cell_length_b   5.95805876
_cell_length_c   9.62021203
_cell_angle_alpha   89.97584277
_cell_angle_beta   89.31473826
_cell_angle_gamma   120.13437316
_symmetry_Int_Tables_number   1
_chemical_formula_structural   Li4Ti3Fe3(CoO8)2
_chemical_formula_sum   'Li4 Ti3 Fe3 Co2 O16'
_cell_volume   294.03859659
_cell_formula_units_Z   1
loop_
 _symmetry_equiv_pos_site_id
 _symmetry_equiv_pos_as_xyz
  1  'x, y, z'
loop_
 _atom_site_type_symbol
 _atom_site_label
 _atom_site_symmetry_multiplicity
 _atom_site_fract_x
 _atom_site_fract_y
 _atom_site_fract_z
 _atom_site_occupancy
  Li  Li0  1  0.32963505  0.66517346  0.89212254  1
  Li  Li1  1  0.99842046  0.99892076  0.99358865  1
  Li  Li2  1  0.00455181  0.00236502  0.49696810  1
  Li  Li3  1  0.66226238  0.33098181  0.39610807  1
  Ti  Ti4  1  0.16785352  0.82807657  0.21424174  1
  Ti  Ti5  1  0.16705816  0.33976337  0.21440133  1
  Ti  Ti6  1  0.34289733  0.17183568  0.71749181  1
  Fe  Fe7  1  0.66124880  0.83031885  0.21617474  1
  Fe  Fe8  1  0.83028308  0.65977887  0.71151472  1
  Fe  Fe9  1  0.83001341  0.17066920  0.71152460  1
  Co  Co10  1  0.35159850  0.67566398  0.49159824  1
  Co  Co11  1  0.67448015  0.33710572  0.98828152  1
  O  O12  1  0.16613563  0.83373483  0.60061750  1
  O  O13  1  0.03686903  0.51819605  0.33289020  1
  O  O14  1  0.32844348  0.66402711  0.10394574  1
  O  O15  1  0.00697233  0.00329283  0.31203754  1
  O  O16  1  0.00010837  0.00027154  0.80651534  1
  O  O17  1  0.16611247  0.33276632  0.60049814  1
  O  O18  1  0.47038411  0.95560782  0.34117727  1
  O  O19  1  0.46998673  0.51389685  0.34135375  1
  O  O20  1  0.33862966  0.16900129  0.10372360  1
  O  O21  1  0.66777160  0.83411966  0.59392930  1
  O  O22  1  0.51170934  0.47551557  0.83679275  1
  O  O23  1  0.51159873  0.03627374  0.83646979  1
  O  O24  1  0.65798039  0.32923853  0.60142569  1
  O  O25  1  0.84762410  0.67628155  0.10447426  1
  O  O26  1  0.95221389  0.47627319  0.84370467  1
  O  O27  1  0.84715651  0.17114883  0.10426838  1
