# generated using pymatgen
data_Ag11Hg9
_symmetry_space_group_name_H-M   'P 1'
_cell_length_a   3.21911161
_cell_length_b   3.21915558
_cell_length_c   46.74252748
_cell_angle_alpha   89.95646412
_cell_angle_beta   90.04383045
_cell_angle_gamma   120.00386174
_symmetry_Int_Tables_number   1
_chemical_formula_structural   Ag11Hg9
_chemical_formula_sum   'Ag11 Hg9'
_cell_volume   419.47275194
_cell_formula_units_Z   1
loop_
 _symmetry_equiv_pos_site_id
 _symmetry_equiv_pos_as_xyz
  1  'x, y, z'
loop_
 _atom_site_type_symbol
 _atom_site_label
 _atom_site_symmetry_multiplicity
 _atom_site_fract_x
 _atom_site_fract_y
 _atom_site_fract_z
 _atom_site_occupancy
  Ag  Ag0  1  0.33339158  0.66669202  0.72542193  1
  Ag  Ag1  1  0.33327384  0.66677161  0.92244784  1
  Ag  Ag2  1  0.66657036  0.33332322  0.17831312  1
  Ag  Ag3  1  0.66670473  0.33333004  0.27606918  1
  Ag  Ag4  1  0.66667973  0.33338893  0.37507011  1
  Ag  Ag5  1  0.66669263  0.33343863  0.47529493  1
  Ag  Ag6  1  0.66654544  0.33345437  0.67726353  1
  Ag  Ag7  1  0.66674281  0.33333444  0.77360365  1
  Ag  Ag8  1  0.66657830  0.33343590  0.87483009  1
  Ag  Ag9  1  0.66669453  0.33333956  0.96941078  1
  Ag  Ag10  1  0.66666216  0.33337397  0.57581651  1
  Hg  Hg11  1  0.33355962  0.66658324  0.01904297  1
  Hg  Hg12  1  0.33322176  0.66686027  0.12935776  1
  Hg  Hg13  1  0.33339988  0.66673642  0.32548886  1
  Hg  Hg14  1  0.33330454  0.66672270  0.52561127  1
  Hg  Hg15  1  0.33335448  0.66664504  0.22686871  1
  Hg  Hg16  1  0.33335945  0.66673936  0.42507679  1
  Hg  Hg17  1  0.33332288  0.66673163  0.82445301  1
  Hg  Hg18  1  0.33329629  0.66674256  0.62629747  1
  Hg  Hg19  1  0.66664499  0.33335608  0.07426050  1
