# generated using pymatgen
data_Sr(NiAs)2
_symmetry_space_group_name_H-M   'P 1'
_cell_length_a   4.16948909
_cell_length_b   4.16948909
_cell_length_c   5.96158832
_cell_angle_alpha   110.46873208
_cell_angle_beta   110.46873205
_cell_angle_gamma   90.00000002
_symmetry_Int_Tables_number   1
_chemical_formula_structural   Sr(NiAs)2
_chemical_formula_sum   'Sr1 Ni2 As2'
_cell_volume   90.07896711
_cell_formula_units_Z   1
loop_
 _symmetry_equiv_pos_site_id
 _symmetry_equiv_pos_as_xyz
  1  'x, y, z'
loop_
 _atom_site_type_symbol
 _atom_site_label
 _atom_site_symmetry_multiplicity
 _atom_site_fract_x
 _atom_site_fract_y
 _atom_site_fract_z
 _atom_site_occupancy
  Ni  Ni0  1  0.25000000  0.75000000  0.50000000  1
  Ni  Ni1  1  0.75000000  0.25000000  0.50000000  1
  As  As2  1  0.63898050  0.63898050  0.27796100  1
  As  As3  1  0.36101950  0.36101950  0.72203900  1
  Sr  Sr4  1  0.00000000  0.00000000  0.00000000  1
