# generated using pymatgen
data_Al7FeCu2
_symmetry_space_group_name_H-M   'P 1'
_cell_length_a   6.31984347
_cell_length_b   6.31984347
_cell_length_c   14.76900956
_cell_angle_alpha   90.00000000
_cell_angle_beta   90.00000000
_cell_angle_gamma   90.00000000
_symmetry_Int_Tables_number   1
_chemical_formula_structural   Al7FeCu2
_chemical_formula_sum   'Al28 Fe4 Cu8'
_cell_volume   589.88046675
_cell_formula_units_Z   4
loop_
 _symmetry_equiv_pos_site_id
 _symmetry_equiv_pos_as_xyz
  1  'x, y, z'
loop_
 _atom_site_type_symbol
 _atom_site_label
 _atom_site_symmetry_multiplicity
 _atom_site_fract_x
 _atom_site_fract_y
 _atom_site_fract_z
 _atom_site_occupancy
  Al  Al0  1  0.00000000  0.00000000  0.13372696  1
  Al  Al1  1  0.50000000  0.50000000  0.36627304  1
  Al  Al2  1  0.00000000  0.00000000  0.86627304  1
  Al  Al3  1  0.50000000  0.50000000  0.63372696  1
  Al  Al4  1  0.91451566  0.70608854  0.60059463  1
  Al  Al5  1  0.08548434  0.29391146  0.60059463  1
  Al  Al6  1  0.20608854  0.41451566  0.89940537  1
  Al  Al7  1  0.70608854  0.08548434  0.60059463  1
  Al  Al8  1  0.29391146  0.91451566  0.60059463  1
  Al  Al9  1  0.58548434  0.20608854  0.89940537  1
  Al  Al10  1  0.41451566  0.79391146  0.89940537  1
  Al  Al11  1  0.79391146  0.58548434  0.89940537  1
  Al  Al12  1  0.08548434  0.29391146  0.39940537  1
  Al  Al13  1  0.91451566  0.70608854  0.39940537  1
  Al  Al14  1  0.79391146  0.58548434  0.10059463  1
  Al  Al15  1  0.29391146  0.91451566  0.39940537  1
  Al  Al16  1  0.16208271  0.66208271  0.25000000  1
  Al  Al17  1  0.33791729  0.16208271  0.25000000  1
  Al  Al18  1  0.66208271  0.83791729  0.25000000  1
  Al  Al19  1  0.83791729  0.33791729  0.25000000  1
  Al  Al20  1  0.83791729  0.33791729  0.75000000  1
  Al  Al21  1  0.66208271  0.83791729  0.75000000  1
  Al  Al22  1  0.33791729  0.16208271  0.75000000  1
  Al  Al23  1  0.16208271  0.66208271  0.75000000  1
  Al  Al24  1  0.20608854  0.41451566  0.10059463  1
  Al  Al25  1  0.58548434  0.20608854  0.10059463  1
  Al  Al26  1  0.41451566  0.79391146  0.10059463  1
  Al  Al27  1  0.70608854  0.08548434  0.39940537  1
  Fe  Fe28  1  0.00000000  0.00000000  0.29935312  1
  Fe  Fe29  1  0.50000000  0.50000000  0.20064688  1
  Fe  Fe30  1  0.00000000  0.00000000  0.70064688  1
  Fe  Fe31  1  0.50000000  0.50000000  0.79935312  1
  Cu  Cu32  1  0.77306248  0.41505153  0.50000000  1
  Cu  Cu33  1  0.08494847  0.72693752  0.00000000  1
  Cu  Cu34  1  0.91505153  0.27306248  0.00000000  1
  Cu  Cu35  1  0.27306248  0.08494847  0.00000000  1
  Cu  Cu36  1  0.22693752  0.58494847  0.50000000  1
  Cu  Cu37  1  0.72693752  0.91505153  0.00000000  1
  Cu  Cu38  1  0.58494847  0.77306248  0.50000000  1
  Cu  Cu39  1  0.41505153  0.22693752  0.50000000  1
