# generated using pymatgen
data_ZnSnP2
_symmetry_space_group_name_H-M   'P 1'
_cell_length_a   5.70658741
_cell_length_b   5.70658740
_cell_length_c   6.99923503
_cell_angle_alpha   114.05779464
_cell_angle_beta   114.05779461
_cell_angle_gamma   90.00000003
_symmetry_Int_Tables_number   1
_chemical_formula_structural   ZnSnP2
_chemical_formula_sum   'Zn2 Sn2 P4'
_cell_volume   186.23935145
_cell_formula_units_Z   2
loop_
 _symmetry_equiv_pos_site_id
 _symmetry_equiv_pos_as_xyz
  1  'x, y, z'
loop_
 _atom_site_type_symbol
 _atom_site_label
 _atom_site_symmetry_multiplicity
 _atom_site_fract_x
 _atom_site_fract_y
 _atom_site_fract_z
 _atom_site_occupancy
  P  P0  1  0.35344812  0.37500000  0.25000000  1
  P  P1  1  0.12500000  0.64655188  0.75000000  1
  P  P2  1  0.62500000  0.10344812  0.75000000  1
  P  P3  1  0.89655188  0.87500000  0.25000000  1
  Zn  Zn4  1  0.25000000  0.75000000  0.50000000  1
  Zn  Zn5  1  0.00000000  0.00000000  0.00000000  1
  Sn  Sn6  1  0.75000000  0.25000000  0.50000000  1
  Sn  Sn7  1  0.50000000  0.50000000  0.00000000  1
