# generated using pymatgen
data_Gd2SO2
_symmetry_space_group_name_H-M   'P 1'
_cell_length_a   3.86866595
_cell_length_b   3.86874260
_cell_length_c   6.69502276
_cell_angle_alpha   89.99999999
_cell_angle_beta   90.00103108
_cell_angle_gamma   120.00064956
_symmetry_Int_Tables_number   1
_chemical_formula_structural   Gd2SO2
_chemical_formula_sum   'Gd2 S1 O2'
_cell_volume   86.77825505
_cell_formula_units_Z   1
loop_
 _symmetry_equiv_pos_site_id
 _symmetry_equiv_pos_as_xyz
  1  'x, y, z'
loop_
 _atom_site_type_symbol
 _atom_site_label
 _atom_site_symmetry_multiplicity
 _atom_site_fract_x
 _atom_site_fract_y
 _atom_site_fract_z
 _atom_site_occupancy
  Gd  Gd0  1  0.66665263  0.33332632  0.28135651  1
  Gd  Gd1  1  0.33334737  0.66667368  0.71864349  1
  S  S2  1  0.00000000  -0.00000000  0.00000000  1
  O  O3  1  0.33333817  0.66666908  0.36977312  1
  O  O4  1  0.66666183  0.33333092  0.63022688  1
