# generated using pymatgen
data_Li2Mn2P2O7F2
_symmetry_space_group_name_H-M   'P 1'
_cell_length_a   11.25935747
_cell_length_b   6.77493898
_cell_length_c   10.49499967
_cell_angle_alpha   90.00000000
_cell_angle_beta   90.00000000
_cell_angle_gamma   90.00000000
_symmetry_Int_Tables_number   1
_chemical_formula_structural   Li2Mn2P2O7F2
_chemical_formula_sum   'Li8 Mn8 P8 O28 F8'
_cell_volume   800.57389557
_cell_formula_units_Z   4
loop_
 _symmetry_equiv_pos_site_id
 _symmetry_equiv_pos_as_xyz
  1  'x, y, z'
loop_
 _atom_site_type_symbol
 _atom_site_label
 _atom_site_symmetry_multiplicity
 _atom_site_fract_x
 _atom_site_fract_y
 _atom_site_fract_z
 _atom_site_occupancy
  Li  Li0  1  0.21006050  0.51977267  0.02810913  1
  Li  Li1  1  0.21006050  0.48022733  0.47189087  1
  Li  Li2  1  0.28993950  0.98022733  0.52810913  1
  Li  Li3  1  0.28993950  0.01977267  0.97189087  1
  Li  Li4  1  0.71006050  0.98022733  0.02810913  1
  Li  Li5  1  0.71006050  0.01977267  0.47189087  1
  Li  Li6  1  0.78993950  0.51977267  0.52810913  1
  Li  Li7  1  0.78993950  0.48022733  0.97189087  1
  Mn  Mn8  1  0.00000000  0.00000000  0.00000000  1
  Mn  Mn9  1  0.00000000  0.00000000  0.50000000  1
  Mn  Mn10  1  0.16921244  0.00000000  0.25000000  1
  Mn  Mn11  1  0.33078756  0.50000000  0.75000000  1
  Mn  Mn12  1  0.50000000  0.50000000  0.50000000  1
  Mn  Mn13  1  0.50000000  0.50000000  0.00000000  1
  Mn  Mn14  1  0.66921244  0.50000000  0.25000000  1
  Mn  Mn15  1  0.83078756  0.00000000  0.75000000  1
  P  P16  1  0.07743667  0.28281282  0.74968234  1
  P  P17  1  0.07743667  0.71718718  0.75031766  1
  P  P18  1  0.42256333  0.21718718  0.24968234  1
  P  P19  1  0.42256333  0.78281282  0.25031766  1
  P  P20  1  0.57743667  0.21718718  0.74968234  1
  P  P21  1  0.57743667  0.78281282  0.75031766  1
  P  P22  1  0.92256333  0.28281282  0.24968234  1
  P  P23  1  0.92256333  0.71718718  0.25031766  1
  O  O24  1  0.01664229  0.16639720  0.32521026  1
  O  O25  1  0.01664229  0.83360280  0.17478974  1
  O  O26  1  0.01564501  0.50000000  0.75000000  1
  O  O27  1  0.09182640  0.22436073  0.60951869  1
  O  O28  1  0.09182640  0.77563927  0.89048131  1
  O  O29  1  0.19707247  0.29670061  0.82047301  1
  O  O30  1  0.19707247  0.70329939  0.67952699  1
  O  O31  1  0.30292753  0.20329939  0.32047301  1
  O  O32  1  0.30292753  0.79670061  0.17952699  1
  O  O33  1  0.40817360  0.27563927  0.10951869  1
  O  O34  1  0.40817360  0.72436073  0.39048131  1
  O  O35  1  0.48435499  0.00000000  0.25000000  1
  O  O36  1  0.48335771  0.66639720  0.67478974  1
  O  O37  1  0.48335771  0.33360280  0.82521026  1
  O  O38  1  0.51664229  0.33360280  0.32521026  1
  O  O39  1  0.51664229  0.66639720  0.17478974  1
  O  O40  1  0.51564501  0.00000000  0.75000000  1
  O  O41  1  0.59182640  0.27563927  0.60951869  1
  O  O42  1  0.59182640  0.72436073  0.89048131  1
  O  O43  1  0.69707247  0.79670061  0.67952699  1
  O  O44  1  0.69707247  0.20329939  0.82047301  1
  O  O45  1  0.80292753  0.29670061  0.32047301  1
  O  O46  1  0.80292753  0.70329939  0.17952699  1
  O  O47  1  0.90817360  0.22436073  0.10951869  1
  O  O48  1  0.90817360  0.77563927  0.39048131  1
  O  O49  1  0.98435499  0.50000000  0.25000000  1
  O  O50  1  0.98335771  0.16639720  0.82521026  1
  O  O51  1  0.98335771  0.83360280  0.67478974  1
  F  F52  1  0.16597568  0.12810566  0.06377714  1
  F  F53  1  0.16597568  0.87189434  0.43622286  1
  F  F54  1  0.33402432  0.37189434  0.56377714  1
  F  F55  1  0.33402432  0.62810566  0.93622286  1
  F  F56  1  0.66597568  0.37189434  0.06377714  1
  F  F57  1  0.66597568  0.62810566  0.43622286  1
  F  F58  1  0.83402432  0.12810566  0.56377714  1
  F  F59  1  0.83402432  0.87189434  0.93622286  1
