# generated using pymatgen
data_Ga2HgS4
_symmetry_space_group_name_H-M   'P 1'
_cell_length_a   5.64816293
_cell_length_b   5.64816292
_cell_length_c   6.55861437
_cell_angle_alpha   115.50508336
_cell_angle_beta   115.50508338
_cell_angle_gamma   89.99999994
_symmetry_Int_Tables_number   1
_chemical_formula_structural   Ga2HgS4
_chemical_formula_sum   'Ga2 Hg1 S4'
_cell_volume   165.96436138
_cell_formula_units_Z   1
loop_
 _symmetry_equiv_pos_site_id
 _symmetry_equiv_pos_as_xyz
  1  'x, y, z'
loop_
 _atom_site_type_symbol
 _atom_site_label
 _atom_site_symmetry_multiplicity
 _atom_site_fract_x
 _atom_site_fract_y
 _atom_site_fract_z
 _atom_site_occupancy
  S  S0  1  0.86725094  0.86307305  0.27309214  1
  S  S1  1  0.58998091  0.13274906  0.72690786  1
  S  S2  1  0.13692695  0.59415880  0.72690786  1
  S  S3  1  0.40584120  0.41001909  0.27309214  1
  Ga  Ga4  1  0.25000000  0.75000000  0.50000000  1
  Ga  Ga5  1  0.50000000  0.50000000  0.00000000  1
  Hg  Hg6  1  0.00000000  0.00000000  0.00000000  1
