# generated using pymatgen
data_GaGeS4
_symmetry_space_group_name_H-M   'P 1'
_cell_length_a   11.40295214
_cell_length_b   11.27535245
_cell_length_c   12.58677573
_cell_angle_alpha   63.39066792
_cell_angle_beta   63.06537763
_cell_angle_gamma   90.00000000
_symmetry_Int_Tables_number   1
_chemical_formula_structural   GaGeS4
_chemical_formula_sum   'Ga4 Ge4 S16'
_cell_volume   1247.46081929
_cell_formula_units_Z   4
loop_
 _symmetry_equiv_pos_site_id
 _symmetry_equiv_pos_as_xyz
  1  'x, y, z'
loop_
 _atom_site_type_symbol
 _atom_site_label
 _atom_site_symmetry_multiplicity
 _atom_site_fract_x
 _atom_site_fract_y
 _atom_site_fract_z
 _atom_site_occupancy
  Ga  Ga0  1  0.68856722  0.40683863  0.37043127  1
  Ga  Ga1  1  0.56143278  0.52726990  0.12956873  1
  Ga  Ga2  1  0.94100151  0.22273010  0.37043127  1
  Ga  Ga3  1  0.30899849  0.34316137  0.12956873  1
  Ge  Ge4  1  0.77853489  0.31249699  0.62824306  1
  Ge  Ge5  1  0.47146511  0.69074005  0.87175694  1
  Ge  Ge6  1  0.59322204  0.05925995  0.62824306  1
  Ge  Ge7  1  0.65677796  0.43750301  0.87175694  1
  S  S8  1  0.62500000  0.58629863  0.25000000  1
  S  S9  1  0.12500000  0.16370137  0.25000000  1
  S  S10  1  0.83215240  0.37500000  0.75000000  1
  S  S11  1  0.41784760  0.87500000  0.75000000  1
  S  S12  1  0.89010809  0.39010809  0.21978383  1
  S  S13  1  0.35989191  0.35989191  0.28021617  1
  S  S14  1  0.61277115  0.11277115  0.77445770  1
  S  S15  1  0.63722885  0.63722885  0.72554230  1
  S  S16  1  0.51640082  0.21056363  0.50318717  1
  S  S17  1  0.73359918  0.46375081  0.99681283  1
  S  S18  1  0.98041201  0.28624919  0.50318717  1
  S  S19  1  0.26958799  0.53943637  0.99681283  1
  S  S20  1  0.71733600  0.48140705  0.50219562  1
  S  S21  1  0.53266400  0.73360267  0.99780438  1
  S  S22  1  0.78046838  0.01639733  0.50219562  1
  S  S23  1  0.46953162  0.26859295  0.99780438  1
