# generated using pymatgen
data_RbLi2Cr2(BO3)3
_symmetry_space_group_name_H-M   'P 1'
_cell_length_a   5.67268182
_cell_length_b   5.29532387
_cell_length_c   12.93151345
_cell_angle_alpha   90.00000000
_cell_angle_beta   92.37224550
_cell_angle_gamma   90.00000000
_symmetry_Int_Tables_number   1
_chemical_formula_structural   RbLi2Cr2(BO3)3
_chemical_formula_sum   'Rb2 Li4 Cr4 B6 O18'
_cell_volume   388.11279163
_cell_formula_units_Z   2
loop_
 _symmetry_equiv_pos_site_id
 _symmetry_equiv_pos_as_xyz
  1  'x, y, z'
loop_
 _atom_site_type_symbol
 _atom_site_label
 _atom_site_symmetry_multiplicity
 _atom_site_fract_x
 _atom_site_fract_y
 _atom_site_fract_z
 _atom_site_occupancy
  Rb  Rb0  1  0.00000000  0.24720325  0.75000000  1
  Rb  Rb1  1  0.00000000  0.75279675  0.25000000  1
  Li  Li2  1  0.48825048  0.09942183  0.85416536  1
  Li  Li3  1  0.51174952  0.09942183  0.64583464  1
  Li  Li4  1  0.48825048  0.90057817  0.35416536  1
  Li  Li5  1  0.51174952  0.90057817  0.14583464  1
  Cr  Cr6  1  0.26681839  0.64554557  0.52906596  1
  Cr  Cr7  1  0.26681839  0.35445443  0.02906596  1
  Cr  Cr8  1  0.73318161  0.64554557  0.97093404  1
  Cr  Cr9  1  0.73318161  0.35445443  0.47093404  1
  B  B10  1  0.21556897  0.80346745  0.96019862  1
  B  B11  1  0.21556897  0.19653255  0.46019862  1
  B  B12  1  0.50000000  0.60744707  0.75000000  1
  B  B13  1  0.50000000  0.39255293  0.25000000  1
  B  B14  1  0.78443103  0.80346745  0.53980138  1
  B  B15  1  0.78443103  0.19653255  0.03980138  1
  O  O16  1  0.07078735  0.61304151  0.91965685  1
  O  O17  1  0.07078735  0.38695849  0.41965685  1
  O  O18  1  0.19338349  0.05278863  0.94001413  1
  O  O19  1  0.19338349  0.94721137  0.44001413  1
  O  O20  1  0.39105992  0.29170339  0.53086628  1
  O  O21  1  0.39105992  0.70829661  0.03086628  1
  O  O22  1  0.40764767  0.75442372  0.66595529  1
  O  O23  1  0.40764767  0.24557628  0.16595529  1
  O  O24  1  0.50000000  0.35074602  0.75000000  1
  O  O25  1  0.50000000  0.64925398  0.25000000  1
  O  O26  1  0.59235233  0.75442372  0.83404471  1
  O  O27  1  0.59235233  0.24557628  0.33404471  1
  O  O28  1  0.60894008  0.29170339  0.96913372  1
  O  O29  1  0.60894008  0.70829661  0.46913372  1
  O  O30  1  0.80661651  0.05278863  0.55998587  1
  O  O31  1  0.80661651  0.94721137  0.05998587  1
  O  O32  1  0.92921265  0.61304151  0.58034315  1
  O  O33  1  0.92921265  0.38695849  0.08034315  1
