# generated using pymatgen
data_CsAu2F7
_symmetry_space_group_name_H-M   'P 1'
_cell_length_a   7.62319015
_cell_length_b   8.04181887
_cell_length_c   8.04181821
_cell_angle_alpha   87.14982244
_cell_angle_beta   66.56434651
_cell_angle_gamma   66.56434068
_symmetry_Int_Tables_number   1
_chemical_formula_structural   CsAu2F7
_chemical_formula_sum   'Cs2 Au4 F14'
_cell_volume   411.55679922
_cell_formula_units_Z   2
loop_
 _symmetry_equiv_pos_site_id
 _symmetry_equiv_pos_as_xyz
  1  'x, y, z'
loop_
 _atom_site_type_symbol
 _atom_site_label
 _atom_site_symmetry_multiplicity
 _atom_site_fract_x
 _atom_site_fract_y
 _atom_site_fract_z
 _atom_site_occupancy
  Cs  Cs0  1  0.75000000  0.69143391  0.30856609  1
  Cs  Cs1  1  0.25000000  0.30856609  0.69143391  1
  Au  Au2  1  0.85636740  0.91319229  0.71531890  1
  Au  Au3  1  0.64363260  0.28468110  0.08680771  1
  Au  Au4  1  0.14363260  0.08680771  0.28468110  1
  Au  Au5  1  0.35636740  0.71531890  0.91319229  1
  F  F6  1  0.55157057  0.09155324  0.18550150  1
  F  F7  1  0.03859947  0.33223135  0.40245076  1
  F  F8  1  0.05157057  0.18550150  0.09155324  1
  F  F9  1  0.73364668  0.47981804  0.98679070  1
  F  F10  1  0.94842943  0.81449850  0.90844676  1
  F  F11  1  0.26635332  0.52018196  0.01320930  1
  F  F12  1  0.75000000  0.17751894  0.82248106  1
  F  F13  1  0.76635332  0.01320930  0.52018196  1
  F  F14  1  0.23364668  0.98679070  0.47981804  1
  F  F15  1  0.96140053  0.66776865  0.59754924  1
  F  F16  1  0.44842943  0.90844676  0.81449850  1
  F  F17  1  0.46140053  0.59754924  0.66776865  1
  F  F18  1  0.25000000  0.82248106  0.17751894  1
  F  F19  1  0.53859947  0.40245076  0.33223135  1
