# generated using pymatgen
data_Li4Mn3NbV2(PO4)6
_symmetry_space_group_name_H-M   'P 1'
_cell_length_a   8.62418630
_cell_length_b   9.09389462
_cell_length_c   9.07289513
_cell_angle_alpha   60.06177741
_cell_angle_beta   58.62514170
_cell_angle_gamma   58.60857114
_symmetry_Int_Tables_number   1
_chemical_formula_structural   Li4Mn3NbV2(PO4)6
_chemical_formula_sum   'Li4 Mn3 Nb1 V2 P6 O24'
_cell_volume   492.59405213
_cell_formula_units_Z   1
loop_
 _symmetry_equiv_pos_site_id
 _symmetry_equiv_pos_as_xyz
  1  'x, y, z'
loop_
 _atom_site_type_symbol
 _atom_site_label
 _atom_site_symmetry_multiplicity
 _atom_site_fract_x
 _atom_site_fract_y
 _atom_site_fract_z
 _atom_site_occupancy
  Li  Li0  1  0.25146796  0.85161386  0.64457441  1
  Li  Li1  1  0.78473605  0.15195446  0.35619157  1
  Li  Li2  1  0.78339914  0.70823932  0.14756213  1
  Li  Li3  1  0.78481966  0.36011954  0.70692079  1
  Mn  Mn4  1  0.04998589  0.64583615  0.65142283  1
  Mn  Mn5  1  0.45459753  0.84779654  0.85001348  1
  Mn  Mn6  1  0.97391969  0.34382608  0.33940937  1
  Nb  Nb7  1  0.54184319  0.15480711  0.15157790  1
  V  V8  1  0.00820577  0.99829691  0.00080729  1
  V  V9  1  0.49942511  0.49701144  0.49945351  1
  P  P10  1  0.24033097  0.25481648  0.56426648  1
  P  P11  1  0.24226011  0.94180253  0.25158278  1
  P  P12  1  0.24138863  0.56502106  0.94114328  1
  P  P13  1  0.74635487  0.44632188  0.05554372  1
  P  P14  1  0.76277904  0.05224676  0.74820352  1
  P  P15  1  0.73102623  0.75426192  0.44968611  1
  O  O16  1  0.05454452  0.09146080  0.32010134  1
  O  O17  1  0.05315061  0.53531937  0.08850204  1
  O  O18  1  0.05140679  0.32985550  0.53083500  1
  O  O19  1  0.22580728  0.09254820  0.74118999  1
  O  O20  1  0.41754442  0.18671981  0.39697796  1
  O  O21  1  0.28238313  0.39688368  0.56834108  1
  O  O22  1  0.22834672  0.92082685  0.10173309  1
  O  O23  1  0.28367517  0.76263788  0.40683553  1
  O  O24  1  0.56387779  0.59063452  0.01721501  1
  O  O25  1  0.28326099  0.57330984  0.74936439  1
  O  O26  1  0.76376858  0.24584821  0.08902248  1
  O  O27  1  0.59410957  0.99564625  0.81682681  1
  O  O28  1  0.42083215  0.00245848  0.17698802  1
  O  O29  1  0.22291686  0.75321416  0.91957513  1
  O  O30  1  0.72657171  0.42705924  0.24721896  1
  O  O31  1  0.42045335  0.40195492  0.99430571  1
  O  O32  1  0.73235811  0.24321203  0.59726853  1
  O  O33  1  0.76551936  0.09126116  0.90216540  1
  O  O34  1  0.72746117  0.59803395  0.42258430  1
  O  O35  1  0.53439445  0.82276096  0.59014258  1
  O  O36  1  0.75821711  0.90394954  0.25026707  1
  O  O37  1  0.90144502  0.70379121  0.49546371  1
  O  O38  1  0.93122583  0.47316745  0.90394912  1
  O  O39  1  0.96018845  0.90647196  0.69176559  1
