# generated using pymatgen
data_In4GeS4
_symmetry_space_group_name_H-M   'P 1'
_cell_length_a   12.43187260
_cell_length_b   12.43187260
_cell_length_c   12.43187260
_cell_angle_alpha   90.00000000
_cell_angle_beta   90.00000000
_cell_angle_gamma   90.00000000
_symmetry_Int_Tables_number   1
_chemical_formula_structural   In4GeS4
_chemical_formula_sum   'In32 Ge8 S32'
_cell_volume   1921.36401540
_cell_formula_units_Z   8
loop_
 _symmetry_equiv_pos_site_id
 _symmetry_equiv_pos_as_xyz
  1  'x, y, z'
loop_
 _atom_site_type_symbol
 _atom_site_label
 _atom_site_symmetry_multiplicity
 _atom_site_fract_x
 _atom_site_fract_y
 _atom_site_fract_z
 _atom_site_occupancy
  In  In0  1  0.27368267  0.46581927  0.56051723  1
  In  In1  1  0.72444782  0.77555218  0.22444782  1
  In  In2  1  0.96581927  0.56051723  0.22631733  1
  In  In3  1  0.43948277  0.77368267  0.03418073  1
  In  In4  1  0.27555218  0.27555218  0.27555218  1
  In  In5  1  0.03418073  0.06051723  0.27368267  1
  In  In6  1  0.96581927  0.93948277  0.72631733  1
  In  In7  1  0.22444782  0.72444782  0.77555218  1
  In  In8  1  0.56051723  0.27368267  0.46581927  1
  In  In9  1  0.22631733  0.53418073  0.06051723  1
  In  In10  1  0.56051723  0.22631733  0.96581927  1
  In  In11  1  0.72631733  0.96581927  0.93948277  1
  In  In12  1  0.53418073  0.06051723  0.22631733  1
  In  In13  1  0.22631733  0.96581927  0.56051723  1
  In  In14  1  0.06051723  0.22631733  0.53418073  1
  In  In15  1  0.46581927  0.56051723  0.27368267  1
  In  In16  1  0.27368267  0.03418073  0.06051723  1
  In  In17  1  0.93948277  0.72631733  0.96581927  1
  In  In18  1  0.46581927  0.93948277  0.77368267  1
  In  In19  1  0.93948277  0.77368267  0.46581927  1
  In  In20  1  0.72444782  0.72444782  0.72444782  1
  In  In21  1  0.77555218  0.22444782  0.72444782  1
  In  In22  1  0.77368267  0.03418073  0.43948277  1
  In  In23  1  0.77555218  0.27555218  0.22444782  1
  In  In24  1  0.27555218  0.22444782  0.77555218  1
  In  In25  1  0.53418073  0.43948277  0.72631733  1
  In  In26  1  0.03418073  0.43948277  0.77368267  1
  In  In27  1  0.43948277  0.72631733  0.53418073  1
  In  In28  1  0.22444782  0.77555218  0.27555218  1
  In  In29  1  0.72631733  0.53418073  0.43948277  1
  In  In30  1  0.77368267  0.46581927  0.93948277  1
  In  In31  1  0.06051723  0.27368267  0.03418073  1
  Ge  Ge32  1  0.60107377  0.60107377  0.60107377  1
  Ge  Ge33  1  0.39892623  0.39892623  0.39892623  1
  Ge  Ge34  1  0.89892623  0.10107377  0.60107377  1
  Ge  Ge35  1  0.10107377  0.60107377  0.89892623  1
  Ge  Ge36  1  0.89892623  0.39892623  0.10107377  1
  Ge  Ge37  1  0.60107377  0.89892623  0.10107377  1
  Ge  Ge38  1  0.39892623  0.10107377  0.89892623  1
  Ge  Ge39  1  0.10107377  0.89892623  0.39892623  1
  S  S40  1  0.82971303  0.42371161  0.74664676  1
  S  S41  1  0.24664676  0.82971303  0.07628839  1
  S  S42  1  0.24664676  0.67028697  0.57628839  1
  S  S43  1  0.92371161  0.75335324  0.17028697  1
  S  S44  1  0.92416799  0.57583201  0.42416799  1
  S  S45  1  0.57628839  0.25335324  0.17028697  1
  S  S46  1  0.07628839  0.24664676  0.82971303  1
  S  S47  1  0.07628839  0.25335324  0.32971303  1
  S  S48  1  0.32971303  0.07628839  0.25335324  1
  S  S49  1  0.57583201  0.07583201  0.42416799  1
  S  S50  1  0.75335324  0.32971303  0.42371161  1
  S  S51  1  0.67028697  0.57628839  0.24664676  1
  S  S52  1  0.82971303  0.07628839  0.24664676  1
  S  S53  1  0.42371161  0.75335324  0.32971303  1
  S  S54  1  0.75335324  0.17028697  0.92371161  1
  S  S55  1  0.07583201  0.42416799  0.57583201  1
  S  S56  1  0.32971303  0.42371161  0.75335324  1
  S  S57  1  0.74664676  0.82971303  0.42371161  1
  S  S58  1  0.25335324  0.32971303  0.07628839  1
  S  S59  1  0.42371161  0.74664676  0.82971303  1
  S  S60  1  0.42416799  0.57583201  0.07583201  1
  S  S61  1  0.92416799  0.92416799  0.92416799  1
  S  S62  1  0.17028697  0.57628839  0.25335324  1
  S  S63  1  0.67028697  0.92371161  0.74664676  1
  S  S64  1  0.17028697  0.92371161  0.75335324  1
  S  S65  1  0.92371161  0.74664676  0.67028697  1
  S  S66  1  0.57628839  0.24664676  0.67028697  1
  S  S67  1  0.25335324  0.17028697  0.57628839  1
  S  S68  1  0.74664676  0.67028697  0.92371161  1
  S  S69  1  0.42416799  0.92416799  0.57583201  1
  S  S70  1  0.07583201  0.07583201  0.07583201  1
  S  S71  1  0.57583201  0.42416799  0.92416799  1
