# generated using pymatgen
data_MgTlP(H6O5)2
_symmetry_space_group_name_H-M   'P 1'
_cell_length_a   6.14284561
_cell_length_b   6.90910561
_cell_length_c   11.36622371
_cell_angle_alpha   90.00000000
_cell_angle_beta   90.00000000
_cell_angle_gamma   90.00000000
_symmetry_Int_Tables_number   1
_chemical_formula_structural   MgTlP(H6O5)2
_chemical_formula_sum   'Mg2 Tl2 P2 H24 O20'
_cell_volume   482.40036860
_cell_formula_units_Z   2
loop_
 _symmetry_equiv_pos_site_id
 _symmetry_equiv_pos_as_xyz
  1  'x, y, z'
loop_
 _atom_site_type_symbol
 _atom_site_label
 _atom_site_symmetry_multiplicity
 _atom_site_fract_x
 _atom_site_fract_y
 _atom_site_fract_z
 _atom_site_occupancy
  Mg  Mg0  1  0.38319392  0.50000000  0.12174149  1
  Mg  Mg1  1  0.61680608  0.00000000  0.62174149  1
  Tl  Tl2  1  0.62833007  0.00000000  0.26684809  1
  Tl  Tl3  1  0.37166993  0.50000000  0.76684809  1
  P  P4  1  0.01375440  0.00000000  0.98746420  1
  P  P5  1  0.98624560  0.50000000  0.48746420  1
  H  H6  1  0.16830205  0.00000000  0.65733606  1
  H  H7  1  0.60399178  0.32350011  0.47699983  1
  H  H8  1  0.80025089  0.20480012  0.81004669  1
  H  H9  1  0.82685828  0.67582722  0.68862065  1
  H  H10  1  0.19974911  0.29519988  0.31004669  1
  H  H11  1  0.60399178  0.67649989  0.47699983  1
  H  H12  1  0.00683443  0.61780614  0.99906142  1
  H  H13  1  0.80025089  0.79519988  0.81004669  1
  H  H14  1  0.19974911  0.70480012  0.31004669  1
  H  H15  1  0.17314172  0.82417278  0.18862065  1
  H  H16  1  0.27224173  0.00000000  0.78862686  1
  H  H17  1  0.64387029  0.24939082  0.98839757  1
  H  H18  1  0.39600822  0.82350011  0.97699983  1
  H  H19  1  0.17314172  0.17582722  0.18862065  1
  H  H20  1  0.35612971  0.74939082  0.48839757  1
  H  H21  1  0.99316557  0.11780614  0.49906142  1
  H  H22  1  0.72775827  0.50000000  0.28862686  1
  H  H23  1  0.00683443  0.38219386  0.99906142  1
  H  H24  1  0.39600822  0.17649989  0.97699983  1
  H  H25  1  0.83169795  0.50000000  0.15733606  1
  H  H26  1  0.82685828  0.32417278  0.68862065  1
  H  H27  1  0.99316557  0.88219386  0.49906142  1
  H  H28  1  0.64387029  0.75060918  0.98839757  1
  H  H29  1  0.35612971  0.25060918  0.48839757  1
  O  O30  1  0.51085118  0.78881638  0.50349556  1
  O  O31  1  0.69350238  0.50000000  0.20158868  1
  O  O32  1  0.73156559  0.77318335  0.73051915  1
  O  O33  1  0.89203256  0.81453789  0.94522163  1
  O  O34  1  0.26843441  0.72681665  0.23051915  1
  O  O35  1  0.10796744  0.68546211  0.44522163  1
  O  O36  1  0.96625215  0.50000000  0.62354985  1
  O  O37  1  0.24644520  0.00000000  0.93100337  1
  O  O38  1  0.26843441  0.27318335  0.23051915  1
  O  O39  1  0.48914882  0.71118362  0.00349556  1
  O  O40  1  0.73156559  0.22681665  0.73051915  1
  O  O41  1  0.51085118  0.21118362  0.50349556  1
  O  O42  1  0.30649762  0.00000000  0.70158868  1
  O  O43  1  0.75355480  0.50000000  0.43100337  1
  O  O44  1  0.89203256  0.18546211  0.94522163  1
  O  O45  1  0.06562561  0.50000000  0.04095638  1
  O  O46  1  0.03374785  0.00000000  0.12354985  1
  O  O47  1  0.10796744  0.31453789  0.44522163  1
  O  O48  1  0.93437439  0.00000000  0.54095638  1
  O  O49  1  0.48914882  0.28881638  0.00349556  1
