# generated using pymatgen
data_Li47Cu7N18
_symmetry_space_group_name_H-M   'P 1'
_cell_length_a   3.68035459
_cell_length_b   3.68035459
_cell_length_c   68.04758789
_cell_angle_alpha   90.00000000
_cell_angle_beta   90.00000000
_cell_angle_gamma   120.00000601
_symmetry_Int_Tables_number   1
_chemical_formula_structural   Li47Cu7N18
_chemical_formula_sum   'Li47 Cu7 N18'
_cell_volume   798.22011670
_cell_formula_units_Z   1
loop_
 _symmetry_equiv_pos_site_id
 _symmetry_equiv_pos_as_xyz
  1  'x, y, z'
loop_
 _atom_site_type_symbol
 _atom_site_label
 _atom_site_symmetry_multiplicity
 _atom_site_fract_x
 _atom_site_fract_y
 _atom_site_fract_z
 _atom_site_occupancy
  Li  Li0  1  -0.00000000  -0.00000000  0.88858434  1
  Li  Li1  1  0.00000000  -0.00000000  0.94437214  1
  Li  Li2  1  0.00000000  -0.00000000  0.11141566  1
  Li  Li3  1  0.00000000  -0.00000000  0.22391372  1
  Li  Li4  1  0.00000000  -0.00000000  0.33475783  1
  Li  Li5  1  0.33333300  0.66666700  0.63521630  1
  Li  Li6  1  0.33333300  0.66666700  0.69527389  1
  Li  Li7  1  0.33333300  0.66666700  0.74683835  1
  Li  Li8  1  0.33333300  0.66666700  0.80447336  1
  Li  Li9  1  0.33333300  0.66666700  0.86066715  1
  Li  Li10  1  0.33333300  0.66666700  0.91656495  1
  Li  Li11  1  0.33333300  0.66666700  0.97222229  1
  Li  Li12  1  0.33333300  0.66666700  0.02777771  1
  Li  Li13  1  0.33333300  0.66666700  0.08343505  1
  Li  Li14  1  0.33333300  0.66666700  0.13933285  1
  Li  Li15  1  0.33333300  0.66666700  0.19552664  1
  Li  Li16  1  0.33333300  0.66666700  0.25316165  1
  Li  Li17  1  0.33333300  0.66666700  0.30472611  1
  Li  Li18  1  0.33333300  0.66666700  0.36478370  1
  Li  Li19  1  0.33333300  0.66666700  0.41790481  1
  Li  Li20  1  0.33333300  0.66666700  0.47258304  1
  Li  Li21  1  0.33333300  0.66666700  0.52741696  1
  Li  Li22  1  0.33333300  0.66666700  0.58209519  1
  Li  Li23  1  0.66666700  0.33333300  0.63521630  1
  Li  Li24  1  0.66666700  0.33333300  0.69527389  1
  Li  Li25  1  0.66666700  0.33333300  0.74683835  1
  Li  Li26  1  0.66666700  0.33333300  0.80447336  1
  Li  Li27  1  0.66666700  0.33333300  0.86066715  1
  Li  Li28  1  0.66666700  0.33333300  0.91656495  1
  Li  Li29  1  0.66666700  0.33333300  0.97222229  1
  Li  Li30  1  0.66666700  0.33333300  0.02777771  1
  Li  Li31  1  -0.00000000  -0.00000000  0.66524217  1
  Li  Li32  1  0.66666700  0.33333300  0.08343505  1
  Li  Li33  1  0.66666700  0.33333300  0.13933285  1
  Li  Li34  1  0.00000000  0.00000000  0.77608628  1
  Li  Li35  1  0.66666700  0.33333300  0.19552664  1
  Li  Li36  1  -0.00000000  -0.00000000  0.83252698  1
  Li  Li37  1  0.66666700  0.33333300  0.25316165  1
  Li  Li38  1  0.66666700  0.33333300  0.30472611  1
  Li  Li39  1  0.66666700  0.33333300  0.36478370  1
  Li  Li40  1  0.00000000  -0.00000000  0.00000000  1
  Li  Li41  1  0.00000000  -0.00000000  0.05562786  1
  Li  Li42  1  0.66666700  0.33333300  0.47258304  1
  Li  Li43  1  0.66666700  0.33333300  0.41790481  1
  Li  Li44  1  0.66666700  0.33333300  0.52741696  1
  Li  Li45  1  0.00000000  -0.00000000  0.16747302  1
  Li  Li46  1  0.66666700  0.33333300  0.58209519  1
  Cu  Cu47  1  0.00000000  -0.00000000  0.44527443  1
  Cu  Cu48  1  0.00000000  -0.00000000  0.50000000  1
  Cu  Cu49  1  0.00000000  -0.00000000  0.60948731  1
  Cu  Cu50  1  0.00000000  -0.00000000  0.72092927  1
  Cu  Cu51  1  0.00000000  -0.00000000  0.27907073  1
  Cu  Cu52  1  0.00000000  -0.00000000  0.39051269  1
  Cu  Cu53  1  0.00000000  -0.00000000  0.55472557  1
  N  N54  1  0.00000000  -0.00000000  0.69336114  1
  N  N55  1  0.00000000  -0.00000000  0.74842088  1
  N  N56  1  -0.00000000  -0.00000000  0.86060967  1
  N  N57  1  0.00000000  -0.00000000  0.08348242  1
  N  N58  1  0.00000000  -0.00000000  0.13939033  1
  N  N59  1  0.00000000  -0.00000000  0.25157912  1
  N  N60  1  0.00000000  -0.00000000  0.52736843  1
  N  N61  1  0.00000000  -0.00000000  0.58206180  1
  N  N62  1  0.00000000  -0.00000000  0.63705305  1
  N  N63  1  0.00000000  -0.00000000  0.80440480  1
  N  N64  1  0.00000000  -0.00000000  0.91651758  1
  N  N65  1  0.00000000  -0.00000000  0.97220072  1
  N  N66  1  0.00000000  -0.00000000  0.02779928  1
  N  N67  1  0.00000000  -0.00000000  0.19559520  1
  N  N68  1  0.00000000  -0.00000000  0.30663886  1
  N  N69  1  0.00000000  -0.00000000  0.36294695  1
  N  N70  1  0.00000000  -0.00000000  0.41793820  1
  N  N71  1  0.00000000  -0.00000000  0.47263157  1
