# generated using pymatgen
data_Tm(CuGe)2
_symmetry_space_group_name_H-M   'P 1'
_cell_length_a   4.01356336
_cell_length_b   4.01356342
_cell_length_c   5.90643513
_cell_angle_alpha   109.86236068
_cell_angle_beta   109.86236096
_cell_angle_gamma   90.00000359
_symmetry_Int_Tables_number   1
_chemical_formula_structural   Tm(CuGe)2
_chemical_formula_sum   'Tm1 Cu2 Ge2'
_cell_volume   83.44183244
_cell_formula_units_Z   1
loop_
 _symmetry_equiv_pos_site_id
 _symmetry_equiv_pos_as_xyz
  1  'x, y, z'
loop_
 _atom_site_type_symbol
 _atom_site_label
 _atom_site_symmetry_multiplicity
 _atom_site_fract_x
 _atom_site_fract_y
 _atom_site_fract_z
 _atom_site_occupancy
  Tm  Tm0  1  0.00000000  0.00000000  0.00000000  1
  Cu  Cu1  1  0.25000000  0.75000000  0.50000000  1
  Cu  Cu2  1  0.75000000  0.25000000  0.50000000  1
  Ge  Ge3  1  0.38207995  0.38207995  0.76415990  1
  Ge  Ge4  1  0.61792005  0.61792005  0.23584010  1
