# generated using pymatgen
data_LiCr10O15
_symmetry_space_group_name_H-M   'P 1'
_cell_length_a   7.77987583
_cell_length_b   7.77987583
_cell_length_c   9.44580182
_cell_angle_alpha   90.00000000
_cell_angle_beta   90.00000000
_cell_angle_gamma   83.73676645
_symmetry_Int_Tables_number   1
_chemical_formula_structural   LiCr10O15
_chemical_formula_sum   'Li2 Cr20 O30'
_cell_volume   568.30851423
_cell_formula_units_Z   2
loop_
 _symmetry_equiv_pos_site_id
 _symmetry_equiv_pos_as_xyz
  1  'x, y, z'
loop_
 _atom_site_type_symbol
 _atom_site_label
 _atom_site_symmetry_multiplicity
 _atom_site_fract_x
 _atom_site_fract_y
 _atom_site_fract_z
 _atom_site_occupancy
  Li  Li0  1  0.00000000  0.00000000  0.00000000  1
  Li  Li1  1  0.50000000  0.50000000  0.50000000  1
  Cr  Cr2  1  0.18794126  0.81205874  0.36675237  1
  Cr  Cr3  1  0.31205874  0.68794126  0.86675237  1
  Cr  Cr4  1  0.58060635  0.90241843  0.61284776  1
  Cr  Cr5  1  0.59758157  0.91939365  0.88715224  1
  Cr  Cr6  1  0.08060635  0.40241843  0.88715224  1
  Cr  Cr7  1  0.09758157  0.41939365  0.61284776  1
  Cr  Cr8  1  0.54389622  0.70930096  0.14745201  1
  Cr  Cr9  1  0.79069904  0.95610378  0.35254799  1
  Cr  Cr10  1  0.04389622  0.20930096  0.35254799  1
  Cr  Cr11  1  0.29069904  0.45610378  0.14745201  1
  Cr  Cr12  1  0.45610378  0.29069904  0.85254799  1
  Cr  Cr13  1  0.95610378  0.79069904  0.64745201  1
  Cr  Cr14  1  0.20930096  0.04389622  0.64745201  1
  Cr  Cr15  1  0.70930096  0.54389622  0.85254799  1
  Cr  Cr16  1  0.41939365  0.09758157  0.38715224  1
  Cr  Cr17  1  0.91939365  0.59758157  0.11284776  1
  Cr  Cr18  1  0.40241843  0.08060635  0.11284776  1
  Cr  Cr19  1  0.90241843  0.58060635  0.38715224  1
  Cr  Cr20  1  0.68794126  0.31205874  0.13324763  1
  Cr  Cr21  1  0.81205874  0.18794126  0.63324763  1
  O  O22  1  0.13872776  0.86127224  0.77072669  1
  O  O23  1  0.36110094  0.89936985  0.50753441  1
  O  O24  1  0.10063015  0.63889906  0.50753441  1
  O  O25  1  0.13889906  0.60063015  0.00753441  1
  O  O26  1  0.39936985  0.86110094  0.00753441  1
  O  O27  1  0.06638875  0.43361125  0.25000000  1
  O  O28  1  0.56638875  0.93361125  0.25000000  1
  O  O29  1  0.36127224  0.63872776  0.27072669  1
  O  O30  1  0.77530547  0.96131688  0.73875703  1
  O  O31  1  0.53868312  0.72469453  0.76124297  1
  O  O32  1  0.03868312  0.22469453  0.73875703  1
  O  O33  1  0.27530547  0.46131688  0.76124297  1
  O  O34  1  0.25823902  0.25823902  0.00000000  1
  O  O35  1  0.50000000  0.50000000  0.00000000  1
  O  O36  1  0.74176098  0.74176098  0.00000000  1
  O  O37  1  0.00000000  0.00000000  0.50000000  1
  O  O38  1  0.24176098  0.24176098  0.50000000  1
  O  O39  1  0.75823902  0.75823902  0.50000000  1
  O  O40  1  0.22469453  0.03868312  0.26124297  1
  O  O41  1  0.72469453  0.53868312  0.23875703  1
  O  O42  1  0.96131688  0.77530547  0.26124297  1
  O  O43  1  0.46131688  0.27530547  0.23875703  1
  O  O44  1  0.63872776  0.36127224  0.72927331  1
  O  O45  1  0.93361125  0.56638875  0.75000000  1
  O  O46  1  0.43361125  0.06638875  0.75000000  1
  O  O47  1  0.86110094  0.39936985  0.99246559  1
  O  O48  1  0.60063015  0.13889906  0.99246559  1
  O  O49  1  0.63889906  0.10063015  0.49246559  1
  O  O50  1  0.89936985  0.36110094  0.49246559  1
  O  O51  1  0.86127224  0.13872776  0.22927331  1
