# generated using pymatgen
data_NaFe(SeO4)2
_symmetry_space_group_name_H-M   'P 1'
_cell_length_a   5.02526899
_cell_length_b   5.02526993
_cell_length_c   7.31937245
_cell_angle_alpha   88.45860004
_cell_angle_beta   88.45859968
_cell_angle_gamma   66.69393879
_symmetry_Int_Tables_number   1
_chemical_formula_structural   NaFe(SeO4)2
_chemical_formula_sum   'Na1 Fe1 Se2 O8'
_cell_volume   169.66853005
_cell_formula_units_Z   1
loop_
 _symmetry_equiv_pos_site_id
 _symmetry_equiv_pos_as_xyz
  1  'x, y, z'
loop_
 _atom_site_type_symbol
 _atom_site_label
 _atom_site_symmetry_multiplicity
 _atom_site_fract_x
 _atom_site_fract_y
 _atom_site_fract_z
 _atom_site_occupancy
  Na  Na0  1  0.00000000  0.00000000  0.50000000  1
  Fe  Fe1  1  0.00000000  0.00000000  0.00000000  1
  Se  Se2  1  0.36234225  0.36234225  0.77699927  1
  Se  Se3  1  0.63765775  0.63765775  0.22300073  1
  O  O4  1  0.76717930  0.27177157  0.20499215  1
  O  O5  1  0.28385066  0.28385066  0.57568336  1
  O  O6  1  0.23282070  0.72822843  0.79500785  1
  O  O7  1  0.27177157  0.76717930  0.20499215  1
  O  O8  1  0.76457696  0.76457696  0.04104979  1
  O  O9  1  0.72822843  0.23282070  0.79500785  1
  O  O10  1  0.23542304  0.23542304  0.95895021  1
  O  O11  1  0.71614934  0.71614934  0.42431664  1
