# generated using pymatgen
data_Ce(WO4)2
_symmetry_space_group_name_H-M   'P 1'
_cell_length_a   9.68151587
_cell_length_b   9.68151587
_cell_length_c   9.68151587
_cell_angle_alpha   90.00000000
_cell_angle_beta   90.00000000
_cell_angle_gamma   90.00000000
_symmetry_Int_Tables_number   1
_chemical_formula_structural   Ce(WO4)2
_chemical_formula_sum   'Ce4 W8 O32'
_cell_volume   907.46542070
_cell_formula_units_Z   4
loop_
 _symmetry_equiv_pos_site_id
 _symmetry_equiv_pos_as_xyz
  1  'x, y, z'
loop_
 _atom_site_type_symbol
 _atom_site_label
 _atom_site_symmetry_multiplicity
 _atom_site_fract_x
 _atom_site_fract_y
 _atom_site_fract_z
 _atom_site_occupancy
  Ce  Ce0  1  0.24784796  0.25215204  0.74784796  1
  Ce  Ce1  1  0.25215204  0.74784796  0.24784796  1
  Ce  Ce2  1  0.74784796  0.24784796  0.25215204  1
  Ce  Ce3  1  0.75215204  0.75215204  0.75215204  1
  W  W4  1  0.09134766  0.09134766  0.09134766  1
  W  W5  1  0.15031964  0.65031964  0.84968036  1
  W  W6  1  0.34968036  0.34968036  0.34968036  1
  W  W7  1  0.40865234  0.90865234  0.59134766  1
  W  W8  1  0.59134766  0.40865234  0.90865234  1
  W  W9  1  0.65031964  0.84968036  0.15031964  1
  W  W10  1  0.84968036  0.15031964  0.65031964  1
  W  W11  1  0.90865234  0.59134766  0.40865234  1
  O  O12  1  0.01322612  0.48677388  0.51322612  1
  O  O13  1  0.03140014  0.19204044  0.67937421  1
  O  O14  1  0.03804797  0.69513636  0.31382818  1
  O  O15  1  0.17937421  0.46859986  0.80795956  1
  O  O16  1  0.18617182  0.96195203  0.19513636  1
  O  O17  1  0.19204044  0.67937421  0.03140014  1
  O  O18  1  0.19513636  0.18617182  0.96195203  1
  O  O19  1  0.24376779  0.24376779  0.24376779  1
  O  O20  1  0.25623221  0.75623221  0.74376779  1
  O  O21  1  0.30486364  0.81382818  0.46195203  1
  O  O22  1  0.30795956  0.32062579  0.53140014  1
  O  O23  1  0.31382818  0.03804797  0.69513636  1
  O  O24  1  0.32062579  0.53140014  0.30795956  1
  O  O25  1  0.46195203  0.30486364  0.81382818  1
  O  O26  1  0.46859986  0.80795956  0.17937421  1
  O  O27  1  0.48677388  0.51322612  0.01322612  1
  O  O28  1  0.51322612  0.01322612  0.48677388  1
  O  O29  1  0.53140014  0.30795956  0.32062579  1
  O  O30  1  0.53804797  0.80486364  0.68617182  1
  O  O31  1  0.67937421  0.03140014  0.19204044  1
  O  O32  1  0.68617182  0.53804797  0.80486364  1
  O  O33  1  0.69204044  0.82062579  0.96859986  1
  O  O34  1  0.69513636  0.31382818  0.03804797  1
  O  O35  1  0.74376779  0.25623221  0.75623221  1
  O  O36  1  0.75623221  0.74376779  0.25623221  1
  O  O37  1  0.80486364  0.68617182  0.53804797  1
  O  O38  1  0.80795956  0.17937421  0.46859986  1
  O  O39  1  0.81382818  0.46195203  0.30486364  1
  O  O40  1  0.82062579  0.96859986  0.69204044  1
  O  O41  1  0.96195203  0.19513636  0.18617182  1
  O  O42  1  0.96859986  0.69204044  0.82062579  1
  O  O43  1  0.98677388  0.98677388  0.98677388  1
