# generated using pymatgen
data_TcBr3
_symmetry_space_group_name_H-M   'P 1'
_cell_length_a   12.30590013
_cell_length_b   6.05674057
_cell_length_c   7.11298393
_cell_angle_alpha   90.00000000
_cell_angle_beta   90.00000000
_cell_angle_gamma   90.00000000
_symmetry_Int_Tables_number   1
_chemical_formula_structural   TcBr3
_chemical_formula_sum   'Tc4 Br12'
_cell_volume   530.15661605
_cell_formula_units_Z   4
loop_
 _symmetry_equiv_pos_site_id
 _symmetry_equiv_pos_as_xyz
  1  'x, y, z'
loop_
 _atom_site_type_symbol
 _atom_site_label
 _atom_site_symmetry_multiplicity
 _atom_site_fract_x
 _atom_site_fract_y
 _atom_site_fract_z
 _atom_site_occupancy
  Tc  Tc0  1  0.25000000  0.02726433  0.24593165  1
  Tc  Tc1  1  0.25000000  0.47273567  0.24593165  1
  Tc  Tc2  1  0.75000000  0.52726433  0.75406835  1
  Tc  Tc3  1  0.75000000  0.97273567  0.75406835  1
  Br  Br4  1  0.75000000  0.74999900  0.05551659  1
  Br  Br5  1  0.11362730  0.74999900  0.11016481  1
  Br  Br6  1  0.38637270  0.74999900  0.11016481  1
  Br  Br7  1  0.09820342  0.24999900  0.39512936  1
  Br  Br8  1  0.40179658  0.24999900  0.39512936  1
  Br  Br9  1  0.75000000  0.24999900  0.48127233  1
  Br  Br10  1  0.25000000  0.74999900  0.51872767  1
  Br  Br11  1  0.59820342  0.74999900  0.60486964  1
  Br  Br12  1  0.90179658  0.74999900  0.60486964  1
  Br  Br13  1  0.61362730  0.24999900  0.88983619  1
  Br  Br14  1  0.88637270  0.24999900  0.88983619  1
  Br  Br15  1  0.25000000  0.24999900  0.94448341  1
