# generated using pymatgen
data_Li5Ti2Cu5O12
_symmetry_space_group_name_H-M   'P 1'
_cell_length_a   5.06865420
_cell_length_b   5.06865413
_cell_length_c   9.71972101
_cell_angle_alpha   89.51186309
_cell_angle_beta   90.48813313
_cell_angle_gamma   66.43552810
_symmetry_Int_Tables_number   1
_chemical_formula_structural   Li5Ti2Cu5O12
_chemical_formula_sum   'Li5 Ti2 Cu5 O12'
_cell_volume   228.86088198
_cell_formula_units_Z   1
loop_
 _symmetry_equiv_pos_site_id
 _symmetry_equiv_pos_as_xyz
  1  'x, y, z'
loop_
 _atom_site_type_symbol
 _atom_site_label
 _atom_site_symmetry_multiplicity
 _atom_site_fract_x
 _atom_site_fract_y
 _atom_site_fract_z
 _atom_site_occupancy
  Li  Li0  1  0.15896472  0.67791030  0.50341511  1
  Li  Li1  1  0.31944089  0.85122599  0.99194225  1
  Li  Li2  1  0.67791030  0.15896472  0.99658489  1
  Li  Li3  1  0.85122599  0.31944089  0.50805775  1
  Li  Li4  1  0.91267667  0.91267667  0.75000000  1
  Ti  Ti5  1  0.24458758  0.24458758  0.75000000  1
  Ti  Ti6  1  0.74561109  0.74561109  0.25000000  1
  Cu  Cu7  1  0.07843735  0.07843735  0.25000000  1
  Cu  Cu8  1  0.99887121  0.51208492  0.99790242  1
  Cu  Cu9  1  0.51208492  0.99887121  0.50209758  1
  Cu  Cu10  1  0.41669166  0.41669166  0.25000000  1
  Cu  Cu11  1  0.58492011  0.58492011  0.75000000  1
  O  O12  1  0.98904736  0.20491120  0.88440930  1
  O  O13  1  0.20491120  0.98904736  0.61559070  1
  O  O14  1  0.07908241  0.41739846  0.34797319  1
  O  O15  1  0.41739846  0.07908241  0.15202681  1
  O  O16  1  0.30875786  0.52763170  0.87125146  1
  O  O17  1  0.52763170  0.30875786  0.62874854  1
  O  O18  1  0.47778235  0.69157486  0.37675749  1
  O  O19  1  0.69157486  0.47778235  0.12324251  1
  O  O20  1  0.57261738  0.91438108  0.84873809  1
  O  O21  1  0.91438108  0.57261738  0.65126191  1
  O  O22  1  0.80943265  0.00596019  0.38108421  1
  O  O23  1  0.00596019  0.80943265  0.11891579  1
