# generated using pymatgen
data_UBC
_symmetry_space_group_name_H-M   'P 1'
_cell_length_a   3.28635017
_cell_length_b   3.62903668
_cell_length_c   6.24191917
_cell_angle_alpha   106.89979609
_cell_angle_beta   90.00000000
_cell_angle_gamma   90.00000000
_symmetry_Int_Tables_number   1
_chemical_formula_structural   UBC
_chemical_formula_sum   'U2 B2 C2'
_cell_volume   71.22806349
_cell_formula_units_Z   2
loop_
 _symmetry_equiv_pos_site_id
 _symmetry_equiv_pos_as_xyz
  1  'x, y, z'
loop_
 _atom_site_type_symbol
 _atom_site_label
 _atom_site_symmetry_multiplicity
 _atom_site_fract_x
 _atom_site_fract_y
 _atom_site_fract_z
 _atom_site_occupancy
  U  U0  1  0.75000000  0.13789708  0.27579417  1
  U  U1  1  0.25000000  0.86210292  0.72420583  1
  B  B2  1  0.75000000  0.46577989  0.93155978  1
  B  B3  1  0.25000000  0.53422011  0.06844022  1
  C  C4  1  0.75000000  0.33361666  0.66723331  1
  C  C5  1  0.25000000  0.66638334  0.33276669  1
