# generated using pymatgen
data_Li4Cr3Co5O16
_symmetry_space_group_name_H-M   'P 1'
_cell_length_a   5.81679552
_cell_length_b   5.81468247
_cell_length_c   9.44274868
_cell_angle_alpha   90.95006561
_cell_angle_beta   89.31495009
_cell_angle_gamma   120.56350917
_symmetry_Int_Tables_number   1
_chemical_formula_structural   Li4Cr3Co5O16
_chemical_formula_sum   'Li4 Cr3 Co5 O16'
_cell_volume   274.96749140
_cell_formula_units_Z   1
loop_
 _symmetry_equiv_pos_site_id
 _symmetry_equiv_pos_as_xyz
  1  'x, y, z'
loop_
 _atom_site_type_symbol
 _atom_site_label
 _atom_site_symmetry_multiplicity
 _atom_site_fract_x
 _atom_site_fract_y
 _atom_site_fract_z
 _atom_site_occupancy
  Li  Li0  1  0.34679955  0.67496225  0.89127025  1
  Li  Li1  1  0.98123764  0.98950363  0.99575259  1
  Li  Li2  1  0.98485621  0.99124988  0.49759990  1
  Li  Li3  1  0.67596273  0.33868001  0.39553539  1
  Cr  Cr4  1  0.17246260  0.83139087  0.21349947  1
  Cr  Cr5  1  0.16892850  0.33350904  0.21031099  1
  Cr  Cr6  1  0.33915324  0.16798552  0.71504590  1
  Co  Co7  1  0.32129248  0.66015093  0.49049238  1
  Co  Co8  1  0.65942591  0.82841289  0.21674854  1
  Co  Co9  1  0.67196040  0.34475068  0.98752041  1
  Co  Co10  1  0.82964650  0.66035026  0.71448678  1
  Co  Co11  1  0.83332215  0.17008824  0.71264152  1
  O  O12  1  0.14805227  0.82716832  0.59861764  1
  O  O13  1  0.04123974  0.51276247  0.33698954  1
  O  O14  1  0.34993076  0.67074346  0.10511353  1
  O  O15  1  0.98735382  0.99432084  0.31072214  1
  O  O16  1  0.98494114  0.99182188  0.80797601  1
  O  O17  1  0.15143739  0.32251154  0.60299125  1
  O  O18  1  0.49460476  0.96199619  0.33979175  1
  O  O19  1  0.48334986  0.51890851  0.33352340  1
  O  O20  1  0.32198413  0.16856298  0.09913962  1
  O  O21  1  0.66741273  0.83759730  0.60912680  1
  O  O22  1  0.53478984  0.49676731  0.83562572  1
  O  O23  1  0.53518610  0.04669924  0.83904852  1
  O  O24  1  0.68325804  0.34208090  0.61025694  1
  O  O25  1  0.82543053  0.66712925  0.10013882  1
  O  O26  1  0.96787303  0.48581009  0.83004833  1
  O  O27  1  0.83810694  0.16438452  0.10782686  1
