# generated using pymatgen
data_CsV3O8
_symmetry_space_group_name_H-M   'P 1'
_cell_length_a   5.15318176
_cell_length_b   8.51047626
_cell_length_c   8.77301150
_cell_angle_alpha   90.00000000
_cell_angle_beta   90.00000000
_cell_angle_gamma   97.77477646
_symmetry_Int_Tables_number   1
_chemical_formula_structural   CsV3O8
_chemical_formula_sum   'Cs2 V6 O16'
_cell_volume   381.21265155
_cell_formula_units_Z   2
loop_
 _symmetry_equiv_pos_site_id
 _symmetry_equiv_pos_as_xyz
  1  'x, y, z'
loop_
 _atom_site_type_symbol
 _atom_site_label
 _atom_site_symmetry_multiplicity
 _atom_site_fract_x
 _atom_site_fract_y
 _atom_site_fract_z
 _atom_site_occupancy
  O  O0  1  0.88629328  0.29906616  0.60446945  1
  O  O1  1  0.11370672  0.70093384  0.10446945  1
  O  O2  1  0.11370672  0.70093384  0.39553055  1
  O  O3  1  0.88629328  0.29906616  0.89553055  1
  O  O4  1  0.56280501  0.81465441  0.55158951  1
  O  O5  1  0.43719499  0.18534559  0.05158951  1
  O  O6  1  0.43719499  0.18534559  0.44841049  1
  O  O7  1  0.56280501  0.81465441  0.94841049  1
  O  O8  1  0.91440192  0.58626752  0.75000000  1
  O  O9  1  0.08559808  0.41373248  0.25000000  1
  O  O10  1  0.42267350  0.26755376  0.75000000  1
  O  O11  1  0.57732650  0.73244624  0.25000000  1
  O  O12  1  0.32821092  0.49764385  0.90994937  1
  O  O13  1  0.67178908  0.50235615  0.40994937  1
  O  O14  1  0.67178908  0.50235615  0.09005063  1
  O  O15  1  0.32821092  0.49764385  0.59005063  1
  V  V16  1  0.56149221  0.33222859  0.55790384  1
  V  V17  1  0.43850779  0.66777141  0.05790384  1
  V  V18  1  0.43850779  0.66777141  0.44209616  1
  V  V19  1  0.56149221  0.33222859  0.94209616  1
  V  V20  1  0.91767456  0.56217288  0.25000000  1
  V  V21  1  0.08232544  0.43782712  0.75000000  1
  Cs  Cs22  1  0.93275205  0.05324453  0.25000000  1
  Cs  Cs23  1  0.06724795  0.94675547  0.75000000  1
