# generated using pymatgen
data_Nb5P7O30
_symmetry_space_group_name_H-M   'P 1'
_cell_length_a   8.87519686
_cell_length_b   8.93350430
_cell_length_c   15.89140003
_cell_angle_alpha   91.58790383
_cell_angle_beta   106.11292385
_cell_angle_gamma   90.03299310
_symmetry_Int_Tables_number   1
_chemical_formula_structural   Nb5P7O30
_chemical_formula_sum   'Nb10 P14 O60'
_cell_volume   1209.96942100
_cell_formula_units_Z   2
loop_
 _symmetry_equiv_pos_site_id
 _symmetry_equiv_pos_as_xyz
  1  'x, y, z'
loop_
 _atom_site_type_symbol
 _atom_site_label
 _atom_site_symmetry_multiplicity
 _atom_site_fract_x
 _atom_site_fract_y
 _atom_site_fract_z
 _atom_site_occupancy
  Nb  Nb0  1  0.20639877  0.96263872  0.90443940  1
  Nb  Nb1  1  0.79447558  0.03895716  0.09544841  1
  Nb  Nb2  1  0.29919035  0.53872835  0.09486845  1
  Nb  Nb3  1  0.91863707  0.55422872  0.32635436  1
  Nb  Nb4  1  0.59259201  0.94643382  0.67258840  1
  Nb  Nb5  1  0.40456528  0.05328835  0.32678760  1
  Nb  Nb6  1  0.69966110  0.46266830  0.90454965  1
  Nb  Nb7  1  0.49945080  0.50024679  0.49965280  1
  Nb  Nb8  1  -0.00027543  0.00136357  0.49989773  1
  Nb  Nb9  1  0.07946186  0.44669507  0.67351613  1
  P  P10  1  0.25193774  0.40941297  0.28901896  1
  P  P11  1  0.32024028  0.23151218  0.59497563  1
  P  P12  1  0.55216721  0.10415219  0.88146043  1
  P  P13  1  0.67826441  0.76998301  0.40459227  1
  P  P14  1  0.44742248  0.89662061  0.11802591  1
  P  P15  1  0.02821449  0.25111765  -0.00047942  1
  P  P16  1  0.97217240  0.75018118  0.00039275  1
  P  P17  1  0.03559147  0.90814684  0.28902300  1
  P  P18  1  0.72580528  0.26909441  0.40469063  1
  P  P19  1  0.33000676  0.60522190  0.88137745  1
  P  P20  1  0.27266224  0.73024565  0.59523255  1
  P  P21  1  0.74603522  0.59074230  0.71030532  1
  P  P22  1  0.96280268  0.09055560  0.71107152  1
  P  P23  1  0.66637154  0.39675604  0.11714498  1
  O  O24  1  0.20346050  0.92747889  0.28337882  1
  O  O25  1  0.33907549  0.93255103  0.02588904  1
  O  O26  1  0.71074017  0.49634677  0.78469261  1
  O  O27  1  0.42361690  0.72569107  0.13167350  1
  O  O28  1  0.89639170  0.33396295  0.93392202  1
  O  O29  1  0.61413837  0.66045839  0.46096105  1
  O  O30  1  0.72936480  0.67917654  0.33399202  1
  O  O31  1  0.89641075  0.86343478  0.05133808  1
  O  O32  1  0.37887788  0.08800850  0.88660683  1
  O  O33  1  0.60921120  0.91477927  0.56721362  1
  O  O34  1  0.97876991  0.02488612  0.62251054  1
  O  O35  1  0.17618941  0.14887684  0.53367473  1
  O  O36  1  0.28985269  0.50194926  0.21483478  1
  O  O37  1  0.41495391  -0.00367396  0.18758560  1
  O  O38  1  0.10367769  0.13797435  0.94842276  1
  O  O39  1  0.07477537  -0.00351447  0.78480038  1
  O  O40  1  0.26978147  0.32368164  0.66507291  1
  O  O41  1  0.71037099  0.75467722  0.72565377  1
  O  O42  1  0.58067396  0.00442845  0.81054123  1
  O  O43  1  0.35674014  0.47498248  0.37733069  1
  O  O44  1  0.70563863  0.22636380  0.13114538  1
  O  O45  1  0.91946509  0.57172752  0.71557167  1
  O  O46  1  0.96060207  0.41291347  0.56848608  1
  O  O47  1  0.82119213  0.85533967  0.46552145  1
  O  O48  1  0.84942581  0.16274857  0.46080579  1
  O  O49  1  0.38573501  0.33922710  0.53869478  1
  O  O50  1  0.68565593  0.43394624  0.02581907  1
  O  O51  1  0.22824514  0.50437652  0.81220143  1
  O  O52  1  0.07787077  0.42964422  0.28258512  1
  O  O53  1  0.60359616  0.17573204  0.33572382  1
  O  O54  1  0.76672026  0.49678243  0.18744747  1
  O  O55  1  0.57766384  0.27436926  0.86754602  1
  O  O56  1  0.03535843  0.58941920  0.43256210  1
  O  O57  1  0.44856053  0.12465689  0.64063062  1
  O  O58  1  0.98400903  0.74485733  0.27283287  1
  O  O59  1  0.15316679  0.84102195  0.54019032  1
  O  O60  1  0.92396315  0.00374443  0.21570744  1
  O  O61  1  0.96159552  0.16879143  0.06573337  1
  O  O62  1  0.39703610  0.81861283  0.66518771  1
  O  O63  1  0.64478511  0.35390533  0.46645562  1
  O  O64  1  0.48850437  0.41430225  0.11228569  1
  O  O65  1  0.50790433  0.58618349  0.88634922  1
  O  O66  1  0.84405805  0.63913155  0.94917466  1
  O  O67  1  0.03999752  0.83076074  0.93446651  1
  O  O68  1  0.64122609  0.52472160  0.62193021  1
  O  O69  1  0.62060747  0.91532081  0.11288760  1
  O  O70  1  0.02192519  0.97263994  0.37813020  1
  O  O71  1  0.28559134  0.24406873  0.27438424  1
  O  O72  1  0.18875387  0.62666117  0.64222966  1
  O  O73  1  0.54703851  0.87325668  0.35791530  1
  O  O74  1  0.35124042  0.64479709  0.53236096  1
  O  O75  1  0.01249009  0.25494358  0.72603306  1
  O  O76  1  0.29172965  0.77525760  0.86585161  1
  O  O77  1  0.80628282  0.37460611  0.35692324  1
  O  O78  1  0.39266396  0.08805168  0.43280351  1
  O  O79  1  0.15690958  0.36095130  0.05117974  1
  O  O80  1  0.66273541  0.06626690  0.97302123  1
  O  O81  1  0.10228796  0.66673422  0.06728128  1
  O  O82  1  0.30966121  0.57084546  0.97302803  1
  O  O83  1  0.79596573  0.07037137  0.71840003  1
