# generated using pymatgen
data_Ti3Cr3(SbO8)2
_symmetry_space_group_name_H-M   'P 1'
_cell_length_a   5.95903045
_cell_length_b   5.99070494
_cell_length_c   9.33424258
_cell_angle_alpha   90.16431059
_cell_angle_beta   90.06676234
_cell_angle_gamma   119.85378766
_symmetry_Int_Tables_number   1
_chemical_formula_structural   Ti3Cr3(SbO8)2
_chemical_formula_sum   'Ti3 Cr3 Sb2 O16'
_cell_volume   288.99977191
_cell_formula_units_Z   1
loop_
 _symmetry_equiv_pos_site_id
 _symmetry_equiv_pos_as_xyz
  1  'x, y, z'
loop_
 _atom_site_type_symbol
 _atom_site_label
 _atom_site_symmetry_multiplicity
 _atom_site_fract_x
 _atom_site_fract_y
 _atom_site_fract_z
 _atom_site_occupancy
  Ti  Ti0  1  0.16678854  0.83192190  0.21161456  1
  Ti  Ti1  1  0.16507062  0.33497981  0.21243671  1
  Ti  Ti2  1  0.33393599  0.17518262  0.70004376  1
  Cr  Cr3  1  0.65669462  0.82882360  0.20949862  1
  Cr  Cr4  1  0.83003982  0.65935421  0.71035774  1
  Cr  Cr5  1  0.82139027  0.16069721  0.72068377  1
  Sb  Sb6  1  0.34158248  0.67409798  0.49022831  1
  Sb  Sb7  1  0.67133831  0.33733004  0.98903745  1
  O  O8  1  0.17706020  0.83743544  0.60316687  1
  O  O9  1  0.04530577  0.52449901  0.34141695  1
  O  O10  1  0.31686013  0.65785022  0.10379448  1
  O  O11  1  0.00501992  0.00358138  0.30467483  1
  O  O12  1  0.99761429  0.00569787  0.80173307  1
  O  O13  1  0.17387538  0.34408885  0.60301455  1
  O  O14  1  0.47304493  0.95620175  0.33927559  1
  O  O15  1  0.47397350  0.51947797  0.34027953  1
  O  O16  1  0.34781323  0.17356635  0.10623831  1
  O  O17  1  0.66787834  0.83557906  0.60100247  1
  O  O18  1  0.51527312  0.46722487  0.83881628  1
  O  O19  1  0.52569011  0.04287227  0.83918772  1
  O  O20  1  0.66469146  0.31931205  0.60642820  1
  O  O21  1  0.83653226  0.66291116  0.10144364  1
  O  O22  1  0.95671244  0.47239514  0.83865593  1
  O  O23  1  0.83581527  0.17512024  0.10269066  1
