# generated using pymatgen
data_Cs2SiP4(HO7)2
_symmetry_space_group_name_H-M   'P 1'
_cell_length_a   9.25801877
_cell_length_b   9.33311831
_cell_length_c   9.61524437
_cell_angle_alpha   94.97947673
_cell_angle_beta   111.40398848
_cell_angle_gamma   113.22638444
_symmetry_Int_Tables_number   1
_chemical_formula_structural   Cs2SiP4(HO7)2
_chemical_formula_sum   'Cs4 Si2 P8 H4 O28'
_cell_volume   684.49177050
_cell_formula_units_Z   2
loop_
 _symmetry_equiv_pos_site_id
 _symmetry_equiv_pos_as_xyz
  1  'x, y, z'
loop_
 _atom_site_type_symbol
 _atom_site_label
 _atom_site_symmetry_multiplicity
 _atom_site_fract_x
 _atom_site_fract_y
 _atom_site_fract_z
 _atom_site_occupancy
  Cs  Cs0  1  0.80463220  0.66863262  0.78464652  1
  Cs  Cs1  1  0.19536780  0.33136738  0.21535348  1
  Cs  Cs2  1  0.21097931  0.74097905  0.53486052  1
  Cs  Cs3  1  0.78902069  0.25902095  0.46513948  1
  Si  Si4  1  0.50000000  0.50000000  0.00000000  1
  Si  Si5  1  0.50000000  0.00000000  0.00000000  1
  P  P6  1  0.24131621  0.13813080  0.85416149  1
  P  P7  1  0.75868379  0.86186920  0.14583851  1
  P  P8  1  0.29238529  0.34453892  0.64391354  1
  P  P9  1  0.70761471  0.65546108  0.35608646  1
  P  P10  1  0.30923548  0.87677860  0.19908487  1
  P  P11  1  0.69076452  0.12322140  0.80091513  1
  P  P12  1  0.23770890  0.64159219  0.93343343  1
  P  P13  1  0.76229110  0.35840781  0.06656657  1
  H  H14  1  0.92163438  0.06252106  0.80836816  1
  H  H15  1  0.07836562  0.93747894  0.19163184  1
  H  H16  1  0.47655866  0.24533601  0.62500246  1
  H  H17  1  0.52344134  0.75466399  0.37499754  1
  O  O18  1  0.07287711  0.03224261  0.86045556  1
  O  O19  1  0.92712289  0.96775739  0.13954444  1
  O  O20  1  0.34450362  0.30175129  0.97926234  1
  O  O21  1  0.65549638  0.69824871  0.02073766  1
  O  O22  1  0.64319870  0.94440791  0.14295805  1
  O  O23  1  0.35680130  0.05559209  0.85704195  1
  O  O24  1  0.19303857  0.17999845  0.68754842  1
  O  O25  1  0.80696143  0.82000155  0.31245158  1
  O  O26  1  0.16330740  0.37587975  0.52124479  1
  O  O27  1  0.83669260  0.62412025  0.47875521  1
  O  O28  1  0.59632263  0.51804104  0.20248773  1
  O  O29  1  0.40367737  0.48195896  0.79751227  1
  O  O30  1  0.41567770  0.31545807  0.58075564  1
  O  O31  1  0.58432230  0.68454193  0.41924436  1
  O  O32  1  0.56692290  0.14656759  0.66377788  1
  O  O33  1  0.43307710  0.85343241  0.33622212  1
  O  O34  1  0.39611728  0.00624423  0.12501066  1
  O  O35  1  0.60388272  0.99375577  0.87498934  1
  O  O36  1  0.81153525  0.07952167  0.74906920  1
  O  O37  1  0.18846475  0.92047833  0.25093080  1
  O  O38  1  0.18280333  0.71051924  0.05965300  1
  O  O39  1  0.81719667  0.28948076  0.94034700  1
  O  O40  1  0.07378072  0.52657184  0.79635241  1
  O  O41  1  0.92621928  0.47342816  0.20364759  1
  O  O42  1  0.64208235  0.42641639  0.96871246  1
  O  O43  1  0.35791765  0.57358361  0.03128754  1
  O  O44  1  0.34969389  0.79499696  0.89774443  1
  O  O45  1  0.65030611  0.20500304  0.10225557  1
