# generated using pymatgen
data_TlP2H5O8
_symmetry_space_group_name_H-M   'P 1'
_cell_length_a   6.53771435
_cell_length_b   6.53771435
_cell_length_c   9.69581168
_cell_angle_alpha   81.62260243
_cell_angle_beta   98.37739757
_cell_angle_gamma   106.04341460
_symmetry_Int_Tables_number   1
_chemical_formula_structural   TlP2H5O8
_chemical_formula_sum   'Tl2 P4 H10 O16'
_cell_volume   391.59567961
_cell_formula_units_Z   2
loop_
 _symmetry_equiv_pos_site_id
 _symmetry_equiv_pos_as_xyz
  1  'x, y, z'
loop_
 _atom_site_type_symbol
 _atom_site_label
 _atom_site_symmetry_multiplicity
 _atom_site_fract_x
 _atom_site_fract_y
 _atom_site_fract_z
 _atom_site_occupancy
  Tl  Tl0  1  0.00000000  0.00000000  0.50000000  1
  Tl  Tl1  1  0.00000000  0.00000000  0.00000000  1
  P  P2  1  0.26111323  0.62637594  0.80569183  1
  P  P3  1  0.62637594  0.26111323  0.69430817  1
  P  P4  1  0.73888677  0.37362406  0.19430817  1
  P  P5  1  0.37362406  0.73888677  0.30569183  1
  H  H6  1  0.37820262  0.70601580  0.02111721  1
  H  H7  1  0.70601580  0.37820262  0.47888279  1
  H  H8  1  0.62179738  0.29398420  0.97888279  1
  H  H9  1  0.29398420  0.62179738  0.52111721  1
  H  H10  1  0.91283014  0.54656737  0.82492349  1
  H  H11  1  0.54656737  0.91283014  0.67507651  1
  H  H12  1  0.08716986  0.45343263  0.17507651  1
  H  H13  1  0.45343263  0.08716986  0.32492349  1
  H  H14  1  0.30401634  0.30401634  0.75000000  1
  H  H15  1  0.69598366  0.69598366  0.25000000  1
  O  O16  1  0.27153612  0.65272139  0.16648150  1
  O  O17  1  0.65272139  0.27153612  0.33351850  1
  O  O18  1  0.72846388  0.34727861  0.83351850  1
  O  O19  1  0.34727861  0.72846388  0.66648150  1
  O  O20  1  0.26158821  0.57123311  0.42403048  1
  O  O21  1  0.57123311  0.26158821  0.07596952  1
  O  O22  1  0.73841179  0.42876689  0.57596952  1
  O  O23  1  0.42876689  0.73841179  0.92403048  1
  O  O24  1  0.04367091  0.67967319  0.82150807  1
  O  O25  1  0.67967319  0.04367091  0.67849193  1
  O  O26  1  0.95632909  0.32032681  0.17849193  1
  O  O27  1  0.32032681  0.95632909  0.32150807  1
  O  O28  1  0.22032452  0.38082762  0.82460089  1
  O  O29  1  0.38082762  0.22032452  0.67539911  1
  O  O30  1  0.77967548  0.61917238  0.17539911  1
  O  O31  1  0.61917238  0.77967548  0.32460089  1
