# generated using pymatgen
data_U2CuP2(H4O5)4
_symmetry_space_group_name_H-M   'P 1'
_cell_length_a   7.02630669
_cell_length_b   7.02630669
_cell_length_c   17.68682028
_cell_angle_alpha   90.00000000
_cell_angle_beta   90.00000000
_cell_angle_gamma   90.00000000
_symmetry_Int_Tables_number   1
_chemical_formula_structural   U2CuP2(H4O5)4
_chemical_formula_sum   'U4 Cu2 P4 H32 O40'
_cell_volume   873.18037752
_cell_formula_units_Z   2
loop_
 _symmetry_equiv_pos_site_id
 _symmetry_equiv_pos_as_xyz
  1  'x, y, z'
loop_
 _atom_site_type_symbol
 _atom_site_label
 _atom_site_symmetry_multiplicity
 _atom_site_fract_x
 _atom_site_fract_y
 _atom_site_fract_z
 _atom_site_occupancy
  U  U0  1  0.75000000  0.75000000  0.94838804  1
  U  U1  1  0.25000000  0.25000000  0.05161196  1
  U  U2  1  0.75000000  0.75000000  0.45053910  1
  U  U3  1  0.25000000  0.25000000  0.54946090  1
  Cu  Cu4  1  0.75000000  0.75000000  0.68760688  1
  Cu  Cu5  1  0.25000000  0.25000000  0.31239312  1
  P  P6  1  0.25000000  0.75000000  0.00000000  1
  P  P7  1  0.75000000  0.25000000  0.00000000  1
  P  P8  1  0.25000000  0.75000000  0.50000000  1
  P  P9  1  0.75000000  0.25000000  0.50000000  1
  H  H10  1  0.41912208  0.86792786  0.14201981  1
  H  H11  1  0.08087792  0.63207214  0.14201981  1
  H  H12  1  0.86792786  0.08087792  0.14201981  1
  H  H13  1  0.63207214  0.41912208  0.14201981  1
  H  H14  1  0.58087792  0.13207214  0.85798019  1
  H  H15  1  0.91912208  0.36792786  0.85798019  1
  H  H16  1  0.13207214  0.91912208  0.85798019  1
  H  H17  1  0.36792786  0.58087792  0.85798019  1
  H  H18  1  0.63883778  0.08048634  0.64551698  1
  H  H19  1  0.86116222  0.41951366  0.64551698  1
  H  H20  1  0.08048634  0.86116222  0.64551698  1
  H  H21  1  0.41951366  0.63883778  0.64551698  1
  H  H22  1  0.36116222  0.91951366  0.35448302  1
  H  H23  1  0.13883778  0.58048634  0.35448302  1
  H  H24  1  0.91951366  0.13883778  0.35448302  1
  H  H25  1  0.58048634  0.36116222  0.35448302  1
  H  H26  1  0.62652899  0.07628133  0.73637898  1
  H  H27  1  0.87347101  0.42371867  0.73637898  1
  H  H28  1  0.07628133  0.87347101  0.73637898  1
  H  H29  1  0.42371867  0.62652899  0.73637898  1
  H  H30  1  0.37347101  0.92371867  0.26362102  1
  H  H31  1  0.12652899  0.57628133  0.26362102  1
  H  H32  1  0.92371867  0.12652899  0.26362102  1
  H  H33  1  0.57628133  0.37347101  0.26362102  1
  H  H34  1  0.53172082  0.71310588  0.18978844  1
  H  H35  1  0.96827918  0.78689412  0.18978844  1
  H  H36  1  0.71310588  0.96827918  0.18978844  1
  H  H37  1  0.78689412  0.53172082  0.18978844  1
  H  H38  1  0.46827918  0.28689412  0.81021156  1
  H  H39  1  0.03172082  0.21310588  0.81021156  1
  H  H40  1  0.28689412  0.03172082  0.81021156  1
  H  H41  1  0.21310588  0.46827918  0.81021156  1
  O  O42  1  0.75000000  0.75000000  0.55413570  1
  O  O43  1  0.25000000  0.25000000  0.44586430  1
  O  O44  1  0.75000000  0.75000000  0.05022670  1
  O  O45  1  0.25000000  0.25000000  0.94977330  1
  O  O46  1  0.75000000  0.75000000  0.34821955  1
  O  O47  1  0.25000000  0.25000000  0.65178045  1
  O  O48  1  0.75000000  0.75000000  0.84527048  1
  O  O49  1  0.25000000  0.25000000  0.15472952  1
  O  O50  1  0.07682373  0.78687730  0.94738102  1
  O  O51  1  0.42317627  0.71312270  0.94738102  1
  O  O52  1  0.78687730  0.42317627  0.94738102  1
  O  O53  1  0.71312270  0.07682373  0.94738102  1
  O  O54  1  0.92317627  0.21312270  0.05261898  1
  O  O55  1  0.57682373  0.28687730  0.05261898  1
  O  O56  1  0.21312270  0.57682373  0.05261898  1
  O  O57  1  0.28687730  0.92317627  0.05261898  1
  O  O58  1  0.07646722  0.70610042  0.44822745  1
  O  O59  1  0.42353278  0.79389958  0.44822745  1
  O  O60  1  0.70610042  0.42353278  0.44822745  1
  O  O61  1  0.79389958  0.07646722  0.44822745  1
  O  O62  1  0.92353278  0.29389958  0.55177255  1
  O  O63  1  0.57646722  0.20610042  0.55177255  1
  O  O64  1  0.29389958  0.57646722  0.55177255  1
  O  O65  1  0.20610042  0.92353278  0.55177255  1
  O  O66  1  0.70107927  0.02891821  0.69117594  1
  O  O67  1  0.79892073  0.47108179  0.69117594  1
  O  O68  1  0.02891821  0.79892073  0.69117594  1
  O  O69  1  0.47108179  0.70107927  0.69117594  1
  O  O70  1  0.29892073  0.97108179  0.30882406  1
  O  O71  1  0.20107927  0.52891821  0.30882406  1
  O  O72  1  0.97108179  0.20107927  0.30882406  1
  O  O73  1  0.52891821  0.29892073  0.30882406  1
  O  O74  1  0.49033992  0.84915892  0.18956752  1
  O  O75  1  0.00966008  0.65084108  0.18956752  1
  O  O76  1  0.84915892  0.00966008  0.18956752  1
  O  O77  1  0.65084108  0.49033992  0.18956752  1
  O  O78  1  0.50966008  0.15084108  0.81043248  1
  O  O79  1  0.99033992  0.34915892  0.81043248  1
  O  O80  1  0.15084108  0.99033992  0.81043248  1
  O  O81  1  0.34915892  0.50966008  0.81043248  1
