# generated using pymatgen
data_U2IrC2
_symmetry_space_group_name_H-M   'P 1'
_cell_length_a   3.47728436
_cell_length_b   3.47728436
_cell_length_c   6.71165387
_cell_angle_alpha   105.01359607
_cell_angle_beta   105.01359606
_cell_angle_gamma   89.99999996
_symmetry_Int_Tables_number   1
_chemical_formula_structural   U2IrC2
_chemical_formula_sum   'U2 Ir1 C2'
_cell_volume   75.51196119
_cell_formula_units_Z   1
loop_
 _symmetry_equiv_pos_site_id
 _symmetry_equiv_pos_as_xyz
  1  'x, y, z'
loop_
 _atom_site_type_symbol
 _atom_site_label
 _atom_site_symmetry_multiplicity
 _atom_site_fract_x
 _atom_site_fract_y
 _atom_site_fract_z
 _atom_site_occupancy
  C  C0  1  0.82956243  0.82956243  0.65912487  1
  C  C1  1  0.17043757  0.17043757  0.34087513  1
  Ir  Ir2  1  0.00000000  0.00000000  0.00000000  1
  U  U3  1  0.35399816  0.35399816  0.70799631  1
  U  U4  1  0.64600184  0.64600184  0.29200369  1
