# generated using pymatgen
data_YbSb2
_symmetry_space_group_name_H-M   'P 1'
_cell_length_a   4.34301993
_cell_length_b   4.59649195
_cell_length_c   8.74575301
_cell_angle_alpha   105.23533293
_cell_angle_beta   90.00000000
_cell_angle_gamma   90.00000000
_symmetry_Int_Tables_number   1
_chemical_formula_structural   YbSb2
_chemical_formula_sum   'Yb2 Sb4'
_cell_volume   168.45248317
_cell_formula_units_Z   2
loop_
 _symmetry_equiv_pos_site_id
 _symmetry_equiv_pos_as_xyz
  1  'x, y, z'
loop_
 _atom_site_type_symbol
 _atom_site_label
 _atom_site_symmetry_multiplicity
 _atom_site_fract_x
 _atom_site_fract_y
 _atom_site_fract_z
 _atom_site_occupancy
  Yb  Yb0  1  0.75000000  0.10222413  0.20444826  1
  Yb  Yb1  1  0.25000000  0.89777587  0.79555174  1
  Sb  Sb2  1  0.75000000  0.43827971  0.87655942  1
  Sb  Sb3  1  0.25000000  0.56172029  0.12344058  1
  Sb  Sb4  1  0.75000000  0.74329118  0.48658235  1
  Sb  Sb5  1  0.25000000  0.25670882  0.51341765  1
