# generated using pymatgen
data_Ba3Ga4O9
_symmetry_space_group_name_H-M   'P 1'
_cell_length_a   7.13116325
_cell_length_b   8.35370690
_cell_length_c   10.09572481
_cell_angle_alpha   85.06627376
_cell_angle_beta   73.15274769
_cell_angle_gamma   74.61485832
_symmetry_Int_Tables_number   1
_chemical_formula_structural   Ba3Ga4O9
_chemical_formula_sum   'Ba6 Ga8 O18'
_cell_volume   554.95218691
_cell_formula_units_Z   2
loop_
 _symmetry_equiv_pos_site_id
 _symmetry_equiv_pos_as_xyz
  1  'x, y, z'
loop_
 _atom_site_type_symbol
 _atom_site_label
 _atom_site_symmetry_multiplicity
 _atom_site_fract_x
 _atom_site_fract_y
 _atom_site_fract_z
 _atom_site_occupancy
  Ba  Ba0  1  0.05488447  0.05551340  0.69073392  1
  Ba  Ba1  1  0.18155477  0.56651784  0.66835664  1
  Ba  Ba2  1  0.30612824  0.21814801  0.96464578  1
  Ba  Ba3  1  0.69387176  0.78185199  0.03535422  1
  Ba  Ba4  1  0.81844523  0.43348216  0.33164336  1
  Ba  Ba5  1  0.94511553  0.94448660  0.30926608  1
  Ga  Ga6  1  0.40222709  0.17416333  0.30316168  1
  Ga  Ga7  1  0.34084349  0.55035246  0.23067408  1
  Ga  Ga8  1  0.73935648  0.25859807  0.06002800  1
  Ga  Ga9  1  0.55962861  0.19009415  0.58520565  1
  Ga  Ga10  1  0.44037139  0.80990585  0.41479435  1
  Ga  Ga11  1  0.26064352  0.74140193  0.93997200  1
  Ga  Ga12  1  0.65915651  0.44964754  0.76932592  1
  Ga  Ga13  1  0.59777291  0.82583667  0.69683832  1
  O  O14  1  0.26104573  0.01797772  0.39113442  1
  O  O15  1  0.22108990  0.37153724  0.26758780  1
  O  O16  1  0.22089780  0.72732715  0.13113693  1
  O  O17  1  0.56737281  0.11000945  0.12166702  1
  O  O18  1  0.03441005  0.80803358  0.87806223  1
  O  O19  1  0.30051763  0.23994413  0.69827772  1
  O  O20  1  0.30433893  0.64860191  0.39986149  1
  O  O21  1  0.58546451  0.20197399  0.39403626  1
  O  O22  1  0.61528586  0.47623620  0.13373051  1
  O  O23  1  0.38471414  0.52376480  0.86626949  1
  O  O24  1  0.41453549  0.79802601  0.60596374  1
  O  O25  1  0.69566107  0.35139809  0.60013851  1
  O  O26  1  0.69948237  0.76005587  0.30172228  1
  O  O27  1  0.96558995  0.19196642  0.12193777  1
  O  O28  1  0.43262719  0.88999055  0.87833298  1
  O  O29  1  0.77910220  0.27267285  0.86886307  1
  O  O30  1  0.77891010  0.62846276  0.73241220  1
  O  O31  1  0.73895427  0.98202228  0.60886558  1
