# generated using pymatgen
data_Mg(CoO2)2
_symmetry_space_group_name_H-M   'P 1'
_cell_length_a   5.77259561
_cell_length_b   5.77292810
_cell_length_c   5.77262031
_cell_angle_alpha   60.00186762
_cell_angle_beta   59.99990818
_cell_angle_gamma   60.00167071
_symmetry_Int_Tables_number   1
_chemical_formula_structural   Mg(CoO2)2
_chemical_formula_sum   'Mg2 Co4 O8'
_cell_volume   136.03059253
_cell_formula_units_Z   2
loop_
 _symmetry_equiv_pos_site_id
 _symmetry_equiv_pos_as_xyz
  1  'x, y, z'
loop_
 _atom_site_type_symbol
 _atom_site_label
 _atom_site_symmetry_multiplicity
 _atom_site_fract_x
 _atom_site_fract_y
 _atom_site_fract_z
 _atom_site_occupancy
  Mg  Mg0  1  0.87500333  0.87499719  0.87499872  1
  Mg  Mg1  1  0.12499887  0.12500345  0.12499946  1
  Co  Co2  1  0.49999972  0.50000076  0.49999966  1
  Co  Co3  1  0.49999960  0.50000059  -0.00000002  1
  Co  Co4  1  -0.00000039  0.50000092  0.49999969  1
  Co  Co5  1  0.50000031  -0.00000043  0.49999989  1
  O  O6  1  0.26426285  0.26427397  0.26426572  1
  O  O7  1  0.73573539  0.73572534  0.29280390  1
  O  O8  1  0.29280257  0.73572649  0.73573443  1
  O  O9  1  0.73573490  0.29279770  0.73573263  1
  O  O10  1  0.70719604  0.26427403  0.26426598  1
  O  O11  1  0.26426598  0.70719882  0.26426846  1
  O  O12  1  0.26426411  0.26427454  0.70719686  1
  O  O13  1  0.73573674  0.73572664  0.73573462  1
