# generated using pymatgen
data_Ti3Mn3Cr2O16
_symmetry_space_group_name_H-M   'P 1'
_cell_length_a   5.86192493
_cell_length_b   5.87232020
_cell_length_c   8.90693507
_cell_angle_alpha   89.99991196
_cell_angle_beta   89.84132450
_cell_angle_gamma   120.05865403
_symmetry_Int_Tables_number   1
_chemical_formula_structural   Ti3Mn3Cr2O16
_chemical_formula_sum   'Ti3 Mn3 Cr2 O16'
_cell_volume   265.36869357
_cell_formula_units_Z   1
loop_
 _symmetry_equiv_pos_site_id
 _symmetry_equiv_pos_as_xyz
  1  'x, y, z'
loop_
 _atom_site_type_symbol
 _atom_site_label
 _atom_site_symmetry_multiplicity
 _atom_site_fract_x
 _atom_site_fract_y
 _atom_site_fract_z
 _atom_site_occupancy
  Ti  Ti0  1  0.16091935  0.83126073  0.20983119  1
  Ti  Ti1  1  0.16089654  0.32968061  0.20981386  1
  Ti  Ti2  1  0.31876512  0.15937337  0.70747535  1
  Mn  Mn3  1  0.65688540  0.82844795  0.20979913  1
  Mn  Mn4  1  0.82938764  0.65957160  0.71023576  1
  Mn  Mn5  1  0.82939026  0.16983711  0.71023738  1
  Cr  Cr6  1  0.34349913  0.67174204  0.48764442  1
  Cr  Cr7  1  0.66775997  0.33390421  0.98518890  1
  O  O8  1  0.17205880  0.83261633  0.60221220  1
  O  O9  1  0.05247418  0.52624350  0.34392944  1
  O  O10  1  0.33558164  0.66780394  0.09798063  1
  O  O11  1  0.99138349  0.99570410  0.31520121  1
  O  O12  1  0.99125302  0.99563663  0.81572583  1
  O  O13  1  0.17205954  0.33944506  0.60221518  1
  O  O14  1  0.48435775  0.95518446  0.33982159  1
  O  O15  1  0.48435973  0.52917991  0.33981743  1
  O  O16  1  0.34198631  0.17100766  0.10490026  1
  O  O17  1  0.65703643  0.82852330  0.60395986  1
  O  O18  1  0.53050764  0.48041819  0.84097720  1
  O  O19  1  0.53050248  0.05010601  0.84098055  1
  O  O20  1  0.67338553  0.33670171  0.60045625  1
  O  O21  1  0.82788186  0.65589708  0.10124308  1
  O  O22  1  0.95979120  0.47990702  0.83483295  1
  O  O23  1  0.82787599  0.17200546  0.10123937  1
