# generated using pymatgen
data_Li2VFeP2(HO5)2
_symmetry_space_group_name_H-M   'P 1'
_cell_length_a   5.43610806
_cell_length_b   7.40542502
_cell_length_c   14.33845774
_cell_angle_alpha   86.35830455
_cell_angle_beta   85.09174354
_cell_angle_gamma   106.27117730
_symmetry_Int_Tables_number   1
_chemical_formula_structural   Li2VFeP2(HO5)2
_chemical_formula_sum   'Li6 V3 Fe3 P6 H6 O30'
_cell_volume   549.75261547
_cell_formula_units_Z   3
loop_
 _symmetry_equiv_pos_site_id
 _symmetry_equiv_pos_as_xyz
  1  'x, y, z'
loop_
 _atom_site_type_symbol
 _atom_site_label
 _atom_site_symmetry_multiplicity
 _atom_site_fract_x
 _atom_site_fract_y
 _atom_site_fract_z
 _atom_site_occupancy
  Li  Li0  1  0.14886633  0.57442992  0.24873236  1
  Li  Li1  1  0.18439074  0.75929069  0.41793913  1
  Li  Li2  1  0.48227526  0.90737631  0.91539387  1
  Li  Li3  1  0.51780067  0.09223708  0.08460064  1
  Li  Li4  1  0.81506656  0.24178866  0.58290269  1
  Li  Li5  1  0.85159944  0.42487834  0.75043131  1
  V  V6  1  0.99950301  0.99981016  0.99967796  1
  V  V7  1  0.33333300  0.83333300  0.66666700  1
  V  V8  1  0.66716299  0.66685684  0.33365504  1
  Fe  Fe9  1  0.00019477  0.49995698  0.00002580  1
  Fe  Fe10  1  0.33333300  0.33333300  0.66666700  1
  Fe  Fe11  1  0.66647223  0.16671002  0.33330720  1
  P  P12  1  0.19826479  0.32622854  0.44170374  1
  P  P13  1  0.13535943  0.00730840  0.22547079  1
  P  P14  1  0.53130757  0.65935860  0.10786221  1
  P  P15  1  0.46840121  0.34043846  0.89162926  1
  P  P16  1  0.86355823  0.99353245  0.77394956  1
  P  P17  1  0.80310777  0.67313455  0.55938344  1
  H  H18  1  0.06131028  0.78204103  0.87967772  1
  H  H19  1  0.27125868  0.55338670  0.78657655  1
  H  H20  1  0.60535672  0.88462597  0.45365628  1
  H  H21  1  0.39540832  0.11327930  0.54675645  1
  H  H22  1  0.72843287  0.44900017  0.21301198  1
  H  H23  1  0.93823313  0.21766683  0.12032102  1
  O  O24  1  0.12959521  0.94847665  0.12362749  1
  O  O25  1  0.04312559  0.82496514  0.29563889  1
  O  O26  1  0.03685035  0.86353289  0.75756620  1
  O  O27  1  0.09106099  0.77762265  0.56508205  1
  O  O28  1  0.10175273  0.77784480  0.94603249  1
  O  O29  1  0.24265793  0.55816632  0.10147637  1
  O  O30  1  0.29031319  0.50831892  0.37109226  1
  O  O31  1  0.20719975  0.38529458  0.54371290  1
  O  O32  1  0.23152346  0.55548329  0.72019786  1
  O  O33  1  0.62354041  0.84170086  0.03769411  1
  O  O34  1  0.53707079  0.71819035  0.20970651  1
  O  O35  1  0.56491427  0.88882220  0.38730051  1
  O  O36  1  0.29524887  0.47175092  0.90835873  1
  O  O37  1  0.37141813  0.19491608  0.42497527  1
  O  O38  1  0.57560601  0.88904435  0.76825195  1
  O  O39  1  0.42400907  0.10849968  0.23185763  1
  O  O40  1  0.62981665  0.80313311  0.57576680  1
  O  O41  1  0.70442724  0.52794906  0.09134867  1
  O  O42  1  0.43514354  0.11118271  0.61313514  1
  O  O43  1  0.45946625  0.28137142  0.78962110  1
  O  O44  1  0.37635381  0.15834808  0.96224074  1
  O  O45  1  0.76829636  0.44477945  0.27949359  1
  O  O46  1  0.79889286  0.61676944  0.45693317  1
  O  O47  1  0.71316262  0.49014153  0.62889783  1
  O  O48  1  0.75692347  0.44146199  0.89802354  1
  O  O49  1  0.89837064  0.22188755  0.05383941  1
  O  O50  1  0.90974253  0.22520501  0.43531046  1
  O  O51  1  0.96223876  0.13871794  0.24198533  1
  O  O52  1  0.95350438  0.17652547  0.70443617  1
  O  O53  1  0.86777314  0.04989756  0.87639983  1
