# generated using pymatgen
data_Cs4HfO4
_symmetry_space_group_name_H-M   'P 1'
_cell_length_a   11.97602197
_cell_length_b   7.46516521
_cell_length_c   11.89942597
_cell_angle_alpha   90.00000000
_cell_angle_beta   111.81066157
_cell_angle_gamma   90.00000000
_symmetry_Int_Tables_number   1
_chemical_formula_structural   Cs4HfO4
_chemical_formula_sum   'Cs16 Hf4 O16'
_cell_volume   987.69070297
_cell_formula_units_Z   4
loop_
 _symmetry_equiv_pos_site_id
 _symmetry_equiv_pos_as_xyz
  1  'x, y, z'
loop_
 _atom_site_type_symbol
 _atom_site_label
 _atom_site_symmetry_multiplicity
 _atom_site_fract_x
 _atom_site_fract_y
 _atom_site_fract_z
 _atom_site_occupancy
  Cs  Cs0  1  0.06247552  0.41144467  0.70142385  1
  Cs  Cs1  1  0.15519975  0.88428692  0.58406368  1
  Cs  Cs2  1  0.06247552  0.08855533  0.20142385  1
  Cs  Cs3  1  0.36905401  0.66021668  0.89215390  1
  Cs  Cs4  1  0.15519975  0.61571308  0.08406368  1
  Cs  Cs5  1  0.42595874  0.17265193  0.79219697  1
  Cs  Cs6  1  0.36905401  0.83978332  0.39215390  1
  Cs  Cs7  1  0.57404126  0.67265193  0.70780303  1
  Cs  Cs8  1  0.42595874  0.32734807  0.29219697  1
  Cs  Cs9  1  0.63094599  0.16021668  0.60784610  1
  Cs  Cs10  1  0.57404126  0.82734807  0.20780303  1
  Cs  Cs11  1  0.84480025  0.38428692  0.91593632  1
  Cs  Cs12  1  0.63094599  0.33978332  0.10784610  1
  Cs  Cs13  1  0.93752448  0.91144467  0.79857615  1
  Cs  Cs14  1  0.84480025  0.11571308  0.41593632  1
  Cs  Cs15  1  0.93752448  0.58855533  0.29857615  1
  Hf  Hf16  1  0.24271377  0.12508910  0.99139127  1
  Hf  Hf17  1  0.24271377  0.37491090  0.49139127  1
  Hf  Hf18  1  0.75728623  0.62508910  0.50860873  1
  Hf  Hf19  1  0.75728623  0.87491090  0.00860873  1
  O  O20  1  0.08733788  0.23193601  0.97730433  1
  O  O21  1  0.21775149  0.98892973  0.84150966  1
  O  O22  1  0.08733788  0.26806399  0.47730433  1
  O  O23  1  0.30410835  0.52877381  0.63739674  1
  O  O24  1  0.21775149  0.51107027  0.34150966  1
  O  O25  1  0.36027034  0.18135443  0.50987497  1
  O  O26  1  0.30410835  0.97122619  0.13739674  1
  O  O27  1  0.63972966  0.68135443  0.99012503  1
  O  O28  1  0.36027034  0.31864557  0.00987497  1
  O  O29  1  0.69589165  0.02877381  0.86260326  1
  O  O30  1  0.63972966  0.81864557  0.49012503  1
  O  O31  1  0.78224851  0.48892973  0.65849034  1
  O  O32  1  0.69589165  0.47122619  0.36260326  1
  O  O33  1  0.91266212  0.73193601  0.52269567  1
  O  O34  1  0.78224851  0.01107027  0.15849034  1
  O  O35  1  0.91266212  0.76806399  0.02269567  1
