# generated using pymatgen
data_La(NiP)2
_symmetry_space_group_name_H-M   'P 1'
_cell_length_a   4.00127507
_cell_length_b   4.00127507
_cell_length_c   5.58569151
_cell_angle_alpha   110.98796614
_cell_angle_beta   110.98796615
_cell_angle_gamma   90.00000001
_symmetry_Int_Tables_number   1
_chemical_formula_structural   La(NiP)2
_chemical_formula_sum   'La1 Ni2 P2'
_cell_volume   77.10678365
_cell_formula_units_Z   1
loop_
 _symmetry_equiv_pos_site_id
 _symmetry_equiv_pos_as_xyz
  1  'x, y, z'
loop_
 _atom_site_type_symbol
 _atom_site_label
 _atom_site_symmetry_multiplicity
 _atom_site_fract_x
 _atom_site_fract_y
 _atom_site_fract_z
 _atom_site_occupancy
  P  P0  1  0.63010924  0.63010924  0.26021847  1
  P  P1  1  0.36989076  0.36989076  0.73978153  1
  Ni  Ni2  1  0.75000000  0.25000000  0.50000000  1
  Ni  Ni3  1  0.25000000  0.75000000  0.50000000  1
  La  La4  1  0.00000000  0.00000000  0.00000000  1
