# generated using pymatgen
data_Li4Nb5Cr3O16
_symmetry_space_group_name_H-M   'P 1'
_cell_length_a   6.15438877
_cell_length_b   6.06868149
_cell_length_c   10.08991030
_cell_angle_alpha   89.99326759
_cell_angle_beta   89.50303160
_cell_angle_gamma   119.55570937
_symmetry_Int_Tables_number   1
_chemical_formula_structural   Li4Nb5Cr3O16
_chemical_formula_sum   'Li4 Nb5 Cr3 O16'
_cell_volume   327.79497374
_cell_formula_units_Z   1
loop_
 _symmetry_equiv_pos_site_id
 _symmetry_equiv_pos_as_xyz
  1  'x, y, z'
loop_
 _atom_site_type_symbol
 _atom_site_label
 _atom_site_symmetry_multiplicity
 _atom_site_fract_x
 _atom_site_fract_y
 _atom_site_fract_z
 _atom_site_occupancy
  Li  Li0  1  0.34423807  0.67223472  0.90975797  1
  Li  Li1  1  0.01212783  0.00594217  0.98866637  1
  Li  Li2  1  0.99563700  0.99791473  0.49065070  1
  Li  Li3  1  0.67122029  0.33582412  0.39462845  1
  Nb  Nb4  1  0.30936292  0.65481360  0.49210340  1
  Nb  Nb5  1  0.65800744  0.82887993  0.22434348  1
  Nb  Nb6  1  0.66497060  0.33245192  0.99943669  1
  Nb  Nb7  1  0.81520145  0.63009174  0.71565432  1
  Nb  Nb8  1  0.81511052  0.18523707  0.71567976  1
  Cr  Cr9  1  0.16925377  0.83093902  0.21036558  1
  Cr  Cr10  1  0.16850477  0.33779540  0.21034386  1
  Cr  Cr11  1  0.32690835  0.16356702  0.70945131  1
  O  O12  1  0.14991332  0.81651096  0.59025168  1
  O  O13  1  0.05474913  0.52801786  0.35824122  1
  O  O14  1  0.35019294  0.67486469  0.10866185  1
  O  O15  1  0.99838936  0.99883419  0.30581723  1
  O  O16  1  0.99878867  0.99949508  0.80432670  1
  O  O17  1  0.14964665  0.33360956  0.59005848  1
  O  O18  1  0.49716152  0.96881753  0.34092087  1
  O  O19  1  0.49637440  0.52820076  0.34116060  1
  O  O20  1  0.34656790  0.17248697  0.08181985  1
  O  O21  1  0.65928476  0.82982886  0.59170528  1
  O  O22  1  0.54162584  0.49556069  0.84767135  1
  O  O23  1  0.54181055  0.04599810  0.84771289  1
  O  O24  1  0.63657023  0.31839059  0.58806374  1
  O  O25  1  0.82308594  0.66540283  0.09810872  1
  O  O26  1  0.98198277  0.49106766  0.85409900  1
  O  O27  1  0.82331302  0.15752321  0.09813765  1
