# generated using pymatgen
data_Eu2Y2O5
_symmetry_space_group_name_H-M   'P 1'
_cell_length_a   12.05384203
_cell_length_b   15.44035470
_cell_length_c   3.53660138
_cell_angle_alpha   89.99513476
_cell_angle_beta   89.99883017
_cell_angle_gamma   67.00232800
_symmetry_Int_Tables_number   1
_chemical_formula_structural   Eu2Y2O5
_chemical_formula_sum   'Eu8 Y8 O20'
_cell_volume   605.90209153
_cell_formula_units_Z   4
loop_
 _symmetry_equiv_pos_site_id
 _symmetry_equiv_pos_as_xyz
  1  'x, y, z'
loop_
 _atom_site_type_symbol
 _atom_site_label
 _atom_site_symmetry_multiplicity
 _atom_site_fract_x
 _atom_site_fract_y
 _atom_site_fract_z
 _atom_site_occupancy
  Eu  Eu0  1  0.15060291  0.94146092  0.57063515  1
  Eu  Eu1  1  0.65110826  0.94194146  0.62503385  1
  Eu  Eu2  1  0.09278997  0.55833738  0.07993608  1
  Eu  Eu3  1  0.59273954  0.55805520  0.11547016  1
  Eu  Eu4  1  0.40734840  0.44185702  0.11536059  1
  Eu  Eu5  1  0.90722403  0.44173790  0.07996569  1
  Eu  Eu6  1  0.34877646  0.05813848  0.62494463  1
  Eu  Eu7  1  0.84945878  0.05840961  0.57045033  1
  Y  Y8  1  0.47896349  0.82475330  0.12112949  1
  Y  Y9  1  0.30340816  0.67614432  0.61721870  1
  Y  Y10  1  0.97904920  0.82438375  0.08237171  1
  Y  Y11  1  0.80317485  0.67627795  0.58605063  1
  Y  Y12  1  0.19690972  0.32376208  0.58611371  1
  Y  Y13  1  0.02113011  0.17555438  0.08237573  1
  Y  Y14  1  0.69649422  0.32384721  0.61730691  1
  Y  Y15  1  0.52089013  0.17532162  0.12116553  1
  O  O16  1  0.36001749  0.89545396  0.62189480  1
  O  O17  1  0.12192068  0.79333631  0.58680444  1
  O  O18  1  0.62150575  0.79398641  0.61610002  1
  O  O19  1  -0.00008789  0.49997719  0.57628701  1
  O  O20  1  0.86087650  0.89606885  0.58205117  1
  O  O21  1  0.41598244  0.70669695  0.12407825  1
  O  O22  1  0.25679694  0.60480008  0.11820801  1
  O  O23  1  0.24435452  0.39485236  0.08528663  1
  O  O24  1  0.08484005  0.29297826  0.08187442  1
  O  O25  1  0.50000315  0.50000577  0.61916181  1
  O  O26  1  0.91504625  0.70705673  0.08184572  1
  O  O27  1  0.75564492  0.60522922  0.08535456  1
  O  O28  1  0.74317876  0.39517296  0.11815182  1
  O  O29  1  0.58410871  0.29328018  0.12412806  1
  O  O30  1  0.13914651  0.10391901  0.58196804  1
  O  O31  1  0.37855077  0.20596760  0.61613004  1
  O  O32  1  0.00004050  -0.00002774  0.06777368  1
  O  O33  1  0.87802114  0.20670892  0.58677718  1
  O  O34  1  0.63989078  0.10458638  0.62194734  1
  O  O35  1  0.50009379  -0.00003198  0.12792613  1
