# generated using pymatgen
data_NaErSe2
_symmetry_space_group_name_H-M   'P 1'
_cell_length_a   7.39661463
_cell_length_b   7.39661462
_cell_length_c   7.39661463
_cell_angle_alpha   32.28801776
_cell_angle_beta   32.28801782
_cell_angle_gamma   32.28801777
_symmetry_Int_Tables_number   1
_chemical_formula_structural   NaErSe2
_chemical_formula_sum   'Na1 Er1 Se2'
_cell_volume   102.64059619
_cell_formula_units_Z   1
loop_
 _symmetry_equiv_pos_site_id
 _symmetry_equiv_pos_as_xyz
  1  'x, y, z'
loop_
 _atom_site_type_symbol
 _atom_site_label
 _atom_site_symmetry_multiplicity
 _atom_site_fract_x
 _atom_site_fract_y
 _atom_site_fract_z
 _atom_site_occupancy
  Na  Na0  1  0.50000000  0.50000000  0.50000000  1
  Se  Se1  1  0.25751965  0.25751965  0.25751965  1
  Se  Se2  1  0.74248035  0.74248035  0.74248035  1
  Er  Er3  1  0.00000000  0.00000000  0.00000000  1
