# generated using pymatgen
data_CsNpCuS3
_symmetry_space_group_name_H-M   'P 1'
_cell_length_a   4.02188356
_cell_length_b   7.99727398
_cell_length_c   10.19887228
_cell_angle_alpha   90.00000000
_cell_angle_beta   90.00000000
_cell_angle_gamma   75.43646607
_symmetry_Int_Tables_number   1
_chemical_formula_structural   CsNpCuS3
_chemical_formula_sum   'Cs2 Np2 Cu2 S6'
_cell_volume   317.49755320
_cell_formula_units_Z   2
loop_
 _symmetry_equiv_pos_site_id
 _symmetry_equiv_pos_as_xyz
  1  'x, y, z'
loop_
 _atom_site_type_symbol
 _atom_site_label
 _atom_site_symmetry_multiplicity
 _atom_site_fract_x
 _atom_site_fract_y
 _atom_site_fract_z
 _atom_site_occupancy
  Cs  Cs0  1  0.74041143  0.51917515  0.25000000  1
  Cs  Cs1  1  0.25958857  0.48082485  0.75000000  1
  Np  Np2  1  0.00000000  0.00000000  0.00000000  1
  Np  Np3  1  0.00000000  0.00000000  0.50000000  1
  Cu  Cu4  1  0.46542184  0.06915833  0.25000000  1
  Cu  Cu5  1  0.53457916  0.93084067  0.75000000  1
  S  S6  1  0.38798509  0.22403082  0.05757708  1
  S  S7  1  0.05124641  0.89750918  0.25000000  1
  S  S8  1  0.38798509  0.22403082  0.44242192  1
  S  S9  1  0.61201491  0.77596918  0.55757808  1
  S  S10  1  0.94875459  0.10249082  0.75000000  1
  S  S11  1  0.61201491  0.77596918  0.94242192  1
