# generated using pymatgen
data_Ho2Mg
_symmetry_space_group_name_H-M   'P 1'
_cell_length_a   3.63167409
_cell_length_b   8.82484046
_cell_length_c   5.44951427
_cell_angle_alpha   90.00000000
_cell_angle_beta   90.00000000
_cell_angle_gamma   78.12575305
_symmetry_Int_Tables_number   1
_chemical_formula_structural   Ho2Mg
_chemical_formula_sum   'Ho4 Mg2'
_cell_volume   170.91391907
_cell_formula_units_Z   2
loop_
 _symmetry_equiv_pos_site_id
 _symmetry_equiv_pos_as_xyz
  1  'x, y, z'
loop_
 _atom_site_type_symbol
 _atom_site_label
 _atom_site_symmetry_multiplicity
 _atom_site_fract_x
 _atom_site_fract_y
 _atom_site_fract_z
 _atom_site_occupancy
  Ho  Ho0  1  0.98448745  0.03102609  0.00000000  1
  Ho  Ho1  1  0.66290170  0.67419759  0.00000000  1
  Ho  Ho2  1  0.79329155  0.41341791  0.50000000  1
  Ho  Ho3  1  0.11487630  0.77024741  0.50000000  1
  Mg  Mg4  1  0.32511464  0.34976972  0.00000000  1
  Mg  Mg5  1  0.45266336  0.09467428  0.50000000  1
