# generated using pymatgen
data_Pr10C4Br15
_symmetry_space_group_name_H-M   'P 1'
_cell_length_a   9.27883386
_cell_length_b   10.28464107
_cell_length_c   11.21885843
_cell_angle_alpha   70.12670332
_cell_angle_beta   66.24927366
_cell_angle_gamma   70.74448866
_symmetry_Int_Tables_number   1
_chemical_formula_structural   Pr10C4Br15
_chemical_formula_sum   'Pr10 C4 Br15'
_cell_volume   898.14741460
_cell_formula_units_Z   1
loop_
 _symmetry_equiv_pos_site_id
 _symmetry_equiv_pos_as_xyz
  1  'x, y, z'
loop_
 _atom_site_type_symbol
 _atom_site_label
 _atom_site_symmetry_multiplicity
 _atom_site_fract_x
 _atom_site_fract_y
 _atom_site_fract_z
 _atom_site_occupancy
  Pr  Pr0  1  0.33319226  0.75146681  0.83053365  1
  Pr  Pr1  1  0.66680750  0.24853467  0.16946542  1
  Pr  Pr2  1  0.17011136  0.42962661  0.04613886  1
  Pr  Pr3  1  0.82988595  0.57037257  0.95385914  1
  Pr  Pr4  1  0.07883483  0.18109006  0.88764844  1
  Pr  Pr5  1  0.92116635  0.81891039  0.11235154  1
  Pr  Pr6  1  0.24713529  0.54002057  0.64542452  1
  Pr  Pr7  1  0.75286542  0.45997855  0.35457604  1
  Pr  Pr8  1  0.02776935  0.10463707  0.26553320  1
  Pr  Pr9  1  0.97223083  0.89536171  0.73446709  1
  C  C10  1  0.87999598  0.35977163  0.17080097  1
  C  C11  1  0.12000373  0.64022811  0.82920063  1
  C  C12  1  0.95573779  0.29612907  0.06193639  1
  C  C13  1  0.04426360  0.70386971  0.93806261  1
  Br  Br14  1  0.50000001  0.50000016  0.99999979  1
  Br  Br15  1  0.13518418  0.81363063  0.46711854  1
  Br  Br16  1  0.86481532  0.18636875  0.53288175  1
  Br  Br17  1  0.25420543  0.02818195  0.64555559  1
  Br  Br18  1  0.74579423  0.97181868  0.35444402  1
  Br  Br19  1  0.33559050  0.16773679  0.22175459  1
  Br  Br20  1  0.66441062  0.83226322  0.77824506  1
  Br  Br21  1  0.45348621  0.36690528  0.41390399  1
  Br  Br22  1  0.54651457  0.63309404  0.58609625  1
  Br  Br23  1  0.94690766  0.44460175  0.70315408  1
  Br  Br24  1  0.05309158  0.55539751  0.29684550  1
  Br  Br25  1  0.23110482  0.90852153  0.06099356  1
  Br  Br26  1  0.76889574  0.09147885  0.93900834  1
  Br  Br27  1  0.38713372  0.27135176  0.81810146  1
  Br  Br28  1  0.61286717  0.72864855  0.18189799  1
