# generated using pymatgen
data_Er8Ga3Co
_symmetry_space_group_name_H-M   'P 1'
_cell_length_a   9.93841186
_cell_length_b   9.93848499
_cell_length_c   6.84422641
_cell_angle_alpha   90.00037175
_cell_angle_beta   90.00131329
_cell_angle_gamma   119.99974577
_symmetry_Int_Tables_number   1
_chemical_formula_structural   Er8Ga3Co
_chemical_formula_sum   'Er16 Ga6 Co2'
_cell_volume   585.45468876
_cell_formula_units_Z   2
loop_
 _symmetry_equiv_pos_site_id
 _symmetry_equiv_pos_as_xyz
  1  'x, y, z'
loop_
 _atom_site_type_symbol
 _atom_site_label
 _atom_site_symmetry_multiplicity
 _atom_site_fract_x
 _atom_site_fract_y
 _atom_site_fract_z
 _atom_site_occupancy
  Er  Er0  1  0.00000266  0.99998359  0.27010812  1
  Er  Er1  1  0.99998778  0.00000616  0.77008177  1
  Er  Er2  1  0.17307659  0.82692400  0.99192957  1
  Er  Er3  1  0.82691308  0.17308397  0.49193414  1
  Er  Er4  1  0.17305804  0.34612556  0.99194687  1
  Er  Er5  1  0.65387918  0.82694057  0.99196060  1
  Er  Er6  1  0.34612066  0.17306022  0.49195026  1
  Er  Er7  1  0.82693827  0.65387775  0.49195911  1
  Er  Er8  1  0.33334956  0.66664862  0.67180291  1
  Er  Er9  1  0.66665866  0.33334645  0.17179298  1
  Er  Er10  1  0.46461836  0.53539318  0.29258582  1
  Er  Er11  1  0.53540110  0.46460041  0.79256695  1
  Er  Er12  1  0.46461476  0.92923105  0.29255890  1
  Er  Er13  1  0.07076467  0.53538095  0.29255974  1
  Er  Er14  1  0.92920731  0.46460269  0.79254503  1
  Er  Er15  1  0.53539328  0.07079011  0.79255133  1
  Ga  Ga16  1  0.16357661  0.83642198  0.53942120  1
  Ga  Ga17  1  0.83643201  0.16357979  0.03941847  1
  Ga  Ga18  1  0.16353201  0.32709928  0.53941551  1
  Ga  Ga19  1  0.67291011  0.83647616  0.53940795  1
  Ga  Ga20  1  0.32709014  0.16351896  0.03941713  1
  Ga  Ga21  1  0.83647507  0.67291221  0.03941546  1
  Co  Co22  1  0.33333488  0.66666807  0.05933657  1
  Co  Co23  1  0.66666521  0.33333024  0.55933460  1
