# generated using pymatgen
data_Sr2MnZn2(AsO)2
_symmetry_space_group_name_H-M   'P 1'
_cell_length_a   4.20532782
_cell_length_b   4.20532782
_cell_length_c   9.89774595
_cell_angle_alpha   102.26529947
_cell_angle_beta   102.26529947
_cell_angle_gamma   90.00000000
_symmetry_Int_Tables_number   1
_chemical_formula_structural   Sr2MnZn2(AsO)2
_chemical_formula_sum   'Sr2 Mn1 Zn2 As2 O2'
_cell_volume   166.95313636
_cell_formula_units_Z   1
loop_
 _symmetry_equiv_pos_site_id
 _symmetry_equiv_pos_as_xyz
  1  'x, y, z'
loop_
 _atom_site_type_symbol
 _atom_site_label
 _atom_site_symmetry_multiplicity
 _atom_site_fract_x
 _atom_site_fract_y
 _atom_site_fract_z
 _atom_site_occupancy
  Sr  Sr0  1  0.58649445  0.58649445  0.17298890  1
  Sr  Sr1  1  0.41350555  0.41350555  0.82701110  1
  Mn  Mn2  1  0.00000000  0.00000000  0.00000000  1
  Zn  Zn3  1  0.75000000  0.25000000  0.50000000  1
  Zn  Zn4  1  0.25000000  0.75000000  0.50000000  1
  As  As5  1  0.16859437  0.16859437  0.33718974  1
  As  As6  1  0.83140563  0.83140563  0.66281026  1
  O  O7  1  0.50000000  0.00000000  0.00000000  1
  O  O8  1  0.00000000  0.50000000  0.00000000  1
