# generated using pymatgen
data_Li4(FeO2)9
_symmetry_space_group_name_H-M   'P 1'
_cell_length_a   9.39926278
_cell_length_b   24.01254498
_cell_length_c   2.96335638
_cell_angle_alpha   90.04333804
_cell_angle_beta   89.95879312
_cell_angle_gamma   89.96435555
_symmetry_Int_Tables_number   1
_chemical_formula_structural   Li4(FeO2)9
_chemical_formula_sum   'Li8 Fe18 O36'
_cell_volume   668.82969395
_cell_formula_units_Z   2
loop_
 _symmetry_equiv_pos_site_id
 _symmetry_equiv_pos_as_xyz
  1  'x, y, z'
loop_
 _atom_site_type_symbol
 _atom_site_label
 _atom_site_symmetry_multiplicity
 _atom_site_fract_x
 _atom_site_fract_y
 _atom_site_fract_z
 _atom_site_occupancy
  Li  Li0  1  0.18283257  0.99061391  0.00078885  1
  Li  Li1  1  0.18513295  0.19487953  0.00069284  1
  Li  Li2  1  0.31410280  0.69583479  0.00058979  1
  Li  Li3  1  0.31089777  0.48600402  0.99888336  1
  Li  Li4  1  0.68965170  0.51241642  0.00087189  1
  Li  Li5  1  0.68503205  0.30296586  0.99903389  1
  Li  Li6  1  0.81675459  0.80155077  0.99843389  1
  Li  Li7  1  0.81366362  0.01120671  0.00026170  1
  Fe  Fe8  1  0.00277318  0.49724850  0.99956657  1
  Fe  Fe9  1  0.99199502  0.10430822  0.00212038  1
  Fe  Fe10  1  0.98375357  0.31825595  0.00031795  1
  Fe  Fe11  1  0.16823357  0.58323550  0.49924527  1
  Fe  Fe12  1  0.17565469  0.80831520  0.50101236  1
  Fe  Fe13  1  0.32434499  0.30989750  0.50013724  1
  Fe  Fe14  1  0.33341731  0.08447403  0.50058510  1
  Fe  Fe15  1  0.51698575  0.81649593  0.99935693  1
  Fe  Fe16  1  0.50519315  0.60271130  0.99939174  1
  Fe  Fe17  1  0.49686864  0.99700467  0.99991950  1
  Fe  Fe18  1  0.49374176  0.39700002  0.99964019  1
  Fe  Fe19  1  0.48448207  0.18959435  0.00075461  1
  Fe  Fe20  1  0.67375167  0.91347822  0.49966443  1
  Fe  Fe21  1  0.66924448  0.69200135  0.49973009  1
  Fe  Fe22  1  0.82883902  0.19410047  0.50043470  1
  Fe  Fe23  1  0.82727041  0.41432919  0.49996188  1
  Fe  Fe24  1  0.01455281  0.68676234  0.99868161  1
  Fe  Fe25  1  0.00976166  0.89678040  0.99929332  1
  O  O26  1  0.97295243  0.41119191  0.00032569  1
  O  O27  1  0.02626820  0.58270575  0.99853392  1
  O  O28  1  0.05990180  0.94647238  0.48837774  1
  O  O29  1  0.03445517  0.16193070  0.49572422  1
  O  O30  1  0.15168583  0.66318331  0.49843666  1
  O  O31  1  0.14101815  0.75511395  0.99981684  1
  O  O32  1  0.14990938  0.50040055  0.49905243  1
  O  O33  1  0.11273566  0.30082438  0.50014005  1
  O  O34  1  0.19505984  0.86315701  0.00275374  1
  O  O35  1  0.19094534  0.08068163  0.00112005  1
  O  O36  1  0.30955197  0.57782536  0.99979325  1
  O  O37  1  0.30751166  0.36527478  0.99995650  1
  O  O38  1  0.38764820  0.79839069  0.49965946  1
  O  O39  1  0.34917562  0.00177681  0.50024802  1
  O  O40  1  0.35638987  0.25649939  0.00031197  1
  O  O41  1  0.34951466  0.16428138  0.50075315  1
  O  O42  1  0.46289170  0.66023935  0.50228671  1
  O  O43  1  0.44340747  0.44665460  0.49963146  1
  O  O44  1  0.47426307  0.08286177  0.99975032  1
  O  O45  1  0.52825689  0.91056589  0.99826909  1
  O  O46  1  0.55993621  0.55358945  0.49699248  1
  O  O47  1  0.53158427  0.33945273  0.49968037  1
  O  O48  1  0.66353131  0.83412164  0.49907728  1
  O  O49  1  0.63363925  0.74429391  0.99944618  1
  O  O50  1  0.64624686  0.99456208  0.49965984  1
  O  O51  1  0.61486714  0.20749188  0.50066481  1
  O  O52  1  0.69036169  0.63744424  0.00007127  1
  O  O53  1  0.68746583  0.42132648  0.99973794  1
  O  O54  1  0.81420799  0.92074313  0.00078326  1
  O  O55  1  0.80656442  0.13986566  0.00002255  1
  O  O56  1  0.88369599  0.70465312  0.49897298  1
  O  O57  1  0.85350913  0.49528834  0.50007991  1
  O  O58  1  0.86522522  0.24629315  0.00050778  1
  O  O59  1  0.83675855  0.33535826  0.50042681  1
  O  O60  1  0.97053208  0.83916339  0.51153254  1
  O  O61  1  0.93940035  0.05485178  0.50803066  1
