# generated using pymatgen
data_Yb2AlGe3
_symmetry_space_group_name_H-M   'P 1'
_cell_length_a   6.92819984
_cell_length_b   4.19648530
_cell_length_c   18.32596538
_cell_angle_alpha   90.00000000
_cell_angle_beta   90.00000000
_cell_angle_gamma   90.00000000
_symmetry_Int_Tables_number   1
_chemical_formula_structural   Yb2AlGe3
_chemical_formula_sum   'Yb8 Al4 Ge12'
_cell_volume   532.81074451
_cell_formula_units_Z   4
loop_
 _symmetry_equiv_pos_site_id
 _symmetry_equiv_pos_as_xyz
  1  'x, y, z'
loop_
 _atom_site_type_symbol
 _atom_site_label
 _atom_site_symmetry_multiplicity
 _atom_site_fract_x
 _atom_site_fract_y
 _atom_site_fract_z
 _atom_site_occupancy
  Yb  Yb0  1  0.33447081  0.24999800  0.92011162  1
  Yb  Yb1  1  0.16553019  0.75000000  0.42011162  1
  Yb  Yb2  1  0.83447181  0.24999800  0.57988938  1
  Yb  Yb3  1  0.66552819  0.75000000  0.07988838  1
  Yb  Yb4  1  0.31335855  0.24999800  0.70113973  1
  Yb  Yb5  1  0.18664245  0.75000000  0.20113973  1
  Yb  Yb6  1  0.81335755  0.24999800  0.79886027  1
  Yb  Yb7  1  0.68664245  0.75000000  0.29886027  1
  Al  Al8  1  0.03663172  0.24999800  0.06128300  1
  Al  Al9  1  0.46336628  0.75000000  0.56128300  1
  Al  Al10  1  0.53663272  0.24999800  0.43871700  1
  Al  Al11  1  0.96336728  0.75000000  0.93871800  1
  Ge  Ge12  1  0.25773684  0.24999800  0.53634249  1
  Ge  Ge13  1  0.24226316  0.75000000  0.03634249  1
  Ge  Ge14  1  0.75773784  0.24999800  0.96365751  1
  Ge  Ge15  1  0.74226216  0.75000000  0.46365751  1
  Ge  Ge16  1  0.00354720  0.24999800  0.31579442  1
  Ge  Ge17  1  0.49645380  0.75000000  0.81579442  1
  Ge  Ge18  1  0.50354620  0.24999800  0.18420558  1
  Ge  Ge19  1  0.99645380  0.75000000  0.68420558  1
  Ge  Ge20  1  0.36778992  0.24999800  0.31159308  1
  Ge  Ge21  1  0.13221008  0.75000000  0.81159308  1
  Ge  Ge22  1  0.86779092  0.24999800  0.18840692  1
  Ge  Ge23  1  0.63221108  0.75000000  0.68840692  1
