# generated using pymatgen
data_Nd2In8Pd
_symmetry_space_group_name_H-M   'P 1'
_cell_length_a   4.73569689
_cell_length_b   4.73456864
_cell_length_c   12.42296985
_cell_angle_alpha   89.97616364
_cell_angle_beta   89.98686879
_cell_angle_gamma   89.96499282
_symmetry_Int_Tables_number   1
_chemical_formula_structural   Nd2In8Pd
_chemical_formula_sum   'Nd2 In8 Pd1'
_cell_volume   278.54131139
_cell_formula_units_Z   1
loop_
 _symmetry_equiv_pos_site_id
 _symmetry_equiv_pos_as_xyz
  1  'x, y, z'
loop_
 _atom_site_type_symbol
 _atom_site_label
 _atom_site_symmetry_multiplicity
 _atom_site_fract_x
 _atom_site_fract_y
 _atom_site_fract_z
 _atom_site_occupancy
  Nd  Nd0  1  0.99984198  0.00007638  0.30937388  1
  Nd  Nd1  1  0.00005248  0.99980374  0.69047244  1
  In  In2  1  0.49998891  0.00024503  0.12313205  1
  In  In3  1  0.99993791  0.50036512  0.12305068  1
  In  In4  1  0.49993734  0.49987317  0.30829365  1
  In  In5  1  0.50007054  -0.00011737  0.50008144  1
  In  In6  1  -0.00005606  0.49978519  0.50005592  1
  In  In7  1  0.49987936  0.49986267  0.69164337  1
  In  In8  1  0.49988606  0.00043899  0.87690159  1
  In  In9  1  0.00019575  0.49981796  0.87698015  1
  Pd  Pd10  1  0.00027073  -0.00014586  0.00001384  1
