# generated using pymatgen
data_Nd2ReC2
_symmetry_space_group_name_H-M   'P 1'
_cell_length_a   6.71302459
_cell_length_b   5.36437684
_cell_length_c   10.22101859
_cell_angle_alpha   90.00052803
_cell_angle_beta   89.99976529
_cell_angle_gamma   89.99894623
_symmetry_Int_Tables_number   1
_chemical_formula_structural   Nd2ReC2
_chemical_formula_sum   'Nd8 Re4 C8'
_cell_volume   368.07107957
_cell_formula_units_Z   4
loop_
 _symmetry_equiv_pos_site_id
 _symmetry_equiv_pos_as_xyz
  1  'x, y, z'
loop_
 _atom_site_type_symbol
 _atom_site_label
 _atom_site_symmetry_multiplicity
 _atom_site_fract_x
 _atom_site_fract_y
 _atom_site_fract_z
 _atom_site_occupancy
  Nd  Nd0  1  0.47401667  0.24999197  0.78572099  1
  Nd  Nd1  1  0.02598249  0.74999784  0.28572995  1
  Nd  Nd2  1  0.97400293  0.25000120  0.71426582  1
  Nd  Nd3  1  0.52599347  0.75000590  0.21427363  1
  Nd  Nd4  1  0.81155643  0.25000570  0.05072907  1
  Nd  Nd5  1  0.68843784  0.74998793  0.55071661  1
  Nd  Nd6  1  0.31155905  0.25000525  0.44928325  1
  Nd  Nd7  1  0.18844338  0.74998381  0.94927479  1
  Re  Re8  1  0.27018077  0.24999561  0.14182474  1
  Re  Re9  1  0.22984162  0.75000488  0.64179148  1
  Re  Re10  1  0.77016616  0.25000134  0.35819070  1
  Re  Re11  1  0.72982166  0.74999981  0.85819724  1
  C  C12  1  0.68641125  0.25000761  0.53836425  1
  C  C13  1  0.81359356  0.75000507  0.03836051  1
  C  C14  1  0.18640268  0.25000512  0.96162741  1
  C  C15  1  0.31359234  0.74999786  0.46165018  1
  C  C16  1  0.03422337  0.24999842  0.25819091  1
  C  C17  1  0.46576363  0.74999991  0.75819303  1
  C  C18  1  0.53423981  0.25000712  0.24180690  1
  C  C19  1  0.96577490  0.74999765  0.74180856  1
