# generated using pymatgen
data_Li4TiMn3O8
_symmetry_space_group_name_H-M   'P 1'
_cell_length_a   5.65154811
_cell_length_b   6.58007582
_cell_length_c   5.14571797
_cell_angle_alpha   91.06610882
_cell_angle_beta   90.67285058
_cell_angle_gamma   88.36156259
_symmetry_Int_Tables_number   1
_chemical_formula_structural   Li4TiMn3O8
_chemical_formula_sum   'Li4 Ti1 Mn3 O8'
_cell_volume   191.23359956
_cell_formula_units_Z   1
loop_
 _symmetry_equiv_pos_site_id
 _symmetry_equiv_pos_as_xyz
  1  'x, y, z'
loop_
 _atom_site_type_symbol
 _atom_site_label
 _atom_site_symmetry_multiplicity
 _atom_site_fract_x
 _atom_site_fract_y
 _atom_site_fract_z
 _atom_site_occupancy
  Li  Li0  1  0.08162263  0.62423066  0.99349741  1
  Li  Li1  1  0.41744804  0.12355657  0.49617141  1
  Li  Li2  1  0.58707820  0.87439061  0.99900333  1
  Li  Li3  1  0.91257670  0.37763126  0.49272934  1
  Ti  Ti4  1  0.91394948  0.87545623  0.50181984  1
  Mn  Mn5  1  0.08411967  0.13372380  0.99641801  1
  Mn  Mn6  1  0.41715467  0.62493971  0.49401747  1
  Mn  Mn7  1  0.58831175  0.37039549  0.99738841  1
  O  O8  1  0.06807313  0.10356267  0.39649179  1
  O  O9  1  0.06804822  0.64088926  0.38660856  1
  O  O10  1  0.42555016  0.13987045  0.89893290  1
  O  O11  1  0.43978112  0.61083438  0.88878565  1
  O  O12  1  0.57089053  0.36302278  0.35322145  1
  O  O13  1  0.60542681  0.87440182  0.39124516  1
  O  O14  1  0.89797669  0.38612172  0.88179648  1
  O  O15  1  0.92199220  0.87697259  0.85827378  1
