# generated using pymatgen
data_NdRh3
_symmetry_space_group_name_H-M   'P 1'
_cell_length_a   5.33654354
_cell_length_b   5.33655188
_cell_length_c   17.64935813
_cell_angle_alpha   89.99892748
_cell_angle_beta   90.00186960
_cell_angle_gamma   119.99979178
_symmetry_Int_Tables_number   1
_chemical_formula_structural   NdRh3
_chemical_formula_sum   'Nd6 Rh18'
_cell_volume   435.29256726
_cell_formula_units_Z   6
loop_
 _symmetry_equiv_pos_site_id
 _symmetry_equiv_pos_as_xyz
  1  'x, y, z'
loop_
 _atom_site_type_symbol
 _atom_site_label
 _atom_site_symmetry_multiplicity
 _atom_site_fract_x
 _atom_site_fract_y
 _atom_site_fract_z
 _atom_site_occupancy
  Nd  Nd0  1  0.33326744  0.66660597  0.54152224  1
  Nd  Nd1  1  0.66669586  0.33339379  0.04146335  1
  Nd  Nd2  1  0.66667328  0.33335668  0.45853039  1
  Nd  Nd3  1  0.33330004  0.66663402  0.95851994  1
  Nd  Nd4  1  0.33342054  0.66670717  0.75002091  1
  Nd  Nd5  1  0.66659464  0.33329618  0.24997135  1
  Rh  Rh6  1  0.16644161  0.33281367  0.12740813  1
  Rh  Rh7  1  0.83354895  0.66718061  0.62744087  1
  Rh  Rh8  1  0.66713619  0.83357186  0.12740651  1
  Rh  Rh9  1  0.16637703  0.83350925  0.12741735  1
  Rh  Rh10  1  0.83360363  0.16647543  0.62745497  1
  Rh  Rh11  1  0.33285532  0.16643785  0.62744955  1
  Rh  Rh12  1  0.83355512  0.66717441  0.87257638  1
  Rh  Rh13  1  0.83360401  0.16644146  0.87257056  1
  Rh  Rh14  1  0.33284031  0.16640622  0.87257183  1
  Rh  Rh15  1  0.66712303  0.83355852  0.37256483  1
  Rh  Rh16  1  0.16640793  0.83355442  0.37256079  1
  Rh  Rh17  1  0.16641675  0.33285686  0.37255951  1
  Rh  Rh18  1  0.00001997  0.99999327  0.24998375  1
  Rh  Rh19  1  0.00000821  0.00001303  0.75001778  1
  Rh  Rh20  1  0.33333935  0.66663101  0.24998485  1
  Rh  Rh21  1  0.66668742  0.33337786  0.75000824  1
  Rh  Rh22  1  0.00002223  0.00000827  0.99998746  1
  Rh  Rh23  1  0.99996915  0.00000719  0.50000745  1
