# generated using pymatgen
data_Nd2BC
_symmetry_space_group_name_H-M   'P 1'
_cell_length_a   6.87248187
_cell_length_b   6.87248187
_cell_length_c   9.56957267
_cell_angle_alpha   50.67569445
_cell_angle_beta   129.32430555
_cell_angle_gamma   149.10773859
_symmetry_Int_Tables_number   1
_chemical_formula_structural   Nd2BC
_chemical_formula_sum   'Nd4 B2 C2'
_cell_volume   174.85436565
_cell_formula_units_Z   2
loop_
 _symmetry_equiv_pos_site_id
 _symmetry_equiv_pos_as_xyz
  1  'x, y, z'
loop_
 _atom_site_type_symbol
 _atom_site_label
 _atom_site_symmetry_multiplicity
 _atom_site_fract_x
 _atom_site_fract_y
 _atom_site_fract_z
 _atom_site_occupancy
  Nd  Nd0  1  0.79336194  0.20663806  0.38184842  1
  Nd  Nd1  1  0.20663906  0.79336094  0.61815058  1
  Nd  Nd2  1  0.44021621  0.55978379  0.13947187  1
  Nd  Nd3  1  0.55978379  0.44021621  0.86052913  1
  B  B4  1  0.07548396  0.92451604  0.10809648  1
  B  B5  1  0.92451404  0.07548596  0.89190252  1
  C  C6  1  0.87362060  0.12637940  0.69816519  1
  C  C7  1  0.12638040  0.87361960  0.30183381  1
