# generated using pymatgen
data_YbZn11
_symmetry_space_group_name_H-M   'P 1'
_cell_length_a   8.28675837
_cell_length_b   8.28675837
_cell_length_c   8.28675837
_cell_angle_alpha   99.81467389
_cell_angle_beta   99.81467389
_cell_angle_gamma   131.22946201
_symmetry_Int_Tables_number   1
_chemical_formula_structural   YbZn11
_chemical_formula_sum   'Yb2 Zn22'
_cell_volume   389.79296436
_cell_formula_units_Z   2
loop_
 _symmetry_equiv_pos_site_id
 _symmetry_equiv_pos_as_xyz
  1  'x, y, z'
loop_
 _atom_site_type_symbol
 _atom_site_label
 _atom_site_symmetry_multiplicity
 _atom_site_fract_x
 _atom_site_fract_y
 _atom_site_fract_z
 _atom_site_occupancy
  Yb  Yb0  1  0.62500000  0.37500000  0.25000000  1
  Yb  Yb1  1  0.37500000  0.62500000  0.75000000  1
  Zn  Zn2  1  0.20271160  0.27845696  0.33379363  1
  Zn  Zn3  1  0.44466533  0.86891798  0.16620537  1
  Zn  Zn4  1  0.79728640  0.13108202  0.07574636  1
  Zn  Zn5  1  0.55533467  0.72154004  0.42425264  1
  Zn  Zn6  1  0.72154204  0.79728940  0.16620537  1
  Zn  Zn7  1  0.13108202  0.55533667  0.33379463  1
  Zn  Zn8  1  0.86891698  0.20271260  0.42425364  1
  Zn  Zn9  1  0.27845796  0.44466333  0.07574736  1
  Zn  Zn10  1  0.79728640  0.72154104  0.66620537  1
  Zn  Zn11  1  0.55533767  0.13108202  0.83379463  1
  Zn  Zn12  1  0.20271260  0.86891798  0.92425464  1
  Zn  Zn13  1  0.44466233  0.27845696  0.57574536  1
  Zn  Zn14  1  0.27845896  0.20271360  0.83379663  1
  Zn  Zn15  1  0.86891598  0.44466333  0.66620537  1
  Zn  Zn16  1  0.13108302  0.79728740  0.57574636  1
  Zn  Zn17  1  0.72154104  0.55533767  0.92425464  1
  Zn  Zn18  1  0.87500000  0.12500000  0.75000000  1
  Zn  Zn19  1  0.12500100  0.87500100  0.25000000  1
  Zn  Zn20  1  0.00000000  0.00000000  0.00000000  1
  Zn  Zn21  1  0.50000000  0.00000000  0.50000000  1
  Zn  Zn22  1  0.00000100  0.00000100  0.50000000  1
  Zn  Zn23  1  0.99999900  0.49999900  0.00000000  1
