# generated using pymatgen
data_NdAgAs2
_symmetry_space_group_name_H-M   'P 1'
_cell_length_a   4.07652201
_cell_length_b   4.10187745
_cell_length_c   21.28199644
_cell_angle_alpha   89.99377122
_cell_angle_beta   89.99924863
_cell_angle_gamma   89.99246655
_symmetry_Int_Tables_number   1
_chemical_formula_structural   NdAgAs2
_chemical_formula_sum   'Nd4 Ag4 As8'
_cell_volume   355.86463650
_cell_formula_units_Z   4
loop_
 _symmetry_equiv_pos_site_id
 _symmetry_equiv_pos_as_xyz
  1  'x, y, z'
loop_
 _atom_site_type_symbol
 _atom_site_label
 _atom_site_symmetry_multiplicity
 _atom_site_fract_x
 _atom_site_fract_y
 _atom_site_fract_z
 _atom_site_occupancy
  Nd  Nd0  1  0.25039040  0.72730169  0.11554990  1
  Nd  Nd1  1  0.75039304  0.22729124  0.38445753  1
  Nd  Nd2  1  0.24960845  0.77271005  0.61554305  1
  Nd  Nd3  1  0.74961326  0.27269796  0.88445048  1
  Ag  Ag4  1  0.75005283  0.72609516  0.24991470  1
  Ag  Ag5  1  0.25005252  0.22610218  0.25008707  1
  Ag  Ag6  1  0.74994659  0.77389749  0.74991294  1
  Ag  Ag7  1  0.24994751  0.27390449  0.75008530  1
  As  As8  1  0.75043540  0.22647026  0.16028863  1
  As  As9  1  0.25043332  0.72647139  0.33970728  1
  As  As10  1  0.74956630  0.27352784  0.66029284  1
  As  As11  1  0.24956388  0.77352890  0.83971130  1
  As  As12  1  0.24994801  0.20407212  0.00148867  1
  As  As13  1  0.74994787  0.70405710  0.49851006  1
  As  As14  1  0.25005156  0.29594306  0.50148906  1
  As  As15  1  0.75005106  0.79592706  0.99851218  1
