# generated using pymatgen
data_Dy2Ni12P7
_symmetry_space_group_name_H-M   'P 1'
_cell_length_a   9.02788112
_cell_length_b   9.02908764
_cell_length_c   3.68033695
_cell_angle_alpha   90.00000000
_cell_angle_beta   90.00000000
_cell_angle_gamma   120.01693058
_symmetry_Int_Tables_number   1
_chemical_formula_structural   Dy2Ni12P7
_chemical_formula_sum   'Dy2 Ni12 P7'
_cell_volume   259.76090946
_cell_formula_units_Z   1
loop_
 _symmetry_equiv_pos_site_id
 _symmetry_equiv_pos_as_xyz
  1  'x, y, z'
loop_
 _atom_site_type_symbol
 _atom_site_label
 _atom_site_symmetry_multiplicity
 _atom_site_fract_x
 _atom_site_fract_y
 _atom_site_fract_z
 _atom_site_occupancy
  Dy  Dy0  1  0.33331548  0.66668264  0.00000000  1
  Dy  Dy1  1  0.66671923  0.33313874  0.50000200  1
  Ni  Ni2  1  0.38108898  0.43040163  0.50000200  1
  Ni  Ni3  1  0.56967147  0.95076812  0.50000200  1
  Ni  Ni4  1  0.04911804  0.61879683  0.50000200  1
  Ni  Ni5  1  0.43518368  0.05987786  0.00000000  1
  Ni  Ni6  1  0.94025364  0.37537846  0.00000000  1
  Ni  Ni7  1  0.62469630  0.56476648  0.00000000  1
  Ni  Ni8  1  0.21632044  0.09466039  0.50000200  1
  Ni  Ni9  1  0.90518088  0.12169294  0.50000200  1
  Ni  Ni10  1  0.87841468  0.78385527  0.50000200  1
  Ni  Ni11  1  0.15163898  0.27471318  0.00000000  1
  Ni  Ni12  1  0.72536607  0.87707597  0.00000000  1
  Ni  Ni13  1  0.12301038  0.84829761  0.00000000  1
  P  P14  1  0.11042719  0.40546740  0.50000200  1
  P  P15  1  0.59455409  0.70498835  0.50000200  1
  P  P16  1  0.29500192  0.88954018  0.50000200  1
  P  P17  1  0.00005155  -0.00002092  0.00000000  1
  P  P18  1  0.40617947  0.29227645  0.00000000  1
  P  P19  1  0.70770863  0.11390855  0.00000000  1
  P  P20  1  0.88609689  0.59373285  0.00000000  1
