# generated using pymatgen
data_Mn5Cr2O12
_symmetry_space_group_name_H-M   'P 1'
_cell_length_a   5.17274574
_cell_length_b   5.17274562
_cell_length_c   9.92311120
_cell_angle_alpha   82.54025961
_cell_angle_beta   97.45974338
_cell_angle_gamma   58.25659899
_symmetry_Int_Tables_number   1
_chemical_formula_structural   Mn5Cr2O12
_chemical_formula_sum   'Mn5 Cr2 O12'
_cell_volume   217.61828565
_cell_formula_units_Z   1
loop_
 _symmetry_equiv_pos_site_id
 _symmetry_equiv_pos_as_xyz
  1  'x, y, z'
loop_
 _atom_site_type_symbol
 _atom_site_label
 _atom_site_symmetry_multiplicity
 _atom_site_fract_x
 _atom_site_fract_y
 _atom_site_fract_z
 _atom_site_occupancy
  Mn  Mn0  1  0.07600979  0.07600979  0.25000000  1
  Mn  Mn1  1  0.00288366  0.54544528  0.97867462  1
  Mn  Mn2  1  0.54544528  0.00288366  0.52132538  1
  Mn  Mn3  1  0.41778883  0.41778883  0.25000000  1
  Mn  Mn4  1  0.57014884  0.57014884  0.75000000  1
  Cr  Cr5  1  0.25319924  0.25319924  0.75000000  1
  Cr  Cr6  1  0.74601688  0.74601688  0.25000000  1
  O  O7  1  0.97176848  0.26332887  0.87559565  1
  O  O8  1  0.26332887  0.97176848  0.62440435  1
  O  O9  1  0.16943059  0.35059451  0.36143326  1
  O  O10  1  0.35059451  0.16943059  0.13856674  1
  O  O11  1  0.30707661  0.50646931  0.85315268  1
  O  O12  1  0.50646931  0.30707661  0.64684732  1
  O  O13  1  0.45778115  0.70293696  0.35008226  1
  O  O14  1  0.70293696  0.45778115  0.14991774  1
  O  O15  1  0.58823807  0.84521740  0.86573535  1
  O  O16  1  0.84521740  0.58823807  0.63426465  1
  O  O17  1  0.77503108  0.02921445  0.36438445  1
  O  O18  1  0.02921445  0.77503108  0.13561555  1
