# generated using pymatgen
data_Dy2Mg
_symmetry_space_group_name_H-M   'P 1'
_cell_length_a   3.67866347
_cell_length_b   8.74122110
_cell_length_c   5.48139439
_cell_angle_alpha   90.00000000
_cell_angle_beta   90.00000000
_cell_angle_gamma   77.85301018
_symmetry_Int_Tables_number   1
_chemical_formula_structural   Dy2Mg
_chemical_formula_sum   'Dy4 Mg2'
_cell_volume   172.31349573
_cell_formula_units_Z   2
loop_
 _symmetry_equiv_pos_site_id
 _symmetry_equiv_pos_as_xyz
  1  'x, y, z'
loop_
 _atom_site_type_symbol
 _atom_site_label
 _atom_site_symmetry_multiplicity
 _atom_site_fract_x
 _atom_site_fract_y
 _atom_site_fract_z
 _atom_site_occupancy
  Dy  Dy0  1  0.98241283  0.03517633  0.00000000  1
  Dy  Dy1  1  0.66249471  0.67501157  0.00000000  1
  Dy  Dy2  1  0.79536717  0.40926867  0.49999900  1
  Dy  Dy3  1  0.11528429  0.76943243  0.49999900  1
  Mg  Mg4  1  0.32366891  0.35266218  0.00000000  1
  Mg  Mg5  1  0.45411009  0.09178082  0.49999900  1
