# generated using pymatgen
data_NpP3
_symmetry_space_group_name_H-M   'P 1'
_cell_length_a   5.40565519
_cell_length_b   5.40565542
_cell_length_c   5.25588666
_cell_angle_alpha   90.00000000
_cell_angle_beta   90.00000000
_cell_angle_gamma   119.99999852
_symmetry_Int_Tables_number   1
_chemical_formula_structural   NpP3
_chemical_formula_sum   'Np2 P6'
_cell_volume   133.00664172
_cell_formula_units_Z   2
loop_
 _symmetry_equiv_pos_site_id
 _symmetry_equiv_pos_as_xyz
  1  'x, y, z'
loop_
 _atom_site_type_symbol
 _atom_site_label
 _atom_site_symmetry_multiplicity
 _atom_site_fract_x
 _atom_site_fract_y
 _atom_site_fract_z
 _atom_site_occupancy
  Np  Np0  1  0.66666700  0.33333300  0.24999800  1
  Np  Np1  1  0.33333400  0.66666800  0.75000100  1
  P  P2  1  0.81440303  0.18559797  0.75000100  1
  P  P3  1  0.18559697  0.37119294  0.24999800  1
  P  P4  1  0.62880806  0.81440503  0.24999800  1
  P  P5  1  0.18559697  0.81440503  0.24999800  1
  P  P6  1  0.81440403  0.62880706  0.75000100  1
  P  P7  1  0.37119494  0.18559797  0.75000100  1
