# generated using pymatgen
data_DyHg3
_symmetry_space_group_name_H-M   'P 1'
_cell_length_a   6.67731683
_cell_length_b   6.67731695
_cell_length_c   5.00461773
_cell_angle_alpha   90.00000000
_cell_angle_beta   90.00000000
_cell_angle_gamma   119.99999422
_symmetry_Int_Tables_number   1
_chemical_formula_structural   DyHg3
_chemical_formula_sum   'Dy2 Hg6'
_cell_volume   193.24378793
_cell_formula_units_Z   2
loop_
 _symmetry_equiv_pos_site_id
 _symmetry_equiv_pos_as_xyz
  1  'x, y, z'
loop_
 _atom_site_type_symbol
 _atom_site_label
 _atom_site_symmetry_multiplicity
 _atom_site_fract_x
 _atom_site_fract_y
 _atom_site_fract_z
 _atom_site_occupancy
  Dy  Dy0  1  0.33333400  0.66666700  0.74999900  1
  Dy  Dy1  1  0.66666800  0.33333500  0.25000100  1
  Hg  Hg2  1  0.16637114  0.33274228  0.25000100  1
  Hg  Hg3  1  0.66725672  0.83362786  0.25000100  1
  Hg  Hg4  1  0.16637214  0.83362786  0.25000100  1
  Hg  Hg5  1  0.83362786  0.66725572  0.74999900  1
  Hg  Hg6  1  0.33274428  0.16637214  0.74999900  1
  Hg  Hg7  1  0.83362886  0.16637214  0.74999900  1
