# generated using pymatgen
data_Dy2Co3Ge5
_symmetry_space_group_name_H-M   'P 1'
_cell_length_a   8.08181313
_cell_length_b   8.08040205
_cell_length_c   5.71950538
_cell_angle_alpha   70.51243051
_cell_angle_beta   109.49069589
_cell_angle_gamma   86.21481388
_symmetry_Int_Tables_number   1
_chemical_formula_structural   Dy2Co3Ge5
_chemical_formula_sum   'Dy4 Co6 Ge10'
_cell_volume   325.25911267
_cell_formula_units_Z   2
loop_
 _symmetry_equiv_pos_site_id
 _symmetry_equiv_pos_as_xyz
  1  'x, y, z'
loop_
 _atom_site_type_symbol
 _atom_site_label
 _atom_site_symmetry_multiplicity
 _atom_site_fract_x
 _atom_site_fract_y
 _atom_site_fract_z
 _atom_site_occupancy
  Dy  Dy0  1  0.59179527  0.12775459  0.73292410  1
  Dy  Dy1  1  0.12772183  0.59176342  0.76709945  1
  Dy  Dy2  1  0.87227717  0.40823758  0.23289955  1
  Dy  Dy3  1  0.40820573  0.87224541  0.26707690  1
  Co  Co4  1  0.99703542  0.99701302  0.75001289  1
  Co  Co5  1  0.00296458  0.00298698  0.24998711  1
  Co  Co6  1  0.73772395  0.54344674  0.62026451  1
  Co  Co7  1  0.45658267  0.26225738  0.12031535  1
  Co  Co8  1  0.26227505  0.45655426  0.37973449  1
  Co  Co9  1  0.54341733  0.73774262  0.87968565  1
  Ge  Ge10  1  0.49049649  0.49048339  0.74997984  1
  Ge  Ge11  1  0.50950451  0.50951561  0.25002116  1
  Ge  Ge12  1  0.22646675  0.22648922  0.74995425  1
  Ge  Ge13  1  0.77353325  0.77351078  0.25004575  1
  Ge  Ge14  1  0.92109336  0.26187717  0.82692640  1
  Ge  Ge15  1  0.26182480  0.92111563  0.67299824  1
  Ge  Ge16  1  0.21315526  0.21324124  0.25001253  1
  Ge  Ge17  1  0.78684474  0.78675776  0.74998847  1
  Ge  Ge18  1  0.73817520  0.07888437  0.32700276  1
  Ge  Ge19  1  0.07890664  0.73812283  0.17307460  1
