# generated using pymatgen
data_CdAu3
_symmetry_space_group_name_H-M   'P 1'
_cell_length_a   5.93837987
_cell_length_b   5.93837934
_cell_length_c   4.91187206
_cell_angle_alpha   90.00000000
_cell_angle_beta   90.00000000
_cell_angle_gamma   119.99999730
_symmetry_Int_Tables_number   1
_chemical_formula_structural   CdAu3
_chemical_formula_sum   'Cd2 Au6'
_cell_volume   150.00771719
_cell_formula_units_Z   2
loop_
 _symmetry_equiv_pos_site_id
 _symmetry_equiv_pos_as_xyz
  1  'x, y, z'
loop_
 _atom_site_type_symbol
 _atom_site_label
 _atom_site_symmetry_multiplicity
 _atom_site_fract_x
 _atom_site_fract_y
 _atom_site_fract_z
 _atom_site_occupancy
  Cd  Cd0  1  0.33333300  0.66666700  0.74999800  1
  Cd  Cd1  1  0.66666600  0.33333200  0.24999900  1
  Au  Au2  1  0.16632290  0.33264579  0.24999900  1
  Au  Au3  1  0.66735321  0.83367610  0.24999900  1
  Au  Au4  1  0.16632390  0.83367610  0.24999900  1
  Au  Au5  1  0.83367710  0.66735321  0.74999800  1
  Au  Au6  1  0.33264879  0.16632490  0.74999800  1
  Au  Au7  1  0.83367810  0.16632490  0.74999800  1
