# generated using pymatgen
data_DyGa3
_symmetry_space_group_name_H-M   'P 1'
_cell_length_a   6.26933860
_cell_length_b   6.26933867
_cell_length_c   4.58108069
_cell_angle_alpha   90.00000000
_cell_angle_beta   90.00000000
_cell_angle_gamma   119.99999965
_symmetry_Int_Tables_number   1
_chemical_formula_structural   DyGa3
_chemical_formula_sum   'Dy2 Ga6'
_cell_volume   155.93443526
_cell_formula_units_Z   2
loop_
 _symmetry_equiv_pos_site_id
 _symmetry_equiv_pos_as_xyz
  1  'x, y, z'
loop_
 _atom_site_type_symbol
 _atom_site_label
 _atom_site_symmetry_multiplicity
 _atom_site_fract_x
 _atom_site_fract_y
 _atom_site_fract_z
 _atom_site_occupancy
  Dy  Dy0  1  0.33333300  0.66666600  0.75000100  1
  Dy  Dy1  1  0.66666700  0.33333200  0.25000100  1
  Ga  Ga2  1  0.14871457  0.29742914  0.25000100  1
  Ga  Ga3  1  0.70257186  0.85128443  0.25000100  1
  Ga  Ga4  1  0.14871257  0.85128443  0.25000100  1
  Ga  Ga5  1  0.85128643  0.70257086  0.75000100  1
  Ga  Ga6  1  0.29742814  0.14871357  0.75000100  1
  Ga  Ga7  1  0.85128443  0.14871357  0.75000100  1
