# generated using pymatgen
data_ThAu3
_symmetry_space_group_name_H-M   'P 1'
_cell_length_a   6.53432015
_cell_length_b   6.53432019
_cell_length_c   4.80858406
_cell_angle_alpha   90.00000000
_cell_angle_beta   90.00000000
_cell_angle_gamma   119.99999977
_symmetry_Int_Tables_number   1
_chemical_formula_structural   ThAu3
_chemical_formula_sum   'Th2 Au6'
_cell_volume   177.80692260
_cell_formula_units_Z   2
loop_
 _symmetry_equiv_pos_site_id
 _symmetry_equiv_pos_as_xyz
  1  'x, y, z'
loop_
 _atom_site_type_symbol
 _atom_site_label
 _atom_site_symmetry_multiplicity
 _atom_site_fract_x
 _atom_site_fract_y
 _atom_site_fract_z
 _atom_site_occupancy
  Th  Th0  1  0.33333400  0.66666800  0.75000200  1
  Th  Th1  1  0.66666700  0.33333400  0.25000100  1
  Au  Au2  1  0.15667771  0.31335542  0.25000100  1
  Au  Au3  1  0.68664458  0.84332329  0.25000100  1
  Au  Au4  1  0.15667871  0.84332329  0.25000100  1
  Au  Au5  1  0.84332229  0.68664358  0.75000200  1
  Au  Au6  1  0.31335742  0.15667971  0.75000200  1
  Au  Au7  1  0.84332229  0.15667971  0.75000200  1
