# generated using pymatgen
data_Li2SnBPO7
_symmetry_space_group_name_H-M   'P 1'
_cell_length_a   9.11691879
_cell_length_b   6.50707399
_cell_length_c   5.17801593
_cell_angle_alpha   90.00000000
_cell_angle_beta   87.36525526
_cell_angle_gamma   90.00000000
_symmetry_Int_Tables_number   1
_chemical_formula_structural   Li2SnBPO7
_chemical_formula_sum   'Li4 Sn2 B2 P2 O14'
_cell_volume   306.85829536
_cell_formula_units_Z   2
loop_
 _symmetry_equiv_pos_site_id
 _symmetry_equiv_pos_as_xyz
  1  'x, y, z'
loop_
 _atom_site_type_symbol
 _atom_site_label
 _atom_site_symmetry_multiplicity
 _atom_site_fract_x
 _atom_site_fract_y
 _atom_site_fract_z
 _atom_site_occupancy
  Li  Li0  1  0.15859881  0.52792231  0.24166406  1
  Li  Li1  1  0.15859881  0.97207769  0.24166406  1
  Li  Li2  1  0.84140119  0.47207769  0.75833594  1
  Li  Li3  1  0.84140119  0.02792231  0.75833594  1
  Sn  Sn4  1  0.33744597  0.75000000  0.77728235  1
  Sn  Sn5  1  0.66255403  0.25000000  0.22271765  1
  B  B6  1  0.05759382  0.75000000  0.73350229  1
  B  B7  1  0.94240618  0.25000000  0.26649771  1
  P  P8  1  0.42969515  0.25000000  0.72473534  1
  P  P9  1  0.57030485  0.75000000  0.27526466  1
  O  O10  1  0.08620601  0.25000000  0.29099737  1
  O  O11  1  0.13076643  0.75000000  0.97224003  1
  O  O12  1  0.16664510  0.75000000  0.52156947  1
  O  O13  1  0.33375545  0.06429280  0.80706542  1
  O  O14  1  0.33375545  0.43570720  0.80706542  1
  O  O15  1  0.41943575  0.75000000  0.14910031  1
  O  O16  1  0.46269915  0.25000000  0.42588964  1
  O  O17  1  0.53730085  0.75000000  0.57411036  1
  O  O18  1  0.58056425  0.25000000  0.85089969  1
  O  O19  1  0.66624455  0.56429280  0.19293458  1
  O  O20  1  0.66624455  0.93570720  0.19293458  1
  O  O21  1  0.83335490  0.25000000  0.47843053  1
  O  O22  1  0.86923357  0.25000000  0.02775997  1
  O  O23  1  0.91379399  0.75000000  0.70900263  1
