# generated using pymatgen
data_CuBiPtS3
_symmetry_space_group_name_H-M   'P 1'
_cell_length_a   7.78113505
_cell_length_b   12.69328866
_cell_length_c   4.96325228
_cell_angle_alpha   89.99846636
_cell_angle_beta   89.99969703
_cell_angle_gamma   90.00387220
_symmetry_Int_Tables_number   1
_chemical_formula_structural   CuBiPtS3
_chemical_formula_sum   'Cu4 Bi4 Pt4 S12'
_cell_volume   490.21145951
_cell_formula_units_Z   4
loop_
 _symmetry_equiv_pos_site_id
 _symmetry_equiv_pos_as_xyz
  1  'x, y, z'
loop_
 _atom_site_type_symbol
 _atom_site_label
 _atom_site_symmetry_multiplicity
 _atom_site_fract_x
 _atom_site_fract_y
 _atom_site_fract_z
 _atom_site_occupancy
  Cu  Cu0  1  0.38609977  0.44111938  0.97283537  1
  Cu  Cu1  1  0.11388405  0.55892480  0.47283948  1
  Cu  Cu2  1  0.88613185  0.05890127  0.02709733  1
  Cu  Cu3  1  0.61387333  0.94105751  0.52709822  1
  Bi  Bi4  1  0.38461727  0.13142438  0.89915608  1
  Bi  Bi5  1  0.11538982  0.86857414  0.39915906  1
  Bi  Bi6  1  0.88462935  0.36859739  0.10084015  1
  Bi  Bi7  1  0.61537217  0.63139965  0.60084543  1
  Pt  Pt8  1  0.13618397  0.24913490  0.50497856  1
  Pt  Pt9  1  0.36383281  0.75086881  0.00498035  1
  Pt  Pt10  1  0.63613610  0.25091365  0.49502224  1
  Pt  Pt11  1  0.86385404  0.74908829  0.99502304  1
  S  S12  1  0.13278837  0.08834141  0.25963604  1
  S  S13  1  0.36723299  0.91165541  0.75962093  1
  S  S14  1  0.63270545  0.41166221  0.74045894  1
  S  S15  1  0.86727082  0.58833420  0.24043650  1
  S  S16  1  0.38466678  0.29657455  0.25888188  1
  S  S17  1  0.11533320  0.70343669  0.75890501  1
  S  S18  1  0.88466424  0.20347888  0.74108675  1
  S  S19  1  0.61533845  0.79652383  0.24108489  1
  S  S20  1  0.13869417  0.41235210  0.73492874  1
  S  S21  1  0.36132458  0.58764718  0.23490929  1
  S  S22  1  0.63861607  0.08767501  0.26510954  1
  S  S23  1  0.86136234  0.91231234  0.76506918  1
