# generated using pymatgen
data_Mn3Fe2Sb3O16
_symmetry_space_group_name_H-M   'P 1'
_cell_length_a   6.09133540
_cell_length_b   6.02947777
_cell_length_c   9.13789484
_cell_angle_alpha   89.99922799
_cell_angle_beta   89.46713415
_cell_angle_gamma   119.66555863
_symmetry_Int_Tables_number   1
_chemical_formula_structural   Mn3Fe2Sb3O16
_chemical_formula_sum   'Mn3 Fe2 Sb3 O16'
_cell_volume   291.60692930
_cell_formula_units_Z   1
loop_
 _symmetry_equiv_pos_site_id
 _symmetry_equiv_pos_as_xyz
  1  'x, y, z'
loop_
 _atom_site_type_symbol
 _atom_site_label
 _atom_site_symmetry_multiplicity
 _atom_site_fract_x
 _atom_site_fract_y
 _atom_site_fract_z
 _atom_site_occupancy
  Mn  Mn0  1  0.66041078  0.83023612  0.21400286  1
  Mn  Mn1  1  0.82793411  0.66178294  0.71028985  1
  Mn  Mn2  1  0.82790934  0.16613439  0.71029690  1
  Fe  Fe3  1  0.34779885  0.67391927  0.49852787  1
  Fe  Fe4  1  0.68745538  0.34373132  0.99059760  1
  Sb  Sb5  1  0.16425202  0.82957239  0.21153105  1
  Sb  Sb6  1  0.16427514  0.33470261  0.21153389  1
  Sb  Sb7  1  0.33081387  0.16542788  0.71175287  1
  O  O8  1  0.16444698  0.83337365  0.60426455  1
  O  O9  1  0.03781558  0.51889966  0.34417904  1
  O  O10  1  0.30589070  0.65295723  0.08758526  1
  O  O11  1  0.01994145  0.00997554  0.32597203  1
  O  O12  1  0.98645502  0.99322243  0.81412872  1
  O  O13  1  0.16443513  0.33110118  0.60426717  1
  O  O14  1  0.47459041  0.95369213  0.33498851  1
  O  O15  1  0.47462935  0.52097745  0.33497836  1
  O  O16  1  0.33097396  0.16550146  0.09497510  1
  O  O17  1  0.67281751  0.83640128  0.60533071  1
  O  O18  1  0.52937697  0.48412604  0.83501231  1
  O  O19  1  0.52933527  0.04524294  0.83501341  1
  O  O20  1  0.67391226  0.33695516  0.60059465  1
  O  O21  1  0.83675794  0.67091807  0.10447219  1
  O  O22  1  0.95101524  0.47549242  0.82694087  1
  O  O23  1  0.83675575  0.16585743  0.10448423  1
