# generated using pymatgen
data_LuNi5Sn
_symmetry_space_group_name_H-M   'P 1'
_cell_length_a   7.99034090
_cell_length_b   4.82242490
_cell_length_c   10.20599505
_cell_angle_alpha   90.00000775
_cell_angle_beta   89.99858148
_cell_angle_gamma   90.00007503
_symmetry_Int_Tables_number   1
_chemical_formula_structural   LuNi5Sn
_chemical_formula_sum   'Lu4 Ni20 Sn4'
_cell_volume   393.26575906
_cell_formula_units_Z   4
loop_
 _symmetry_equiv_pos_site_id
 _symmetry_equiv_pos_as_xyz
  1  'x, y, z'
loop_
 _atom_site_type_symbol
 _atom_site_label
 _atom_site_symmetry_multiplicity
 _atom_site_fract_x
 _atom_site_fract_y
 _atom_site_fract_z
 _atom_site_occupancy
  Lu  Lu0  1  0.74640167  0.24999644  0.56061724  1
  Lu  Lu1  1  0.75354798  0.74999917  0.06061337  1
  Lu  Lu2  1  0.24646386  0.24999948  0.93939129  1
  Lu  Lu3  1  0.25358778  0.74999804  0.43937589  1
  Ni  Ni4  1  0.41350085  0.25000048  0.48288690  1
  Ni  Ni5  1  0.08648328  0.74999923  0.98288563  1
  Ni  Ni6  1  0.91351800  0.24999818  0.01712059  1
  Ni  Ni7  1  0.58650680  0.75000354  0.51712079  1
  Ni  Ni8  1  0.68895031  0.74999917  0.74214999  1
  Ni  Ni9  1  0.81106167  0.25000543  0.24213662  1
  Ni  Ni10  1  0.18894724  0.75000452  0.75786371  1
  Ni  Ni11  1  0.31103927  0.24999848  0.25784587  1
  Ni  Ni12  1  0.04679902  0.25000249  0.40243441  1
  Ni  Ni13  1  0.45320572  0.74999732  0.90245191  1
  Ni  Ni14  1  0.54680282  0.24999876  0.09755578  1
  Ni  Ni15  1  0.95320034  0.75000203  0.59756643  1
  Ni  Ni16  1  0.56647782  0.99870658  0.30926390  1
  Ni  Ni17  1  0.93351756  0.00129359  0.80927808  1
  Ni  Ni18  1  0.06648327  0.50129220  0.19072234  1
  Ni  Ni19  1  0.43352228  0.49871587  0.69073486  1
  Ni  Ni20  1  0.43352243  0.00129373  0.69073244  1
  Ni  Ni21  1  0.06647889  0.99870575  0.19072383  1
  Ni  Ni22  1  0.93352028  0.49870781  0.80927633  1
  Ni  Ni23  1  0.56647593  0.50129127  0.30926434  1
  Sn  Sn24  1  0.13935050  0.25000118  0.63940563  1
  Sn  Sn25  1  0.36063291  0.74999930  0.13939663  1
  Sn  Sn26  1  0.63935808  0.24999884  0.86059176  1
  Sn  Sn27  1  0.86064643  0.74999913  0.36059043  1
