# generated using pymatgen
data_Lu3Ni7B2
_symmetry_space_group_name_H-M   'P 1'
_cell_length_a   4.98297811
_cell_length_b   4.98267651
_cell_length_c   14.14137069
_cell_angle_alpha   90.00030294
_cell_angle_beta   89.99810567
_cell_angle_gamma   120.00466050
_symmetry_Int_Tables_number   1
_chemical_formula_structural   Lu3Ni7B2
_chemical_formula_sum   'Lu6 Ni14 B4'
_cell_volume   304.05588419
_cell_formula_units_Z   2
loop_
 _symmetry_equiv_pos_site_id
 _symmetry_equiv_pos_as_xyz
  1  'x, y, z'
loop_
 _atom_site_type_symbol
 _atom_site_label
 _atom_site_symmetry_multiplicity
 _atom_site_fract_x
 _atom_site_fract_y
 _atom_site_fract_z
 _atom_site_occupancy
  Lu  Lu0  1  0.33335358  0.66667358  0.53277253  1
  Lu  Lu1  1  0.66667393  0.33332586  0.03271798  1
  Lu  Lu2  1  0.66666612  0.33335718  0.46728510  1
  Lu  Lu3  1  0.33332028  0.66665649  0.96721272  1
  Lu  Lu4  1  0.33330506  0.66669487  0.74999248  1
  Lu  Lu5  1  0.66668933  0.33331308  0.25001183  1
  Ni  Ni6  1  -0.00000145  0.00001151  0.99993267  1
  Ni  Ni7  1  0.99999026  0.00000984  0.50004730  1
  Ni  Ni8  1  0.16585567  0.33168268  0.14793100  1
  Ni  Ni9  1  0.83410420  0.66826918  0.64790544  1
  Ni  Ni10  1  0.66828646  0.83411713  0.14792444  1
  Ni  Ni11  1  0.16586473  0.83412595  0.14792962  1
  Ni  Ni12  1  0.83410848  0.16588114  0.64792211  1
  Ni  Ni13  1  0.33169602  0.16587520  0.64793317  1
  Ni  Ni14  1  0.83412418  0.66828527  0.85207969  1
  Ni  Ni15  1  0.83412319  0.16588898  0.85206861  1
  Ni  Ni16  1  0.33171161  0.16588117  0.85206117  1
  Ni  Ni17  1  0.66830324  0.83413439  0.35209397  1
  Ni  Ni18  1  0.16587879  0.83413451  0.35209000  1
  Ni  Ni19  1  0.16587510  0.33169590  0.35207815  1
  B  B20  1  0.33336442  0.66666103  0.25000782  1
  B  B21  1  0.66665408  0.33335791  0.74999614  1
  B  B22  1  0.00000684  0.99995247  0.24999900  1
  B  B23  1  0.99994290  0.00001168  0.75000709  1
