# generated using pymatgen
data_EuBi3
_symmetry_space_group_name_H-M   'P 1'
_cell_length_a   5.01229269
_cell_length_b   5.01252568
_cell_length_c   5.01202562
_cell_angle_alpha   90.00148614
_cell_angle_beta   90.00421028
_cell_angle_gamma   90.00095341
_symmetry_Int_Tables_number   1
_chemical_formula_structural   EuBi3
_chemical_formula_sum   'Eu1 Bi3'
_cell_volume   125.92336355
_cell_formula_units_Z   1
loop_
 _symmetry_equiv_pos_site_id
 _symmetry_equiv_pos_as_xyz
  1  'x, y, z'
loop_
 _atom_site_type_symbol
 _atom_site_label
 _atom_site_symmetry_multiplicity
 _atom_site_fract_x
 _atom_site_fract_y
 _atom_site_fract_z
 _atom_site_occupancy
  Eu  Eu0  1  0.00000003  -0.00000015  0.99999961  1
  Bi  Bi1  1  0.00000015  0.50000101  0.50000111  1
  Bi  Bi2  1  0.50000098  0.00000026  0.50000099  1
  Bi  Bi3  1  0.50000085  0.50000089  0.00000030  1
