# generated using pymatgen
data_GdAl3
_symmetry_space_group_name_H-M   'P 1'
_cell_length_a   6.34261477
_cell_length_b   6.34261432
_cell_length_c   4.64154321
_cell_angle_alpha   90.00000000
_cell_angle_beta   90.00000000
_cell_angle_gamma   120.00000230
_symmetry_Int_Tables_number   1
_chemical_formula_structural   GdAl3
_chemical_formula_sum   'Gd2 Al6'
_cell_volume   161.70731188
_cell_formula_units_Z   2
loop_
 _symmetry_equiv_pos_site_id
 _symmetry_equiv_pos_as_xyz
  1  'x, y, z'
loop_
 _atom_site_type_symbol
 _atom_site_label
 _atom_site_symmetry_multiplicity
 _atom_site_fract_x
 _atom_site_fract_y
 _atom_site_fract_z
 _atom_site_occupancy
  Gd  Gd0  1  0.66666600  0.33333200  0.25000000  1
  Gd  Gd1  1  0.33333300  0.66666600  0.75000000  1
  Al  Al2  1  0.85425238  0.14574562  0.75000000  1
  Al  Al3  1  0.29149424  0.14574562  0.75000000  1
  Al  Al4  1  0.85425238  0.70850476  0.75000000  1
  Al  Al5  1  0.14574762  0.85425238  0.25000000  1
  Al  Al6  1  0.70850476  0.85425238  0.25000000  1
  Al  Al7  1  0.14574662  0.29149424  0.25000000  1
