# generated using pymatgen
data_Lu2Mn12P7
_symmetry_space_group_name_H-M   'P 1'
_cell_length_a   9.22601733
_cell_length_b   9.22617480
_cell_length_c   3.57804534
_cell_angle_alpha   90.00000000
_cell_angle_beta   90.00000000
_cell_angle_gamma   119.99777112
_symmetry_Int_Tables_number   1
_chemical_formula_structural   Lu2Mn12P7
_chemical_formula_sum   'Lu2 Mn12 P7'
_cell_volume   263.76803843
_cell_formula_units_Z   1
loop_
 _symmetry_equiv_pos_site_id
 _symmetry_equiv_pos_as_xyz
  1  'x, y, z'
loop_
 _atom_site_type_symbol
 _atom_site_label
 _atom_site_symmetry_multiplicity
 _atom_site_fract_x
 _atom_site_fract_y
 _atom_site_fract_z
 _atom_site_occupancy
  Lu  Lu0  1  0.33328644  0.66670175  0.00000000  1
  Lu  Lu1  1  0.66676838  0.33333969  0.50000000  1
  Mn  Mn2  1  0.42780495  0.04828606  0.00000000  1
  Mn  Mn3  1  0.95167402  0.37945003  0.00000000  1
  Mn  Mn4  1  0.62056173  0.57216892  0.00000000  1
  Mn  Mn5  1  0.15748902  0.27704482  0.00000000  1
  Mn  Mn6  1  0.72292991  0.88048533  0.00000000  1
  Mn  Mn7  1  0.11956160  0.84243954  0.00000000  1
  Mn  Mn8  1  0.39186894  0.43638997  0.50000000  1
  Mn  Mn9  1  0.56352112  0.95550432  0.50000000  1
  Mn  Mn10  1  0.04452355  0.60814780  0.50000000  1
  Mn  Mn11  1  0.22164266  0.09908672  0.50000000  1
  Mn  Mn12  1  0.90088256  0.12254658  0.50000000  1
  Mn  Mn13  1  0.87749907  0.77839821  0.50000000  1
  P  P14  1  0.12804401  0.41081034  0.50000000  1
  P  P15  1  0.58923819  0.71734781  0.50000000  1
  P  P16  1  0.28262292  0.87191836  0.50000000  1
  P  P17  1  0.41120710  0.28754869  0.00000000  1
  P  P18  1  0.71241308  0.12360221  0.00000000  1
  P  P19  1  0.87645861  0.58881620  0.00000000  1
  P  P20  1  0.00000216  0.99996564  0.00000000  1
