# generated using pymatgen
data_GdGa3
_symmetry_space_group_name_H-M   'P 1'
_cell_length_a   6.31733652
_cell_length_b   6.31733635
_cell_length_c   4.59281021
_cell_angle_alpha   90.00000000
_cell_angle_beta   90.00000000
_cell_angle_gamma   120.00000091
_symmetry_Int_Tables_number   1
_chemical_formula_structural   GdGa3
_chemical_formula_sum   'Gd2 Ga6'
_cell_volume   158.73662389
_cell_formula_units_Z   2
loop_
 _symmetry_equiv_pos_site_id
 _symmetry_equiv_pos_as_xyz
  1  'x, y, z'
loop_
 _atom_site_type_symbol
 _atom_site_label
 _atom_site_symmetry_multiplicity
 _atom_site_fract_x
 _atom_site_fract_y
 _atom_site_fract_z
 _atom_site_occupancy
  Gd  Gd0  1  0.33333300  0.66666600  0.75000100  1
  Gd  Gd1  1  0.66666600  0.33333300  0.25000100  1
  Ga  Ga2  1  0.14740196  0.29480291  0.25000100  1
  Ga  Ga3  1  0.70519709  0.85259904  0.25000100  1
  Ga  Ga4  1  0.14740296  0.85259904  0.25000100  1
  Ga  Ga5  1  0.85259904  0.70519609  0.75000100  1
  Ga  Ga6  1  0.29480291  0.14740296  0.75000100  1
  Ga  Ga7  1  0.85259804  0.14740296  0.75000100  1
