# generated using pymatgen
data_Th3Au4
_symmetry_space_group_name_H-M   'P 1'
_cell_length_a   6.27228786
_cell_length_b   8.30299451
_cell_length_c   8.30299466
_cell_angle_alpha   113.88416395
_cell_angle_beta   104.58454375
_cell_angle_gamma   104.58454402
_symmetry_Int_Tables_number   1
_chemical_formula_structural   Th3Au4
_chemical_formula_sum   'Th6 Au8'
_cell_volume   350.73316389
_cell_formula_units_Z   2
loop_
 _symmetry_equiv_pos_site_id
 _symmetry_equiv_pos_as_xyz
  1  'x, y, z'
loop_
 _atom_site_type_symbol
 _atom_site_label
 _atom_site_symmetry_multiplicity
 _atom_site_fract_x
 _atom_site_fract_y
 _atom_site_fract_z
 _atom_site_occupancy
  Th  Th0  1  0.40409366  0.37793092  0.12069574  1
  Th  Th1  1  0.28339792  0.87930426  0.25723619  1
  Th  Th2  1  0.97383926  0.25723519  0.37793192  1
  Th  Th3  1  0.02616174  0.74276481  0.62206808  1
  Th  Th4  1  0.71660208  0.12069574  0.74276481  1
  Th  Th5  1  0.59590634  0.62206908  0.87930426  1
  Au  Au6  1  0.00000000  0.00000000  0.00000000  1
  Au  Au7  1  0.50000100  0.00000000  0.00000000  1
  Au  Au8  1  0.93253321  0.49432118  0.16144239  1
  Au  Au9  1  0.77109082  0.83855761  0.33287878  1
  Au  Au10  1  0.56178797  0.33287878  0.49432118  1
  Au  Au11  1  0.43821203  0.66712122  0.50567982  1
  Au  Au12  1  0.22890918  0.16144239  0.66712122  1
  Au  Au13  1  0.06746679  0.50567882  0.83855761  1
