# generated using pymatgen
data_LiZr2O4
_symmetry_space_group_name_H-M   'P 1'
_cell_length_a   6.44910065
_cell_length_b   6.44910065
_cell_length_c   6.44910065
_cell_angle_alpha   120.02636775
_cell_angle_beta   120.02636775
_cell_angle_gamma   89.95433578
_symmetry_Int_Tables_number   1
_chemical_formula_structural   LiZr2O4
_chemical_formula_sum   'Li2 Zr4 O8'
_cell_volume   189.58727991
_cell_formula_units_Z   2
loop_
 _symmetry_equiv_pos_site_id
 _symmetry_equiv_pos_as_xyz
  1  'x, y, z'
loop_
 _atom_site_type_symbol
 _atom_site_label
 _atom_site_symmetry_multiplicity
 _atom_site_fract_x
 _atom_site_fract_y
 _atom_site_fract_z
 _atom_site_occupancy
  Li  Li0  1  0.37500000  0.12500000  0.25000000  1
  Li  Li1  1  0.62500000  0.87500000  0.75000000  1
  Zr  Zr2  1  0.50000000  0.50000000  0.00000000  1
  Zr  Zr3  1  0.00000000  0.00000000  0.50000000  1
  Zr  Zr4  1  0.00000000  0.50000000  0.00000000  1
  Zr  Zr5  1  0.00000000  0.50000000  0.50000000  1
  O  O6  1  0.76231689  0.28728894  0.02468849  1
  O  O7  1  0.78728894  0.26260045  0.52497205  1
  O  O8  1  0.23762840  0.26231689  0.97502795  1
  O  O9  1  0.23739955  0.26237160  0.52468849  1
  O  O10  1  0.76260145  0.73762840  0.47531151  1
  O  O11  1  0.76237160  0.73768311  0.02497205  1
  O  O12  1  0.21271106  0.73739855  0.47502795  1
  O  O13  1  0.23768311  0.71271106  0.97531151  1
