# generated using pymatgen
data_Tm3ReB7
_symmetry_space_group_name_H-M   'P 1'
_cell_length_a   7.97497750
_cell_length_b   7.97497750
_cell_length_c   9.27318027
_cell_angle_alpha   90.00000000
_cell_angle_beta   90.00000000
_cell_angle_gamma   25.33437140
_symmetry_Int_Tables_number   1
_chemical_formula_structural   Tm3ReB7
_chemical_formula_sum   'Tm6 Re2 B14'
_cell_volume   252.36554678
_cell_formula_units_Z   2
loop_
 _symmetry_equiv_pos_site_id
 _symmetry_equiv_pos_as_xyz
  1  'x, y, z'
loop_
 _atom_site_type_symbol
 _atom_site_label
 _atom_site_symmetry_multiplicity
 _atom_site_fract_x
 _atom_site_fract_y
 _atom_site_fract_z
 _atom_site_occupancy
  Tm  Tm0  1  0.10570628  0.10570628  0.05957932  1
  Tm  Tm1  1  0.89429372  0.89429372  0.55957932  1
  Tm  Tm2  1  0.89429372  0.89429372  0.94042068  1
  Tm  Tm3  1  0.10570628  0.10570628  0.44042068  1
  Tm  Tm4  1  0.75673437  0.75673437  0.25000000  1
  Tm  Tm5  1  0.24326563  0.24326563  0.75000000  1
  Re  Re6  1  0.94777034  0.94777034  0.25000000  1
  Re  Re7  1  0.05222966  0.05222966  0.75000000  1
  B  B8  1  0.54579198  0.54579198  0.25000000  1
  B  B9  1  0.45420802  0.45420802  0.75000000  1
  B  B10  1  0.27251820  0.27251820  0.03363742  1
  B  B11  1  0.72748180  0.72748180  0.53363742  1
  B  B12  1  0.72748180  0.72748180  0.96636258  1
  B  B13  1  0.27251820  0.27251820  0.46636158  1
  B  B14  1  0.36747718  0.36747718  0.34981850  1
  B  B15  1  0.63252282  0.63252282  0.84981850  1
  B  B16  1  0.63252282  0.63252282  0.65018250  1
  B  B17  1  0.36747718  0.36747718  0.15018150  1
  B  B18  1  0.48013857  0.48013857  0.40547029  1
  B  B19  1  0.51986043  0.51986043  0.90547029  1
  B  B20  1  0.51986043  0.51986043  0.59452971  1
  B  B21  1  0.48013857  0.48013857  0.09452871  1
