# generated using pymatgen
data_UB4W
_symmetry_space_group_name_H-M   'P 1'
_cell_length_a   5.96250145
_cell_length_b   11.56467145
_cell_length_c   3.65618208
_cell_angle_alpha   90.00009581
_cell_angle_beta   90.00011152
_cell_angle_gamma   90.00414211
_symmetry_Int_Tables_number   1
_chemical_formula_structural   UB4W
_chemical_formula_sum   'U4 B16 W4'
_cell_volume   252.10973244
_cell_formula_units_Z   4
loop_
 _symmetry_equiv_pos_site_id
 _symmetry_equiv_pos_as_xyz
  1  'x, y, z'
loop_
 _atom_site_type_symbol
 _atom_site_label
 _atom_site_symmetry_multiplicity
 _atom_site_fract_x
 _atom_site_fract_y
 _atom_site_fract_z
 _atom_site_occupancy
  U  U0  1  0.12859221  0.15036264  0.00000348  1
  U  U1  1  0.87140068  0.84962857  -0.00000003  1
  U  U2  1  0.62859605  0.34967263  0.00000451  1
  U  U3  1  0.37139787  0.65033287  -0.00000212  1
  B  B4  1  0.47545807  0.19344636  0.50000060  1
  B  B5  1  0.52455585  0.80655042  0.50000149  1
  B  B6  1  0.97541263  0.30658094  0.50000034  1
  B  B7  1  0.02459006  0.69343054  0.50000015  1
  B  B8  1  0.36814226  0.46815530  0.49999958  1
  B  B9  1  0.63185694  0.53185439  0.50000186  1
  B  B10  1  0.86810997  0.03184451  0.50000070  1
  B  B11  1  0.13187492  0.96813828  0.50000033  1
  B  B12  1  0.29298834  0.31160237  0.50000069  1
  B  B13  1  0.70700671  0.68840596  0.49999946  1
  B  B14  1  0.79293580  0.18842336  0.50000053  1
  B  B15  1  0.20704583  0.81157166  0.50000059  1
  B  B16  1  0.38480414  0.04728915  0.50000154  1
  B  B17  1  0.61522467  0.95270185  0.50000120  1
  B  B18  1  0.88476454  0.45269913  0.50000045  1
  B  B19  1  0.11524541  0.54730530  0.50000008  1
  W  W20  1  0.13757475  0.40875335  0.00000195  1
  W  W21  1  0.86242644  0.59127111  0.99999835  1
  W  W22  1  0.63753506  0.09126785  0.00000019  1
  W  W23  1  0.36246681  0.90870843  0.00000007  1
