# generated using pymatgen
data_Ba5Cd2Sb5F
_symmetry_space_group_name_H-M   'P 1'
_cell_length_a   12.02281687
_cell_length_b   12.02281687
_cell_length_c   15.56175292
_cell_angle_alpha   90.00000000
_cell_angle_beta   90.00000000
_cell_angle_gamma   23.94395156
_symmetry_Int_Tables_number   1
_chemical_formula_structural   Ba5Cd2Sb5F
_chemical_formula_sum   'Ba10 Cd4 Sb10 F2'
_cell_volume   912.91178978
_cell_formula_units_Z   2
loop_
 _symmetry_equiv_pos_site_id
 _symmetry_equiv_pos_as_xyz
  1  'x, y, z'
loop_
 _atom_site_type_symbol
 _atom_site_label
 _atom_site_symmetry_multiplicity
 _atom_site_fract_x
 _atom_site_fract_y
 _atom_site_fract_z
 _atom_site_occupancy
  Ba  Ba0  1  0.00000000  0.00000000  0.00000000  1
  Ba  Ba1  1  0.00000000  0.00000000  0.50000000  1
  Ba  Ba2  1  0.09550233  0.09550233  0.25000000  1
  Ba  Ba3  1  0.90449867  0.90449867  0.75000100  1
  Ba  Ba4  1  0.89856110  0.89856110  0.25000000  1
  Ba  Ba5  1  0.10143890  0.10143890  0.75000100  1
  Ba  Ba6  1  0.27467523  0.27467523  0.61791505  1
  Ba  Ba7  1  0.72532477  0.72532477  0.11791405  1
  Ba  Ba8  1  0.72532477  0.72532477  0.38208595  1
  Ba  Ba9  1  0.27467523  0.27467523  0.88208595  1
  Cd  Cd10  1  0.36651694  0.36651694  0.08925036  1
  Cd  Cd11  1  0.63348306  0.63348306  0.58925036  1
  Cd  Cd12  1  0.63348306  0.63348306  0.91074964  1
  Cd  Cd13  1  0.36651694  0.36651694  0.41074964  1
  Sb  Sb14  1  0.49052840  0.49052840  0.15847434  1
  Sb  Sb15  1  0.50947160  0.50947160  0.65847334  1
  Sb  Sb16  1  0.50947160  0.50947160  0.84152566  1
  Sb  Sb17  1  0.49052840  0.49052840  0.34152566  1
  Sb  Sb18  1  0.29190736  0.29190736  0.25000000  1
  Sb  Sb19  1  0.70809264  0.70809264  0.75000100  1
  Sb  Sb20  1  0.14882307  0.14882307  0.01014906  1
  Sb  Sb21  1  0.85117693  0.85117693  0.51014806  1
  Sb  Sb22  1  0.85117693  0.85117693  0.98985194  1
  Sb  Sb23  1  0.14882307  0.14882307  0.48985094  1
  F  F24  1  0.65010411  0.65010411  0.25000000  1
  F  F25  1  0.34989589  0.34989589  0.75000100  1
