# generated using pymatgen
data_Mn3V2O10
_symmetry_space_group_name_H-M   'P 1'
_cell_length_a   5.04660709
_cell_length_b   5.46579377
_cell_length_c   7.80287974
_cell_angle_alpha   111.32647932
_cell_angle_beta   97.30002360
_cell_angle_gamma   103.27383985
_symmetry_Int_Tables_number   1
_chemical_formula_structural   Mn3V2O10
_chemical_formula_sum   'Mn3 V2 O10'
_cell_volume   189.80163052
_cell_formula_units_Z   1
loop_
 _symmetry_equiv_pos_site_id
 _symmetry_equiv_pos_as_xyz
  1  'x, y, z'
loop_
 _atom_site_type_symbol
 _atom_site_label
 _atom_site_symmetry_multiplicity
 _atom_site_fract_x
 _atom_site_fract_y
 _atom_site_fract_z
 _atom_site_occupancy
  Mn  Mn0  1  0.00000000  0.50000000  0.00000000  1
  Mn  Mn1  1  0.69479268  0.88439538  0.89995429  1
  Mn  Mn2  1  0.30520732  0.11560462  0.10004571  1
  V  V3  1  0.09916037  0.72017640  0.67522928  1
  V  V4  1  0.90083963  0.27982360  0.32477072  1
  O  O5  1  0.05648249  0.05944064  0.85368319  1
  O  O6  1  0.33679634  0.74737695  0.95559365  1
  O  O7  1  0.08124246  0.32941147  0.54391519  1
  O  O8  1  0.19613542  0.43377852  0.21642247  1
  O  O9  1  0.45131241  0.85159961  0.67972607  1
  O  O10  1  0.54868759  0.14840039  0.32027393  1
  O  O11  1  0.80386458  0.56622148  0.78357753  1
  O  O12  1  0.91875754  0.67058853  0.45608481  1
  O  O13  1  0.66320366  0.25262305  0.04440635  1
  O  O14  1  0.94351751  0.94055936  0.14631681  1
