# generated using pymatgen
data_UP3
_symmetry_space_group_name_H-M   'P 1'
_cell_length_a   5.40768422
_cell_length_b   5.40768432
_cell_length_c   5.23556798
_cell_angle_alpha   90.00000000
_cell_angle_beta   90.00000000
_cell_angle_gamma   119.99999324
_symmetry_Int_Tables_number   1
_chemical_formula_structural   UP3
_chemical_formula_sum   'U2 P6'
_cell_volume   132.59193819
_cell_formula_units_Z   2
loop_
 _symmetry_equiv_pos_site_id
 _symmetry_equiv_pos_as_xyz
  1  'x, y, z'
loop_
 _atom_site_type_symbol
 _atom_site_label
 _atom_site_symmetry_multiplicity
 _atom_site_fract_x
 _atom_site_fract_y
 _atom_site_fract_z
 _atom_site_occupancy
  U  U0  1  0.33333400  0.66666800  0.74999986  1
  U  U1  1  0.66666700  0.33333300  0.24999914  1
  P  P2  1  0.18198329  0.36396758  0.25000043  1
  P  P3  1  0.63603342  0.81801671  0.25000043  1
  P  P4  1  0.18198329  0.81801671  0.25000043  1
  P  P5  1  0.81801571  0.63603342  0.74999857  1
  P  P6  1  0.36396458  0.18198129  0.74999857  1
  P  P7  1  0.81801471  0.18198129  0.74999857  1
