# generated using pymatgen
data_LuNiB4
_symmetry_space_group_name_H-M   'P 1'
_cell_length_a   5.83950398
_cell_length_b   11.33214418
_cell_length_c   3.36240712
_cell_angle_alpha   89.99927556
_cell_angle_beta   89.99946194
_cell_angle_gamma   89.99959719
_symmetry_Int_Tables_number   1
_chemical_formula_structural   LuNiB4
_chemical_formula_sum   'Lu4 Ni4 B16'
_cell_volume   222.50426848
_cell_formula_units_Z   4
loop_
 _symmetry_equiv_pos_site_id
 _symmetry_equiv_pos_as_xyz
  1  'x, y, z'
loop_
 _atom_site_type_symbol
 _atom_site_label
 _atom_site_symmetry_multiplicity
 _atom_site_fract_x
 _atom_site_fract_y
 _atom_site_fract_z
 _atom_site_occupancy
  Lu  Lu0  1  0.12734299  0.15018483  -0.00002553  1
  Lu  Lu1  1  0.87264900  0.84981364  0.00000309  1
  Lu  Lu2  1  0.62734976  0.34981498  0.99999136  1
  Lu  Lu3  1  0.37265600  0.65018794  0.00001236  1
  Ni  Ni4  1  0.13449126  0.41125250  0.99999070  1
  Ni  Ni5  1  0.86549094  0.58874156  0.00003274  1
  Ni  Ni6  1  0.63450604  0.08873946  0.00000481  1
  Ni  Ni7  1  0.36552887  0.91125746  0.99997168  1
  B  B8  1  0.36314730  0.46728581  0.50000588  1
  B  B9  1  0.63684482  0.53271818  0.50000590  1
  B  B10  1  0.86313322  0.03271667  0.50000853  1
  B  B11  1  0.13685456  0.96728671  0.50000694  1
  B  B12  1  0.47848165  0.19200922  0.50001379  1
  B  B13  1  0.52152543  0.80798129  0.50000183  1
  B  B14  1  0.97847821  0.30798452  0.49999118  1
  B  B15  1  0.02152304  0.69202097  0.50000673  1
  B  B16  1  0.28586849  0.31473616  0.50000221  1
  B  B17  1  0.71412599  0.68527153  0.49999457  1
  B  B18  1  0.78585312  0.18526188  0.49999304  1
  B  B19  1  0.21413474  0.81473051  0.50000790  1
  B  B20  1  0.38620984  0.04768190  0.50000196  1
  B  B21  1  0.61379793  0.95232579  0.49999615  1
  B  B22  1  0.88620962  0.45231859  0.49999712  1
  B  B23  1  0.11379716  0.54767990  0.50000105  1
