# generated using pymatgen
data_LiPrGe2
_symmetry_space_group_name_H-M   'P 1'
_cell_length_a   7.85642305
_cell_length_b   3.99812403
_cell_length_c   10.79963609
_cell_angle_alpha   89.99980808
_cell_angle_beta   89.99998897
_cell_angle_gamma   89.99995453
_symmetry_Int_Tables_number   1
_chemical_formula_structural   LiPrGe2
_chemical_formula_sum   'Li4 Pr4 Ge8'
_cell_volume   339.22687013
_cell_formula_units_Z   4
loop_
 _symmetry_equiv_pos_site_id
 _symmetry_equiv_pos_as_xyz
  1  'x, y, z'
loop_
 _atom_site_type_symbol
 _atom_site_label
 _atom_site_symmetry_multiplicity
 _atom_site_fract_x
 _atom_site_fract_y
 _atom_site_fract_z
 _atom_site_occupancy
  Li  Li0  1  0.50926812  0.75000083  0.11103002  1
  Li  Li1  1  0.00926779  0.75000123  0.38897010  1
  Li  Li2  1  0.99073245  0.25000136  0.61102989  1
  Li  Li3  1  0.49073251  0.25000125  0.88897025  1
  Pr  Pr4  1  0.13971562  0.25000167  0.13411375  1
  Pr  Pr5  1  0.63971555  0.25000205  0.36588643  1
  Pr  Pr6  1  0.36028476  0.75000079  0.63411356  1
  Pr  Pr7  1  0.86028453  0.75000226  0.86588601  1
  Ge  Ge8  1  0.71962016  0.25000003  0.06683418  1
  Ge  Ge9  1  0.84281796  0.75000058  0.18338534  1
  Ge  Ge10  1  0.34281791  0.74999942  0.31661451  1
  Ge  Ge11  1  0.21962272  0.24999941  0.43316597  1
  Ge  Ge12  1  0.78037805  0.75000281  0.56683394  1
  Ge  Ge13  1  0.65718241  0.25000174  0.68338590  1
  Ge  Ge14  1  0.15718246  0.25000073  0.81661492  1
  Ge  Ge15  1  0.28037801  0.74999983  0.93316624  1
