# generated using pymatgen
data_MgRh3
_symmetry_space_group_name_H-M   'P 1'
_cell_length_a   2.78814934
_cell_length_b   5.20151142
_cell_length_c   4.76865267
_cell_angle_alpha   62.71667836
_cell_angle_beta   90.00000000
_cell_angle_gamma   74.45391432
_symmetry_Int_Tables_number   1
_chemical_formula_structural   MgRh3
_chemical_formula_sum   'Mg1 Rh3'
_cell_volume   58.60269745
_cell_formula_units_Z   1
loop_
 _symmetry_equiv_pos_site_id
 _symmetry_equiv_pos_as_xyz
  1  'x, y, z'
loop_
 _atom_site_type_symbol
 _atom_site_label
 _atom_site_symmetry_multiplicity
 _atom_site_fract_x
 _atom_site_fract_y
 _atom_site_fract_z
 _atom_site_occupancy
  Mg  Mg0  1  0.75000000  0.50000100  0.08551343  1
  Rh  Rh1  1  0.99607139  0.00785921  0.00030950  1
  Rh  Rh2  1  0.50392961  0.99214279  0.50816871  1
  Rh  Rh3  1  0.25000000  0.50000100  0.57267236  1
