# generated using pymatgen
data_Y11In9Ni4
_symmetry_space_group_name_H-M   'P 1'
_cell_length_a   13.10692666
_cell_length_b   13.10692666
_cell_length_c   3.65168621
_cell_angle_alpha   90.00000000
_cell_angle_beta   90.00000000
_cell_angle_gamma   66.85972534
_symmetry_Int_Tables_number   1
_chemical_formula_structural   Y11In9Ni4
_chemical_formula_sum   'Y11 In9 Ni4'
_cell_volume   576.85731885
_cell_formula_units_Z   1
loop_
 _symmetry_equiv_pos_site_id
 _symmetry_equiv_pos_as_xyz
  1  'x, y, z'
loop_
 _atom_site_type_symbol
 _atom_site_label
 _atom_site_symmetry_multiplicity
 _atom_site_fract_x
 _atom_site_fract_y
 _atom_site_fract_z
 _atom_site_occupancy
  Y  Y0  1  0.41550039  0.92200074  0.00000000  1
  Y  Y1  1  0.58449961  0.07799926  0.00000000  1
  Y  Y2  1  0.07799926  0.58449961  0.00000000  1
  Y  Y3  1  0.92200074  0.41550039  0.00000000  1
  Y  Y4  1  0.37477278  0.37477278  0.00000000  1
  Y  Y5  1  0.62522722  0.62522722  0.00000000  1
  Y  Y6  1  0.16173551  0.16173551  0.00000000  1
  Y  Y7  1  0.83826449  0.83826449  0.00000000  1
  Y  Y8  1  0.00000000  0.00000000  0.00000000  1
  Y  Y9  1  0.31200035  0.68800065  0.00000000  1
  Y  Y10  1  0.68800065  0.31200035  0.00000000  1
  In  In11  1  0.36936318  0.15913573  0.50000200  1
  In  In12  1  0.63063682  0.84086427  0.50000200  1
  In  In13  1  0.84086427  0.63063682  0.50000200  1
  In  In14  1  0.15913573  0.36936318  0.50000200  1
  In  In15  1  0.21888134  0.92351434  0.50000200  1
  In  In16  1  0.78111866  0.07648566  0.50000200  1
  In  In17  1  0.07648566  0.78111866  0.50000200  1
  In  In18  1  0.92351434  0.21888134  0.50000200  1
  In  In19  1  0.50000000  0.50000000  0.50000200  1
  Ni  Ni20  1  0.44891774  0.75305749  0.50000200  1
  Ni  Ni21  1  0.55108226  0.24694251  0.50000200  1
  Ni  Ni22  1  0.24694251  0.55108226  0.50000200  1
  Ni  Ni23  1  0.75305749  0.44891774  0.50000200  1
