# generated using pymatgen
data_Mn3Sn3(TeO8)2
_symmetry_space_group_name_H-M   'P 1'
_cell_length_a   6.33454055
_cell_length_b   6.24855780
_cell_length_c   9.32224837
_cell_angle_alpha   89.97963466
_cell_angle_beta   91.34446294
_cell_angle_gamma   119.55483331
_symmetry_Int_Tables_number   1
_chemical_formula_structural   Mn3Sn3(TeO8)2
_chemical_formula_sum   'Mn3 Sn3 Te2 O16'
_cell_volume   320.86417600
_cell_formula_units_Z   1
loop_
 _symmetry_equiv_pos_site_id
 _symmetry_equiv_pos_as_xyz
  1  'x, y, z'
loop_
 _atom_site_type_symbol
 _atom_site_label
 _atom_site_symmetry_multiplicity
 _atom_site_fract_x
 _atom_site_fract_y
 _atom_site_fract_z
 _atom_site_occupancy
  Mn  Mn0  1  0.66260350  0.83111644  0.20379711  1
  Mn  Mn1  1  0.83052150  0.66225334  0.70314171  1
  Mn  Mn2  1  0.83058349  0.16825901  0.70298800  1
  Sn  Sn3  1  0.17094629  0.83314054  0.20626402  1
  Sn  Sn4  1  0.17077964  0.33777365  0.20635985  1
  Sn  Sn5  1  0.33578738  0.16779891  0.70773751  1
  Te  Te6  1  0.34202169  0.67108472  0.48924805  1
  Te  Te7  1  0.67566762  0.33791881  0.98211409  1
  O  O8  1  0.18596872  0.82192176  0.59948071  1
  O  O9  1  0.04936590  0.52474425  0.35300057  1
  O  O10  1  0.32033377  0.66016186  0.09696136  1
  O  O11  1  0.00735274  0.00359259  0.29856016  1
  O  O12  1  0.99244671  0.99610907  0.78814323  1
  O  O13  1  0.18577768  0.36390101  0.59950930  1
  O  O14  1  0.46666041  0.94952274  0.35607945  1
  O  O15  1  0.46646659  0.51691766  0.35616410  1
  O  O16  1  0.36340439  0.18180915  0.10023968  1
  O  O17  1  0.64505239  0.82236222  0.60125231  1
  O  O18  1  0.51696673  0.47129699  0.85568445  1
  O  O19  1  0.51715150  0.04588761  0.85571736  1
  O  O20  1  0.67263071  0.33646638  0.60939101  1
  O  O21  1  0.82367660  0.63900505  0.09842900  1
  O  O22  1  0.94426379  0.47244417  0.84695963  1
  O  O23  1  0.82357025  0.18471307  0.09849934  1
