# generated using pymatgen
data_YGa3
_symmetry_space_group_name_H-M   'P 1'
_cell_length_a   6.30194568
_cell_length_b   6.30194530
_cell_length_c   4.58189580
_cell_angle_alpha   90.00000000
_cell_angle_beta   90.00000000
_cell_angle_gamma   119.99999654
_symmetry_Int_Tables_number   1
_chemical_formula_structural   YGa3
_chemical_formula_sum   'Y2 Ga6'
_cell_volume   157.58872435
_cell_formula_units_Z   2
loop_
 _symmetry_equiv_pos_site_id
 _symmetry_equiv_pos_as_xyz
  1  'x, y, z'
loop_
 _atom_site_type_symbol
 _atom_site_label
 _atom_site_symmetry_multiplicity
 _atom_site_fract_x
 _atom_site_fract_y
 _atom_site_fract_z
 _atom_site_occupancy
  Y  Y0  1  0.33333400  0.66666800  0.74999900  1
  Y  Y1  1  0.66666600  0.33333200  0.25000000  1
  Ga  Ga2  1  0.14762427  0.29524753  0.25000000  1
  Ga  Ga3  1  0.70475247  0.85237673  0.25000000  1
  Ga  Ga4  1  0.14762427  0.85237673  0.25000000  1
  Ga  Ga5  1  0.85237473  0.70475047  0.74999900  1
  Ga  Ga6  1  0.29524753  0.14762427  0.74999900  1
  Ga  Ga7  1  0.85237673  0.14762427  0.74999900  1
