# generated using pymatgen
data_YReB4
_symmetry_space_group_name_H-M   'P 1'
_cell_length_a   5.98823248
_cell_length_b   11.58496723
_cell_length_c   3.61929267
_cell_angle_alpha   90.00045979
_cell_angle_beta   89.99994617
_cell_angle_gamma   90.00093063
_symmetry_Int_Tables_number   1
_chemical_formula_structural   YReB4
_chemical_formula_sum   'Y4 Re4 B16'
_cell_volume   251.08291695
_cell_formula_units_Z   4
loop_
 _symmetry_equiv_pos_site_id
 _symmetry_equiv_pos_as_xyz
  1  'x, y, z'
loop_
 _atom_site_type_symbol
 _atom_site_label
 _atom_site_symmetry_multiplicity
 _atom_site_fract_x
 _atom_site_fract_y
 _atom_site_fract_z
 _atom_site_occupancy
  Y  Y0  1  0.12648446  0.15021431  0.00000219  1
  Y  Y1  1  0.87351563  0.84979638  0.00000311  1
  Y  Y2  1  0.62648390  0.34979516  0.00000548  1
  Y  Y3  1  0.37351601  0.65019483  0.00000909  1
  Re  Re4  1  0.13351699  0.41251016  0.99999796  1
  Re  Re5  1  0.86647460  0.58749673  0.00000476  1
  Re  Re6  1  0.63351722  0.08749907  0.00000428  1
  Re  Re7  1  0.36648548  0.91249782  0.99999469  1
  B  B8  1  0.47683338  0.19215985  0.50000147  1
  B  B9  1  0.52316826  0.80783901  0.50000043  1
  B  B10  1  0.97684071  0.30784298  0.50000048  1
  B  B11  1  0.02316207  0.69215728  0.50000227  1
  B  B12  1  0.28725270  0.31519986  0.50000121  1
  B  B13  1  0.71274578  0.68480153  0.49999946  1
  B  B14  1  0.78725900  0.18480358  0.50000433  1
  B  B15  1  0.21274225  0.81519458  0.49999913  1
  B  B16  1  0.36349463  0.46858515  0.49999990  1
  B  B17  1  0.63650428  0.53141344  0.50000186  1
  B  B18  1  0.86349698  0.03141531  0.50000401  1
  B  B19  1  0.13650128  0.96858579  0.49999891  1
  B  B20  1  0.38623553  0.04724995  0.49999941  1
  B  B21  1  0.61376644  0.95274871  0.50000049  1
  B  B22  1  0.88623372  0.45274818  0.49999960  1
  B  B23  1  0.11376468  0.54724934  0.49999747  1
