# generated using pymatgen
data_Y2Mg
_symmetry_space_group_name_H-M   'P 1'
_cell_length_a   3.70279929
_cell_length_b   8.83105802
_cell_length_c   5.49557069
_cell_angle_alpha   90.00000000
_cell_angle_beta   90.00000000
_cell_angle_gamma   77.89837134
_symmetry_Int_Tables_number   1
_chemical_formula_structural   Y2Mg
_chemical_formula_sum   'Y4 Mg2'
_cell_volume   175.70966432
_cell_formula_units_Z   2
loop_
 _symmetry_equiv_pos_site_id
 _symmetry_equiv_pos_as_xyz
  1  'x, y, z'
loop_
 _atom_site_type_symbol
 _atom_site_label
 _atom_site_symmetry_multiplicity
 _atom_site_fract_x
 _atom_site_fract_y
 _atom_site_fract_z
 _atom_site_occupancy
  Y  Y0  1  0.98050528  0.03898745  0.00000000  1
  Y  Y1  1  0.66282708  0.67434484  0.00000000  1
  Y  Y2  1  0.79727072  0.40545755  0.50000100  1
  Y  Y3  1  0.11494992  0.77009916  0.50000100  1
  Mg  Mg4  1  0.32270466  0.35459067  0.00000000  1
  Mg  Mg5  1  0.45507334  0.08985333  0.50000100  1
