# generated using pymatgen
data_Yb3GeO
_symmetry_space_group_name_H-M   'P 1'
_cell_length_a   6.59337101
_cell_length_b   6.57013875
_cell_length_c   6.58837721
_cell_angle_alpha   120.14203231
_cell_angle_beta   120.02506353
_cell_angle_gamma   90.00003601
_symmetry_Int_Tables_number   1
_chemical_formula_structural   Yb3GeO
_chemical_formula_sum   'Yb6 Ge2 O2'
_cell_volume   201.30026224
_cell_formula_units_Z   2
loop_
 _symmetry_equiv_pos_site_id
 _symmetry_equiv_pos_as_xyz
  1  'x, y, z'
loop_
 _atom_site_type_symbol
 _atom_site_label
 _atom_site_symmetry_multiplicity
 _atom_site_fract_x
 _atom_site_fract_y
 _atom_site_fract_z
 _atom_site_occupancy
  Yb  Yb0  1  0.28561199  0.74377726  0.49999826  1
  Yb  Yb1  1  0.71438557  0.24377685  0.49999837  1
  Yb  Yb2  1  0.77856428  0.24930294  0.03588178  1
  Yb  Yb3  1  0.24047186  0.23345333  0.96402859  1
  Yb  Yb4  1  0.22355568  0.73345318  0.96402799  1
  Yb  Yb5  1  0.75731640  0.74930229  0.03588112  1
  Ge  Ge6  1  0.24962373  0.24065503  0.50009948  1
  Ge  Ge7  1  0.75047545  0.74065507  0.50009966  1
  O  O8  1  0.50018666  0.99116862  0.99999653  1
  O  O9  1  0.99981038  0.49116843  0.99999621  1
