# generated using pymatgen
data_LuCd2
_symmetry_space_group_name_H-M   'P 1'
_cell_length_a   4.94506931
_cell_length_b   4.94599696
_cell_length_c   3.37182698
_cell_angle_alpha   89.93730171
_cell_angle_beta   90.11493410
_cell_angle_gamma   120.00563860
_symmetry_Int_Tables_number   1
_chemical_formula_structural   LuCd2
_chemical_formula_sum   'Lu1 Cd2'
_cell_volume   71.41617513
_cell_formula_units_Z   1
loop_
 _symmetry_equiv_pos_site_id
 _symmetry_equiv_pos_as_xyz
  1  'x, y, z'
loop_
 _atom_site_type_symbol
 _atom_site_label
 _atom_site_symmetry_multiplicity
 _atom_site_fract_x
 _atom_site_fract_y
 _atom_site_fract_z
 _atom_site_occupancy
  Lu  Lu0  1  0.99996600  0.99999900  0.00000000  1
  Cd  Cd1  1  0.33331497  0.66667727  0.48572643  1
  Cd  Cd2  1  0.66661503  0.33331873  0.51427057  1
