# generated using pymatgen
data_Yb3SiO
_symmetry_space_group_name_H-M   'P 1'
_cell_length_a   6.58224966
_cell_length_b   6.58157652
_cell_length_c   9.30770338
_cell_angle_alpha   90.03496365
_cell_angle_beta   45.02868091
_cell_angle_gamma   60.03212853
_symmetry_Int_Tables_number   1
_chemical_formula_structural   Yb3SiO
_chemical_formula_sum   'Yb6 Si2 O2'
_cell_volume   201.83579458
_cell_formula_units_Z   2
loop_
 _symmetry_equiv_pos_site_id
 _symmetry_equiv_pos_as_xyz
  1  'x, y, z'
loop_
 _atom_site_type_symbol
 _atom_site_label
 _atom_site_symmetry_multiplicity
 _atom_site_fract_x
 _atom_site_fract_y
 _atom_site_fract_z
 _atom_site_occupancy
  Yb  Yb0  1  0.96059499  0.52001887  0.26971230  1
  Yb  Yb1  1  0.03940549  0.48061692  0.73028797  1
  Yb  Yb2  1  0.49260556  0.00012327  0.76361962  1
  Yb  Yb3  1  0.49289419  0.50714274  0.24363175  1
  Yb  Yb4  1  0.50716737  0.00002122  0.23649821  1
  Yb  Yb5  1  0.50733515  0.49277241  0.75625540  1
  Si  Si6  1  0.00010736  0.99969181  0.24990007  1
  Si  Si7  1  -0.00010984  0.99980458  0.75009276  1
  O  O8  1  0.99999811  0.50000995  0.50000040  1
  O  O9  1  0.00000162  0.50001123  0.99999950  1
