# generated using pymatgen
data_LuRh3
_symmetry_space_group_name_H-M   'P 1'
_cell_length_a   4.01148005
_cell_length_b   4.01145929
_cell_length_c   4.01146825
_cell_angle_alpha   89.99986788
_cell_angle_beta   90.00082156
_cell_angle_gamma   89.99943796
_symmetry_Int_Tables_number   1
_chemical_formula_structural   LuRh3
_chemical_formula_sum   'Lu1 Rh3'
_cell_volume   64.55210145
_cell_formula_units_Z   1
loop_
 _symmetry_equiv_pos_site_id
 _symmetry_equiv_pos_as_xyz
  1  'x, y, z'
loop_
 _atom_site_type_symbol
 _atom_site_label
 _atom_site_symmetry_multiplicity
 _atom_site_fract_x
 _atom_site_fract_y
 _atom_site_fract_z
 _atom_site_occupancy
  Lu  Lu0  1  0.99999698  0.00000300  0.00000260  1
  Rh  Rh1  1  0.00000071  0.49999855  0.49999764  1
  Rh  Rh2  1  0.49999837  0.99999798  0.49999730  1
  Rh  Rh3  1  0.50000194  0.49999846  0.00000046  1
