# generated using pymatgen
data_Li5CrO4
_symmetry_space_group_name_H-M   'P 1'
_cell_length_a   9.12651536
_cell_length_b   9.17979092
_cell_length_c   9.46679553
_cell_angle_alpha   90.00000000
_cell_angle_beta   90.00000000
_cell_angle_gamma   90.00000000
_symmetry_Int_Tables_number   1
_chemical_formula_structural   Li5CrO4
_chemical_formula_sum   'Li40 Cr8 O32'
_cell_volume   793.12342292
_cell_formula_units_Z   8
loop_
 _symmetry_equiv_pos_site_id
 _symmetry_equiv_pos_as_xyz
  1  'x, y, z'
loop_
 _atom_site_type_symbol
 _atom_site_label
 _atom_site_symmetry_multiplicity
 _atom_site_fract_x
 _atom_site_fract_y
 _atom_site_fract_z
 _atom_site_occupancy
  Li  Li0  1  0.10855926  0.60758193  0.14113650  1
  Li  Li1  1  0.10855926  0.89241807  0.64113650  1
  Li  Li2  1  0.11473234  0.11175325  0.83973441  1
  Li  Li3  1  0.11473234  0.38824675  0.33973441  1
  Li  Li4  1  0.12501090  0.85154943  0.38034570  1
  Li  Li5  1  0.12501090  0.64845057  0.88034570  1
  Li  Li6  1  0.15041008  0.87200010  0.11403768  1
  Li  Li7  1  0.15041008  0.62799990  0.61403768  1
  Li  Li8  1  0.16116818  0.11555477  0.39389725  1
  Li  Li9  1  0.16116818  0.38444523  0.89389725  1
  Li  Li10  1  0.33883182  0.88444523  0.89389725  1
  Li  Li11  1  0.33883182  0.61555477  0.39389725  1
  Li  Li12  1  0.34958992  0.37200010  0.11403768  1
  Li  Li13  1  0.34958992  0.12799990  0.61403768  1
  Li  Li14  1  0.37498910  0.35154943  0.38034570  1
  Li  Li15  1  0.37498910  0.14845057  0.88034570  1
  Li  Li16  1  0.38526766  0.88824675  0.33973441  1
  Li  Li17  1  0.38526766  0.61175325  0.83973441  1
  Li  Li18  1  0.39144074  0.10758193  0.14113650  1
  Li  Li19  1  0.39144074  0.39241807  0.64113650  1
  Li  Li20  1  0.60855926  0.60758193  0.35886350  1
  Li  Li21  1  0.60855926  0.89241807  0.85886350  1
  Li  Li22  1  0.61473234  0.11175325  0.66026559  1
  Li  Li23  1  0.61473234  0.38824675  0.16026559  1
  Li  Li24  1  0.62501090  0.64845057  0.61965430  1
  Li  Li25  1  0.62501090  0.85154943  0.11965430  1
  Li  Li26  1  0.65041008  0.62799990  0.88596232  1
  Li  Li27  1  0.65041008  0.87200010  0.38596232  1
  Li  Li28  1  0.66116818  0.11555477  0.10610275  1
  Li  Li29  1  0.66116818  0.38444523  0.60610275  1
  Li  Li30  1  0.83883182  0.61555477  0.10610275  1
  Li  Li31  1  0.83883182  0.88444523  0.60610275  1
  Li  Li32  1  0.84958992  0.37200010  0.38596232  1
  Li  Li33  1  0.84958992  0.12799990  0.88596232  1
  Li  Li34  1  0.87498910  0.14845057  0.61965430  1
  Li  Li35  1  0.87498910  0.35154943  0.11965430  1
  Li  Li36  1  0.88526766  0.61175325  0.66026559  1
  Li  Li37  1  0.88526766  0.88824675  0.16026559  1
  Li  Li38  1  0.89144074  0.10758193  0.35886350  1
  Li  Li39  1  0.89144074  0.39241807  0.85886350  1
  Cr  Cr40  1  0.10826762  0.14768489  0.11926677  1
  Cr  Cr41  1  0.10826762  0.35231511  0.61926677  1
  Cr  Cr42  1  0.39173238  0.64768489  0.11926677  1
  Cr  Cr43  1  0.39173238  0.85231511  0.61926677  1
  Cr  Cr44  1  0.60826762  0.14768489  0.38073323  1
  Cr  Cr45  1  0.60826762  0.35231511  0.88073323  1
  Cr  Cr46  1  0.89173238  0.64768489  0.38073323  1
  Cr  Cr47  1  0.89173238  0.85231511  0.88073323  1
  O  O48  1  0.00456296  0.24936064  0.47645176  1
  O  O49  1  0.00456296  0.25063936  0.97645176  1
  O  O50  1  0.04037518  0.00224477  0.25328261  1
  O  O51  1  0.04037518  0.49775523  0.75328261  1
  O  O52  1  0.23592245  0.03516598  0.00016327  1
  O  O53  1  0.23592245  0.46483402  0.50016327  1
  O  O54  1  0.24557912  0.24065623  0.24478234  1
  O  O55  1  0.24557912  0.25934377  0.74478234  1
  O  O56  1  0.25442088  0.74065623  0.24478234  1
  O  O57  1  0.25442088  0.75934377  0.74478234  1
  O  O58  1  0.26407755  0.53516598  0.00016327  1
  O  O59  1  0.26407755  0.96483402  0.50016327  1
  O  O60  1  0.45962482  0.50224477  0.25328261  1
  O  O61  1  0.45962482  0.99775523  0.75328261  1
  O  O62  1  0.49543704  0.74936064  0.47645176  1
  O  O63  1  0.49543704  0.75063936  0.97645176  1
  O  O64  1  0.50456296  0.24936064  0.02354824  1
  O  O65  1  0.50456296  0.25063936  0.52354824  1
  O  O66  1  0.54037518  0.00224477  0.24671739  1
  O  O67  1  0.54037518  0.49775523  0.74671739  1
  O  O68  1  0.73592245  0.03516598  0.49983673  1
  O  O69  1  0.73592245  0.46483402  0.99983673  1
  O  O70  1  0.74557912  0.24065623  0.25521766  1
  O  O71  1  0.74557912  0.25934377  0.75521766  1
  O  O72  1  0.75442088  0.74065623  0.25521766  1
  O  O73  1  0.75442088  0.75934377  0.75521766  1
  O  O74  1  0.76407755  0.53516598  0.49983673  1
  O  O75  1  0.76407755  0.96483402  0.99983673  1
  O  O76  1  0.95962482  0.50224477  0.24671739  1
  O  O77  1  0.95962482  0.99775523  0.74671739  1
  O  O78  1  0.99543704  0.74936064  0.02354824  1
  O  O79  1  0.99543704  0.75063936  0.52354824  1
