# generated using pymatgen
data_Dy2Ge5Rh3
_symmetry_space_group_name_H-M   'P 1'
_cell_length_a   8.37766593
_cell_length_b   8.37768154
_cell_length_c   5.90790167
_cell_angle_alpha   71.11672176
_cell_angle_beta   108.88329495
_cell_angle_gamma   85.87338585
_symmetry_Int_Tables_number   1
_chemical_formula_structural   Dy2Ge5Rh3
_chemical_formula_sum   'Dy4 Ge10 Rh6'
_cell_volume   363.91386066
_cell_formula_units_Z   2
loop_
 _symmetry_equiv_pos_site_id
 _symmetry_equiv_pos_as_xyz
  1  'x, y, z'
loop_
 _atom_site_type_symbol
 _atom_site_label
 _atom_site_symmetry_multiplicity
 _atom_site_fract_x
 _atom_site_fract_y
 _atom_site_fract_z
 _atom_site_occupancy
  Dy  Dy0  1  0.40798287  0.86989907  0.26309633  1
  Dy  Dy1  1  0.86989850  0.40798391  0.23690347  1
  Dy  Dy2  1  0.59201700  0.13010028  0.73690303  1
  Dy  Dy3  1  0.13009985  0.59201796  0.76309717  1
  Ge  Ge4  1  0.51257725  0.51257682  0.24999789  1
  Ge  Ge5  1  0.48742230  0.48742272  0.75000111  1
  Ge  Ge6  1  0.20694783  0.20694751  0.25000007  1
  Ge  Ge7  1  0.79305105  0.79305236  0.74999893  1
  Ge  Ge8  1  0.73496365  0.07512514  0.33109843  1
  Ge  Ge9  1  0.07512453  0.73496348  0.16890186  1
  Ge  Ge10  1  0.26503621  0.92487454  0.66890121  1
  Ge  Ge11  1  0.92487614  0.26503538  0.83109849  1
  Ge  Ge12  1  0.77827484  0.77827442  0.24999863  1
  Ge  Ge13  1  0.22172492  0.22172534  0.75000037  1
  Rh  Rh14  1  0.45430099  0.26127324  0.12459282  1
  Rh  Rh15  1  0.26127166  0.45430193  0.37540738  1
  Rh  Rh16  1  0.54569952  0.73872672  0.87540940  1
  Rh  Rh17  1  0.73872830  0.54569857  0.62459040  1
  Rh  Rh18  1  0.00127320  0.00127277  0.24999969  1
  Rh  Rh19  1  0.99872539  0.99872582  0.74999931  1
