# generated using pymatgen
data_AcAg3
_symmetry_space_group_name_H-M   'P 1'
_cell_length_a   6.98183964
_cell_length_b   6.98190566
_cell_length_c   4.86305275
_cell_angle_alpha   90.00002578
_cell_angle_beta   89.99997852
_cell_angle_gamma   120.26280302
_symmetry_Int_Tables_number   1
_chemical_formula_structural   AcAg3
_chemical_formula_sum   'Ac2 Ag6'
_cell_volume   204.75158269
_cell_formula_units_Z   2
loop_
 _symmetry_equiv_pos_site_id
 _symmetry_equiv_pos_as_xyz
  1  'x, y, z'
loop_
 _atom_site_type_symbol
 _atom_site_label
 _atom_site_symmetry_multiplicity
 _atom_site_fract_x
 _atom_site_fract_y
 _atom_site_fract_z
 _atom_site_occupancy
  Ac  Ac0  1  0.33285965  0.66713727  0.74999900  1
  Ac  Ac1  1  0.66714035  0.33286173  0.24999900  1
  Ag  Ag2  1  0.14121418  0.28182077  0.25000000  1
  Ag  Ag3  1  0.71817759  0.85878279  0.25000000  1
  Ag  Ag4  1  0.14070139  0.85930312  0.25000000  1
  Ag  Ag5  1  0.85878482  0.71817923  0.75000100  1
  Ag  Ag6  1  0.28182241  0.14121821  0.75000100  1
  Ag  Ag7  1  0.85929961  0.14069688  0.75000100  1
