# generated using pymatgen
data_Yb2Ni12As7
_symmetry_space_group_name_H-M   'P 1'
_cell_length_a   9.35881844
_cell_length_b   9.36227206
_cell_length_c   3.79663445
_cell_angle_alpha   90.00000000
_cell_angle_beta   90.00000000
_cell_angle_gamma   120.01622651
_symmetry_Int_Tables_number   1
_chemical_formula_structural   Yb2Ni12As7
_chemical_formula_sum   'Yb2 Ni12 As7'
_cell_volume   288.04521196
_cell_formula_units_Z   1
loop_
 _symmetry_equiv_pos_site_id
 _symmetry_equiv_pos_as_xyz
  1  'x, y, z'
loop_
 _atom_site_type_symbol
 _atom_site_label
 _atom_site_symmetry_multiplicity
 _atom_site_fract_x
 _atom_site_fract_y
 _atom_site_fract_z
 _atom_site_occupancy
  Yb  Yb0  1  0.33328895  0.66666324  0.00000000  1
  Yb  Yb1  1  0.66653150  0.33309059  0.50000000  1
  Ni  Ni2  1  0.37462788  0.42423287  0.50000000  1
  Ni  Ni3  1  0.57570166  0.95005426  0.50000000  1
  Ni  Ni4  1  0.04934943  0.62526860  0.50000000  1
  Ni  Ni5  1  0.44002894  0.05486130  0.00000000  1
  Ni  Ni6  1  0.94494061  0.38512451  0.00000000  1
  Ni  Ni7  1  0.61470971  0.55986518  0.00000000  1
  Ni  Ni8  1  0.21288080  0.09594850  0.50000000  1
  Ni  Ni9  1  0.90398703  0.11697545  0.50000000  1
  Ni  Ni10  1  0.88313039  0.78727264  0.50000000  1
  Ni  Ni11  1  0.15206859  0.28089037  0.00000000  1
  Ni  Ni12  1  0.72001865  0.87142133  0.00000000  1
  Ni  Ni13  1  0.12851672  0.84814627  0.00000000  1
  As  As14  1  0.00052620  0.00052102  0.00000000  1
  As  As15  1  0.10950750  0.40963170  0.50000000  1
  As  As16  1  0.59047050  0.69999975  0.50000000  1
  As  As17  1  0.29990930  0.89036055  0.50000000  1
  As  As18  1  0.40392463  0.28416518  0.00000000  1
  As  As19  1  0.71573287  0.11946426  0.00000000  1
  As  As20  1  0.88014811  0.59604744  0.00000000  1
