# generated using pymatgen
data_Al(Ni3B2)4
_symmetry_space_group_name_H-M   'P 1'
_cell_length_a   8.96885403
_cell_length_b   8.96885403
_cell_length_c   14.55772270
_cell_angle_alpha   90.00000000
_cell_angle_beta   90.00000000
_cell_angle_gamma   72.03715023
_symmetry_Int_Tables_number   1
_chemical_formula_structural   Al(Ni3B2)4
_chemical_formula_sum   'Al6 Ni72 B48'
_cell_volume   1113.94840041
_cell_formula_units_Z   6
loop_
 _symmetry_equiv_pos_site_id
 _symmetry_equiv_pos_as_xyz
  1  'x, y, z'
loop_
 _atom_site_type_symbol
 _atom_site_label
 _atom_site_symmetry_multiplicity
 _atom_site_fract_x
 _atom_site_fract_y
 _atom_site_fract_z
 _atom_site_occupancy
  Al  Al0  1  0.00000000  0.00000000  0.00000000  1
  Al  Al1  1  0.50000000  0.50000000  0.50000100  1
  Al  Al2  1  0.23288789  0.23288789  0.26056005  1
  Al  Al3  1  0.26711111  0.26711111  0.76056105  1
  Al  Al4  1  0.76711111  0.76711111  0.73943995  1
  Al  Al5  1  0.73288889  0.73288889  0.23943895  1
  Ni  Ni6  1  0.07466263  0.07466263  0.42190484  1
  Ni  Ni7  1  0.42533837  0.42533837  0.92190584  1
  Ni  Ni8  1  0.92533837  0.92533837  0.57809516  1
  Ni  Ni9  1  0.57466263  0.57466263  0.07809516  1
  Ni  Ni10  1  0.86292067  0.86292067  0.12505862  1
  Ni  Ni11  1  0.63707933  0.63707933  0.62505862  1
  Ni  Ni12  1  0.13707933  0.13707933  0.87494038  1
  Ni  Ni13  1  0.36291967  0.36291967  0.37494138  1
  Ni  Ni14  1  0.11771892  0.11771892  0.13079323  1
  Ni  Ni15  1  0.38228008  0.38228008  0.63079223  1
  Ni  Ni16  1  0.88228008  0.88228008  0.86920777  1
  Ni  Ni17  1  0.61771892  0.61771892  0.36920777  1
  Ni  Ni18  1  0.48519254  0.98519154  0.25000000  1
  Ni  Ni19  1  0.01480746  0.51480746  0.75000000  1
  Ni  Ni20  1  0.51480746  0.01480746  0.75000000  1
  Ni  Ni21  1  0.98519154  0.48519254  0.25000000  1
  Ni  Ni22  1  0.20035671  0.53456660  0.49779947  1
  Ni  Ni23  1  0.29964329  0.96543440  0.99779947  1
  Ni  Ni24  1  0.46543340  0.79964329  0.50219953  1
  Ni  Ni25  1  0.03456660  0.70035671  0.00220053  1
  Ni  Ni26  1  0.79964329  0.46543340  0.50219953  1
  Ni  Ni27  1  0.70035671  0.03456660  0.00220053  1
  Ni  Ni28  1  0.53456660  0.20035671  0.49779947  1
  Ni  Ni29  1  0.96543440  0.29964329  0.99779947  1
  Ni  Ni30  1  0.15784012  0.82448099  0.13206641  1
  Ni  Ni31  1  0.34215988  0.67552001  0.63206741  1
  Ni  Ni32  1  0.17552001  0.84215988  0.86793259  1
  Ni  Ni33  1  0.32448099  0.65784012  0.36793259  1
  Ni  Ni34  1  0.84215988  0.17552001  0.86793259  1
  Ni  Ni35  1  0.65784012  0.32448099  0.36793259  1
  Ni  Ni36  1  0.82448099  0.15784012  0.13206641  1
  Ni  Ni37  1  0.67552001  0.34215988  0.63206741  1
  Ni  Ni38  1  0.02246406  0.75277007  0.26763242  1
  Ni  Ni39  1  0.47753594  0.74722993  0.76763242  1
  Ni  Ni40  1  0.24722993  0.97753594  0.73236758  1
  Ni  Ni41  1  0.25277007  0.52246406  0.23236658  1
  Ni  Ni42  1  0.97753594  0.24722993  0.73236758  1
  Ni  Ni43  1  0.52246406  0.25277007  0.23236658  1
  Ni  Ni44  1  0.75277007  0.02246406  0.26763242  1
  Ni  Ni45  1  0.74722993  0.47753594  0.76763242  1
  Ni  Ni46  1  0.06196331  0.79855156  0.43406048  1
  Ni  Ni47  1  0.43803569  0.70144744  0.93406048  1
  Ni  Ni48  1  0.20144744  0.93803569  0.56593952  1
  Ni  Ni49  1  0.29855156  0.56196331  0.06593852  1
  Ni  Ni50  1  0.93803569  0.20144744  0.56593952  1
  Ni  Ni51  1  0.56196331  0.29855156  0.06593852  1
  Ni  Ni52  1  0.79855156  0.06196331  0.43406048  1
  Ni  Ni53  1  0.70144744  0.43803569  0.93406048  1
  Ni  Ni54  1  0.21244774  0.95043299  0.27984256  1
  Ni  Ni55  1  0.28755026  0.54956701  0.77984256  1
  Ni  Ni56  1  0.04956601  0.78755126  0.72015744  1
  Ni  Ni57  1  0.45043199  0.71244974  0.22015744  1
  Ni  Ni58  1  0.78755126  0.04956601  0.72015744  1
  Ni  Ni59  1  0.71244974  0.45043199  0.22015744  1
  Ni  Ni60  1  0.95043299  0.21244774  0.27984256  1
  Ni  Ni61  1  0.54956701  0.28755026  0.77984256  1
  Ni  Ni62  1  0.34958251  0.08297084  0.41209670  1
  Ni  Ni63  1  0.15041749  0.41702916  0.91209570  1
  Ni  Ni64  1  0.91702916  0.65041749  0.58790330  1
  Ni  Ni65  1  0.58297084  0.84958251  0.08790330  1
  Ni  Ni66  1  0.65041749  0.91702916  0.58790330  1
  Ni  Ni67  1  0.84958251  0.58297084  0.08790330  1
  Ni  Ni68  1  0.08297084  0.34958251  0.41209670  1
  Ni  Ni69  1  0.41702916  0.15041749  0.91209570  1
  Ni  Ni70  1  0.89621814  0.62987473  0.39612020  1
  Ni  Ni71  1  0.60378086  0.87012527  0.89612020  1
  Ni  Ni72  1  0.37012427  0.10378086  0.60387880  1
  Ni  Ni73  1  0.12987573  0.39621914  0.10387980  1
  Ni  Ni74  1  0.10378086  0.37012427  0.60387880  1
  Ni  Ni75  1  0.39621914  0.12987573  0.10387980  1
  Ni  Ni76  1  0.62987473  0.89621814  0.39612020  1
  Ni  Ni77  1  0.87012527  0.60378086  0.89612020  1
  B  B78  1  0.82619857  0.82619857  0.48168112  1
  B  B79  1  0.67380143  0.67380143  0.98168112  1
  B  B80  1  0.17380143  0.17380143  0.51831888  1
  B  B81  1  0.32619857  0.32619857  0.01831888  1
  B  B82  1  0.70501504  0.70501504  0.49805958  1
  B  B83  1  0.79498396  0.79498396  0.99805958  1
  B  B84  1  0.29498396  0.29498396  0.50194042  1
  B  B85  1  0.20501504  0.20501504  0.00194042  1
  B  B86  1  0.72712966  0.27286934  0.50000100  1
  B  B87  1  0.77286834  0.22713066  0.00000000  1
  B  B88  1  0.27286934  0.72712966  0.50000100  1
  B  B89  1  0.22713066  0.77286834  0.00000000  1
  B  B90  1  0.26565943  0.88364396  0.42115922  1
  B  B91  1  0.23434057  0.61635504  0.92116022  1
  B  B92  1  0.11635504  0.73433957  0.57884078  1
  B  B93  1  0.38364496  0.76565843  0.07884078  1
  B  B94  1  0.73433957  0.11635504  0.57884078  1
  B  B95  1  0.76565843  0.38364496  0.07884078  1
  B  B96  1  0.88364396  0.26565943  0.42115922  1
  B  B97  1  0.61635504  0.23434057  0.92116022  1
  B  B98  1  0.99009138  0.99009138  0.20560336  1
  B  B99  1  0.50990862  0.50990862  0.70560336  1
  B  B100  1  0.00990862  0.00990862  0.79439664  1
  B  B101  1  0.49009138  0.49009138  0.29439764  1
  B  B102  1  0.97490285  0.97490285  0.32641402  1
  B  B103  1  0.52509815  0.52509815  0.82641402  1
  B  B104  1  0.02509715  0.02509715  0.67358698  1
  B  B105  1  0.47490185  0.47490185  0.17358598  1
  B  B106  1  0.85623876  0.85623876  0.36113997  1
  B  B107  1  0.64376024  0.64376024  0.86113997  1
  B  B108  1  0.14376024  0.14376024  0.63886103  1
  B  B109  1  0.35623876  0.35623876  0.13886003  1
  B  B110  1  0.33951087  0.93559675  0.15199512  1
  B  B111  1  0.16049013  0.56440225  0.65199512  1
  B  B112  1  0.06440325  0.66048913  0.84800488  1
  B  B113  1  0.43559775  0.83950987  0.34800588  1
  B  B114  1  0.66048913  0.06440325  0.84800488  1
  B  B115  1  0.83950987  0.43559775  0.34800588  1
  B  B116  1  0.93559675  0.33951087  0.15199512  1
  B  B117  1  0.56440225  0.16049013  0.65199512  1
  B  B118  1  0.13471159  0.55390769  0.35736540  1
  B  B119  1  0.36528841  0.94609231  0.85736540  1
  B  B120  1  0.44609131  0.86528841  0.64263460  1
  B  B121  1  0.05390769  0.63471159  0.14263460  1
  B  B122  1  0.86528841  0.44609131  0.64263460  1
  B  B123  1  0.63471159  0.05390769  0.14263460  1
  B  B124  1  0.55390769  0.13471159  0.35736540  1
  B  B125  1  0.94609231  0.36528841  0.85736540  1
