# generated using pymatgen
data_Li4Mn5FeO12
_symmetry_space_group_name_H-M   'P 1'
_cell_length_a   5.19787468
_cell_length_b   5.16074666
_cell_length_c   10.28459209
_cell_angle_alpha   89.97210750
_cell_angle_beta   89.94461697
_cell_angle_gamma   59.76172971
_symmetry_Int_Tables_number   1
_chemical_formula_structural   Li4Mn5FeO12
_chemical_formula_sum   'Li4 Mn5 Fe1 O12'
_cell_volume   238.34612853
_cell_formula_units_Z   1
loop_
 _symmetry_equiv_pos_site_id
 _symmetry_equiv_pos_as_xyz
  1  'x, y, z'
loop_
 _atom_site_type_symbol
 _atom_site_label
 _atom_site_symmetry_multiplicity
 _atom_site_fract_x
 _atom_site_fract_y
 _atom_site_fract_z
 _atom_site_occupancy
  Li  Li0  1  0.15443540  0.49848104  0.75109904  1
  Li  Li1  1  0.34708457  0.49848104  0.24890096  1
  Li  Li2  1  0.65291543  0.50151896  0.75109904  1
  Li  Li3  1  0.84556460  0.50151896  0.24890096  1
  Mn  Mn4  1  0.16395482  0.67209036  0.50000000  1
  Mn  Mn5  1  0.66307534  0.67384832  0.00000000  1
  Mn  Mn6  1  0.33692466  0.32615168  1.00000000  1
  Mn  Mn7  1  0.83604518  0.32790964  0.50000000  1
  Mn  Mn8  1  0.50000000  0.00000000  0.50000000  1
  Fe  Fe9  1  0.00000000  0.00000000  0.00000000  1
  O  O10  1  0.02123294  0.64576120  0.10640281  1
  O  O11  1  0.33300586  0.64576120  0.89359719  1
  O  O12  1  0.15752261  0.36386541  0.39271082  1
  O  O13  1  0.52138802  0.63613459  0.39271082  1
  O  O14  1  0.47861198  0.36386541  0.60728918  1
  O  O15  1  0.17387911  1.00000000  0.59150352  1
  O  O16  1  0.84247739  0.63613459  0.60728918  1
  O  O17  1  0.66699414  0.35423880  0.10640281  1
  O  O18  1  0.33771589  1.00000000  0.09567804  1
  O  O19  1  0.97876706  0.35423880  0.89359719  1
  O  O20  1  0.66228411  0.00000000  0.90432196  1
  O  O21  1  0.82612089  0.00000000  0.40849648  1
