# generated using pymatgen
data_Ti3Pb
_symmetry_space_group_name_H-M   'P 1'
_cell_length_a   5.99192279
_cell_length_b   5.99192268
_cell_length_c   4.80536607
_cell_angle_alpha   90.00000000
_cell_angle_beta   90.00000000
_cell_angle_gamma   120.00000068
_symmetry_Int_Tables_number   1
_chemical_formula_structural   Ti3Pb
_chemical_formula_sum   'Ti6 Pb2'
_cell_volume   149.41338853
_cell_formula_units_Z   2
loop_
 _symmetry_equiv_pos_site_id
 _symmetry_equiv_pos_as_xyz
  1  'x, y, z'
loop_
 _atom_site_type_symbol
 _atom_site_label
 _atom_site_symmetry_multiplicity
 _atom_site_fract_x
 _atom_site_fract_y
 _atom_site_fract_z
 _atom_site_occupancy
  Ti  Ti0  1  0.16046845  0.32093791  0.25000000  1
  Ti  Ti1  1  0.67906109  0.83953155  0.25000000  1
  Ti  Ti2  1  0.16047045  0.83953155  0.25000000  1
  Ti  Ti3  1  0.83953055  0.67906009  0.75000000  1
  Ti  Ti4  1  0.32093991  0.16047045  0.75000000  1
  Ti  Ti5  1  0.83953055  0.16047045  0.75000000  1
  Pb  Pb6  1  0.33333400  0.66666700  0.75000000  1
  Pb  Pb7  1  0.66666600  0.33333300  0.25000000  1
