# generated using pymatgen
data_KSr2Cd2Sb3
_symmetry_space_group_name_H-M   'P 1'
_cell_length_a   12.96770507
_cell_length_b   4.90539853
_cell_length_c   16.57581682
_cell_angle_alpha   90.00000000
_cell_angle_beta   90.00000000
_cell_angle_gamma   90.00000000
_symmetry_Int_Tables_number   1
_chemical_formula_structural   KSr2Cd2Sb3
_chemical_formula_sum   'K4 Sr8 Cd8 Sb12'
_cell_volume   1054.41690436
_cell_formula_units_Z   4
loop_
 _symmetry_equiv_pos_site_id
 _symmetry_equiv_pos_as_xyz
  1  'x, y, z'
loop_
 _atom_site_type_symbol
 _atom_site_label
 _atom_site_symmetry_multiplicity
 _atom_site_fract_x
 _atom_site_fract_y
 _atom_site_fract_z
 _atom_site_occupancy
  K  K0  1  0.40697706  0.25000100  0.54198931  1
  K  K1  1  0.09302294  0.75000000  0.04198931  1
  K  K2  1  0.90697706  0.25000100  0.95801069  1
  K  K3  1  0.59302294  0.75000000  0.45801069  1
  Sr  Sr4  1  0.36312908  0.25000100  0.27768285  1
  Sr  Sr5  1  0.13687092  0.75000000  0.77768285  1
  Sr  Sr6  1  0.86312908  0.25000100  0.22231715  1
  Sr  Sr7  1  0.63687192  0.75000000  0.72231715  1
  Sr  Sr8  1  0.10136508  0.25000100  0.42268876  1
  Sr  Sr9  1  0.39863492  0.75000000  0.92268876  1
  Sr  Sr10  1  0.60136608  0.25000100  0.07731124  1
  Sr  Sr11  1  0.89863492  0.75000000  0.57731124  1
  Cd  Cd12  1  0.30018305  0.25000100  0.07301547  1
  Cd  Cd13  1  0.19981695  0.75000000  0.57301547  1
  Cd  Cd14  1  0.80018405  0.25000100  0.42698453  1
  Cd  Cd15  1  0.69981595  0.75000000  0.92698353  1
  Cd  Cd16  1  0.37058690  0.25000100  0.77737526  1
  Cd  Cd17  1  0.12941310  0.75000000  0.27737526  1
  Cd  Cd18  1  0.87058590  0.25000100  0.72262574  1
  Cd  Cd19  1  0.62941410  0.75000000  0.22262474  1
  Sb  Sb20  1  0.12142044  0.25000100  0.18798224  1
  Sb  Sb21  1  0.37857956  0.75000000  0.68798224  1
  Sb  Sb22  1  0.62142044  0.25000100  0.31201676  1
  Sb  Sb23  1  0.87857956  0.75000000  0.81201676  1
  Sb  Sb24  1  0.71177930  0.25000100  0.58892247  1
  Sb  Sb25  1  0.78821970  0.75000000  0.08892247  1
  Sb  Sb26  1  0.21178030  0.25000100  0.91107753  1
  Sb  Sb27  1  0.28821970  0.75000000  0.41107753  1
  Sb  Sb28  1  0.07987097  0.25000100  0.62678086  1
  Sb  Sb29  1  0.42012803  0.75000000  0.12678086  1
  Sb  Sb30  1  0.57987197  0.25000100  0.87321914  1
  Sb  Sb31  1  0.92012803  0.75000000  0.37321914  1
