# generated using pymatgen
data_ErHg3
_symmetry_space_group_name_H-M   'P 1'
_cell_length_a   6.64595679
_cell_length_b   6.64595784
_cell_length_c   4.99209898
_cell_angle_alpha   90.00000000
_cell_angle_beta   90.00000000
_cell_angle_gamma   119.99999471
_symmetry_Int_Tables_number   1
_chemical_formula_structural   ErHg3
_chemical_formula_sum   'Er2 Hg6'
_cell_volume   190.95407811
_cell_formula_units_Z   2
loop_
 _symmetry_equiv_pos_site_id
 _symmetry_equiv_pos_as_xyz
  1  'x, y, z'
loop_
 _atom_site_type_symbol
 _atom_site_label
 _atom_site_symmetry_multiplicity
 _atom_site_fract_x
 _atom_site_fract_y
 _atom_site_fract_z
 _atom_site_occupancy
  Er  Er0  1  0.33333300  0.66666700  0.74999900  1
  Er  Er1  1  0.66666700  0.33333300  0.25000000  1
  Hg  Hg2  1  0.16690373  0.33380847  0.25000000  1
  Hg  Hg3  1  0.66619253  0.83309727  0.25000000  1
  Hg  Hg4  1  0.16690473  0.83309727  0.25000000  1
  Hg  Hg5  1  0.83309627  0.66619253  0.74999900  1
  Hg  Hg6  1  0.33380747  0.16690373  0.74999900  1
  Hg  Hg7  1  0.83309527  0.16690373  0.74999900  1
