# generated using pymatgen
data_La(ZnAs)3
_symmetry_space_group_name_H-M   'P 1'
_cell_length_a   12.71351101
_cell_length_b   4.14864592
_cell_length_c   11.53498265
_cell_angle_alpha   90.00000000
_cell_angle_beta   90.00000000
_cell_angle_gamma   90.00000000
_symmetry_Int_Tables_number   1
_chemical_formula_structural   La(ZnAs)3
_chemical_formula_sum   'La4 Zn12 As12'
_cell_volume   608.39945902
_cell_formula_units_Z   4
loop_
 _symmetry_equiv_pos_site_id
 _symmetry_equiv_pos_as_xyz
  1  'x, y, z'
loop_
 _atom_site_type_symbol
 _atom_site_label
 _atom_site_symmetry_multiplicity
 _atom_site_fract_x
 _atom_site_fract_y
 _atom_site_fract_z
 _atom_site_occupancy
  La  La0  1  0.33475829  0.24999900  0.94600223  1
  La  La1  1  0.16524271  0.75000000  0.44600223  1
  La  La2  1  0.83475729  0.24999900  0.55399777  1
  La  La3  1  0.66524271  0.75000000  0.05399777  1
  Zn  Zn4  1  0.45419506  0.24999900  0.23486614  1
  Zn  Zn5  1  0.04580394  0.75000000  0.73486614  1
  Zn  Zn6  1  0.95419406  0.24999900  0.26513486  1
  Zn  Zn7  1  0.54580494  0.75000000  0.76513486  1
  Zn  Zn8  1  0.27229763  0.24999900  0.65574908  1
  Zn  Zn9  1  0.22770237  0.75000000  0.15574908  1
  Zn  Zn10  1  0.77229763  0.24999900  0.84425092  1
  Zn  Zn11  1  0.72770237  0.75000000  0.34425092  1
  Zn  Zn12  1  0.06546328  0.24999900  0.03768923  1
  Zn  Zn13  1  0.43453572  0.75000000  0.53768923  1
  Zn  Zn14  1  0.56546428  0.24999900  0.46231177  1
  Zn  Zn15  1  0.93453572  0.75000000  0.96231177  1
  As  As16  1  0.35996629  0.24999900  0.43314157  1
  As  As17  1  0.14003371  0.75000000  0.93314257  1
  As  As18  1  0.85996629  0.24999900  0.06685843  1
  As  As19  1  0.64003471  0.75000000  0.56685743  1
  As  As20  1  0.15197752  0.24999900  0.24049077  1
  As  As21  1  0.34802248  0.75000000  0.74049177  1
  As  As22  1  0.65197752  0.24999900  0.25950823  1
  As  As23  1  0.84802248  0.75000000  0.75950823  1
  As  As24  1  0.07913952  0.24999900  0.61605753  1
  As  As25  1  0.42086048  0.75000000  0.11605753  1
  As  As26  1  0.57913952  0.24999900  0.88394247  1
  As  As27  1  0.92085948  0.75000000  0.38394247  1
