# generated using pymatgen
data_La2PC
_symmetry_space_group_name_H-M   'P 1'
_cell_length_a   8.92310292
_cell_length_b   8.89336670
_cell_length_c   9.05397750
_cell_angle_alpha   89.88164593
_cell_angle_beta   89.80950395
_cell_angle_gamma   90.27046076
_symmetry_Int_Tables_number   1
_chemical_formula_structural   La2PC
_chemical_formula_sum   'La16 P8 C8'
_cell_volume   718.47776713
_cell_formula_units_Z   8
loop_
 _symmetry_equiv_pos_site_id
 _symmetry_equiv_pos_as_xyz
  1  'x, y, z'
loop_
 _atom_site_type_symbol
 _atom_site_label
 _atom_site_symmetry_multiplicity
 _atom_site_fract_x
 _atom_site_fract_y
 _atom_site_fract_z
 _atom_site_occupancy
  La  La0  1  0.80788943  0.82180327  0.79226492  1
  La  La1  1  0.43223636  0.06352710  0.95579183  1
  La  La2  1  0.69540030  0.82271013  0.20795224  1
  La  La3  1  0.04902925  0.93808489  0.43676217  1
  La  La4  1  0.93831397  0.45870524  0.07072610  1
  La  La5  1  0.44623463  0.94412566  0.55117015  1
  La  La6  1  0.20566425  0.31450053  0.67926981  1
  La  La7  1  0.30510171  0.70255984  0.18603837  1
  La  La8  1  0.94076694  0.57134911  0.43913808  1
  La  La9  1  0.32748381  0.29016409  0.30799307  1
  La  La10  1  0.17914757  0.68920851  0.81674177  1
  La  La11  1  0.56247423  0.43267680  0.93110383  1
  La  La12  1  0.69215451  0.18532313  0.31024533  1
  La  La13  1  0.79329787  0.18939942  0.67608148  1
  La  La14  1  0.06169773  0.04190440  0.07036087  1
  La  La15  1  0.57158516  0.54792493  0.55850879  1
  P  P16  1  0.00507144  0.25891678  0.37502671  1
  P  P17  1  0.24539240  0.37687161  0.00039301  1
  P  P18  1  0.62820089  0.50136103  0.24170197  1
  P  P19  1  0.87865674  0.49938011  0.75348091  1
  P  P20  1  0.75454347  0.12839113  0.99715036  1
  P  P21  1  0.50053203  0.75368308  0.87462732  1
  P  P22  1  0.12429321  0.00585534  0.74697148  1
  P  P23  1  0.25936564  0.62557511  0.49993557  1
  C  C24  1  0.99227131  0.74818463  0.19957422  1
  C  C25  1  0.44956719  0.97768455  0.25007775  1
  C  C26  1  0.75179129  0.94768509  0.51585937  1
  C  C27  1  0.29744339  0.99776212  0.24790988  1
  C  C28  1  0.02502497  0.74569369  0.05222005  1
  C  C29  1  0.72515565  0.79663309  0.50496881  1
  C  C30  1  0.47771297  0.24701628  0.55062825  1
  C  C31  1  0.50150071  0.25034031  0.69931949  1
