# generated using pymatgen
data_Ta2BeO6
_symmetry_space_group_name_H-M   'P 1'
_cell_length_a   11.53034928
_cell_length_b   7.43095038
_cell_length_c   4.94265075
_cell_angle_alpha   90.00000000
_cell_angle_beta   90.00000000
_cell_angle_gamma   90.00000000
_symmetry_Int_Tables_number   1
_chemical_formula_structural   Ta2BeO6
_chemical_formula_sum   'Ta8 Be4 O24'
_cell_volume   423.49349973
_cell_formula_units_Z   4
loop_
 _symmetry_equiv_pos_site_id
 _symmetry_equiv_pos_as_xyz
  1  'x, y, z'
loop_
 _atom_site_type_symbol
 _atom_site_label
 _atom_site_symmetry_multiplicity
 _atom_site_fract_x
 _atom_site_fract_y
 _atom_site_fract_z
 _atom_site_occupancy
  Ta  Ta0  1  0.13296661  0.49646084  0.10552248  1
  Ta  Ta1  1  0.13296661  0.00353916  0.10552248  1
  Ta  Ta2  1  0.36703339  0.99646084  0.60552248  1
  Ta  Ta3  1  0.36703339  0.50353916  0.60552248  1
  Ta  Ta4  1  0.63296661  0.49646084  0.39447752  1
  Ta  Ta5  1  0.63296661  0.00353916  0.39447752  1
  Ta  Ta6  1  0.86703339  0.99646084  0.89447752  1
  Ta  Ta7  1  0.86703339  0.50353916  0.89447752  1
  Be  Be8  1  0.93852087  0.25000000  0.40080672  1
  Be  Be9  1  0.56147913  0.75000000  0.90080672  1
  Be  Be10  1  0.43852087  0.25000000  0.09919328  1
  Be  Be11  1  0.06147913  0.75000000  0.59919328  1
  O  O12  1  0.03445391  0.57567865  0.77191681  1
  O  O13  1  0.03445391  0.92432135  0.77191681  1
  O  O14  1  0.10330396  0.75000000  0.29576155  1
  O  O15  1  0.14053716  0.25000000  0.98798184  1
  O  O16  1  0.23118373  0.06594596  0.40623194  1
  O  O17  1  0.23118373  0.43405404  0.40623194  1
  O  O18  1  0.26881627  0.93405404  0.90623194  1
  O  O19  1  0.26881627  0.56594596  0.90623194  1
  O  O20  1  0.35946284  0.75000000  0.48798184  1
  O  O21  1  0.39669604  0.25000000  0.79576155  1
  O  O22  1  0.46554609  0.07567865  0.27191681  1
  O  O23  1  0.46554609  0.42432135  0.27191681  1
  O  O24  1  0.53445391  0.57567865  0.72808319  1
  O  O25  1  0.53445391  0.92432135  0.72808319  1
  O  O26  1  0.60330396  0.75000000  0.20423845  1
  O  O27  1  0.64053716  0.25000000  0.51201816  1
  O  O28  1  0.73118373  0.06594596  0.09376806  1
  O  O29  1  0.73118373  0.43405404  0.09376806  1
  O  O30  1  0.76881627  0.56594596  0.59376806  1
  O  O31  1  0.76881627  0.93405404  0.59376806  1
  O  O32  1  0.85946284  0.75000000  0.01201816  1
  O  O33  1  0.89669604  0.25000000  0.70423845  1
  O  O34  1  0.96554609  0.07567865  0.22808319  1
  O  O35  1  0.96554609  0.42432135  0.22808319  1
