# generated using pymatgen
data_UTa2S6Cl6O
_symmetry_space_group_name_H-M   'P 1'
_cell_length_a   6.98623335
_cell_length_b   9.67922244
_cell_length_c   12.87159663
_cell_angle_alpha   84.14986795
_cell_angle_beta   83.15207405
_cell_angle_gamma   88.78664922
_symmetry_Int_Tables_number   1
_chemical_formula_structural   UTa2S6Cl6O
_chemical_formula_sum   'U2 Ta4 S12 Cl12 O2'
_cell_volume   859.64827167
_cell_formula_units_Z   2
loop_
 _symmetry_equiv_pos_site_id
 _symmetry_equiv_pos_as_xyz
  1  'x, y, z'
loop_
 _atom_site_type_symbol
 _atom_site_label
 _atom_site_symmetry_multiplicity
 _atom_site_fract_x
 _atom_site_fract_y
 _atom_site_fract_z
 _atom_site_occupancy
  U  U0  1  0.23459138  0.40659103  0.09747765  1
  U  U1  1  0.76540862  0.59340897  0.90252235  1
  Ta  Ta2  1  0.22269776  0.05368535  0.22510976  1
  Ta  Ta3  1  0.77730124  0.94631365  0.77489024  1
  Ta  Ta4  1  0.35079732  0.30272139  0.36280340  1
  Ta  Ta5  1  0.64920268  0.69727861  0.63719760  1
  S  S6  1  0.07587404  0.13151125  0.40070440  1
  S  S7  1  0.92412696  0.86848975  0.59929560  1
  S  S8  1  0.17503559  0.12428921  0.04143227  1
  S  S9  1  0.82496441  0.87571179  0.95856773  1
  S  S10  1  0.95700103  0.19147049  0.15029087  1
  S  S11  1  0.04299797  0.80852951  0.84970913  1
  S  S12  1  0.38762871  0.53699586  0.26824097  1
  S  S13  1  0.61237029  0.46300514  0.73175903  1
  S  S14  1  0.10461895  0.47190228  0.30928967  1
  S  S15  1  0.89538105  0.52809872  0.69071033  1
  S  S16  1  0.34402220  0.03646501  0.40830592  1
  S  S17  1  0.65597780  0.96353399  0.59169508  1
  Cl  Cl18  1  0.40520032  0.65521721  0.00357836  1
  Cl  Cl19  1  0.59479768  0.34478179  0.99642164  1
  Cl  Cl20  1  0.49492352  0.06465585  0.83440864  1
  Cl  Cl21  1  0.50507648  0.93534415  0.16559136  1
  Cl  Cl22  1  0.30243556  0.34463620  0.53821734  1
  Cl  Cl23  1  0.69756444  0.65536380  0.46178266  1
  Cl  Cl24  1  0.69266138  0.29630645  0.35654013  1
  Cl  Cl25  1  0.30733862  0.70369355  0.64345987  1
  Cl  Cl26  1  0.10646209  0.42723756  0.89983533  1
  Cl  Cl27  1  0.89353791  0.57276344  0.10016467  1
  Cl  Cl28  1  0.02993703  0.85836048  0.26206649  1
  Cl  Cl29  1  0.97006297  0.14163852  0.73793451  1
  O  O30  1  0.35061526  0.24066173  0.21810482  1
  O  O31  1  0.64938374  0.75933927  0.78189518  1
