# generated using pymatgen
data_Er2(Ga3Co)3
_symmetry_space_group_name_H-M   'P 1'
_cell_length_a   7.33344242
_cell_length_b   7.33344242
_cell_length_c   9.35787566
_cell_angle_alpha   90.00000000
_cell_angle_beta   90.00000000
_cell_angle_gamma   119.79510124
_symmetry_Int_Tables_number   1
_chemical_formula_structural   Er2(Ga3Co)3
_chemical_formula_sum   'Er4 Ga18 Co6'
_cell_volume   436.73365834
_cell_formula_units_Z   2
loop_
 _symmetry_equiv_pos_site_id
 _symmetry_equiv_pos_as_xyz
  1  'x, y, z'
loop_
 _atom_site_type_symbol
 _atom_site_label
 _atom_site_symmetry_multiplicity
 _atom_site_fract_x
 _atom_site_fract_y
 _atom_site_fract_z
 _atom_site_occupancy
  Er  Er0  1  0.33116655  0.00296426  0.24999900  1
  Er  Er1  1  0.66883445  0.99703674  0.74999900  1
  Er  Er2  1  0.99703674  0.66883445  0.74999900  1
  Er  Er3  1  0.00296426  0.33116655  0.24999900  1
  Ga  Ga4  1  0.44835737  0.66336755  0.24999900  1
  Ga  Ga5  1  0.55164263  0.33663145  0.74999900  1
  Ga  Ga6  1  0.33663145  0.55164263  0.74999900  1
  Ga  Ga7  1  0.66336755  0.44835737  0.24999900  1
  Ga  Ga8  1  0.12039222  0.12039222  0.74999900  1
  Ga  Ga9  1  0.87960678  0.87960678  0.24999900  1
  Ga  Ga10  1  0.66670016  0.66670016  0.55909765  1
  Ga  Ga11  1  0.33329884  0.33329884  0.05909765  1
  Ga  Ga12  1  0.33329884  0.33329884  0.44090335  1
  Ga  Ga13  1  0.66670016  0.66670016  0.94090235  1
  Ga  Ga14  1  0.33429782  0.99949706  0.57326115  1
  Ga  Ga15  1  0.66570218  0.00050294  0.07326115  1
  Ga  Ga16  1  0.00050294  0.66570218  0.42673885  1
  Ga  Ga17  1  0.99949706  0.33429782  0.92673885  1
  Ga  Ga18  1  0.66570218  0.00050294  0.42673885  1
  Ga  Ga19  1  0.33429782  0.99949706  0.92673885  1
  Ga  Ga20  1  0.99949706  0.33429782  0.57326115  1
  Ga  Ga21  1  0.00050294  0.66570218  0.07326115  1
  Co  Co22  1  0.32881508  0.67118692  0.50000000  1
  Co  Co23  1  0.00000000  0.00000000  0.00000000  1
  Co  Co24  1  0.00000000  0.00000000  0.50000000  1
  Co  Co25  1  0.67118692  0.32881508  0.00000000  1
  Co  Co26  1  0.67118692  0.32881508  0.50000000  1
  Co  Co27  1  0.32881508  0.67118692  0.00000000  1
