# generated using pymatgen
data_Gd5(C2Cl)3
_symmetry_space_group_name_H-M   'P 1'
_cell_length_a   11.01013673
_cell_length_b   11.01013673
_cell_length_c   15.34676785
_cell_angle_alpha   57.50635591
_cell_angle_beta   122.49364409
_cell_angle_gamma   160.49719836
_symmetry_Int_Tables_number   1
_chemical_formula_structural   Gd5(C2Cl)3
_chemical_formula_sum   'Gd10 C12 Cl6'
_cell_volume   520.71500063
_cell_formula_units_Z   2
loop_
 _symmetry_equiv_pos_site_id
 _symmetry_equiv_pos_as_xyz
  1  'x, y, z'
loop_
 _atom_site_type_symbol
 _atom_site_label
 _atom_site_symmetry_multiplicity
 _atom_site_fract_x
 _atom_site_fract_y
 _atom_site_fract_z
 _atom_site_occupancy
  Gd  Gd0  1  0.17339518  0.82660482  0.38077271  1
  Gd  Gd1  1  0.82660482  0.17339518  0.61922729  1
  Gd  Gd2  1  0.83312203  0.16687897  0.39097708  1
  Gd  Gd3  1  0.16687897  0.83312203  0.60902192  1
  Gd  Gd4  1  0.49320381  0.50679619  0.10381986  1
  Gd  Gd5  1  0.50679719  0.49320381  0.89617914  1
  Gd  Gd6  1  0.16358965  0.83641035  0.13899321  1
  Gd  Gd7  1  0.83641035  0.16358965  0.86100779  1
  Gd  Gd8  1  0.49450426  0.50549674  0.38689802  1
  Gd  Gd9  1  0.50549674  0.49450326  0.61310198  1
  C  C10  1  0.03709669  0.96290331  0.53026116  1
  C  C11  1  0.96290431  0.03709669  0.46973884  1
  C  C12  1  0.69674539  0.30325461  0.27668058  1
  C  C13  1  0.30325461  0.69674639  0.72331942  1
  C  C14  1  0.03725493  0.96274607  0.02738383  1
  C  C15  1  0.96274607  0.03725493  0.97261617  1
  C  C16  1  0.62420795  0.37579305  0.22682888  1
  C  C17  1  0.37579205  0.62420795  0.77317212  1
  C  C18  1  0.62424356  0.37575644  0.46082759  1
  C  C19  1  0.37575744  0.62424356  0.53917241  1
  C  C20  1  0.30293592  0.69706408  0.48228367  1
  C  C21  1  0.69706408  0.30293592  0.51771733  1
  Cl  Cl22  1  0.32798479  0.67201621  0.24730700  1
  Cl  Cl23  1  0.67201521  0.32798479  0.75269300  1
  Cl  Cl24  1  0.66888466  0.33111634  0.00977809  1
  Cl  Cl25  1  0.33111534  0.66888466  0.99022091  1
  Cl  Cl26  1  0.96982416  0.03017684  0.22723345  1
  Cl  Cl27  1  0.03017684  0.96982416  0.77276555  1
