# generated using pymatgen
data_La3NiBr3
_symmetry_space_group_name_H-M   'P 1'
_cell_length_a   10.41581176
_cell_length_b   10.41581176
_cell_length_c   10.41581176
_cell_angle_alpha   108.12128053
_cell_angle_beta   108.12128053
_cell_angle_gamma   112.20620854
_symmetry_Int_Tables_number   1
_chemical_formula_structural   La3NiBr3
_chemical_formula_sum   'La12 Ni4 Br12'
_cell_volume   868.38192966
_cell_formula_units_Z   4
loop_
 _symmetry_equiv_pos_site_id
 _symmetry_equiv_pos_as_xyz
  1  'x, y, z'
loop_
 _atom_site_type_symbol
 _atom_site_label
 _atom_site_symmetry_multiplicity
 _atom_site_fract_x
 _atom_site_fract_y
 _atom_site_fract_z
 _atom_site_occupancy
  La  La0  1  0.61242810  0.38757090  0.00000000  1
  La  La1  1  0.38757090  0.61242810  0.00000000  1
  La  La2  1  0.13757090  0.63757090  0.27514280  1
  La  La3  1  0.36242910  0.86242910  0.72485820  1
  La  La4  1  0.40222203  0.40762843  0.26299469  1
  La  La5  1  0.14463274  0.13922734  0.73700531  1
  La  La6  1  0.34777797  0.11077266  0.50540540  1
  La  La7  1  0.60536626  0.84237157  0.49459360  1
  La  La8  1  0.59237257  0.59777897  0.73700531  1
  La  La9  1  0.86077266  0.85536626  0.26299469  1
  La  La10  1  0.88922734  0.65222203  0.49459360  1
  La  La11  1  0.15762743  0.39463274  0.50540540  1
  Ni  Ni12  1  0.62696158  0.62696158  0.25392316  1
  Ni  Ni13  1  0.37303842  0.37303842  0.74607584  1
  Ni  Ni14  1  0.12303842  0.87696258  0.50000100  1
  Ni  Ni15  1  0.37696158  0.62303842  0.50000000  1
  Br  Br16  1  0.63396045  0.36604055  0.50000100  1
  Br  Br17  1  0.86603955  0.13396045  0.50000000  1
  Br  Br18  1  0.11603955  0.11603955  0.23208010  1
  Br  Br19  1  0.88396045  0.88396045  0.76792090  1
  Br  Br20  1  0.63666125  0.89156454  0.00095338  1
  Br  Br21  1  0.89061016  0.63570687  -0.00095438  1
  Br  Br22  1  0.11333875  0.61429213  0.75490429  1
  Br  Br23  1  0.85939084  0.35843646  0.24509771  1
  Br  Br24  1  0.10843546  0.36333875  -0.00095438  1
  Br  Br25  1  0.36429313  0.10938984  0.00095338  1
  Br  Br26  1  0.38570787  0.88666125  0.24509771  1
  Br  Br27  1  0.64156554  0.14061116  0.75490429  1
