# generated using pymatgen
data_SrSn3Sb4
_symmetry_space_group_name_H-M   'P 1'
_cell_length_a   10.17618034
_cell_length_b   4.44551671
_cell_length_c   23.28424150
_cell_angle_alpha   90.00000000
_cell_angle_beta   90.00000000
_cell_angle_gamma   90.00000000
_symmetry_Int_Tables_number   1
_chemical_formula_structural   SrSn3Sb4
_chemical_formula_sum   'Sr4 Sn12 Sb16'
_cell_volume   1053.34135906
_cell_formula_units_Z   4
loop_
 _symmetry_equiv_pos_site_id
 _symmetry_equiv_pos_as_xyz
  1  'x, y, z'
loop_
 _atom_site_type_symbol
 _atom_site_label
 _atom_site_symmetry_multiplicity
 _atom_site_fract_x
 _atom_site_fract_y
 _atom_site_fract_z
 _atom_site_occupancy
  Sr  Sr0  1  0.93801687  0.74999900  0.87031637  1
  Sr  Sr1  1  0.56198313  0.25000000  0.37031637  1
  Sr  Sr2  1  0.43801687  0.74999900  0.62968363  1
  Sr  Sr3  1  0.06198313  0.25000000  0.12968363  1
  Sn  Sn4  1  0.72311940  0.74999900  0.74882841  1
  Sn  Sn5  1  0.77688060  0.25000000  0.24882841  1
  Sn  Sn6  1  0.22311940  0.74999900  0.75117159  1
  Sn  Sn7  1  0.27688060  0.25000000  0.25117159  1
  Sn  Sn8  1  0.64450427  0.74999900  0.98948071  1
  Sn  Sn9  1  0.85549573  0.25000000  0.48948071  1
  Sn  Sn10  1  0.14450427  0.74999900  0.51051929  1
  Sn  Sn11  1  0.35549473  0.25000000  0.01051929  1
  Sn  Sn12  1  0.54396851  0.74999900  0.14953679  1
  Sn  Sn13  1  0.95603149  0.25000000  0.64953679  1
  Sn  Sn14  1  0.04396851  0.74999900  0.35046321  1
  Sn  Sn15  1  0.45603149  0.25000000  0.85046321  1
  Sb  Sb16  1  0.42754714  0.74999900  0.47119303  1
  Sb  Sb17  1  0.07245386  0.25000000  0.97119303  1
  Sb  Sb18  1  0.92754614  0.74999900  0.02880697  1
  Sb  Sb19  1  0.57245286  0.25000000  0.52880697  1
  Sb  Sb20  1  0.96763630  0.74999900  0.23182997  1
  Sb  Sb21  1  0.53236370  0.25000000  0.73182997  1
  Sb  Sb22  1  0.46763730  0.74999900  0.26817003  1
  Sb  Sb23  1  0.03236370  0.25000000  0.76817003  1
  Sb  Sb24  1  0.78628299  0.74999900  0.62302940  1
  Sb  Sb25  1  0.71371701  0.25000000  0.12302940  1
  Sb  Sb26  1  0.28628199  0.74999900  0.87697060  1
  Sb  Sb27  1  0.21371701  0.25000000  0.37697060  1
  Sb  Sb28  1  0.79733224  0.74999900  0.40814274  1
  Sb  Sb29  1  0.70266776  0.25000000  0.90814274  1
  Sb  Sb30  1  0.29733124  0.74999900  0.09185726  1
  Sb  Sb31  1  0.20266776  0.25000000  0.59185726  1
