# generated using pymatgen
data_Pm3Sn
_symmetry_space_group_name_H-M   'P 1'
_cell_length_a   4.93334529
_cell_length_b   4.93352602
_cell_length_c   4.93345894
_cell_angle_alpha   90.00021590
_cell_angle_beta   90.00014831
_cell_angle_gamma   90.00124314
_symmetry_Int_Tables_number   1
_chemical_formula_structural   Pm3Sn
_chemical_formula_sum   'Pm3 Sn1'
_cell_volume   120.07440804
_cell_formula_units_Z   1
loop_
 _symmetry_equiv_pos_site_id
 _symmetry_equiv_pos_as_xyz
  1  'x, y, z'
loop_
 _atom_site_type_symbol
 _atom_site_label
 _atom_site_symmetry_multiplicity
 _atom_site_fract_x
 _atom_site_fract_y
 _atom_site_fract_z
 _atom_site_occupancy
  Pm  Pm0  1  0.00000075  0.50000089  0.50000045  1
  Pm  Pm1  1  0.50000056  0.00000045  0.50000048  1
  Pm  Pm2  1  0.50000143  0.50000016  -0.00000011  1
  Sn  Sn3  1  0.99999926  0.00000051  0.00000118  1
