# generated using pymatgen
data_Li2Zr2(PO4)3
_symmetry_space_group_name_H-M   'P 1'
_cell_length_a   8.93796168
_cell_length_b   8.90929317
_cell_length_c   8.93796118
_cell_angle_alpha   60.96585200
_cell_angle_beta   62.75402956
_cell_angle_gamma   60.96585540
_symmetry_Int_Tables_number   1
_chemical_formula_structural   Li2Zr2(PO4)3
_chemical_formula_sum   'Li4 Zr4 P6 O24'
_cell_volume   520.58571237
_cell_formula_units_Z   2
loop_
 _symmetry_equiv_pos_site_id
 _symmetry_equiv_pos_as_xyz
  1  'x, y, z'
loop_
 _atom_site_type_symbol
 _atom_site_label
 _atom_site_symmetry_multiplicity
 _atom_site_fract_x
 _atom_site_fract_y
 _atom_site_fract_z
 _atom_site_occupancy
  Li  Li0  1  0.17247040  0.95801916  0.80881921  1
  Li  Li1  1  0.30881921  0.45801916  0.67247040  1
  Li  Li2  1  0.69118079  0.54198084  0.32752960  1
  Li  Li3  1  0.82752960  0.04198084  0.19118079  1
  Zr  Zr4  1  0.14257618  0.14409390  0.13952595  1
  Zr  Zr5  1  0.36047405  0.35590610  0.35742382  1
  Zr  Zr6  1  0.63952595  0.64409390  0.64257618  1
  Zr  Zr7  1  0.85742382  0.85590610  0.86047405  1
  P  P8  1  0.03789273  0.75000000  0.46210727  1
  P  P9  1  0.55318198  0.95903652  0.24360585  1
  P  P10  1  0.25639415  0.54096348  0.94681802  1
  P  P11  1  0.74360585  0.45903652  0.05318198  1
  P  P12  1  0.44681802  0.04096348  0.75639415  1
  P  P13  1  0.96210727  0.25000000  0.53789273  1
  O  O14  1  0.04861945  0.91132431  0.28149841  1
  O  O15  1  0.00511333  0.80040855  0.61975103  1
  O  O16  1  0.10730756  0.73225211  0.92791397  1
  O  O17  1  0.39420046  0.01386294  0.18267161  1
  O  O18  1  0.46580590  0.89865716  0.68982182  1
  O  O19  1  0.21850159  0.58867569  0.45138055  1
  O  O20  1  0.57208603  0.76774789  0.39269244  1
  O  O21  1  0.73384378  0.94500125  0.09149320  1
  O  O22  1  0.31732839  0.48613706  0.10579954  1
  O  O23  1  0.11975103  0.30040855  0.50511333  1
  O  O24  1  0.18982182  0.39865716  0.96580590  1
  O  O25  1  0.40850680  0.55499875  0.76615622  1
  O  O26  1  0.59149320  0.44500125  0.23384378  1
  O  O27  1  0.88024897  0.69959145  0.49488667  1
  O  O28  1  0.81017818  0.60134284  0.03419410  1
  O  O29  1  0.68267161  0.51386294  0.89420046  1
  O  O30  1  0.26615622  0.05499875  0.90850680  1
  O  O31  1  0.42791397  0.23225211  0.60730756  1
  O  O32  1  0.78149841  0.41132431  0.54861945  1
  O  O33  1  0.53419410  0.10134284  0.31017818  1
  O  O34  1  0.60579954  0.98613706  0.81732839  1
  O  O35  1  0.89269244  0.26774789  0.07208603  1
  O  O36  1  0.99488667  0.19959145  0.38024897  1
  O  O37  1  0.95138055  0.08867569  0.71850159  1
