# generated using pymatgen
data_SmAgAs2
_symmetry_space_group_name_H-M   'P 1'
_cell_length_a   4.03215181
_cell_length_b   4.05998092
_cell_length_c   21.21717280
_cell_angle_alpha   90.00000000
_cell_angle_beta   90.00000000
_cell_angle_gamma   89.96918493
_symmetry_Int_Tables_number   1
_chemical_formula_structural   SmAgAs2
_chemical_formula_sum   'Sm4 Ag4 As8'
_cell_volume   347.33481536
_cell_formula_units_Z   4
loop_
 _symmetry_equiv_pos_site_id
 _symmetry_equiv_pos_as_xyz
  1  'x, y, z'
loop_
 _atom_site_type_symbol
 _atom_site_label
 _atom_site_symmetry_multiplicity
 _atom_site_fract_x
 _atom_site_fract_y
 _atom_site_fract_z
 _atom_site_occupancy
  Sm  Sm0  1  0.24978019  0.72978488  0.11525870  1
  Sm  Sm1  1  0.74978119  0.22978588  0.38474130  1
  Sm  Sm2  1  0.25021781  0.77021412  0.61525870  1
  Sm  Sm3  1  0.75021881  0.27021512  0.88474130  1
  Ag  Ag4  1  0.74992872  0.72779580  0.24998256  1
  Ag  Ag5  1  0.24992772  0.22779680  0.25001744  1
  Ag  Ag6  1  0.75007128  0.77220320  0.74998256  1
  Ag  Ag7  1  0.25007328  0.27220420  0.75001744  1
  As  As8  1  0.74988289  0.22792805  0.15858358  1
  As  As9  1  0.24988489  0.72792705  0.34141642  1
  As  As10  1  0.75011711  0.27207295  0.65858358  1
  As  As11  1  0.25011611  0.77207195  0.84141642  1
  As  As12  1  0.25029334  0.20576735  0.00140534  1
  As  As13  1  0.75029334  0.70576835  0.49859466  1
  As  As14  1  0.24970766  0.29423165  0.50140534  1
  As  As15  1  0.74970566  0.79423265  0.99859466  1
