# generated using pymatgen
data_Pr4Ge7
_symmetry_space_group_name_H-M   'P 1'
_cell_length_a   6.08242416
_cell_length_b   7.69547255
_cell_length_c   12.16882022
_cell_angle_alpha   90.00000000
_cell_angle_beta   90.00000000
_cell_angle_gamma   113.27813470
_symmetry_Int_Tables_number   1
_chemical_formula_structural   Pr4Ge7
_chemical_formula_sum   'Pr8 Ge14'
_cell_volume   523.22154375
_cell_formula_units_Z   2
loop_
 _symmetry_equiv_pos_site_id
 _symmetry_equiv_pos_as_xyz
  1  'x, y, z'
loop_
 _atom_site_type_symbol
 _atom_site_label
 _atom_site_symmetry_multiplicity
 _atom_site_fract_x
 _atom_site_fract_y
 _atom_site_fract_z
 _atom_site_occupancy
  Pr  Pr0  1  0.00903434  0.49007768  0.11936724  1
  Pr  Pr1  1  0.51895666  0.50992232  0.88063276  1
  Pr  Pr2  1  0.99096566  0.50992232  0.61936724  1
  Pr  Pr3  1  0.48104334  0.49007768  0.38063276  1
  Pr  Pr4  1  0.50359888  0.00719775  0.25000000  1
  Pr  Pr5  1  0.49640112  0.99280225  0.75000000  1
  Pr  Pr6  1  0.98780076  0.00000000  0.50000000  1
  Pr  Pr7  1  0.01219924  -0.00000000  -0.00000000  1
  Ge  Ge8  1  0.39650741  0.82410789  0.48999722  1
  Ge  Ge9  1  0.57239952  0.17589211  0.51000278  1
  Ge  Ge10  1  0.60349259  0.17589211  0.98999722  1
  Ge  Ge11  1  0.42760048  0.82410789  0.01000278  1
  Ge  Ge12  1  0.92451475  0.34277543  0.37138486  1
  Ge  Ge13  1  0.58173932  0.65722457  0.62861514  1
  Ge  Ge14  1  0.07548525  0.65722457  0.87138486  1
  Ge  Ge15  1  0.41826068  0.34277543  0.12861514  1
  Ge  Ge16  1  0.02706762  0.70039535  0.33936557  1
  Ge  Ge17  1  0.32667226  0.29960465  0.66063443  1
  Ge  Ge18  1  0.97293238  0.29960465  0.83936557  1
  Ge  Ge19  1  0.67332774  0.70039535  0.16063443  1
  Ge  Ge20  1  0.06251762  0.12503525  0.25000000  1
  Ge  Ge21  1  0.93748238  0.87496475  0.75000000  1
