# generated using pymatgen
data_Sr5Cd2Sb5F
_symmetry_space_group_name_H-M   'P 1'
_cell_length_a   11.47351022
_cell_length_b   11.47351022
_cell_length_c   14.90723429
_cell_angle_alpha   90.00000000
_cell_angle_beta   90.00000000
_cell_angle_gamma   24.15301191
_symmetry_Int_Tables_number   1
_chemical_formula_structural   Sr5Cd2Sb5F
_chemical_formula_sum   'Sr10 Cd4 Sb10 F2'
_cell_volume   802.96874897
_cell_formula_units_Z   2
loop_
 _symmetry_equiv_pos_site_id
 _symmetry_equiv_pos_as_xyz
  1  'x, y, z'
loop_
 _atom_site_type_symbol
 _atom_site_label
 _atom_site_symmetry_multiplicity
 _atom_site_fract_x
 _atom_site_fract_y
 _atom_site_fract_z
 _atom_site_occupancy
  Sr  Sr0  1  0.09992921  0.09992921  0.25000000  1
  Sr  Sr1  1  0.90007079  0.90007079  0.75000000  1
  Sr  Sr2  1  0.90223123  0.90223123  0.25000000  1
  Sr  Sr3  1  0.09776877  0.09776877  0.75000000  1
  Sr  Sr4  1  0.27124705  0.27124705  0.61981426  1
  Sr  Sr5  1  0.72875295  0.72875295  0.11981426  1
  Sr  Sr6  1  0.72875295  0.72875295  0.38018574  1
  Sr  Sr7  1  0.27124705  0.27124705  0.88018574  1
  Sr  Sr8  1  0.00000000  0.00000000  0.00000000  1
  Sr  Sr9  1  0.00000000  0.00000000  0.50000000  1
  Cd  Cd10  1  0.36844075  0.36844075  0.08626394  1
  Cd  Cd11  1  0.63155925  0.63155925  0.58626494  1
  Cd  Cd12  1  0.63155925  0.63155925  0.91373606  1
  Cd  Cd13  1  0.36844075  0.36844075  0.41373606  1
  Sb  Sb14  1  0.49496464  0.49496464  0.15421267  1
  Sb  Sb15  1  0.50503536  0.50503536  0.65421267  1
  Sb  Sb16  1  0.50503536  0.50503536  0.84578733  1
  Sb  Sb17  1  0.49496464  0.49496464  0.34578733  1
  Sb  Sb18  1  0.29328430  0.29328430  0.25000000  1
  Sb  Sb19  1  0.70671470  0.70671470  0.75000000  1
  Sb  Sb20  1  0.14906597  0.14906597  0.02019715  1
  Sb  Sb21  1  0.85093403  0.85093403  0.52019715  1
  Sb  Sb22  1  0.85093403  0.85093403  0.97980285  1
  Sb  Sb23  1  0.14906597  0.14906597  0.47980285  1
  F  F24  1  0.65576267  0.65576267  0.25000000  1
  F  F25  1  0.34423733  0.34423733  0.75000000  1
