# generated using pymatgen
data_TbVB4
_symmetry_space_group_name_H-M   'P 1'
_cell_length_a   6.02229686
_cell_length_b   11.65873404
_cell_length_c   3.45450312
_cell_angle_alpha   90.00000000
_cell_angle_beta   90.00000000
_cell_angle_gamma   90.00000000
_symmetry_Int_Tables_number   1
_chemical_formula_structural   TbVB4
_chemical_formula_sum   'Tb4 V4 B16'
_cell_volume   242.54880770
_cell_formula_units_Z   4
loop_
 _symmetry_equiv_pos_site_id
 _symmetry_equiv_pos_as_xyz
  1  'x, y, z'
loop_
 _atom_site_type_symbol
 _atom_site_label
 _atom_site_symmetry_multiplicity
 _atom_site_fract_x
 _atom_site_fract_y
 _atom_site_fract_z
 _atom_site_occupancy
  Tb  Tb0  1  0.12396823  0.15143911  0.00000000  1
  Tb  Tb1  1  0.87603277  0.84856089  0.00000000  1
  Tb  Tb2  1  0.62396823  0.34856089  0.00000000  1
  Tb  Tb3  1  0.37603277  0.65143911  0.00000000  1
  V  V4  1  0.12719652  0.41693594  0.00000000  1
  V  V5  1  0.87280248  0.58306406  0.00000000  1
  V  V6  1  0.62719652  0.08306506  0.00000000  1
  V  V7  1  0.37280348  0.91693594  0.00000000  1
  B  B8  1  0.47700329  0.19170584  0.49999900  1
  B  B9  1  0.52299871  0.80829316  0.49999900  1
  B  B10  1  0.97700129  0.30829316  0.49999900  1
  B  B11  1  0.02299671  0.69170684  0.49999900  1
  B  B12  1  0.28525171  0.31461870  0.49999900  1
  B  B13  1  0.71474829  0.68538130  0.49999900  1
  B  B14  1  0.78525171  0.18538130  0.49999900  1
  B  B15  1  0.21475029  0.81461870  0.49999900  1
  B  B16  1  0.36363806  0.46737914  0.49999900  1
  B  B17  1  0.63636094  0.53262086  0.49999900  1
  B  B18  1  0.86363906  0.03262086  0.49999900  1
  B  B19  1  0.13636194  0.96737914  0.49999900  1
  B  B20  1  0.38570256  0.04719189  0.49999900  1
  B  B21  1  0.61429744  0.95280811  0.49999900  1
  B  B22  1  0.88570256  0.45280811  0.49999900  1
  B  B23  1  0.11429944  0.54719189  0.49999900  1
