# generated using pymatgen
data_Sr2GaGeN
_symmetry_space_group_name_H-M   'P 1'
_cell_length_a   6.96182455
_cell_length_b   4.10268978
_cell_length_c   8.81559633
_cell_angle_alpha   90.00000000
_cell_angle_beta   108.57287644
_cell_angle_gamma   90.00000000
_symmetry_Int_Tables_number   1
_chemical_formula_structural   Sr2GaGeN
_chemical_formula_sum   'Sr4 Ga2 Ge2 N2'
_cell_volume   238.67933204
_cell_formula_units_Z   2
loop_
 _symmetry_equiv_pos_site_id
 _symmetry_equiv_pos_as_xyz
  1  'x, y, z'
loop_
 _atom_site_type_symbol
 _atom_site_label
 _atom_site_symmetry_multiplicity
 _atom_site_fract_x
 _atom_site_fract_y
 _atom_site_fract_z
 _atom_site_occupancy
  Sr  Sr0  1  0.79813461  0.25000100  0.03403585  1
  Sr  Sr1  1  0.18542182  0.74999900  0.37822308  1
  Sr  Sr2  1  0.81457718  0.25000100  0.62177692  1
  Sr  Sr3  1  0.20186639  0.74999900  0.96596415  1
  Ga  Ga4  1  0.46329739  0.25000100  0.24769796  1
  Ga  Ga5  1  0.53670161  0.74999900  0.75230204  1
  Ge  Ge6  1  0.67695759  0.74999900  0.29966249  1
  Ge  Ge7  1  0.32304341  0.25000100  0.70033751  1
  N  N8  1  0.17640806  0.25000100  0.17089024  1
  N  N9  1  0.82359094  0.74999900  0.82910976  1
