# generated using pymatgen
data_Tb2Ni12As7
_symmetry_space_group_name_H-M   'P 1'
_cell_length_a   9.35198993
_cell_length_b   9.34936643
_cell_length_c   3.85108413
_cell_angle_alpha   90.00000000
_cell_angle_beta   90.00000000
_cell_angle_gamma   120.00820393
_symmetry_Int_Tables_number   1
_chemical_formula_structural   Tb2Ni12As7
_chemical_formula_sum   'Tb2 Ni12 As7'
_cell_volume   291.58416939
_cell_formula_units_Z   1
loop_
 _symmetry_equiv_pos_site_id
 _symmetry_equiv_pos_as_xyz
  1  'x, y, z'
loop_
 _atom_site_type_symbol
 _atom_site_label
 _atom_site_symmetry_multiplicity
 _atom_site_fract_x
 _atom_site_fract_y
 _atom_site_fract_z
 _atom_site_occupancy
  Tb  Tb0  1  0.33325067  0.66666364  0.00000000  1
  Tb  Tb1  1  0.66676206  0.33336766  0.49999900  1
  Ni  Ni2  1  0.37697252  0.42478870  0.49999900  1
  Ni  Ni3  1  0.57520626  0.95216140  0.49999900  1
  Ni  Ni4  1  0.04782027  0.62302097  0.49999900  1
  Ni  Ni5  1  0.44000216  0.05599739  0.00000000  1
  Ni  Ni6  1  0.94404367  0.38401023  0.00000000  1
  Ni  Ni7  1  0.61598841  0.56000211  0.00000000  1
  Ni  Ni8  1  0.21129621  0.09584809  0.49999900  1
  Ni  Ni9  1  0.90412452  0.11544134  0.49999900  1
  Ni  Ni10  1  0.88452640  0.78873162  0.49999900  1
  Ni  Ni11  1  0.15054384  0.27950115  0.00000000  1
  Ni  Ni12  1  0.72043598  0.87098994  0.00000000  1
  Ni  Ni13  1  0.12910726  0.84948080  0.00000000  1
  As  As14  1  0.00003571  0.00006656  0.00000000  1
  As  As15  1  0.10853095  0.40653586  0.49999900  1
  As  As16  1  0.59346096  0.70200834  0.49999900  1
  As  As17  1  0.29791204  0.89142086  0.49999900  1
  As  As18  1  0.40238159  0.28478926  0.00000000  1
  As  As19  1  0.71521053  0.11759164  0.00000000  1
  As  As20  1  0.88238700  0.59758043  0.00000000  1
