# generated using pymatgen
data_Mn5Fe3O16
_symmetry_space_group_name_H-M   'P 1'
_cell_length_a   5.86203251
_cell_length_b   5.84415138
_cell_length_c   8.89959083
_cell_angle_alpha   90.01307222
_cell_angle_beta   89.45709546
_cell_angle_gamma   119.88363476
_symmetry_Int_Tables_number   1
_chemical_formula_structural   Mn5Fe3O16
_chemical_formula_sum   'Mn5 Fe3 O16'
_cell_volume   264.33402688
_cell_formula_units_Z   1
loop_
 _symmetry_equiv_pos_site_id
 _symmetry_equiv_pos_as_xyz
  1  'x, y, z'
loop_
 _atom_site_type_symbol
 _atom_site_label
 _atom_site_symmetry_multiplicity
 _atom_site_fract_x
 _atom_site_fract_y
 _atom_site_fract_z
 _atom_site_occupancy
  Mn  Mn0  1  0.33568955  0.66782059  0.48725923  1
  Mn  Mn1  1  0.66060840  0.83027524  0.21139518  1
  Mn  Mn2  1  0.66537463  0.33248979  0.98678647  1
  Mn  Mn3  1  0.83212097  0.66469883  0.71060391  1
  Mn  Mn4  1  0.83213863  0.16759603  0.71056128  1
  Fe  Fe5  1  0.16319597  0.83188460  0.20777374  1
  Fe  Fe6  1  0.16340539  0.33130838  0.20785363  1
  Fe  Fe7  1  0.33026780  0.16504709  0.70704918  1
  O  O8  1  0.16520068  0.83069545  0.60033431  1
  O  O9  1  0.04580879  0.52277049  0.34755595  1
  O  O10  1  0.34081337  0.67076548  0.09863850  1
  O  O11  1  0.99093610  0.99500896  0.31546858  1
  O  O12  1  0.99303508  0.99663665  0.81632121  1
  O  O13  1  0.16510653  0.33487691  0.60016707  1
  O  O14  1  0.48452188  0.95644531  0.34358157  1
  O  O15  1  0.48488173  0.52834419  0.34364511  1
  O  O16  1  0.34092610  0.17052289  0.10122403  1
  O  O17  1  0.67043881  0.83527549  0.60055185  1
  O  O18  1  0.52490096  0.48154949  0.84123588  1
  O  O19  1  0.52547131  0.04340920  0.84139774  1
  O  O20  1  0.67454851  0.33732846  0.60060794  1
  O  O21  1  0.82686340  0.66284729  0.09850260  1
  O  O22  1  0.95709631  0.47858801  0.83858056  1
  O  O23  1  0.82665112  0.16401618  0.09862447  1
