# generated using pymatgen
data_TbB4Ru
_symmetry_space_group_name_H-M   'P 1'
_cell_length_a   5.97629280
_cell_length_b   11.55952106
_cell_length_c   3.56963633
_cell_angle_alpha   89.99995697
_cell_angle_beta   90.00006883
_cell_angle_gamma   90.00106525
_symmetry_Int_Tables_number   1
_chemical_formula_structural   TbB4Ru
_chemical_formula_sum   'Tb4 B16 Ru4'
_cell_volume   246.60148100
_cell_formula_units_Z   4
loop_
 _symmetry_equiv_pos_site_id
 _symmetry_equiv_pos_as_xyz
  1  'x, y, z'
loop_
 _atom_site_type_symbol
 _atom_site_label
 _atom_site_symmetry_multiplicity
 _atom_site_fract_x
 _atom_site_fract_y
 _atom_site_fract_z
 _atom_site_occupancy
  Tb  Tb0  1  0.12873569  0.14996551  0.99999903  1
  Tb  Tb1  1  0.87127652  0.85004284  0.00000152  1
  Tb  Tb2  1  0.62871987  0.35003853  0.99999996  1
  Tb  Tb3  1  0.37125977  0.64997117  0.99999968  1
  B  B4  1  0.47593680  0.19150806  0.49999949  1
  B  B5  1  0.52405459  0.80848710  0.49999977  1
  B  B6  1  0.97594209  0.30848784  0.49999959  1
  B  B7  1  0.02406833  0.69151881  0.49999965  1
  B  B8  1  0.28881004  0.31469214  0.49999954  1
  B  B9  1  0.71118983  0.68531102  0.50000002  1
  B  B10  1  0.78880697  0.18530179  0.49999983  1
  B  B11  1  0.21119299  0.81469190  0.50000092  1
  B  B12  1  0.36372089  0.46944853  0.50000020  1
  B  B13  1  0.63627375  0.53054575  0.50000034  1
  B  B14  1  0.86372559  0.03054797  0.49999980  1
  B  B15  1  0.13628095  0.96945137  0.50000027  1
  B  B16  1  0.38814017  0.04655509  0.50000064  1
  B  B17  1  0.61185672  0.95344292  0.49999955  1
  B  B18  1  0.88814502  0.45343988  0.50000074  1
  B  B19  1  0.11186344  0.54655546  0.50000056  1
  Ru  Ru20  1  0.13943691  0.40774578  0.99999681  1
  Ru  Ru21  1  0.86055173  0.59225304  0.00000121  1
  Ru  Ru22  1  0.63944828  0.09225276  0.00000020  1
  Ru  Ru23  1  0.36056206  0.90775175  0.00000069  1
