# generated using pymatgen
data_Ti2Co12P7
_symmetry_space_group_name_H-M   'P 1'
_cell_length_a   8.86708320
_cell_length_b   8.86457281
_cell_length_c   3.50381566
_cell_angle_alpha   90.00000000
_cell_angle_beta   90.00000000
_cell_angle_gamma   119.97228859
_symmetry_Int_Tables_number   1
_chemical_formula_structural   Ti2Co12P7
_chemical_formula_sum   'Ti2 Co12 P7'
_cell_volume   238.57870686
_cell_formula_units_Z   1
loop_
 _symmetry_equiv_pos_site_id
 _symmetry_equiv_pos_as_xyz
  1  'x, y, z'
loop_
 _atom_site_type_symbol
 _atom_site_label
 _atom_site_symmetry_multiplicity
 _atom_site_fract_x
 _atom_site_fract_y
 _atom_site_fract_z
 _atom_site_occupancy
  Ti  Ti0  1  0.33331505  0.66687138  0.00000000  1
  Ti  Ti1  1  0.66653534  0.33313239  0.49999900  1
  Co  Co2  1  0.43887853  0.06457588  0.00000000  1
  Co  Co3  1  0.93546411  0.37422942  0.00000000  1
  Co  Co4  1  0.62575340  0.56127383  0.00000000  1
  Co  Co5  1  0.38711101  0.44040795  0.49999900  1
  Co  Co6  1  0.55936775  0.94659907  0.49999900  1
  Co  Co7  1  0.05342059  0.61298537  0.49999900  1
  Co  Co8  1  0.16174418  0.27915553  0.00000000  1
  Co  Co9  1  0.72080353  0.88237538  0.00000000  1
  Co  Co10  1  0.11752830  0.83834380  0.00000000  1
  Co  Co11  1  0.22510305  0.09413865  0.49999900  1
  Co  Co12  1  0.90580391  0.13104595  0.49999900  1
  Co  Co13  1  0.86902399  0.77485586  0.49999900  1
  P  P14  1  0.12238306  0.41111441  0.49999900  1
  P  P15  1  0.58892680  0.71129743  0.49999900  1
  P  P16  1  0.28870624  0.87785009  0.49999900  1
  P  P17  1  0.00023326  -0.00001972  0.00000000  1
  P  P18  1  0.41433554  0.29219655  0.00000000  1
  P  P19  1  0.70729473  0.12184119  0.00000000  1
  P  P20  1  0.87826964  0.58572659  0.00000000  1
