# generated using pymatgen
data_PuCl2
_symmetry_space_group_name_H-M   'P 1'
_cell_length_a   6.83702578
_cell_length_b   6.83683008
_cell_length_c   4.06057234
_cell_angle_alpha   89.99722597
_cell_angle_beta   89.99694503
_cell_angle_gamma   90.03613130
_symmetry_Int_Tables_number   1
_chemical_formula_structural   PuCl2
_chemical_formula_sum   'Pu2 Cl4'
_cell_volume   189.80566428
_cell_formula_units_Z   2
loop_
 _symmetry_equiv_pos_site_id
 _symmetry_equiv_pos_as_xyz
  1  'x, y, z'
loop_
 _atom_site_type_symbol
 _atom_site_label
 _atom_site_symmetry_multiplicity
 _atom_site_fract_x
 _atom_site_fract_y
 _atom_site_fract_z
 _atom_site_occupancy
  Pu  Pu0  1  0.00000115  0.99999761  0.00000005  1
  Pu  Pu1  1  0.50000160  0.49999890  0.49999768  1
  Cl  Cl2  1  0.29512157  0.29512413  0.00001210  1
  Cl  Cl3  1  0.70487511  0.70488034  -0.00000913  1
  Cl  Cl4  1  0.79514356  0.20485958  0.50000143  1
  Cl  Cl5  1  0.20485902  0.79514144  0.50000088  1
