# generated using pymatgen
data_KEuAsS4
_symmetry_space_group_name_H-M   'P 1'
_cell_length_a   6.83274563
_cell_length_b   6.82447025
_cell_length_c   8.90418533
_cell_angle_alpha   90.00000000
_cell_angle_beta   106.85353904
_cell_angle_gamma   90.00000000
_symmetry_Int_Tables_number   1
_chemical_formula_structural   KEuAsS4
_chemical_formula_sum   'K2 Eu2 As2 S8'
_cell_volume   397.36769959
_cell_formula_units_Z   2
loop_
 _symmetry_equiv_pos_site_id
 _symmetry_equiv_pos_as_xyz
  1  'x, y, z'
loop_
 _atom_site_type_symbol
 _atom_site_label
 _atom_site_symmetry_multiplicity
 _atom_site_fract_x
 _atom_site_fract_y
 _atom_site_fract_z
 _atom_site_occupancy
  Eu  Eu0  1  0.73107278  0.25000000  0.05045241  1
  Eu  Eu1  1  0.26861421  0.74999900  0.94938005  1
  K  K2  1  0.23158319  0.74999900  0.43396711  1
  K  K3  1  0.76847972  0.25000000  0.56605979  1
  As  As4  1  0.28884236  0.25000000  0.18810411  1
  As  As5  1  0.71116542  0.74999900  0.81193014  1
  S  S6  1  0.89221772  0.74999900  0.05963450  1
  S  S7  1  0.49677429  0.50347282  0.22841946  1
  S  S8  1  0.49677429  0.99652718  0.22841946  1
  S  S9  1  0.08748388  0.25000000  0.33919310  1
  S  S10  1  0.91269303  0.74999900  0.66087383  1
  S  S11  1  0.50309259  0.00352409  0.77156577  1
  S  S12  1  0.50309259  0.49647591  0.77156577  1
  S  S13  1  0.10811094  0.25000000  0.94043450  1
