# generated using pymatgen
data_K2SrIn7
_symmetry_space_group_name_H-M   'P 1'
_cell_length_a   6.62286522
_cell_length_b   6.62286522
_cell_length_c   20.11289340
_cell_angle_alpha   90.00000000
_cell_angle_beta   90.00000000
_cell_angle_gamma   45.57398428
_symmetry_Int_Tables_number   1
_chemical_formula_structural   K2SrIn7
_chemical_formula_sum   'K4 Sr2 In14'
_cell_volume   630.02649877
_cell_formula_units_Z   2
loop_
 _symmetry_equiv_pos_site_id
 _symmetry_equiv_pos_as_xyz
  1  'x, y, z'
loop_
 _atom_site_type_symbol
 _atom_site_label
 _atom_site_symmetry_multiplicity
 _atom_site_fract_x
 _atom_site_fract_y
 _atom_site_fract_z
 _atom_site_occupancy
  K  K0  1  0.16131463  0.16131463  0.94841693  1
  K  K1  1  0.83868537  0.83868537  0.44841793  1
  K  K2  1  0.83868537  0.83868537  0.05158207  1
  K  K3  1  0.16131463  0.16131463  0.55158207  1
  Sr  Sr4  1  0.65836283  0.65836283  0.25000000  1
  Sr  Sr5  1  0.34163717  0.34163717  0.75000000  1
  In  In6  1  0.87785456  0.87785456  0.86979289  1
  In  In7  1  0.12214544  0.12214544  0.36979289  1
  In  In8  1  0.12214544  0.12214544  0.13020711  1
  In  In9  1  0.87785456  0.87785456  0.63020711  1
  In  In10  1  0.45685175  0.45685175  0.92901894  1
  In  In11  1  0.54314725  0.54314725  0.42901994  1
  In  In12  1  0.54314725  0.54314725  0.07098006  1
  In  In13  1  0.45685175  0.45685175  0.57098106  1
  In  In14  1  0.95520031  0.95520031  0.25000000  1
  In  In15  1  0.04480069  0.04480069  0.75000000  1
  In  In16  1  0.63916415  0.63916415  0.82558484  1
  In  In17  1  0.36083685  0.36083685  0.32558484  1
  In  In18  1  0.36083685  0.36083685  0.17441516  1
  In  In19  1  0.63916415  0.63916415  0.67441416  1
