# generated using pymatgen
data_TaRu3
_symmetry_space_group_name_H-M   'P 1'
_cell_length_a   3.90739166
_cell_length_b   3.90737531
_cell_length_c   3.90737423
_cell_angle_alpha   89.99983108
_cell_angle_beta   90.00025221
_cell_angle_gamma   89.99995396
_symmetry_Int_Tables_number   1
_chemical_formula_structural   TaRu3
_chemical_formula_sum   'Ta1 Ru3'
_cell_volume   59.65640536
_cell_formula_units_Z   1
loop_
 _symmetry_equiv_pos_site_id
 _symmetry_equiv_pos_as_xyz
  1  'x, y, z'
loop_
 _atom_site_type_symbol
 _atom_site_label
 _atom_site_symmetry_multiplicity
 _atom_site_fract_x
 _atom_site_fract_y
 _atom_site_fract_z
 _atom_site_occupancy
  Ta  Ta0  1  0.00000077  -0.00000059  0.00000028  1
  Ru  Ru1  1  0.00000085  0.50000074  0.50000085  1
  Ru  Ru2  1  0.49999934  0.00000028  0.50000045  1
  Ru  Ru3  1  0.50000104  0.50000157  0.00000043  1
