# generated using pymatgen
data_Li3V3CoO8
_symmetry_space_group_name_H-M   'P 1'
_cell_length_a   10.36075131
_cell_length_b   10.32086277
_cell_length_c   14.64816292
_cell_angle_alpha   18.97155031
_cell_angle_beta   19.18161353
_cell_angle_gamma   32.88222777
_symmetry_Int_Tables_number   1
_chemical_formula_structural   Li3V3CoO8
_chemical_formula_sum   'Li3 V3 Co1 O8'
_cell_volume   144.91235006
_cell_formula_units_Z   1
loop_
 _symmetry_equiv_pos_site_id
 _symmetry_equiv_pos_as_xyz
  1  'x, y, z'
loop_
 _atom_site_type_symbol
 _atom_site_label
 _atom_site_symmetry_multiplicity
 _atom_site_fract_x
 _atom_site_fract_y
 _atom_site_fract_z
 _atom_site_occupancy
  Li  Li0  1  0.00000428  0.50000394  0.49999433  1
  Li  Li1  1  0.49999404  0.00000480  0.50000210  1
  Li  Li2  1  0.49999830  0.49999474  0.50000191  1
  V  V3  1  0.00000577  0.50004086  -0.00002563  1
  V  V4  1  0.50007179  0.00002704  -0.00006200  1
  V  V5  1  0.49992474  0.49993847  0.00009466  1
  Co  Co6  1  -0.00000768  -0.00001401  0.00001052  1
  O  O7  1  0.01152815  0.00186562  0.24759950  1
  O  O8  1  0.00034113  0.51071663  0.25371487  1
  O  O9  1  0.51861817  0.98943596  0.25636970  1
  O  O10  1  0.98847619  0.99812485  0.75238770  1
  O  O11  1  0.47156832  0.50059828  0.27942142  1
  O  O12  1  -0.00033527  0.48929784  0.74627687  1
  O  O13  1  0.48137733  0.01056222  0.74363720  1
  O  O14  1  0.52843474  0.49940376  0.72057487  1
