# generated using pymatgen
data_ReRh3
_symmetry_space_group_name_H-M   'P 1'
_cell_length_a   5.51199974
_cell_length_b   5.51187762
_cell_length_c   4.36631634
_cell_angle_alpha   89.98860977
_cell_angle_beta   90.01286263
_cell_angle_gamma   120.00335172
_symmetry_Int_Tables_number   1
_chemical_formula_structural   ReRh3
_chemical_formula_sum   'Re2 Rh6'
_cell_volume   114.87880292
_cell_formula_units_Z   2
loop_
 _symmetry_equiv_pos_site_id
 _symmetry_equiv_pos_as_xyz
  1  'x, y, z'
loop_
 _atom_site_type_symbol
 _atom_site_label
 _atom_site_symmetry_multiplicity
 _atom_site_fract_x
 _atom_site_fract_y
 _atom_site_fract_z
 _atom_site_occupancy
  Re  Re0  1  0.33331338  0.66671225  0.74999816  1
  Re  Re1  1  0.66667875  0.33332174  0.25000443  1
  Rh  Rh2  1  0.16900041  0.33799495  0.25000714  1
  Rh  Rh3  1  0.66200609  0.83099730  0.25001183  1
  Rh  Rh4  1  0.16901399  0.83098406  0.24999044  1
  Rh  Rh5  1  0.83100592  0.66197293  0.74999465  1
  Rh  Rh6  1  0.33802306  0.16899144  0.74998699  1
  Rh  Rh7  1  0.83096039  0.16902933  0.75001036  1
