# generated using pymatgen
data_AcCd3
_symmetry_space_group_name_H-M   'P 1'
_cell_length_a   7.19970450
_cell_length_b   7.19997820
_cell_length_c   5.11608972
_cell_angle_alpha   89.99541802
_cell_angle_beta   90.00444181
_cell_angle_gamma   119.99687012
_symmetry_Int_Tables_number   1
_chemical_formula_structural   AcCd3
_chemical_formula_sum   'Ac2 Cd6'
_cell_volume   229.68272484
_cell_formula_units_Z   2
loop_
 _symmetry_equiv_pos_site_id
 _symmetry_equiv_pos_as_xyz
  1  'x, y, z'
loop_
 _atom_site_type_symbol
 _atom_site_label
 _atom_site_symmetry_multiplicity
 _atom_site_fract_x
 _atom_site_fract_y
 _atom_site_fract_z
 _atom_site_occupancy
  Ac  Ac0  1  0.33335188  0.66668705  0.75001315  1
  Ac  Ac1  1  0.66664580  0.33331211  0.24998599  1
  Cd  Cd2  1  0.15008199  0.30019807  0.25002506  1
  Cd  Cd3  1  0.69985191  0.84993288  0.25002102  1
  Cd  Cd4  1  0.15005599  0.84993014  0.24997379  1
  Cd  Cd5  1  0.84991976  0.69980118  0.74997470  1
  Cd  Cd6  1  0.30014811  0.15006431  0.74997675  1
  Cd  Cd7  1  0.84994456  0.15007227  0.75002554  1
