# generated using pymatgen
data_Co2OF3
_symmetry_space_group_name_H-M   'P 1'
_cell_length_a   6.19190949
_cell_length_b   6.83188689
_cell_length_c   7.12766169
_cell_angle_alpha   90.00000000
_cell_angle_beta   115.74443038
_cell_angle_gamma   90.00000000
_symmetry_Int_Tables_number   1
_chemical_formula_structural   Co2OF3
_chemical_formula_sum   'Co8 O4 F12'
_cell_volume   271.58890212
_cell_formula_units_Z   4
loop_
 _symmetry_equiv_pos_site_id
 _symmetry_equiv_pos_as_xyz
  1  'x, y, z'
loop_
 _atom_site_type_symbol
 _atom_site_label
 _atom_site_symmetry_multiplicity
 _atom_site_fract_x
 _atom_site_fract_y
 _atom_site_fract_z
 _atom_site_occupancy
  Co  Co0  1  0.00947335  0.00000000  0.00000000  1
  Co  Co1  1  0.49052665  0.00000000  0.00000000  1
  Co  Co2  1  0.48949423  0.00000000  0.47898746  1
  Co  Co3  1  0.75000000  0.50000000  0.00000000  1
  Co  Co4  1  0.25000000  0.50000000  0.00000000  1
  Co  Co5  1  0.01050577  0.00000000  0.52101254  1
  Co  Co6  1  0.25000000  0.50000000  0.50000000  1
  Co  Co7  1  0.75000000  0.50000000  0.50000000  1
  O  O8  1  0.34129633  0.00000000  0.18259366  1
  O  O9  1  0.15870367  0.00000000  0.81740734  1
  O  O10  1  0.90366045  0.50000000  0.30732091  1
  O  O11  1  0.59633955  0.50000000  0.69267909  1
  F  F12  1  0.84825256  0.00000000  0.19650512  1
  F  F13  1  0.99850926  0.30460754  0.00000000  1
  F  F14  1  0.50149074  0.30460754  0.00000000  1
  F  F15  1  0.25000000  0.19678985  0.50000000  1
  F  F16  1  0.75000000  0.19678985  0.50000000  1
  F  F17  1  0.99850926  0.69539246  0.00000000  1
  F  F18  1  0.50149074  0.69539246  0.00000000  1
  F  F19  1  0.40223375  0.50000000  0.30446750  1
  F  F20  1  0.65174744  0.00000000  0.80349488  1
  F  F21  1  0.09776625  0.50000000  0.69553250  1
  F  F22  1  0.25000000  0.80321015  0.50000000  1
  F  F23  1  0.75000000  0.80321015  0.50000000  1
