# generated using pymatgen
data_PuSi3
_symmetry_space_group_name_H-M   'P 1'
_cell_length_a   5.88430806
_cell_length_b   5.88456239
_cell_length_c   4.43025539
_cell_angle_alpha   90.00498901
_cell_angle_beta   89.99546373
_cell_angle_gamma   120.00059977
_symmetry_Int_Tables_number   1
_chemical_formula_structural   PuSi3
_chemical_formula_sum   'Pu2 Si6'
_cell_volume   132.85146247
_cell_formula_units_Z   2
loop_
 _symmetry_equiv_pos_site_id
 _symmetry_equiv_pos_as_xyz
  1  'x, y, z'
loop_
 _atom_site_type_symbol
 _atom_site_label
 _atom_site_symmetry_multiplicity
 _atom_site_fract_x
 _atom_site_fract_y
 _atom_site_fract_z
 _atom_site_occupancy
  Pu  Pu0  1  0.33332343  0.66666475  0.74999095  1
  Pu  Pu1  1  0.66667835  0.33333544  0.25000915  1
  Si  Si2  1  0.14445985  0.28895079  0.25005169  1
  Si  Si3  1  0.71106676  0.85553517  0.25005217  1
  Si  Si4  1  0.14446933  0.85550015  0.25002588  1
  Si  Si5  1  0.85554328  0.71105449  0.74995147  1
  Si  Si6  1  0.28892755  0.14446353  0.74995104  1
  Si  Si7  1  0.85553346  0.14449669  0.74997565  1
