# generated using pymatgen
data_Rb2TlAu3
_symmetry_space_group_name_H-M   'P 1'
_cell_length_a   5.82730838
_cell_length_b   6.97190951
_cell_length_c   9.29227607
_cell_angle_alpha   90.00034017
_cell_angle_beta   89.99986566
_cell_angle_gamma   90.00013411
_symmetry_Int_Tables_number   1
_chemical_formula_structural   Rb2TlAu3
_chemical_formula_sum   'Rb4 Tl2 Au6'
_cell_volume   377.52163671
_cell_formula_units_Z   2
loop_
 _symmetry_equiv_pos_site_id
 _symmetry_equiv_pos_as_xyz
  1  'x, y, z'
loop_
 _atom_site_type_symbol
 _atom_site_label
 _atom_site_symmetry_multiplicity
 _atom_site_fract_x
 _atom_site_fract_y
 _atom_site_fract_z
 _atom_site_occupancy
  Rb  Rb0  1  0.25000157  0.49999719  0.13234569  1
  Rb  Rb1  1  0.24999856  -0.00000297  0.36889917  1
  Rb  Rb2  1  0.75000037  -0.00000330  0.63110138  1
  Rb  Rb3  1  0.74999781  0.50000700  0.86765337  1
  Tl  Tl4  1  0.75000316  0.50000131  0.42576602  1
  Tl  Tl5  1  0.24999989  0.49999871  0.57423283  1
  Au  Au6  1  0.00000093  0.00000057  -0.00000027  1
  Au  Au7  1  0.50000075  0.00000009  0.00000122  1
  Au  Au8  1  0.74999825  0.20746124  0.21585765  1
  Au  Au9  1  0.75000141  0.79253739  0.21585559  1
  Au  Au10  1  0.25000186  0.20746260  0.78414350  1
  Au  Au11  1  0.24999945  0.79253819  0.78414386  1
