# generated using pymatgen
data_AcAu3
_symmetry_space_group_name_H-M   'P 1'
_cell_length_a   6.91530267
_cell_length_b   6.91530228
_cell_length_c   4.76804488
_cell_angle_alpha   90.00000000
_cell_angle_beta   90.00000000
_cell_angle_gamma   119.99999614
_symmetry_Int_Tables_number   1
_chemical_formula_structural   AcAu3
_chemical_formula_sum   'Ac2 Au6'
_cell_volume   197.46646191
_cell_formula_units_Z   2
loop_
 _symmetry_equiv_pos_site_id
 _symmetry_equiv_pos_as_xyz
  1  'x, y, z'
loop_
 _atom_site_type_symbol
 _atom_site_label
 _atom_site_symmetry_multiplicity
 _atom_site_fract_x
 _atom_site_fract_y
 _atom_site_fract_z
 _atom_site_occupancy
  Ac  Ac0  1  0.33333400  0.66666800  0.75000000  1
  Ac  Ac1  1  0.66666700  0.33333300  0.25000100  1
  Au  Au2  1  0.14704901  0.29409903  0.25000100  1
  Au  Au3  1  0.70589997  0.85294999  0.25000100  1
  Au  Au4  1  0.14705001  0.85294999  0.25000100  1
  Au  Au5  1  0.85295099  0.70590097  0.75000000  1
  Au  Au6  1  0.29410003  0.14704901  0.75000000  1
  Au  Au7  1  0.85294999  0.14704901  0.75000000  1
