# generated using pymatgen
data_RbUTe3Au
_symmetry_space_group_name_H-M   'P 1'
_cell_length_a   4.42816249
_cell_length_b   8.58708331
_cell_length_c   11.42901873
_cell_angle_alpha   90.00000000
_cell_angle_beta   90.00000000
_cell_angle_gamma   75.05814767
_symmetry_Int_Tables_number   1
_chemical_formula_structural   RbUTe3Au
_chemical_formula_sum   'Rb2 U2 Te6 Au2'
_cell_volume   419.89413383
_cell_formula_units_Z   2
loop_
 _symmetry_equiv_pos_site_id
 _symmetry_equiv_pos_as_xyz
  1  'x, y, z'
loop_
 _atom_site_type_symbol
 _atom_site_label
 _atom_site_symmetry_multiplicity
 _atom_site_fract_x
 _atom_site_fract_y
 _atom_site_fract_z
 _atom_site_occupancy
  Rb  Rb0  1  0.24561186  0.50877627  0.25000000  1
  Rb  Rb1  1  0.75438814  0.49122373  0.75000000  1
  U  U2  1  0.00000000  0.00000000  0.00000000  1
  U  U3  1  0.00000000  0.00000000  0.50000000  1
  Te  Te4  1  0.62653322  0.74693156  0.04617888  1
  Te  Te5  1  0.93092687  0.13814525  0.25000000  1
  Te  Te6  1  0.62653322  0.74693156  0.45382112  1
  Te  Te7  1  0.37346578  0.25306844  0.54617788  1
  Te  Te8  1  0.06907213  0.86185475  0.75000000  1
  Te  Te9  1  0.37346578  0.25306844  0.95382212  1
  Au  Au10  1  0.53662313  0.92675275  0.25000000  1
  Au  Au11  1  0.46337687  0.07324625  0.75000000  1
