# generated using pymatgen
data_Sm3MnAlS7
_symmetry_space_group_name_H-M   'P 1'
_cell_length_a   9.86612959
_cell_length_b   9.86621308
_cell_length_c   6.14412825
_cell_angle_alpha   90.00000000
_cell_angle_beta   90.00000000
_cell_angle_gamma   120.00286927
_symmetry_Int_Tables_number   1
_chemical_formula_structural   Sm3MnAlS7
_chemical_formula_sum   'Sm6 Mn2 Al2 S14'
_cell_volume   517.93546869
_cell_formula_units_Z   2
loop_
 _symmetry_equiv_pos_site_id
 _symmetry_equiv_pos_as_xyz
  1  'x, y, z'
loop_
 _atom_site_type_symbol
 _atom_site_label
 _atom_site_symmetry_multiplicity
 _atom_site_fract_x
 _atom_site_fract_y
 _atom_site_fract_z
 _atom_site_occupancy
  Sm  Sm0  1  0.14918699  0.37760939  0.23720647  1
  Sm  Sm1  1  0.85081201  0.62238961  0.73720647  1
  Sm  Sm2  1  0.62242683  0.77159080  0.23722309  1
  Sm  Sm3  1  0.22840692  0.85085113  0.23721973  1
  Sm  Sm4  1  0.77159408  0.14914787  0.73722173  1
  Sm  Sm5  1  0.37757417  0.22840920  0.73722309  1
  Mn  Mn6  1  0.00001376  0.00000732  0.02951233  1
  Mn  Mn7  1  0.99998524  0.99999268  0.52951433  1
  Al  Al8  1  0.33332592  0.66667362  0.65991501  1
  Al  Al9  1  0.66667508  0.33332738  0.15991701  1
  S  S10  1  0.33335845  0.66673090  0.02455769  1
  S  S11  1  0.66664055  0.33326910  0.52455669  1
  S  S12  1  0.09867734  0.24157038  0.80416044  1
  S  S13  1  0.90132366  0.75842862  0.30415844  1
  S  S14  1  0.75846240  0.85710606  0.80413883  1
  S  S15  1  0.14285545  0.90136340  0.80414475  1
  S  S16  1  0.85714455  0.09863660  0.30414475  1
  S  S17  1  0.24153660  0.14289394  0.30414083  1
  S  S18  1  0.42557941  0.52064116  0.50865935  1
  S  S19  1  0.57442159  0.47935984  0.00865935  1
  S  S20  1  0.47936264  0.90495838  0.50860979  1
  S  S21  1  0.09502038  0.57438459  0.50865051  1
  S  S22  1  0.90497862  0.42561541  0.00865051  1
  S  S23  1  0.52063736  0.09504162  0.00860979  1
