# generated using pymatgen
data_LiV2(SiO4)2
_symmetry_space_group_name_H-M   'P 1'
_cell_length_a   5.82755390
_cell_length_b   5.73328246
_cell_length_c   7.98669074
_cell_angle_alpha   89.99984959
_cell_angle_beta   89.99968229
_cell_angle_gamma   90.00004284
_symmetry_Int_Tables_number   1
_chemical_formula_structural   LiV2(SiO4)2
_chemical_formula_sum   'Li2 V4 Si4 O16'
_cell_volume   266.84342462
_cell_formula_units_Z   2
loop_
 _symmetry_equiv_pos_site_id
 _symmetry_equiv_pos_as_xyz
  1  'x, y, z'
loop_
 _atom_site_type_symbol
 _atom_site_label
 _atom_site_symmetry_multiplicity
 _atom_site_fract_x
 _atom_site_fract_y
 _atom_site_fract_z
 _atom_site_occupancy
  Li  Li0  1  0.32563271  0.49998564  0.24994103  1
  Li  Li1  1  0.67436726  0.49998553  0.75005848  1
  V  V2  1  -0.00000048  0.27998476  0.00000017  1
  V  V3  1  0.99999839  0.72001058  0.49999971  1
  V  V4  1  0.28466729  0.99999665  0.25000402  1
  V  V5  1  0.71533552  -0.00000110  0.74999846  1
  Si  Si6  1  0.23475679  0.24031448  0.62319198  1
  Si  Si7  1  0.23475989  0.75969372  0.87681747  1
  Si  Si8  1  0.76524532  0.24031500  0.37680965  1
  Si  Si9  1  0.76524246  0.75969267  0.12318074  1
  O  O10  1  0.00477155  0.23983613  0.75432507  1
  O  O11  1  0.00477418  0.76017056  0.74567740  1
  O  O12  1  0.22166864  0.00481396  0.49739930  1
  O  O13  1  0.22166419  0.99518938  0.00260566  1
  O  O14  1  0.22345893  0.48394577  0.51062510  1
  O  O15  1  0.22345964  0.51606177  0.98937572  1
  O  O16  1  0.47537201  0.23781900  0.72358662  1
  O  O17  1  0.47538320  0.76217223  0.77643704  1
  O  O18  1  0.52462775  0.23782096  0.27641389  1
  O  O19  1  0.52461750  0.76217130  0.22356129  1
  O  O20  1  0.77653916  0.48394740  0.48937466  1
  O  O21  1  0.77653951  0.51606145  0.01062273  1
  O  O22  1  0.77833375  0.99519150  0.99739489  1
  O  O23  1  0.77832880  0.00481316  0.50260128  1
  O  O24  1  0.99522885  0.23983574  0.24567594  1
  O  O25  1  0.99522722  0.76017178  0.25432172  1
