# generated using pymatgen
data_La3AlVS7
_symmetry_space_group_name_H-M   'P 1'
_cell_length_a   10.25097309
_cell_length_b   10.25041915
_cell_length_c   5.98483923
_cell_angle_alpha   89.99815101
_cell_angle_beta   90.00371168
_cell_angle_gamma   120.00201075
_symmetry_Int_Tables_number   1
_chemical_formula_structural   La3AlVS7
_chemical_formula_sum   'La6 Al2 V2 S14'
_cell_volume   544.60426388
_cell_formula_units_Z   2
loop_
 _symmetry_equiv_pos_site_id
 _symmetry_equiv_pos_as_xyz
  1  'x, y, z'
loop_
 _atom_site_type_symbol
 _atom_site_label
 _atom_site_symmetry_multiplicity
 _atom_site_fract_x
 _atom_site_fract_y
 _atom_site_fract_z
 _atom_site_occupancy
  La  La0  1  0.13860154  0.37310526  0.22820370  1
  La  La1  1  0.86141941  0.62687556  0.72831406  1
  La  La2  1  0.62690539  0.76549026  0.22826454  1
  La  La3  1  0.23451783  0.86144144  0.22825263  1
  La  La4  1  0.76545418  0.13854655  0.72834424  1
  La  La5  1  0.37309201  0.23452548  0.72831336  1
  Al  Al6  1  0.33333878  0.66667500  0.65016779  1
  Al  Al7  1  0.66665750  0.33332783  0.15017005  1
  V  V8  1  0.00000227  0.00000161  0.01280490  1
  V  V9  1  -0.00000075  -0.00000561  0.51282496  1
  S  S10  1  0.33336193  0.66671288  0.02117116  1
  S  S11  1  0.66664201  0.33328869  0.52117004  1
  S  S12  1  0.41703936  0.51830787  0.50604705  1
  S  S13  1  0.58296166  0.48169929  0.00605434  1
  S  S14  1  0.48172262  0.89875877  0.50601702  1
  S  S15  1  0.10125505  0.58294734  0.50603321  1
  S  S16  1  0.89875466  0.41705050  0.00603107  1
  S  S17  1  0.51827650  0.10123767  0.00600938  1
  S  S18  1  0.08422850  0.22476618  0.76500422  1
  S  S19  1  0.91578035  0.77525367  0.26495825  1
  S  S20  1  0.77522423  0.85943573  0.76497142  1
  S  S21  1  0.14052985  0.91577611  0.76498854  1
  S  S22  1  0.85945992  0.08421334  0.26493686  1
  S  S23  1  0.22477619  0.14057058  0.26494222  1
