# generated using pymatgen
data_Li2CrO4
_symmetry_space_group_name_H-M   'P 1'
_cell_length_a   7.74498822
_cell_length_b   9.79513273
_cell_length_c   9.76891454
_cell_angle_alpha   90.00000000
_cell_angle_beta   93.11230937
_cell_angle_gamma   90.00000000
_symmetry_Int_Tables_number   1
_chemical_formula_structural   Li2CrO4
_chemical_formula_sum   'Li16 Cr8 O32'
_cell_volume   740.00789405
_cell_formula_units_Z   8
loop_
 _symmetry_equiv_pos_site_id
 _symmetry_equiv_pos_as_xyz
  1  'x, y, z'
loop_
 _atom_site_type_symbol
 _atom_site_label
 _atom_site_symmetry_multiplicity
 _atom_site_fract_x
 _atom_site_fract_y
 _atom_site_fract_z
 _atom_site_occupancy
  Li  Li0  1  0.52780629  0.63275613  0.59816673  1
  Li  Li1  1  0.52780629  0.86724387  0.09816673  1
  Li  Li2  1  0.46140576  0.65565535  0.84935603  1
  Li  Li3  1  0.46140576  0.84434465  0.34935603  1
  Li  Li4  1  0.50099894  0.14050201  0.08442719  1
  Li  Li5  1  0.50099894  0.35949799  0.58442719  1
  Li  Li6  1  0.80038754  0.62904223  0.06490951  1
  Li  Li7  1  0.80038754  0.87095777  0.56490951  1
  Li  Li8  1  0.84941586  0.37804875  0.41105995  1
  Li  Li9  1  0.84941586  0.12195125  0.91105995  1
  Li  Li10  1  0.87767386  0.14573014  0.63893058  1
  Li  Li11  1  0.87767386  0.35426986  0.13893058  1
  Li  Li12  1  0.09703454  0.65478843  0.64986414  1
  Li  Li13  1  0.09703454  0.84521157  0.14986414  1
  Li  Li14  1  0.08544331  0.09165072  0.42356342  1
  Li  Li15  1  0.08544331  0.40834928  0.92356342  1
  Cr  Cr16  1  0.15606547  0.12941057  0.13136847  1
  Cr  Cr17  1  0.15606547  0.37058943  0.63136847  1
  Cr  Cr18  1  0.37470261  0.61482166  0.12904857  1
  Cr  Cr19  1  0.37470261  0.88517834  0.62904857  1
  Cr  Cr20  1  0.67029050  0.12390709  0.36663952  1
  Cr  Cr21  1  0.67029050  0.37609291  0.86663952  1
  Cr  Cr22  1  0.80880107  0.63529867  0.38135515  1
  Cr  Cr23  1  0.80880107  0.86470133  0.88135515  1
  O  O24  1  0.01474449  0.27543079  0.52813158  1
  O  O25  1  0.01474449  0.22456921  0.02813158  1
  O  O26  1  0.04867322  0.02198757  0.22915457  1
  O  O27  1  0.04867322  0.47801243  0.72915457  1
  O  O28  1  0.28829941  0.03760800  0.04001023  1
  O  O29  1  0.28829941  0.46239200  0.54001023  1
  O  O30  1  0.26909287  0.23155995  0.23112343  1
  O  O31  1  0.26909287  0.26844005  0.73112343  1
  O  O32  1  0.31184878  0.76246141  0.20601022  1
  O  O33  1  0.31184878  0.73753859  0.70601022  1
  O  O34  1  0.22055353  0.55148341  0.02421254  1
  O  O35  1  0.22055353  0.94851659  0.52421254  1
  O  O36  1  0.44138031  0.50360825  0.24005134  1
  O  O37  1  0.44138031  0.99639175  0.74005134  1
  O  O38  1  0.54364162  0.83214255  0.53550818  1
  O  O39  1  0.54364162  0.66785745  0.03550818  1
  O  O40  1  0.54607143  0.29865753  0.97284519  1
  O  O41  1  0.54607143  0.20134247  0.47284519  1
  O  O42  1  0.55590427  0.01864507  0.26120400  1
  O  O43  1  0.55590427  0.48135493  0.76120400  1
  O  O44  1  0.82321640  0.04194715  0.46477924  1
  O  O45  1  0.82321640  0.45805285  0.96477924  1
  O  O46  1  0.76431007  0.24357811  0.27444801  1
  O  O47  1  0.76431007  0.25642189  0.77444801  1
  O  O48  1  0.69658051  0.75069760  0.29243158  1
  O  O49  1  0.69658051  0.74930240  0.79243158  1
  O  O50  1  0.68799177  0.53230625  0.47482112  1
  O  O51  1  0.68799177  0.96769375  0.97482112  1
  O  O52  1  0.90670519  0.53181994  0.27195366  1
  O  O53  1  0.90670519  0.96818006  0.77195366  1
  O  O54  1  0.94535638  0.78444217  0.99316385  1
  O  O55  1  0.94535638  0.71555783  0.49316385  1
