# generated using pymatgen
data_Dy3Sb4Au3
_symmetry_space_group_name_H-M   'P 1'
_cell_length_a   8.60151556
_cell_length_b   8.60151556
_cell_length_c   8.60151556
_cell_angle_alpha   109.47155776
_cell_angle_beta   109.47155776
_cell_angle_gamma   109.47155776
_symmetry_Int_Tables_number   1
_chemical_formula_structural   Dy3Sb4Au3
_chemical_formula_sum   'Dy6 Sb8 Au6'
_cell_volume   489.88893142
_cell_formula_units_Z   2
loop_
 _symmetry_equiv_pos_site_id
 _symmetry_equiv_pos_as_xyz
  1  'x, y, z'
loop_
 _atom_site_type_symbol
 _atom_site_label
 _atom_site_symmetry_multiplicity
 _atom_site_fract_x
 _atom_site_fract_y
 _atom_site_fract_z
 _atom_site_occupancy
  Dy  Dy0  1  0.24999970  0.62499803  0.37499616  1
  Dy  Dy1  1  0.74999933  0.87500265  0.12500342  1
  Dy  Dy2  1  0.37499616  0.24999970  0.62499803  1
  Dy  Dy3  1  0.62499803  0.37499616  0.24999970  1
  Dy  Dy4  1  0.12500342  0.74999933  0.87500265  1
  Dy  Dy5  1  0.87500265  0.12500342  0.74999933  1
  Sb  Sb6  1  0.17936983  0.17936983  0.17936983  1
  Sb  Sb7  1  0.50000096  0.00000253  0.32062966  1
  Sb  Sb8  1  0.32062966  0.50000096  0.00000253  1
  Sb  Sb9  1  0.00000253  0.32062966  0.50000096  1
  Sb  Sb10  1  0.67937071  0.67937071  0.67937071  1
  Sb  Sb11  1  0.49999686  -0.00000267  0.82062636  1
  Sb  Sb12  1  -0.00000267  0.82062636  0.49999686  1
  Sb  Sb13  1  0.82062636  0.49999686  -0.00000267  1
  Au  Au14  1  0.24999865  0.12499924  0.87500606  1
  Au  Au15  1  0.75000060  0.37499667  0.62500323  1
  Au  Au16  1  0.87500606  0.24999865  0.12499924  1
  Au  Au17  1  0.12499924  0.87500606  0.24999865  1
  Au  Au18  1  0.62500323  0.75000060  0.37499667  1
  Au  Au19  1  0.37499667  0.62500323  0.75000060  1
