# generated using pymatgen
data_FeCu2SnSe4
_symmetry_space_group_name_H-M   'P 1'
_cell_length_a   3.97866433
_cell_length_b   3.97866433
_cell_length_c   14.35150111
_cell_angle_alpha   90.00000000
_cell_angle_beta   82.03229448
_cell_angle_gamma   120.00000000
_symmetry_Int_Tables_number   1
_chemical_formula_structural   FeCu2SnSe4
_chemical_formula_sum   'Fe1 Cu2 Sn1 Se4'
_cell_volume   194.20795326
_cell_formula_units_Z   1
loop_
 _symmetry_equiv_pos_site_id
 _symmetry_equiv_pos_as_xyz
  1  'x, y, z'
loop_
 _atom_site_type_symbol
 _atom_site_label
 _atom_site_symmetry_multiplicity
 _atom_site_fract_x
 _atom_site_fract_y
 _atom_site_fract_z
 _atom_site_occupancy
  Fe  Fe0  1  0.47461678  0.73730839  0.78807483  1
  Cu  Cu1  1  0.99807402  0.99903701  0.00288898  1
  Cu  Cu2  1  0.52505555  0.26252777  0.21241668  1
  Sn  Sn3  1  0.00088982  0.50044491  0.49866527  1
  Se  Se4  1  0.88573619  0.94286809  0.17139572  1
  Se  Se5  1  0.40754551  0.20377275  0.38868174  1
  Se  Se6  1  0.84231832  0.42115916  0.73652252  1
  Se  Se7  1  0.36576383  0.68288191  0.95135426  1
