# generated using pymatgen
data_TbTlS2
_symmetry_space_group_name_H-M   'P 1'
_cell_length_a   4.05573182
_cell_length_b   4.05573216
_cell_length_c   7.88843186
_cell_angle_alpha   75.10382137
_cell_angle_beta   75.10381963
_cell_angle_gamma   59.99999723
_symmetry_Int_Tables_number   1
_chemical_formula_structural   TbTlS2
_chemical_formula_sum   'Tb1 Tl1 S2'
_cell_volume   107.30760490
_cell_formula_units_Z   1
loop_
 _symmetry_equiv_pos_site_id
 _symmetry_equiv_pos_as_xyz
  1  'x, y, z'
loop_
 _atom_site_type_symbol
 _atom_site_label
 _atom_site_symmetry_multiplicity
 _atom_site_fract_x
 _atom_site_fract_y
 _atom_site_fract_z
 _atom_site_occupancy
  Tb  Tb0  1  0.00000000  0.00000000  0.00000000  1
  Tl  Tl1  1  0.50000000  0.50000000  0.50000000  1
  S  S2  1  0.73271573  0.73271573  0.80185282  1
  S  S3  1  0.26728427  0.26728427  0.19814718  1
