# generated using pymatgen
data_Li2Mn2FeO6
_symmetry_space_group_name_H-M   'P 1'
_cell_length_a   5.13645321
_cell_length_b   5.13645281
_cell_length_c   10.25700211
_cell_angle_alpha   90.00000000
_cell_angle_beta   90.00000000
_cell_angle_gamma   118.84308730
_symmetry_Int_Tables_number   1
_chemical_formula_structural   Li2Mn2FeO6
_chemical_formula_sum   'Li4 Mn4 Fe2 O12'
_cell_volume   237.04101485
_cell_formula_units_Z   2
loop_
 _symmetry_equiv_pos_site_id
 _symmetry_equiv_pos_as_xyz
  1  'x, y, z'
loop_
 _atom_site_type_symbol
 _atom_site_label
 _atom_site_symmetry_multiplicity
 _atom_site_fract_x
 _atom_site_fract_y
 _atom_site_fract_z
 _atom_site_occupancy
  Li  Li0  1  0.15213281  0.65213281  0.75000000  1
  Li  Li1  1  0.34786719  0.84786719  0.25000000  1
  Li  Li2  1  0.65213281  0.15213281  0.75000000  1
  Li  Li3  1  0.84786719  0.34786719  0.25000000  1
  Mn  Mn4  1  0.16252712  0.83747288  0.50000000  1
  Mn  Mn5  1  0.33747288  0.66252712  0.00000000  1
  Mn  Mn6  1  0.66252712  0.33747288  0.00000000  1
  Mn  Mn7  1  0.83747288  0.16252712  0.50000000  1
  Fe  Fe8  1  0.00000000  0.00000000  0.00000000  1
  Fe  Fe9  1  0.50000000  0.50000000  0.50000000  1
  O  O10  1  0.02006570  0.66625487  0.10607741  1
  O  O11  1  0.97993430  0.33374513  0.89392259  1
  O  O12  1  0.16625487  0.52006570  0.39392259  1
  O  O13  1  0.47993430  0.83374513  0.60607741  1
  O  O14  1  0.16306761  0.16306761  0.59610179  1
  O  O15  1  0.33693239  0.33693239  0.09610079  1
  O  O16  1  0.66306761  0.66306761  0.90389821  1
  O  O17  1  0.33374513  0.97993430  0.89392259  1
  O  O18  1  0.83693239  0.83693239  0.40389921  1
  O  O19  1  0.52006570  0.16625487  0.39392259  1
  O  O20  1  0.83374513  0.47993430  0.60607741  1
  O  O21  1  0.66625487  0.02006570  0.10607741  1
