# generated using pymatgen
data_TbFeC2
_symmetry_space_group_name_H-M   'P 1'
_cell_length_a   3.68190728
_cell_length_b   3.73058000
_cell_length_c   3.73058000
_cell_angle_alpha   104.86969645
_cell_angle_beta   90.00000000
_cell_angle_gamma   90.00000000
_symmetry_Int_Tables_number   1
_chemical_formula_structural   TbFeC2
_chemical_formula_sum   'Tb1 Fe1 C2'
_cell_volume   49.52594680
_cell_formula_units_Z   1
loop_
 _symmetry_equiv_pos_site_id
 _symmetry_equiv_pos_as_xyz
  1  'x, y, z'
loop_
 _atom_site_type_symbol
 _atom_site_label
 _atom_site_symmetry_multiplicity
 _atom_site_fract_x
 _atom_site_fract_y
 _atom_site_fract_z
 _atom_site_occupancy
  Tb  Tb0  1  0.00000000  0.99497184  0.00502816  1
  Fe  Fe1  1  0.50000000  0.38693421  0.61306579  1
  C  C2  1  0.50000000  0.85629499  0.45320104  1
  C  C3  1  0.50000000  0.54679896  0.14370501  1
