# generated using pymatgen
data_TaInSe2
_symmetry_space_group_name_H-M   'P 1'
_cell_length_a   3.44314390
_cell_length_b   3.44314390
_cell_length_c   9.48618401
_cell_angle_alpha   90.00000000
_cell_angle_beta   90.00000000
_cell_angle_gamma   119.99513012
_symmetry_Int_Tables_number   1
_chemical_formula_structural   TaInSe2
_chemical_formula_sum   'Ta1 In1 Se2'
_cell_volume   97.39885090
_cell_formula_units_Z   1
loop_
 _symmetry_equiv_pos_site_id
 _symmetry_equiv_pos_as_xyz
  1  'x, y, z'
loop_
 _atom_site_type_symbol
 _atom_site_label
 _atom_site_symmetry_multiplicity
 _atom_site_fract_x
 _atom_site_fract_y
 _atom_site_fract_z
 _atom_site_occupancy
  Ta  Ta0  1  0.66663713  0.33336287  0.50000000  1
  In  In1  1  0.99996839  0.00003161  0.00000000  1
  Se  Se2  1  0.00004724  0.99995276  0.32249379  1
  Se  Se3  1  0.00004724  0.99995276  0.67750621  1
