# generated using pymatgen
data_KTbS2
_symmetry_space_group_name_H-M   'P 1'
_cell_length_a   4.07351528
_cell_length_b   4.07351520
_cell_length_c   7.73116770
_cell_angle_alpha   74.72527048
_cell_angle_beta   74.72527038
_cell_angle_gamma   60.00000066
_symmetry_Int_Tables_number   1
_chemical_formula_structural   KTbS2
_chemical_formula_sum   'K1 Tb1 S2'
_cell_volume   105.83474785
_cell_formula_units_Z   1
loop_
 _symmetry_equiv_pos_site_id
 _symmetry_equiv_pos_as_xyz
  1  'x, y, z'
loop_
 _atom_site_type_symbol
 _atom_site_label
 _atom_site_symmetry_multiplicity
 _atom_site_fract_x
 _atom_site_fract_y
 _atom_site_fract_z
 _atom_site_occupancy
  Tb  Tb0  1  0.00000000  0.00000000  0.00000000  1
  K  K1  1  0.50000000  0.50000000  0.50000000  1
  S  S2  1  0.73411020  0.73411020  0.79766939  1
  S  S3  1  0.26588980  0.26588980  0.20233061  1
