# generated using pymatgen
data_PrTlTe2
_symmetry_space_group_name_H-M   'P 1'
_cell_length_a   4.60594151
_cell_length_b   4.60594117
_cell_length_c   8.64331429
_cell_angle_alpha   74.54714877
_cell_angle_beta   74.54714837
_cell_angle_gamma   60.00000253
_symmetry_Int_Tables_number   1
_chemical_formula_structural   PrTlTe2
_chemical_formula_sum   'Pr1 Tl1 Te2'
_cell_volume   151.09643327
_cell_formula_units_Z   1
loop_
 _symmetry_equiv_pos_site_id
 _symmetry_equiv_pos_as_xyz
  1  'x, y, z'
loop_
 _atom_site_type_symbol
 _atom_site_label
 _atom_site_symmetry_multiplicity
 _atom_site_fract_x
 _atom_site_fract_y
 _atom_site_fract_z
 _atom_site_occupancy
  Pr  Pr0  1  0.00000000  -0.00000000  0.00000000  1
  Tl  Tl1  1  0.50000000  0.50000000  0.50000000  1
  Te  Te2  1  0.74004600  0.74004600  0.77986200  1
  Te  Te3  1  0.25995400  0.25995400  0.22013800  1
