# generated using pymatgen
data_SmFeC2
_symmetry_space_group_name_H-M   'P 1'
_cell_length_a   3.81707822
_cell_length_b   3.75039911
_cell_length_c   3.75039911
_cell_angle_alpha   105.05514179
_cell_angle_beta   90.00000000
_cell_angle_gamma   90.00000000
_symmetry_Int_Tables_number   1
_chemical_formula_structural   SmFeC2
_chemical_formula_sum   'Sm1 Fe1 C2'
_cell_volume   51.84628011
_cell_formula_units_Z   1
loop_
 _symmetry_equiv_pos_site_id
 _symmetry_equiv_pos_as_xyz
  1  'x, y, z'
loop_
 _atom_site_type_symbol
 _atom_site_label
 _atom_site_symmetry_multiplicity
 _atom_site_fract_x
 _atom_site_fract_y
 _atom_site_fract_z
 _atom_site_occupancy
  Sm  Sm0  1  0.00000000  0.99473156  0.00526844  1
  Fe  Fe1  1  0.50000000  0.38685058  0.61314942  1
  C  C2  1  0.50000000  0.85559343  0.45217557  1
  C  C3  1  0.50000000  0.54782443  0.14440657  1
