# generated using pymatgen
data_SmTlS2
_symmetry_space_group_name_H-M   'P 1'
_cell_length_a   4.13001246
_cell_length_b   4.13001239
_cell_length_c   7.90160620
_cell_angle_alpha   74.85040886
_cell_angle_beta   74.85041099
_cell_angle_gamma   60.00000051
_symmetry_Int_Tables_number   1
_chemical_formula_structural   SmTlS2
_chemical_formula_sum   'Sm1 Tl1 S2'
_cell_volume   111.27950587
_cell_formula_units_Z   1
loop_
 _symmetry_equiv_pos_site_id
 _symmetry_equiv_pos_as_xyz
  1  'x, y, z'
loop_
 _atom_site_type_symbol
 _atom_site_label
 _atom_site_symmetry_multiplicity
 _atom_site_fract_x
 _atom_site_fract_y
 _atom_site_fract_z
 _atom_site_occupancy
  Sm  Sm0  1  0.00000000  0.00000000  0.00000000  1
  Tl  Tl1  1  0.50000000  0.50000000  0.50000000  1
  S  S2  1  0.73373079  0.73373079  0.79880764  1
  S  S3  1  0.26626921  0.26626921  0.20119236  1
