# generated using pymatgen
data_SmNiC2
_symmetry_space_group_name_H-M   'P 1'
_cell_length_a   3.74868524
_cell_length_b   3.79090468
_cell_length_c   3.79090468
_cell_angle_alpha   106.50810015
_cell_angle_beta   90.00000000
_cell_angle_gamma   90.00000000
_symmetry_Int_Tables_number   1
_chemical_formula_structural   SmNiC2
_chemical_formula_sum   'Sm1 Ni1 C2'
_cell_volume   51.65156407
_cell_formula_units_Z   1
loop_
 _symmetry_equiv_pos_site_id
 _symmetry_equiv_pos_as_xyz
  1  'x, y, z'
loop_
 _atom_site_type_symbol
 _atom_site_label
 _atom_site_symmetry_multiplicity
 _atom_site_fract_x
 _atom_site_fract_y
 _atom_site_fract_z
 _atom_site_occupancy
  Sm  Sm0  1  0.00000000  0.00003373  0.99996627  1
  Ni  Ni1  1  0.50000000  0.38729667  0.61270333  1
  C  C2  1  0.50000000  0.84979239  0.45212279  1
  C  C3  1  0.50000000  0.54787721  0.15020761  1
