# generated using pymatgen
data_Cr(CoO3)2
_symmetry_space_group_name_H-M   'P 1'
_cell_length_a   4.94403909
_cell_length_b   4.94403934
_cell_length_c   9.71932911
_cell_angle_alpha   90.00000000
_cell_angle_beta   90.00000000
_cell_angle_gamma   118.99848135
_symmetry_Int_Tables_number   1
_chemical_formula_structural   Cr(CoO3)2
_chemical_formula_sum   'Cr2 Co4 O12'
_cell_volume   207.79052559
_cell_formula_units_Z   2
loop_
 _symmetry_equiv_pos_site_id
 _symmetry_equiv_pos_as_xyz
  1  'x, y, z'
loop_
 _atom_site_type_symbol
 _atom_site_label
 _atom_site_symmetry_multiplicity
 _atom_site_fract_x
 _atom_site_fract_y
 _atom_site_fract_z
 _atom_site_occupancy
  Cr  Cr0  1  0.00000000  0.00000000  0.00000000  1
  Cr  Cr1  1  0.50000000  0.50000000  0.50000000  1
  Co  Co2  1  0.16605189  0.83394811  0.50000000  1
  Co  Co3  1  0.33394811  0.66605189  0.00000000  1
  Co  Co4  1  0.66605189  0.33394811  0.00000000  1
  Co  Co5  1  0.83394811  0.16605189  0.50000000  1
  O  O6  1  0.99790166  0.66116217  0.09735789  1
  O  O7  1  0.00209834  0.33883783  0.90264211  1
  O  O8  1  0.16116217  0.49790166  0.40264211  1
  O  O9  1  0.50209834  0.83883783  0.59735789  1
  O  O10  1  0.15760292  0.15760292  0.59841458  1
  O  O11  1  0.34239708  0.34239708  0.09841458  1
  O  O12  1  0.65760292  0.65760292  0.90158542  1
  O  O13  1  0.33883783  0.00209834  0.90264211  1
  O  O14  1  0.84239708  0.84239708  0.40158542  1
  O  O15  1  0.49790166  0.16116217  0.40264211  1
  O  O16  1  0.83883783  0.50209834  0.59735789  1
  O  O17  1  0.66116217  0.99790166  0.09735789  1
