# generated using pymatgen
data_TbAu
_symmetry_space_group_name_H-M   'P 1'
_cell_length_a   3.73730895
_cell_length_b   4.70015118
_cell_length_c   5.84275999
_cell_angle_alpha   90.00000000
_cell_angle_beta   108.65228260
_cell_angle_gamma   90.00000000
_symmetry_Int_Tables_number   1
_chemical_formula_structural   TbAu
_chemical_formula_sum   'Tb2 Au2'
_cell_volume   97.24281778
_cell_formula_units_Z   2
loop_
 _symmetry_equiv_pos_site_id
 _symmetry_equiv_pos_as_xyz
  1  'x, y, z'
loop_
 _atom_site_type_symbol
 _atom_site_label
 _atom_site_symmetry_multiplicity
 _atom_site_fract_x
 _atom_site_fract_y
 _atom_site_fract_z
 _atom_site_occupancy
  Tb  Tb0  1  0.86089331  0.75000000  0.72178662  1
  Tb  Tb1  1  0.13910669  0.25000000  0.27821338  1
  Au  Au2  1  0.58827042  0.75000000  0.17654083  1
  Au  Au3  1  0.41172958  0.25000000  0.82345917  1
