# generated using pymatgen
data_PrAu
_symmetry_space_group_name_H-M   'P 1'
_cell_length_a   3.93005383
_cell_length_b   4.84509745
_cell_length_c   6.05451486
_cell_angle_alpha   90.00000000
_cell_angle_beta   108.93865550
_cell_angle_gamma   90.00000000
_symmetry_Int_Tables_number   1
_chemical_formula_structural   PrAu
_chemical_formula_sum   'Pr2 Au2'
_cell_volume   109.04613029
_cell_formula_units_Z   2
loop_
 _symmetry_equiv_pos_site_id
 _symmetry_equiv_pos_as_xyz
  1  'x, y, z'
loop_
 _atom_site_type_symbol
 _atom_site_label
 _atom_site_symmetry_multiplicity
 _atom_site_fract_x
 _atom_site_fract_y
 _atom_site_fract_z
 _atom_site_occupancy
  Pr  Pr0  1  0.86207127  0.75000000  0.72414253  1
  Pr  Pr1  1  0.13792873  0.25000000  0.27585747  1
  Au  Au2  1  0.58521222  0.75000000  0.17042445  1
  Au  Au3  1  0.41478778  0.25000000  0.82957555  1
