# generated using pymatgen
data_Li4Mn3CuNi2(PO4)6
_symmetry_space_group_name_H-M   'P 1'
_cell_length_a   8.36482947
_cell_length_b   8.36537024
_cell_length_c   8.58698530
_cell_angle_alpha   63.10263746
_cell_angle_beta   64.30260071
_cell_angle_gamma   64.08974148
_symmetry_Int_Tables_number   1
_chemical_formula_structural   Li4Mn3CuNi2(PO4)6
_chemical_formula_sum   'Li4 Mn3 Cu1 Ni2 P6 O24'
_cell_volume   460.68353790
_cell_formula_units_Z   1
loop_
 _symmetry_equiv_pos_site_id
 _symmetry_equiv_pos_as_xyz
  1  'x, y, z'
loop_
 _atom_site_type_symbol
 _atom_site_label
 _atom_site_symmetry_multiplicity
 _atom_site_fract_x
 _atom_site_fract_y
 _atom_site_fract_z
 _atom_site_occupancy
  Li  Li0  1  0.74397392  0.14638432  0.36457553  1
  Li  Li1  1  0.24023676  0.84844689  0.65674217  1
  Li  Li2  1  0.65159327  0.22974440  0.85676598  1
  Li  Li3  1  0.85263677  0.66096859  0.22829227  1
  Mn  Mn4  1  0.14330277  0.14628067  0.14429167  1
  Mn  Mn5  1  0.35543593  0.35473147  0.35680630  1
  Mn  Mn6  1  0.65495688  0.65031731  0.65397252  1
  Cu  Cu7  1  0.85102763  0.84490276  0.83905265  1
  Ni  Ni8  1  0.00618137  0.00014092  0.99205868  1
  Ni  Ni9  1  0.49658001  0.50132064  0.50435418  1
  P  P10  1  0.07054892  0.74774741  0.43594653  1
  P  P11  1  0.43908820  0.05715578  0.75479743  1
  P  P12  1  0.74992579  0.44397112  0.05811543  1
  P  P13  1  0.24943197  0.54436273  0.95568177  1
  P  P14  1  0.54976503  0.96009189  0.25339755  1
  P  P15  1  0.94074289  0.24610863  0.54732382  1
  O  O16  1  0.10597733  0.31050616  0.49467594  1
  O  O17  1  0.32626956  0.50262251  0.10536411  1
  O  O18  1  0.07774239  0.91097530  0.24492293  1
  O  O19  1  0.52361597  0.11001139  0.32903687  1
  O  O20  1  0.05304078  0.80738762  0.58772826  1
  O  O21  1  0.26201469  0.58710767  0.41793968  1
  O  O22  1  0.24411397  0.07793461  0.89686074  1
  O  O23  1  0.44334262  0.24810374  0.59112878  1
  O  O24  1  0.16975996  0.39022553  0.99909252  1
  O  O25  1  0.60768553  0.42226376  0.25424903  1
  O  O26  1  0.09476244  0.74270583  0.93985121  1
  O  O27  1  0.38786265  0.01813717  0.18282390  1
  O  O28  1  0.59790897  0.02400240  0.82385655  1
  O  O29  1  0.90017058  0.24135126  0.08307711  1
  O  O30  1  0.39280830  0.56356094  0.76011711  1
  O  O31  1  0.81366556  0.60716943  0.02299068  1
  O  O32  1  0.56170161  0.76014464  0.40053208  1
  O  O33  1  0.74409030  0.94446785  0.10605158  1
  O  O34  1  0.74590900  0.39956271  0.57771040  1
  O  O35  1  0.95128364  0.18236409  0.40116356  1
  O  O36  1  0.47152559  0.90124471  0.68783312  1
  O  O37  1  0.93558603  0.08747474  0.74241641  1
  O  O38  1  0.68537903  0.46617752  0.90698295  1
  O  O39  1  0.90835738  0.68882291  0.46441901  1
