# generated using pymatgen
data_NdNi
_symmetry_space_group_name_H-M   'P 1'
_cell_length_a   3.80775491
_cell_length_b   4.30519041
_cell_length_c   5.63003608
_cell_angle_alpha   90.00000000
_cell_angle_beta   70.23492460
_cell_angle_gamma   90.00000000
_symmetry_Int_Tables_number   1
_chemical_formula_structural   NdNi
_chemical_formula_sum   'Nd2 Ni2'
_cell_volume   86.85650232
_cell_formula_units_Z   2
loop_
 _symmetry_equiv_pos_site_id
 _symmetry_equiv_pos_as_xyz
  1  'x, y, z'
loop_
 _atom_site_type_symbol
 _atom_site_label
 _atom_site_symmetry_multiplicity
 _atom_site_fract_x
 _atom_site_fract_y
 _atom_site_fract_z
 _atom_site_occupancy
  Nd  Nd0  1  0.13777828  0.75000000  0.72444343  1
  Nd  Nd1  1  0.86222172  0.25000000  0.27555657  1
  Ni  Ni2  1  0.42662043  0.75000000  0.14675915  1
  Ni  Ni3  1  0.57337957  0.25000000  0.85324085  1
