# generated using pymatgen
data_NdAu
_symmetry_space_group_name_H-M   'P 1'
_cell_length_a   3.89086168
_cell_length_b   4.79658871
_cell_length_c   6.00735823
_cell_angle_alpha   90.00000000
_cell_angle_beta   108.89539664
_cell_angle_gamma   90.00000000
_symmetry_Int_Tables_number   1
_chemical_formula_structural   NdAu
_chemical_formula_sum   'Nd2 Au2'
_cell_volume   106.07280902
_cell_formula_units_Z   2
loop_
 _symmetry_equiv_pos_site_id
 _symmetry_equiv_pos_as_xyz
  1  'x, y, z'
loop_
 _atom_site_type_symbol
 _atom_site_label
 _atom_site_symmetry_multiplicity
 _atom_site_fract_x
 _atom_site_fract_y
 _atom_site_fract_z
 _atom_site_occupancy
  Nd  Nd0  1  0.86160093  0.75000000  0.72320186  1
  Nd  Nd1  1  0.13839907  0.25000000  0.27679814  1
  Au  Au2  1  0.58601689  0.75000000  0.17203378  1
  Au  Au3  1  0.41398311  0.25000000  0.82796622  1
