# generated using pymatgen
data_NaScS2
_symmetry_space_group_name_H-M   'P 1'
_cell_length_a   3.76978849
_cell_length_b   3.76978849
_cell_length_c   6.97415309
_cell_angle_alpha   74.31975068
_cell_angle_beta   74.31975068
_cell_angle_gamma   59.99999005
_symmetry_Int_Tables_number   1
_chemical_formula_structural   NaScS2
_chemical_formula_sum   'Na1 Sc1 S2'
_cell_volume   81.54648952
_cell_formula_units_Z   1
loop_
 _symmetry_equiv_pos_site_id
 _symmetry_equiv_pos_as_xyz
  1  'x, y, z'
loop_
 _atom_site_type_symbol
 _atom_site_label
 _atom_site_symmetry_multiplicity
 _atom_site_fract_x
 _atom_site_fract_y
 _atom_site_fract_z
 _atom_site_occupancy
  Na  Na0  1  0.50000000  0.50000000  0.50000000  1
  Sc  Sc1  1  0.00000000  0.00000000  0.00000000  1
  S  S2  1  0.26118995  0.26118995  0.21643016  1
  S  S3  1  0.73881005  0.73881005  0.78356984  1
