# generated using pymatgen
data_Li2Cr3P5O18
_symmetry_space_group_name_H-M   'P 1'
_cell_length_a   4.79072080
_cell_length_b   13.06209564
_cell_length_c   12.50728664
_cell_angle_alpha   88.14477640
_cell_angle_beta   90.00000000
_cell_angle_gamma   79.43315390
_symmetry_Int_Tables_number   1
_chemical_formula_structural   Li2Cr3P5O18
_chemical_formula_sum   'Li4 Cr6 P10 O36'
_cell_volume   768.97655013
_cell_formula_units_Z   2
loop_
 _symmetry_equiv_pos_site_id
 _symmetry_equiv_pos_as_xyz
  1  'x, y, z'
loop_
 _atom_site_type_symbol
 _atom_site_label
 _atom_site_symmetry_multiplicity
 _atom_site_fract_x
 _atom_site_fract_y
 _atom_site_fract_z
 _atom_site_occupancy
  Li  Li0  1  0.50862337  0.68454802  0.86961391  1
  Li  Li1  1  0.80682961  0.68454802  0.36961391  1
  Li  Li2  1  0.19317039  0.31545198  0.63038609  1
  Li  Li3  1  0.49137663  0.31545198  0.13038609  1
  Cr  Cr4  1  0.15318878  0.60337460  0.62000952  1
  Cr  Cr5  1  0.24343663  0.60337460  0.12000952  1
  Cr  Cr6  1  0.75656337  0.39662540  0.87999048  1
  Cr  Cr7  1  0.84681122  0.39662540  0.37999048  1
  Cr  Cr8  1  0.50000000  0.00000000  0.50000000  1
  Cr  Cr9  1  0.50000000  0.00000000  0.00000000  1
  P  P10  1  0.06809208  0.86117269  0.59107852  1
  P  P11  1  0.07073523  0.86117269  0.09107852  1
  P  P12  1  0.16417968  0.54961676  0.87204907  1
  P  P13  1  0.28620255  0.54961676  0.37204907  1
  P  P14  1  0.71379745  0.45038324  0.62795093  1
  P  P15  1  0.83582032  0.45038324  0.12795093  1
  P  P16  1  0.92926477  0.13882731  0.90892148  1
  P  P17  1  0.93190792  0.13882731  0.40892148  1
  P  P18  1  0.73298385  0.00000000  0.75000000  1
  P  P19  1  0.26701615  0.00000000  0.25000000  1
  O  O20  1  0.59774083  0.95253741  0.84439203  1
  O  O21  1  0.21774694  0.90998071  0.00030755  1
  O  O22  1  0.44972176  0.95253741  0.34439203  1
  O  O23  1  0.98776923  0.91596726  0.70526192  1
  O  O24  1  0.87227134  0.90998071  0.50030755  1
  O  O25  1  0.09626251  0.91596726  0.20526192  1
  O  O26  1  0.37385644  0.87040667  0.56670441  1
  O  O27  1  0.75573688  0.87040667  0.06670441  1
  O  O28  1  0.02872647  0.75018109  0.61886197  1
  O  O29  1  0.22109244  0.75018109  0.11886197  1
  O  O30  1  0.24822054  0.61587138  0.96303153  1
  O  O31  1  0.24143448  0.61287580  0.77304494  1
  O  O32  1  0.13590808  0.61587138  0.46303153  1
  O  O33  1  0.14568972  0.61287580  0.27304494  1
  O  O34  1  0.76946135  0.56407917  0.62473651  1
  O  O35  1  0.84294518  0.54461100  0.87722808  1
  O  O36  1  0.66645947  0.56407917  0.12473651  1
  O  O37  1  0.61244382  0.54461100  0.37722808  1
  O  O38  1  0.38755618  0.45538900  0.62277192  1
  O  O39  1  0.33354053  0.43592083  0.87526349  1
  O  O40  1  0.15705482  0.45538900  0.12277192  1
  O  O41  1  0.23053865  0.43592083  0.37526349  1
  O  O42  1  0.85431028  0.38712420  0.72695506  1
  O  O43  1  0.86409192  0.38412862  0.53696847  1
  O  O44  1  0.75856552  0.38712420  0.22695506  1
  O  O45  1  0.75177946  0.38412862  0.03696847  1
  O  O46  1  0.77890756  0.24981891  0.88113803  1
  O  O47  1  0.97127353  0.24981891  0.38113803  1
  O  O48  1  0.24426312  0.12959333  0.93329559  1
  O  O49  1  0.62614356  0.12959333  0.43329559  1
  O  O50  1  0.90373749  0.08403274  0.79473808  1
  O  O51  1  0.12772866  0.09001929  0.49969245  1
  O  O52  1  0.01223077  0.08403274  0.29473808  1
  O  O53  1  0.55027824  0.04746259  0.65560797  1
  O  O54  1  0.78225306  0.09001929  0.99969245  1
  O  O55  1  0.40225917  0.04746259  0.15560797  1
