# generated using pymatgen
data_Li4Cr3Co2Sn3O16
_symmetry_space_group_name_H-M   'P 1'
_cell_length_a   6.10507215
_cell_length_b   6.07585735
_cell_length_c   9.65567789
_cell_angle_alpha   89.22383694
_cell_angle_beta   90.54250408
_cell_angle_gamma   119.89029277
_symmetry_Int_Tables_number   1
_chemical_formula_structural   Li4Cr3Co2Sn3O16
_chemical_formula_sum   'Li4 Cr3 Co2 Sn3 O16'
_cell_volume   310.49086770
_cell_formula_units_Z   1
loop_
 _symmetry_equiv_pos_site_id
 _symmetry_equiv_pos_as_xyz
  1  'x, y, z'
loop_
 _atom_site_type_symbol
 _atom_site_label
 _atom_site_symmetry_multiplicity
 _atom_site_fract_x
 _atom_site_fract_y
 _atom_site_fract_z
 _atom_site_occupancy
  Li  Li0  1  0.34344091  0.67419308  0.89125599  1
  Li  Li1  1  0.97000071  0.98538824  0.99235989  1
  Li  Li2  1  0.97737411  0.99133124  0.50001966  1
  Li  Li3  1  0.67211102  0.33641996  0.39881287  1
  Cr  Cr4  1  0.66146792  0.83098607  0.21385989  1
  Cr  Cr5  1  0.83764576  0.66457643  0.71140832  1
  Cr  Cr6  1  0.82898980  0.17204375  0.71618253  1
  Co  Co7  1  0.33566693  0.65632384  0.48987086  1
  Co  Co8  1  0.67640716  0.34044099  0.98595198  1
  Sn  Sn9  1  0.16992221  0.83187076  0.21261007  1
  Sn  Sn10  1  0.17170819  0.33810632  0.21281048  1
  Sn  Sn11  1  0.33968953  0.17076719  0.71438988  1
  O  O12  1  0.14674672  0.82719581  0.60088009  1
  O  O13  1  0.04067323  0.51800005  0.34634015  1
  O  O14  1  0.34384453  0.67378603  0.09766453  1
  O  O15  1  0.99068257  0.99380144  0.31521266  1
  O  O16  1  0.99279680  0.99506561  0.80920906  1
  O  O17  1  0.15939308  0.32975062  0.59563290  1
  O  O18  1  0.48653410  0.95698212  0.34482743  1
  O  O19  1  0.49027336  0.52432276  0.34145645  1
  O  O20  1  0.31817107  0.16042545  0.09194940  1
  O  O21  1  0.66901824  0.82244900  0.61219061  1
  O  O22  1  0.54059608  0.49238197  0.84331520  1
  O  O23  1  0.53383602  0.04547608  0.84382137  1
  O  O24  1  0.67453117  0.34099194  0.60426688  1
  O  O25  1  0.83176939  0.67028685  0.09856019  1
  O  O26  1  0.96369612  0.49172470  0.82617690  1
  O  O27  1  0.83301428  0.16521168  0.09680379  1
