# generated using pymatgen
data_NaNdSe2
_symmetry_space_group_name_H-M   'P 1'
_cell_length_a   4.28029629
_cell_length_b   4.28029626
_cell_length_c   7.47669956
_cell_angle_alpha   73.36687525
_cell_angle_beta   73.36687757
_cell_angle_gamma   60.00000022
_symmetry_Int_Tables_number   1
_chemical_formula_structural   NaNdSe2
_chemical_formula_sum   'Na1 Nd1 Se2'
_cell_volume   111.96107439
_cell_formula_units_Z   1
loop_
 _symmetry_equiv_pos_site_id
 _symmetry_equiv_pos_as_xyz
  1  'x, y, z'
loop_
 _atom_site_type_symbol
 _atom_site_label
 _atom_site_symmetry_multiplicity
 _atom_site_fract_x
 _atom_site_fract_y
 _atom_site_fract_z
 _atom_site_occupancy
  Na  Na0  1  0.50000000  0.50000000  0.50000000  1
  Nd  Nd1  1  0.00000000  0.00000000  0.00000000  1
  Se  Se2  1  0.74508817  0.74508817  0.76473548  1
  Se  Se3  1  0.25491183  0.25491183  0.23526452  1
