# generated using pymatgen
data_NaDySe2
_symmetry_space_group_name_H-M   'P 1'
_cell_length_a   4.15284419
_cell_length_b   4.15284399
_cell_length_c   7.40967210
_cell_angle_alpha   73.72599055
_cell_angle_beta   73.72599262
_cell_angle_gamma   60.00000169
_symmetry_Int_Tables_number   1
_chemical_formula_structural   NaDySe2
_chemical_formula_sum   'Na1 Dy1 Se2'
_cell_volume   104.71374624
_cell_formula_units_Z   1
loop_
 _symmetry_equiv_pos_site_id
 _symmetry_equiv_pos_as_xyz
  1  'x, y, z'
loop_
 _atom_site_type_symbol
 _atom_site_label
 _atom_site_symmetry_multiplicity
 _atom_site_fract_x
 _atom_site_fract_y
 _atom_site_fract_z
 _atom_site_occupancy
  Na  Na0  1  0.50000000  0.50000000  0.50000000  1
  Dy  Dy1  1  -0.00000000  0.00000000  -0.00000000  1
  Se  Se2  1  0.74268318  0.74268318  0.77195046  1
  Se  Se3  1  0.25731682  0.25731682  0.22804954  1
