# generated using pymatgen
data_LiZrSe2
_symmetry_space_group_name_H-M   'P 1'
_cell_length_a   3.74098201
_cell_length_b   3.74096303
_cell_length_c   6.70161228
_cell_angle_alpha   90.00000001
_cell_angle_beta   89.99211062
_cell_angle_gamma   119.99983273
_symmetry_Int_Tables_number   1
_chemical_formula_structural   LiZrSe2
_chemical_formula_sum   'Li1 Zr1 Se2'
_cell_volume   81.22312464
_cell_formula_units_Z   1
loop_
 _symmetry_equiv_pos_site_id
 _symmetry_equiv_pos_as_xyz
  1  'x, y, z'
loop_
 _atom_site_type_symbol
 _atom_site_label
 _atom_site_symmetry_multiplicity
 _atom_site_fract_x
 _atom_site_fract_y
 _atom_site_fract_z
 _atom_site_occupancy
  Li  Li0  1  0.00000000  -0.00000000  0.50000000  1
  Zr  Zr1  1  0.00000000  -0.00000000  -0.00000000  1
  Se  Se2  1  0.33337715  0.66668858  0.25384757  1
  Se  Se3  1  0.66662285  0.33331142  0.74615243  1
