# generated using pymatgen
data_SnPO4F
_symmetry_space_group_name_H-M   'P 1'
_cell_length_a   7.37770460
_cell_length_b   6.44638413
_cell_length_c   7.86012064
_cell_angle_alpha   90.00000000
_cell_angle_beta   90.00000000
_cell_angle_gamma   90.00000000
_symmetry_Int_Tables_number   1
_chemical_formula_structural   SnPO4F
_chemical_formula_sum   'Sn4 P4 O16 F4'
_cell_volume   373.82354788
_cell_formula_units_Z   4
loop_
 _symmetry_equiv_pos_site_id
 _symmetry_equiv_pos_as_xyz
  1  'x, y, z'
loop_
 _atom_site_type_symbol
 _atom_site_label
 _atom_site_symmetry_multiplicity
 _atom_site_fract_x
 _atom_site_fract_y
 _atom_site_fract_z
 _atom_site_occupancy
  Sn  Sn0  1  0.75452772  0.25000000  0.12793882  1
  Sn  Sn1  1  0.74547228  0.25000000  0.62793882  1
  Sn  Sn2  1  0.24547228  0.75000000  0.87206118  1
  Sn  Sn3  1  0.25452772  0.75000000  0.37206118  1
  P  P4  1  0.12508941  0.25000000  0.87174607  1
  P  P5  1  0.37491059  0.25000000  0.37174607  1
  P  P6  1  0.87491059  0.75000000  0.12825393  1
  P  P7  1  0.62508941  0.75000000  0.62825393  1
  O  O8  1  0.01310591  0.25000000  0.03848092  1
  O  O9  1  0.48689409  0.25000000  0.53848092  1
  O  O10  1  0.98689409  0.75000000  0.96151908  1
  O  O11  1  0.51310591  0.75000000  0.46151908  1
  O  O12  1  0.25503572  0.06202018  0.86924576  1
  O  O13  1  0.24496428  0.43797982  0.36924576  1
  O  O14  1  0.74496428  0.56202018  0.13075424  1
  O  O15  1  0.75503572  0.93797982  0.63075424  1
  O  O16  1  0.74496428  0.93797982  0.13075424  1
  O  O17  1  0.75503572  0.56202018  0.63075424  1
  O  O18  1  0.25503572  0.43797982  0.86924576  1
  O  O19  1  0.24496428  0.06202018  0.36924576  1
  O  O20  1  0.00495054  0.25000000  0.71123008  1
  O  O21  1  0.49504946  0.25000000  0.21123008  1
  O  O22  1  0.99504946  0.75000000  0.28876992  1
  O  O23  1  0.50495054  0.75000000  0.78876992  1
  F  F24  1  0.65272995  0.25000000  0.87958803  1
  F  F25  1  0.84727005  0.25000000  0.37958803  1
  F  F26  1  0.34727005  0.75000000  0.12041197  1
  F  F27  1  0.15272995  0.75000000  0.62041197  1
