# generated using pymatgen
data_Er2Co3Ge5
_symmetry_space_group_name_H-M   'P 1'
_cell_length_a   8.04383313
_cell_length_b   8.04383313
_cell_length_c   5.69081876
_cell_angle_alpha   70.53419151
_cell_angle_beta   109.46580849
_cell_angle_gamma   86.20573136
_symmetry_Int_Tables_number   1
_chemical_formula_structural   Er2Co3Ge5
_chemical_formula_sum   'Er4 Co6 Ge10'
_cell_volume   320.75264319
_cell_formula_units_Z   2
loop_
 _symmetry_equiv_pos_site_id
 _symmetry_equiv_pos_as_xyz
  1  'x, y, z'
loop_
 _atom_site_type_symbol
 _atom_site_label
 _atom_site_symmetry_multiplicity
 _atom_site_fract_x
 _atom_site_fract_y
 _atom_site_fract_z
 _atom_site_occupancy
  Er  Er0  1  0.59056064  0.12737302  0.73236332  1
  Er  Er1  1  0.87262698  0.40943836  0.23236432  1
  Er  Er2  1  0.40943379  0.87260997  0.26764573  1
  Er  Er3  1  0.12739003  0.59056521  0.76764473  1
  Co  Co4  1  0.99726299  0.99726648  0.74999816  1
  Co  Co5  1  0.00273452  0.00273801  0.24999916  1
  Co  Co6  1  0.26137418  0.45617187  0.38031449  1
  Co  Co7  1  0.54382813  0.73862582  0.88031349  1
  Co  Co8  1  0.73862499  0.54383437  0.61968337  1
  Co  Co9  1  0.45616563  0.26137501  0.11968137  1
  Ge  Ge10  1  0.73806709  0.08056041  0.32642236  1
  Ge  Ge11  1  0.08055332  0.73808433  0.17356847  1
  Ge  Ge12  1  0.26191567  0.91944668  0.67356947  1
  Ge  Ge13  1  0.91943959  0.26193291  0.82642236  1
  Ge  Ge14  1  0.78725637  0.78725016  0.74998332  1
  Ge  Ge15  1  0.21275084  0.21274463  0.24998432  1
  Ge  Ge16  1  0.49077132  0.49075728  0.75000699  1
  Ge  Ge17  1  0.50924172  0.50922968  0.25000799  1
  Ge  Ge18  1  0.22557779  0.22557359  0.75002078  1
  Ge  Ge19  1  0.77442641  0.77442221  0.25002178  1
