# generated using pymatgen
data_Sm2CuAs3O
_symmetry_space_group_name_H-M   'P 1'
_cell_length_a   34.82254098
_cell_length_b   3.99137594
_cell_length_c   3.99956782
_cell_angle_alpha   90.00000000
_cell_angle_beta   89.99340509
_cell_angle_gamma   90.00000000
_symmetry_Int_Tables_number   1
_chemical_formula_structural   Sm2CuAs3O
_chemical_formula_sum   'Sm8 Cu4 As12 O4'
_cell_volume   555.89933613
_cell_formula_units_Z   4
loop_
 _symmetry_equiv_pos_site_id
 _symmetry_equiv_pos_as_xyz
  1  'x, y, z'
loop_
 _atom_site_type_symbol
 _atom_site_label
 _atom_site_symmetry_multiplicity
 _atom_site_fract_x
 _atom_site_fract_y
 _atom_site_fract_z
 _atom_site_occupancy
  Sm  Sm0  1  0.46687160  0.75000200  0.25115285  1
  Sm  Sm1  1  0.03315187  0.25000200  0.75107225  1
  Sm  Sm2  1  0.96684813  0.75000200  0.24892875  1
  Sm  Sm3  1  0.53312840  0.25000200  0.74884615  1
  Sm  Sm4  1  0.32416560  0.25000200  0.80789374  1
  Sm  Sm5  1  0.17581140  0.75000200  0.30791109  1
  Sm  Sm6  1  0.82418860  0.25000200  0.69209091  1
  Sm  Sm7  1  0.67583440  0.75000200  0.19210526  1
  Cu  Cu8  1  0.25002424  0.25000200  0.30830074  1
  Cu  Cu9  1  0.24995312  0.75000200  0.80845785  1
  Cu  Cu10  1  0.75004688  0.25000200  0.19154115  1
  Cu  Cu11  1  0.74997676  0.75000200  0.69170026  1
  As  As12  1  0.39296783  0.25000200  0.33091315  1
  As  As13  1  0.10702400  0.75000200  0.83107276  1
  As  As14  1  0.89297600  0.25000200  0.16892924  1
  As  As15  1  0.60703217  0.75000200  0.66908585  1
  As  As16  1  0.39408358  0.75000200  0.75120885  1
  As  As17  1  0.10586569  0.25000200  0.25116733  1
  As  As18  1  0.89413431  0.75000200  0.74883167  1
  As  As19  1  0.60591642  0.25000200  0.24879015  1
  As  As20  1  0.20546590  0.25000200  0.80897334  1
  As  As21  1  0.29450389  0.75000200  0.30897549  1
  As  As22  1  0.70549611  0.25000200  0.69102651  1
  As  As23  1  0.79453410  0.75000200  0.19102766  1
  O  O24  1  0.50012413  0.75000200  0.75121991  1
  O  O25  1  0.99986635  0.25000200  0.25120367  1
  O  O26  1  0.00013265  0.75000200  0.74879533  1
  O  O27  1  0.49987587  0.25000200  0.24877909  1
