# generated using pymatgen
data_Tb2Co3Ge5
_symmetry_space_group_name_H-M   'P 1'
_cell_length_a   8.09601687
_cell_length_b   8.09650327
_cell_length_c   5.73361288
_cell_angle_alpha   70.28861148
_cell_angle_beta   109.71257860
_cell_angle_gamma   86.53099195
_symmetry_Int_Tables_number   1
_chemical_formula_structural   Tb2Co3Ge5
_chemical_formula_sum   'Tb4 Co6 Ge10'
_cell_volume   326.57427722
_cell_formula_units_Z   2
loop_
 _symmetry_equiv_pos_site_id
 _symmetry_equiv_pos_as_xyz
  1  'x, y, z'
loop_
 _atom_site_type_symbol
 _atom_site_label
 _atom_site_symmetry_multiplicity
 _atom_site_fract_x
 _atom_site_fract_y
 _atom_site_fract_z
 _atom_site_occupancy
  Tb  Tb0  1  0.40713421  0.87147508  0.26715586  1
  Tb  Tb1  1  0.87145635  0.40712047  0.23283891  1
  Tb  Tb2  1  0.59283727  0.12857197  0.73278730  1
  Tb  Tb3  1  0.12858356  0.59283594  0.76721901  1
  Co  Co4  1  0.45782487  0.26074150  0.11727267  1
  Co  Co5  1  0.26072921  0.45783374  0.38272945  1
  Co  Co6  1  0.54217274  0.73924434  0.88269907  1
  Co  Co7  1  0.73925662  0.54216814  0.61729674  1
  Co  Co8  1  0.00216971  0.00217039  0.24999888  1
  Co  Co9  1  0.99782419  0.99782361  0.75000023  1
  Ge  Ge10  1  0.50754746  0.50754972  0.24996167  1
  Ge  Ge11  1  0.49240318  0.49238806  0.75004366  1
  Ge  Ge12  1  0.73842501  0.07730804  0.32808559  1
  Ge  Ge13  1  0.07730044  0.73845644  0.17189937  1
  Ge  Ge14  1  0.26154048  0.92272285  0.67190232  1
  Ge  Ge15  1  0.92272631  0.26152364  0.82810404  1
  Ge  Ge16  1  0.21483428  0.21481305  0.24998717  1
  Ge  Ge17  1  0.78521997  0.78523504  0.74999487  1
  Ge  Ge18  1  0.77414053  0.77415871  0.24998702  1
  Ge  Ge19  1  0.22588061  0.22585727  0.75003318  1
