# generated using pymatgen
data_Li4Ti2Nb3Ni3O16
_symmetry_space_group_name_H-M   'P 1'
_cell_length_a   6.03142167
_cell_length_b   5.99186937
_cell_length_c   9.77231610
_cell_angle_alpha   90.00040235
_cell_angle_beta   90.66587798
_cell_angle_gamma   119.78904999
_symmetry_Int_Tables_number   1
_chemical_formula_structural   Li4Ti2Nb3Ni3O16
_chemical_formula_sum   'Li4 Ti2 Nb3 Ni3 O16'
_cell_volume   306.47175106
_cell_formula_units_Z   1
loop_
 _symmetry_equiv_pos_site_id
 _symmetry_equiv_pos_as_xyz
  1  'x, y, z'
loop_
 _atom_site_type_symbol
 _atom_site_label
 _atom_site_symmetry_multiplicity
 _atom_site_fract_x
 _atom_site_fract_y
 _atom_site_fract_z
 _atom_site_occupancy
  Li  Li0  1  0.33287874  0.66645531  0.89215510  1
  Li  Li1  1  0.96930403  0.98460649  0.98517212  1
  Li  Li2  1  0.98253835  0.99124915  0.50174657  1
  Li  Li3  1  0.66818192  0.33414909  0.40387481  1
  Ti  Ti4  1  0.33979527  0.66988992  0.50752058  1
  Ti  Ti5  1  0.71613393  0.35798864  0.98106456  1
  Nb  Nb6  1  0.18221124  0.83997470  0.21712403  1
  Nb  Nb7  1  0.18221753  0.34228831  0.21711681  1
  Nb  Nb8  1  0.35402062  0.17711502  0.72567942  1
  Ni  Ni9  1  0.65993719  0.83001164  0.20884906  1
  Ni  Ni10  1  0.83089054  0.66060277  0.70854137  1
  Ni  Ni11  1  0.83093320  0.17015814  0.70859148  1
  O  O12  1  0.18206106  0.83830245  0.59419977  1
  O  O13  1  0.02770914  0.51383893  0.34080430  1
  O  O14  1  0.32611616  0.66309547  0.09435771  1
  O  O15  1  0.98964636  0.99482692  0.31461200  1
  O  O16  1  0.00741251  0.00362745  0.80053667  1
  O  O17  1  0.18190758  0.34374055  0.59430609  1
  O  O18  1  0.46827229  0.95894708  0.34368519  1
  O  O19  1  0.46822200  0.50941174  0.34370010  1
  O  O20  1  0.33250028  0.16627126  0.09526556  1
  O  O21  1  0.65251815  0.82642431  0.59211961  1
  O  O22  1  0.51118472  0.47415404  0.84933699  1
  O  O23  1  0.51125366  0.03709228  0.84923246  1
  O  O24  1  0.64796651  0.32410252  0.60162080  1
  O  O25  1  0.84238920  0.66498796  0.09385357  1
  O  O26  1  0.95940161  0.47961902  0.84894613  1
  O  O27  1  0.84239623  0.17736682  0.09382616  1
