# generated using pymatgen
data_CePS
_symmetry_space_group_name_H-M   'P 1'
_cell_length_a   5.56920081
_cell_length_b   5.47124124
_cell_length_c   16.57374978
_cell_angle_alpha   90.00000000
_cell_angle_beta   90.00000000
_cell_angle_gamma   90.00000000
_symmetry_Int_Tables_number   1
_chemical_formula_structural   CePS
_chemical_formula_sum   'Ce8 P8 S8'
_cell_volume   505.00946723
_cell_formula_units_Z   8
loop_
 _symmetry_equiv_pos_site_id
 _symmetry_equiv_pos_as_xyz
  1  'x, y, z'
loop_
 _atom_site_type_symbol
 _atom_site_label
 _atom_site_symmetry_multiplicity
 _atom_site_fract_x
 _atom_site_fract_y
 _atom_site_fract_z
 _atom_site_occupancy
  Ce  Ce0  1  0.01927350  0.24999900  0.35427737  1
  Ce  Ce1  1  0.48072950  0.74999900  0.85427737  1
  Ce  Ce2  1  0.51927250  0.24999900  0.14572263  1
  Ce  Ce3  1  0.98072850  0.74999900  0.64572263  1
  Ce  Ce4  1  0.48302101  0.24999900  0.63393880  1
  Ce  Ce5  1  0.01697999  0.74999900  0.13393880  1
  Ce  Ce6  1  0.98302001  0.24999900  0.86606120  1
  Ce  Ce7  1  0.51698099  0.74999900  0.36606120  1
  P  P8  1  0.29853529  0.03259214  0.00193582  1
  P  P9  1  0.20146471  0.96740586  0.50193482  1
  P  P10  1  0.79853429  0.46740786  0.49806418  1
  P  P11  1  0.70146471  0.53259314  0.99806418  1
  P  P12  1  0.70146471  0.96740586  0.99806418  1
  P  P13  1  0.79853429  0.03259214  0.49806418  1
  P  P14  1  0.20146471  0.53259314  0.50193482  1
  P  P15  1  0.29853529  0.46740786  0.00193582  1
  S  S16  1  0.01613957  0.24999900  0.17886878  1
  S  S17  1  0.48386143  0.74999900  0.67886878  1
  S  S18  1  0.51613857  0.24999900  0.32113122  1
  S  S19  1  0.98386243  0.74999900  0.82113222  1
  S  S20  1  0.48421402  0.24999900  0.81303144  1
  S  S21  1  0.01578798  0.74999900  0.31303044  1
  S  S22  1  0.98421402  0.24999900  0.68696956  1
  S  S23  1  0.51578698  0.74999900  0.18696856  1
