# generated using pymatgen
data_LiFe(Si2O5)3
_symmetry_space_group_name_H-M   'P 1'
_cell_length_a   11.23808070
_cell_length_b   11.23808129
_cell_length_c   10.01759234
_cell_angle_alpha   90.00000000
_cell_angle_beta   90.00000000
_cell_angle_gamma   80.62772232
_symmetry_Int_Tables_number   1
_chemical_formula_structural   LiFe(Si2O5)3
_chemical_formula_sum   'Li4 Fe4 Si24 O60'
_cell_volume   1248.27784151
_cell_formula_units_Z   4
loop_
 _symmetry_equiv_pos_site_id
 _symmetry_equiv_pos_as_xyz
  1  'x, y, z'
loop_
 _atom_site_type_symbol
 _atom_site_label
 _atom_site_symmetry_multiplicity
 _atom_site_fract_x
 _atom_site_fract_y
 _atom_site_fract_z
 _atom_site_occupancy
  Li  Li0  1  0.24906742  0.75093258  0.50000000  1
  Li  Li1  1  0.25093258  0.74906742  0.00000000  1
  Li  Li2  1  0.74906742  0.25093258  0.00000000  1
  Li  Li3  1  0.75093258  0.24906742  0.50000000  1
  Fe  Fe4  1  0.15993806  0.65993806  0.75000000  1
  Fe  Fe5  1  0.34006194  0.84006194  0.25000000  1
  Fe  Fe6  1  0.65993806  0.15993806  0.75000000  1
  Fe  Fe7  1  0.84006194  0.34006194  0.25000000  1
  Si  Si8  1  0.02444839  0.24094728  0.99203666  1
  Si  Si9  1  0.07593537  0.29312182  0.45477882  1
  Si  Si10  1  0.04433433  0.82638686  0.30331689  1
  Si  Si11  1  0.24094728  0.02444839  0.99203666  1
  Si  Si12  1  0.20687818  0.42406463  0.95477882  1
  Si  Si13  1  0.29312182  0.07593537  0.45477882  1
  Si  Si14  1  0.25905272  0.47555161  0.49203666  1
  Si  Si15  1  0.17361314  0.95566567  0.69668311  1
  Si  Si16  1  0.32638686  0.54433433  0.19668311  1
  Si  Si17  1  0.42406463  0.20687818  0.95477882  1
  Si  Si18  1  0.47555161  0.25905272  0.49203666  1
  Si  Si19  1  0.45566567  0.67361314  0.80331689  1
  Si  Si20  1  0.54433433  0.32638686  0.19668311  1
  Si  Si21  1  0.52444839  0.74094728  0.50796334  1
  Si  Si22  1  0.57593537  0.79312182  0.04522118  1
  Si  Si23  1  0.67361314  0.45566567  0.80331689  1
  Si  Si24  1  0.82638686  0.04433433  0.30331689  1
  Si  Si25  1  0.74094728  0.52444839  0.50796334  1
  Si  Si26  1  0.70687818  0.92406463  0.54522118  1
  Si  Si27  1  0.79312182  0.57593537  0.04522118  1
  Si  Si28  1  0.75905272  0.97555161  0.00796334  1
  Si  Si29  1  0.95566567  0.17361314  0.69668311  1
  Si  Si30  1  0.92406463  0.70687818  0.54522118  1
  Si  Si31  1  0.97555161  0.75905272  0.00796334  1
  O  O32  1  0.04342880  0.04342880  0.69211339  1
  O  O33  1  0.99896447  0.34401875  0.32361902  1
  O  O34  1  0.11678293  0.11678293  0.02460683  1
  O  O35  1  0.00657087  0.73816340  0.42073690  1
  O  O36  1  0.09862696  0.35371826  0.00438571  1
  O  O37  1  0.02838949  0.76275389  0.16006952  1
  O  O38  1  0.17422118  0.17422118  0.41768463  1
  O  O39  1  0.14628174  0.40137304  0.50438571  1
  O  O40  1  0.09370777  0.74447007  0.91333788  1
  O  O41  1  0.15598125  0.50103553  0.82361902  1
  O  O42  1  0.16236489  0.81699426  0.66140467  1
  O  O43  1  0.23816340  0.50657087  0.07926310  1
  O  O44  1  0.18300574  0.83763511  0.33859533  1
  O  O45  1  0.34401875  0.99896447  0.32361902  1
  O  O46  1  0.26275389  0.52838949  0.33993048  1
  O  O47  1  0.24447007  0.59370777  0.58666212  1
  O  O48  1  0.35371826  0.09862696  0.00438571  1
  O  O49  1  0.32577882  0.32577882  0.91768463  1
  O  O50  1  0.25552993  0.90629223  0.08666212  1
  O  O51  1  0.23724611  0.97161051  0.83993048  1
  O  O52  1  0.40137304  0.14628174  0.50438571  1
  O  O53  1  0.31699426  0.66236489  0.83859533  1
  O  O54  1  0.26183660  0.99342913  0.57926310  1
  O  O55  1  0.38321707  0.38321707  0.52460683  1
  O  O56  1  0.33763511  0.68300574  0.16140467  1
  O  O57  1  0.50103553  0.15598125  0.82361902  1
  O  O58  1  0.45657120  0.45657120  0.19211339  1
  O  O59  1  0.40629223  0.75552993  0.41333788  1
  O  O60  1  0.50657087  0.23816340  0.07926310  1
  O  O61  1  0.52838949  0.26275389  0.33993048  1
  O  O62  1  0.47161051  0.73724611  0.66006952  1
  O  O63  1  0.49342913  0.76183660  0.92073690  1
  O  O64  1  0.59370777  0.24447007  0.58666212  1
  O  O65  1  0.54342880  0.54342880  0.80788661  1
  O  O66  1  0.49896447  0.84401875  0.17638098  1
  O  O67  1  0.66236489  0.31699426  0.83859533  1
  O  O68  1  0.61678293  0.61678293  0.47539317  1
  O  O69  1  0.73816340  0.00657087  0.42073690  1
  O  O70  1  0.68300574  0.33763511  0.16140467  1
  O  O71  1  0.59862696  0.85371826  0.49561429  1
  O  O72  1  0.76275389  0.02838949  0.16006952  1
  O  O73  1  0.74447007  0.09370777  0.91333788  1
  O  O74  1  0.67422118  0.67422118  0.08231537  1
  O  O75  1  0.64628174  0.90137304  0.99561429  1
  O  O76  1  0.75552993  0.40629223  0.41333788  1
  O  O77  1  0.73724611  0.47161051  0.66006952  1
  O  O78  1  0.65598125  0.00103553  0.67638098  1
  O  O79  1  0.81699426  0.16236489  0.66140467  1
  O  O80  1  0.76183660  0.49342913  0.92073690  1
  O  O81  1  0.83763511  0.18300574  0.33859533  1
  O  O82  1  0.84401875  0.49896447  0.17638098  1
  O  O83  1  0.90629223  0.25552993  0.08666212  1
  O  O84  1  0.85371826  0.59862696  0.49561429  1
  O  O85  1  0.82577882  0.82577882  0.58231537  1
  O  O86  1  0.97161051  0.23724611  0.83993048  1
  O  O87  1  0.90137304  0.64628174  0.99561429  1
  O  O88  1  0.99342913  0.26183660  0.57926310  1
  O  O89  1  0.88321707  0.88321707  0.97539317  1
  O  O90  1  0.00103553  0.65598125  0.67638098  1
  O  O91  1  0.95657120  0.95657120  0.30788661  1
