# generated using pymatgen
data_Eu2H3Br
_symmetry_space_group_name_H-M   'P 1'
_cell_length_a   4.07210608
_cell_length_b   4.07201199
_cell_length_c   7.19159198
_cell_angle_alpha   90.00000505
_cell_angle_beta   90.00090838
_cell_angle_gamma   119.99925011
_symmetry_Int_Tables_number   1
_chemical_formula_structural   Eu2H3Br
_chemical_formula_sum   'Eu2 H3 Br1'
_cell_volume   103.27306912
_cell_formula_units_Z   1
loop_
 _symmetry_equiv_pos_site_id
 _symmetry_equiv_pos_as_xyz
  1  'x, y, z'
loop_
 _atom_site_type_symbol
 _atom_site_label
 _atom_site_symmetry_multiplicity
 _atom_site_fract_x
 _atom_site_fract_y
 _atom_site_fract_z
 _atom_site_occupancy
  Eu  Eu0  1  0.66668244  0.33334119  0.68817952  1
  Eu  Eu1  1  0.33331756  0.66665881  0.31182048  1
  H  H2  1  0.66667871  0.33333932  0.35600528  1
  H  H3  1  0.33332129  0.66666068  0.64399472  1
  H  H4  1  0.00000000  0.00000000  0.50000000  1
  Br  Br5  1  -0.00000000  -0.00000000  -0.00000000  1
