# generated using pymatgen
data_EuBiAu
_symmetry_space_group_name_H-M   'P 1'
_cell_length_a   4.91624932
_cell_length_b   4.91408727
_cell_length_c   8.07299376
_cell_angle_alpha   90.00000000
_cell_angle_beta   90.00000000
_cell_angle_gamma   120.01455515
_symmetry_Int_Tables_number   1
_chemical_formula_structural   EuBiAu
_chemical_formula_sum   'Eu2 Bi2 Au2'
_cell_volume   168.88002996
_cell_formula_units_Z   2
loop_
 _symmetry_equiv_pos_site_id
 _symmetry_equiv_pos_as_xyz
  1  'x, y, z'
loop_
 _atom_site_type_symbol
 _atom_site_label
 _atom_site_symmetry_multiplicity
 _atom_site_fract_x
 _atom_site_fract_y
 _atom_site_fract_z
 _atom_site_occupancy
  Eu  Eu0  1  0.00014166  0.00028332  0.73943376  1
  Eu  Eu1  1  0.99985834  0.99971668  0.23943376  1
  Bi  Bi2  1  0.66671484  0.33342969  0.96369705  1
  Bi  Bi3  1  0.33328516  0.66657031  0.46369705  1
  Au  Au4  1  0.66675648  0.33351295  0.55586919  1
  Au  Au5  1  0.33324352  0.66648705  0.05586919  1
