# generated using pymatgen
data_EuHgPb
_symmetry_space_group_name_H-M   'P 1'
_cell_length_a   5.10354711
_cell_length_b   5.10162137
_cell_length_c   8.06445129
_cell_angle_alpha   90.00000000
_cell_angle_beta   90.00000000
_cell_angle_gamma   120.01248751
_symmetry_Int_Tables_number   1
_chemical_formula_structural   EuHgPb
_chemical_formula_sum   'Eu2 Hg2 Pb2'
_cell_volume   181.81560028
_cell_formula_units_Z   2
loop_
 _symmetry_equiv_pos_site_id
 _symmetry_equiv_pos_as_xyz
  1  'x, y, z'
loop_
 _atom_site_type_symbol
 _atom_site_label
 _atom_site_symmetry_multiplicity
 _atom_site_fract_x
 _atom_site_fract_y
 _atom_site_fract_z
 _atom_site_occupancy
  Eu  Eu0  1  -0.00000010  -0.00000019  0.74976009  1
  Eu  Eu1  1  0.00000010  0.00000019  0.24976009  1
  Hg  Hg2  1  0.66670377  0.33340754  0.55700935  1
  Hg  Hg3  1  0.33329623  0.66659246  0.05700935  1
  Pb  Pb4  1  0.66671467  0.33342934  0.96323056  1
  Pb  Pb5  1  0.33328533  0.66657066  0.46323056  1
