# generated using pymatgen
data_EuCdPb
_symmetry_space_group_name_H-M   'P 1'
_cell_length_a   5.09542967
_cell_length_b   5.09284859
_cell_length_c   7.98433539
_cell_angle_alpha   90.00000000
_cell_angle_beta   90.00000000
_cell_angle_gamma   120.01676634
_symmetry_Int_Tables_number   1
_chemical_formula_structural   EuCdPb
_chemical_formula_sum   'Eu2 Cd2 Pb2'
_cell_volume   179.40625520
_cell_formula_units_Z   2
loop_
 _symmetry_equiv_pos_site_id
 _symmetry_equiv_pos_as_xyz
  1  'x, y, z'
loop_
 _atom_site_type_symbol
 _atom_site_label
 _atom_site_symmetry_multiplicity
 _atom_site_fract_x
 _atom_site_fract_y
 _atom_site_fract_z
 _atom_site_occupancy
  Eu  Eu0  1  0.00018174  0.00036348  0.75147842  1
  Eu  Eu1  1  0.99981826  0.99963652  0.25147842  1
  Cd  Cd2  1  0.66678652  0.33357305  0.95224793  1
  Cd  Cd3  1  0.33321348  0.66642695  0.45224793  1
  Pb  Pb4  1  0.66671373  0.33342747  0.54327366  1
  Pb  Pb5  1  0.33328627  0.66657253  0.04327366  1
