# generated using pymatgen
data_K2Ge(S2O7)3
_symmetry_space_group_name_H-M   'P 1'
_cell_length_a   9.85017163
_cell_length_b   9.85015431
_cell_length_c   11.17653910
_cell_angle_alpha   89.99995625
_cell_angle_beta   89.99991740
_cell_angle_gamma   120.00017469
_symmetry_Int_Tables_number   1
_chemical_formula_structural   K2Ge(S2O7)3
_chemical_formula_sum   'K4 Ge2 S12 O42'
_cell_volume   939.12638147
_cell_formula_units_Z   2
loop_
 _symmetry_equiv_pos_site_id
 _symmetry_equiv_pos_as_xyz
  1  'x, y, z'
loop_
 _atom_site_type_symbol
 _atom_site_label
 _atom_site_symmetry_multiplicity
 _atom_site_fract_x
 _atom_site_fract_y
 _atom_site_fract_z
 _atom_site_occupancy
  K  K0  1  0.66660174  0.33329820  0.44098326  1
  K  K1  1  0.33339826  0.66670180  0.55901674  1
  K  K2  1  0.66661942  0.33330324  0.87152755  1
  K  K3  1  0.33338058  0.66669676  0.12847245  1
  Ge  Ge4  1  0.99999812  0.99999501  0.24139634  1
  Ge  Ge5  1  0.00000188  0.00000499  0.75860366  1
  S  S6  1  0.92879875  0.26226111  0.66059120  1
  S  S7  1  0.73774248  0.66653985  0.66059196  1
  S  S8  1  0.33345942  0.07120071  0.66059294  1
  S  S9  1  0.07120125  0.73773889  0.33940880  1
  S  S10  1  0.26225752  0.33346015  0.33940804  1
  S  S11  1  0.66654058  0.92879929  0.33940706  1
  S  S12  1  0.84045380  0.65231004  0.15205666  1
  S  S13  1  0.34768695  0.18814220  0.15205738  1
  S  S14  1  0.81186039  0.15954830  0.15205623  1
  S  S15  1  0.15954620  0.34768996  0.84794334  1
  S  S16  1  0.65231305  0.81185780  0.84794262  1
  S  S17  1  0.18813961  0.84045170  0.84794377  1
  O  O18  1  0.88320907  0.82418626  0.13905848  1
  O  O19  1  0.17581233  0.05902304  0.13905894  1
  O  O20  1  0.94097685  0.11678957  0.13905907  1
  O  O21  1  0.11679093  0.17581374  0.86094152  1
  O  O22  1  0.82418767  0.94097696  0.86094106  1
  O  O23  1  0.05902315  0.88321043  0.86094093  1
  O  O24  1  0.94505282  0.11698212  0.65253157  1
  O  O25  1  0.88301806  0.82807170  0.65253170  1
  O  O26  1  0.17192881  0.05494635  0.65253107  1
  O  O27  1  0.05494718  0.88301788  0.34746843  1
  O  O28  1  0.11698194  0.17192830  0.34746830  1
  O  O29  1  0.82807119  0.94505365  0.34746893  1
  O  O30  1  0.76826513  0.22437143  0.66941955  1
  O  O31  1  0.77562753  0.54389293  0.66941947  1
  O  O32  1  0.45610482  0.23173507  0.66941795  1
  O  O33  1  0.23173487  0.77562857  0.33058045  1
  O  O34  1  0.22437247  0.45610707  0.33058053  1
  O  O35  1  0.54389518  0.76826493  0.33058205  1
  O  O36  1  0.82620105  0.58618497  0.03542102  1
  O  O37  1  0.41381278  0.24001694  0.03542196  1
  O  O38  1  0.75998227  0.17379614  0.03542154  1
  O  O39  1  0.17379895  0.41381503  0.96457898  1
  O  O40  1  0.58618722  0.75998306  0.96457804  1
  O  O41  1  0.24001773  0.82620386  0.96457846  1
  O  O42  1  0.72129945  0.56962239  0.24005341  1
  O  O43  1  0.43037753  0.15167796  0.24005322  1
  O  O44  1  0.84832136  0.27869962  0.24005352  1
  O  O45  1  0.27870055  0.43037761  0.75994659  1
  O  O46  1  0.56962247  0.84832204  0.75994678  1
  O  O47  1  0.15167864  0.72130038  0.75994648  1
  O  O48  1  0.99376257  0.33058044  0.79740717  1
  O  O49  1  0.66941854  0.66318128  0.79740643  1
  O  O50  1  0.33681900  0.00623925  0.79740545  1
  O  O51  1  0.00623743  0.66941956  0.20259283  1
  O  O52  1  0.33058146  0.33681872  0.20259357  1
  O  O53  1  0.66318100  0.99376075  0.20259455  1
  O  O54  1  0.02745993  0.37642387  0.57409584  1
  O  O55  1  0.62357783  0.65103524  0.57409604  1
  O  O56  1  0.34896599  0.97254409  0.57409505  1
  O  O57  1  0.97254007  0.62357613  0.42590416  1
  O  O58  1  0.37642217  0.34896476  0.42590396  1
  O  O59  1  0.65103401  0.02745591  0.42590495  1
