# generated using pymatgen
data_Ba3Y2(B2O5)3
_symmetry_space_group_name_H-M   'P 1'
_cell_length_a   12.50099296
_cell_length_b   12.50099296
_cell_length_c   12.50099296
_cell_angle_alpha   109.47122063
_cell_angle_beta   109.47122063
_cell_angle_gamma   109.47122063
_symmetry_Int_Tables_number   1
_chemical_formula_structural   Ba3Y2(B2O5)3
_chemical_formula_sum   'Ba12 Y8 B24 O60'
_cell_volume   1503.87465768
_cell_formula_units_Z   4
loop_
 _symmetry_equiv_pos_site_id
 _symmetry_equiv_pos_as_xyz
  1  'x, y, z'
loop_
 _atom_site_type_symbol
 _atom_site_label
 _atom_site_symmetry_multiplicity
 _atom_site_fract_x
 _atom_site_fract_y
 _atom_site_fract_z
 _atom_site_occupancy
  Ba  Ba0  1  0.11939303  0.25000000  0.86939303  1
  Ba  Ba1  1  0.38060697  0.75000000  0.63060697  1
  Ba  Ba2  1  0.25000000  0.13060697  0.38060697  1
  Ba  Ba3  1  0.75000000  0.36939303  0.11939303  1
  Ba  Ba4  1  0.86939303  0.61939303  0.75000000  1
  Ba  Ba5  1  0.63060697  0.88060697  0.25000000  1
  Ba  Ba6  1  0.88060697  0.75000000  0.13060697  1
  Ba  Ba7  1  0.61939303  0.25000000  0.36939303  1
  Ba  Ba8  1  0.75000000  0.86939303  0.61939303  1
  Ba  Ba9  1  0.25000000  0.63060697  0.88060697  1
  Ba  Ba10  1  0.13060697  0.38060697  0.25000000  1
  Ba  Ba11  1  0.36939303  0.11939303  0.75000000  1
  Y  Y12  1  0.50000000  -0.00000000  0.50000000  1
  Y  Y13  1  -0.00000000  0.50000000  0.50000000  1
  Y  Y14  1  -0.00000000  -0.00000000  -0.00000000  1
  Y  Y15  1  0.50000000  0.50000000  -0.00000000  1
  Y  Y16  1  -0.00000000  -0.00000000  0.50000000  1
  Y  Y17  1  -0.00000000  0.50000000  -0.00000000  1
  Y  Y18  1  0.50000000  0.50000000  0.50000000  1
  Y  Y19  1  0.50000000  -0.00000000  -0.00000000  1
  B  B20  1  0.80419832  0.12837318  0.54813823  1
  B  B21  1  0.91976505  0.37162682  0.67582514  1
  B  B22  1  0.69580168  0.74393991  0.82417486  1
  B  B23  1  0.58023495  0.75606009  0.95186177  1
  B  B24  1  0.25606009  0.45186177  0.58023495  1
  B  B25  1  0.24393991  0.32417486  0.69580168  1
  B  B26  1  0.87162682  0.17582514  0.91976505  1
  B  B27  1  0.62837318  0.04813823  0.80419832  1
  B  B28  1  0.67582514  0.41976505  0.87162682  1
  B  B29  1  0.54813823  0.30419832  0.62837318  1
  B  B30  1  0.95186177  0.08023495  0.25606009  1
  B  B31  1  0.82417486  0.19580168  0.24393991  1
  B  B32  1  0.19580168  0.87162682  0.45186177  1
  B  B33  1  0.08023495  0.62837318  0.32417486  1
  B  B34  1  0.30419832  0.25606009  0.17582514  1
  B  B35  1  0.41976505  0.24393991  0.04813823  1
  B  B36  1  0.74393991  0.54813823  0.41976505  1
  B  B37  1  0.75606009  0.67582514  0.30419832  1
  B  B38  1  0.12837318  0.82417486  0.08023495  1
  B  B39  1  0.37162682  0.95186177  0.19580168  1
  B  B40  1  0.32417486  0.58023495  0.12837318  1
  B  B41  1  0.45186177  0.69580168  0.37162682  1
  B  B42  1  0.04813823  0.91976505  0.74393991  1
  B  B43  1  0.17582514  0.80419832  0.75606009  1
  O  O44  1  0.67999005  0.10951608  0.48819555  1
  O  O45  1  0.87867947  0.39048392  0.57047397  1
  O  O46  1  0.82000995  0.80820549  0.92952603  1
  O  O47  1  0.62132053  0.69179451  0.01180445  1
  O  O48  1  0.19179451  0.51180445  0.62132053  1
  O  O49  1  0.30820549  0.42952603  0.82000995  1
  O  O50  1  0.89048392  0.07047397  0.87867947  1
  O  O51  1  0.60951608  0.98819555  0.67999005  1
  O  O52  1  0.57047397  0.37867947  0.89048392  1
  O  O53  1  0.48819555  0.17999005  0.60951608  1
  O  O54  1  0.01180445  0.12132053  0.19179451  1
  O  O55  1  0.92952603  0.32000995  0.30820549  1
  O  O56  1  0.32000995  0.89048392  0.51180445  1
  O  O57  1  0.12132053  0.60951608  0.42952603  1
  O  O58  1  0.17999005  0.19179451  0.07047397  1
  O  O59  1  0.37867947  0.30820549  0.98819555  1
  O  O60  1  0.80820549  0.48819555  0.37867947  1
  O  O61  1  0.69179451  0.57047397  0.17999005  1
  O  O62  1  0.10951608  0.92952603  0.12132053  1
  O  O63  1  0.39048392  0.01180445  0.32000995  1
  O  O64  1  0.42952603  0.62132053  0.10951608  1
  O  O65  1  0.51180445  0.82000995  0.39048392  1
  O  O66  1  0.98819555  0.87867947  0.80820549  1
  O  O67  1  0.07047397  0.67999005  0.69179451  1
  O  O68  1  0.90836061  0.25000000  0.65836061  1
  O  O69  1  0.59163939  0.75000000  0.84163939  1
  O  O70  1  0.25000000  0.34163939  0.59163939  1
  O  O71  1  0.75000000  0.15836061  0.90836061  1
  O  O72  1  0.65836061  0.40836061  0.75000000  1
  O  O73  1  0.84163939  0.09163939  0.25000000  1
  O  O74  1  0.09163939  0.75000000  0.34163939  1
  O  O75  1  0.40836061  0.25000000  0.15836061  1
  O  O76  1  0.75000000  0.65836061  0.40836061  1
  O  O77  1  0.25000000  0.84163939  0.09163939  1
  O  O78  1  0.34163939  0.59163939  0.25000000  1
  O  O79  1  0.15836061  0.90836061  0.75000000  1
  O  O80  1  0.83227850  0.03022849  0.50851009  1
  O  O81  1  0.97828161  0.46977151  0.80205002  1
  O  O82  1  0.66772150  0.67623159  0.69794998  1
  O  O83  1  0.52171839  0.82376841  0.99148991  1
  O  O84  1  0.32376841  0.49148991  0.52171839  1
  O  O85  1  0.17623159  0.19794998  0.66772150  1
  O  O86  1  0.96977151  0.30205002  0.97828161  1
  O  O87  1  0.53022849  0.00851009  0.83227850  1
  O  O88  1  0.80205002  0.47828161  0.96977151  1
  O  O89  1  0.50851009  0.33227850  0.53022849  1
  O  O90  1  0.99148991  0.02171839  0.32376841  1
  O  O91  1  0.69794998  0.16772150  0.17623159  1
  O  O92  1  0.16772150  0.96977151  0.49148991  1
  O  O93  1  0.02171839  0.53022849  0.19794998  1
  O  O94  1  0.33227850  0.32376841  0.30205002  1
  O  O95  1  0.47828161  0.17623159  0.00851009  1
  O  O96  1  0.67623159  0.50851009  0.47828161  1
  O  O97  1  0.82376841  0.80205002  0.33227850  1
  O  O98  1  0.03022849  0.69794998  0.02171839  1
  O  O99  1  0.46977151  0.99148991  0.16772150  1
  O  O100  1  0.19794998  0.52171839  0.03022849  1
  O  O101  1  0.49148991  0.66772150  0.46977151  1
  O  O102  1  0.00851009  0.97828161  0.67623159  1
  O  O103  1  0.30205002  0.83227850  0.82376841  1
