# generated using pymatgen
data_Eu2Ge(BO4)2
_symmetry_space_group_name_H-M   'P 1'
_cell_length_a   13.70751931
_cell_length_b   4.50331703
_cell_length_c   9.62295329
_cell_angle_alpha   90.00000000
_cell_angle_beta   90.00000000
_cell_angle_gamma   90.00000000
_symmetry_Int_Tables_number   1
_chemical_formula_structural   Eu2Ge(BO4)2
_chemical_formula_sum   'Eu8 Ge4 B8 O32'
_cell_volume   594.01822006
_cell_formula_units_Z   4
loop_
 _symmetry_equiv_pos_site_id
 _symmetry_equiv_pos_as_xyz
  1  'x, y, z'
loop_
 _atom_site_type_symbol
 _atom_site_label
 _atom_site_symmetry_multiplicity
 _atom_site_fract_x
 _atom_site_fract_y
 _atom_site_fract_z
 _atom_site_occupancy
  Eu  Eu0  1  0.63975083  0.46503740  0.52894075  1
  Eu  Eu1  1  0.86024917  0.03496260  0.02894075  1
  Eu  Eu2  1  0.13975083  0.03496260  0.47105925  1
  Eu  Eu3  1  0.36024917  0.46503740  0.97105925  1
  Eu  Eu4  1  0.36024917  0.53496260  0.47105925  1
  Eu  Eu5  1  0.13975083  0.96503740  0.97105925  1
  Eu  Eu6  1  0.86024917  0.96503740  0.52894075  1
  Eu  Eu7  1  0.63975083  0.53496260  0.02894075  1
  Ge  Ge8  1  0.50000000  0.91980980  0.75000000  1
  Ge  Ge9  1  0.00000000  0.58019020  0.25000000  1
  Ge  Ge10  1  0.50000000  0.08019020  0.25000000  1
  Ge  Ge11  1  0.00000000  0.41980980  0.75000000  1
  B  B12  1  0.20100596  0.53295276  0.70501962  1
  B  B13  1  0.29899404  0.96704724  0.20501962  1
  B  B14  1  0.70100596  0.96704724  0.29498038  1
  B  B15  1  0.79899404  0.53295276  0.79498038  1
  B  B16  1  0.79899404  0.46704724  0.29498038  1
  B  B17  1  0.70100596  0.03295276  0.79498038  1
  B  B18  1  0.29899404  0.03295276  0.70501962  1
  B  B19  1  0.20100596  0.46704724  0.20501962  1
  O  O20  1  0.19385108  0.53937724  0.55398054  1
  O  O21  1  0.30614892  0.96062276  0.05398054  1
  O  O22  1  0.69385108  0.96062276  0.44601946  1
  O  O23  1  0.80614892  0.53937724  0.94601946  1
  O  O24  1  0.80614892  0.46062276  0.44601946  1
  O  O25  1  0.69385108  0.03937724  0.94601946  1
  O  O26  1  0.30614892  0.03937724  0.55398054  1
  O  O27  1  0.19385108  0.46062276  0.05398054  1
  O  O28  1  0.10673748  0.65161588  0.76539814  1
  O  O29  1  0.39326252  0.84838412  0.26539814  1
  O  O30  1  0.60673748  0.84838412  0.23460186  1
  O  O31  1  0.89326252  0.65161588  0.73460186  1
  O  O32  1  0.89326252  0.34838412  0.23460186  1
  O  O33  1  0.60673748  0.15161588  0.73460186  1
  O  O34  1  0.39326252  0.15161588  0.76539814  1
  O  O35  1  0.10673748  0.34838412  0.26539814  1
  O  O36  1  0.21791972  0.22480362  0.75865434  1
  O  O37  1  0.28208028  0.27519638  0.25865434  1
  O  O38  1  0.71791972  0.27519638  0.24134566  1
  O  O39  1  0.78208028  0.22480362  0.74134566  1
  O  O40  1  0.78208028  0.77519638  0.24134566  1
  O  O41  1  0.71791972  0.72480362  0.74134566  1
  O  O42  1  0.28208028  0.72480362  0.75865434  1
  O  O43  1  0.21791972  0.77519638  0.25865434  1
  O  O44  1  0.49537207  0.70538087  0.59904262  1
  O  O45  1  0.00462793  0.79461913  0.09904262  1
  O  O46  1  0.99537207  0.79461913  0.40095738  1
  O  O47  1  0.50462793  0.70538087  0.90095738  1
  O  O48  1  0.50462793  0.29461913  0.40095738  1
  O  O49  1  0.99537207  0.20538087  0.90095738  1
  O  O50  1  0.00462793  0.20538087  0.59904262  1
  O  O51  1  0.49537207  0.29461913  0.09904262  1
