# generated using pymatgen
data_Ba3ZnB5PO14
_symmetry_space_group_name_H-M   'P 1'
_cell_length_a   10.49121624
_cell_length_b   7.18345317
_cell_length_c   8.32283286
_cell_angle_alpha   90.00000000
_cell_angle_beta   90.00000000
_cell_angle_gamma   90.00000000
_symmetry_Int_Tables_number   1
_chemical_formula_structural   Ba3ZnB5PO14
_chemical_formula_sum   'Ba6 Zn2 B10 P2 O28'
_cell_volume   627.23498911
_cell_formula_units_Z   2
loop_
 _symmetry_equiv_pos_site_id
 _symmetry_equiv_pos_as_xyz
  1  'x, y, z'
loop_
 _atom_site_type_symbol
 _atom_site_label
 _atom_site_symmetry_multiplicity
 _atom_site_fract_x
 _atom_site_fract_y
 _atom_site_fract_z
 _atom_site_occupancy
  Ba  Ba0  1  0.73038376  0.56326494  0.43866261  1
  Ba  Ba1  1  0.26961624  0.56326494  0.43866261  1
  Ba  Ba2  1  0.76961624  0.43673506  0.93866261  1
  Ba  Ba3  1  0.23038376  0.43673506  0.93866261  1
  Ba  Ba4  1  0.50000000  0.97295932  0.22534574  1
  Ba  Ba5  1  0.00000000  0.02704068  0.72534574  1
  Zn  Zn6  1  0.00000000  0.24054724  0.33170499  1
  Zn  Zn7  1  0.50000000  0.75945276  0.83170499  1
  B  B8  1  0.76334262  0.05210581  0.42507936  1
  B  B9  1  0.23665738  0.05210581  0.42507936  1
  B  B10  1  0.73665738  0.94789419  0.92507936  1
  B  B11  1  0.26334262  0.94789419  0.92507936  1
  B  B12  1  0.87748808  0.89849141  0.17460707  1
  B  B13  1  0.12251192  0.89849141  0.17460707  1
  B  B14  1  0.62251192  0.10150859  0.67460707  1
  B  B15  1  0.37748808  0.10150859  0.67460707  1
  B  B16  1  0.00000000  0.59441467  0.16097740  1
  B  B17  1  0.50000000  0.40558533  0.66097740  1
  P  P18  1  0.50000000  0.43540123  0.16106728  1
  P  P19  1  0.00000000  0.56459877  0.66106728  1
  O  O20  1  0.62277278  0.32075020  0.20077853  1
  O  O21  1  0.37722722  0.32075020  0.20077853  1
  O  O22  1  0.87722722  0.67924980  0.70077853  1
  O  O23  1  0.12277278  0.67924980  0.70077853  1
  O  O24  1  0.00000000  0.97109006  0.23161294  1
  O  O25  1  0.50000000  0.02890994  0.73161294  1
  O  O26  1  0.61542354  0.31016789  0.65895075  1
  O  O27  1  0.38457646  0.31016789  0.65895075  1
  O  O28  1  0.88457646  0.68983211  0.15895075  1
  O  O29  1  0.11542354  0.68983211  0.15895075  1
  O  O30  1  0.50000000  0.61144839  0.27026003  1
  O  O31  1  0.00000000  0.38855161  0.77026003  1
  O  O32  1  0.00000000  0.40545694  0.14326695  1
  O  O33  1  0.50000000  0.59454306  0.64326695  1
  O  O34  1  0.50000000  0.48005531  0.97900646  1
  O  O35  1  0.00000000  0.51994469  0.47900646  1
  O  O36  1  0.84667237  0.18891991  0.46250803  1
  O  O37  1  0.15332763  0.18891991  0.46250803  1
  O  O38  1  0.65332763  0.81108009  0.96250803  1
  O  O39  1  0.34667237  0.81108009  0.96250803  1
  O  O40  1  0.77339402  0.92961494  0.29449491  1
  O  O41  1  0.22660598  0.92961494  0.29449491  1
  O  O42  1  0.72660598  0.07038506  0.79449491  1
  O  O43  1  0.27339402  0.07038506  0.79449491  1
  O  O44  1  0.65522157  0.01396886  0.51766283  1
  O  O45  1  0.34477843  0.01396886  0.51766283  1
  O  O46  1  0.84477843  0.98603114  0.01766283  1
  O  O47  1  0.15522157  0.98603114  0.01766283  1
