# generated using pymatgen
data_CsSi2BO6
_symmetry_space_group_name_H-M   'P 1'
_cell_length_a   11.38970585
_cell_length_b   11.38970585
_cell_length_c   11.38970585
_cell_angle_alpha   109.90429923
_cell_angle_beta   109.25511631
_cell_angle_gamma   109.25511631
_symmetry_Int_Tables_number   1
_chemical_formula_structural   CsSi2BO6
_chemical_formula_sum   'Cs8 Si16 B8 O48'
_cell_volume   1137.35753082
_cell_formula_units_Z   8
loop_
 _symmetry_equiv_pos_site_id
 _symmetry_equiv_pos_as_xyz
  1  'x, y, z'
loop_
 _atom_site_type_symbol
 _atom_site_label
 _atom_site_symmetry_multiplicity
 _atom_site_fract_x
 _atom_site_fract_y
 _atom_site_fract_z
 _atom_site_occupancy
  Cs  Cs0  1  0.49694627  0.99847264  0.24847264  1
  Cs  Cs1  1  0.25000000  0.25152736  0.74847264  1
  Cs  Cs2  1  0.99694627  0.24847264  0.99847264  1
  Cs  Cs3  1  0.75000000  0.50152736  0.49847264  1
  Cs  Cs4  1  0.50305373  0.00152736  0.75152736  1
  Cs  Cs5  1  0.75000000  0.74847264  0.25152736  1
  Cs  Cs6  1  0.00305373  0.75152736  0.00152736  1
  Cs  Cs7  1  0.25000000  0.49847264  0.50152736  1
  Si  Si8  1  0.20740930  0.95222342  0.42729750  1
  Si  Si9  1  0.47507408  0.71988820  0.92729750  1
  Si  Si10  1  0.70740930  0.42729750  0.95222342  1
  Si  Si11  1  0.52492592  0.74481412  0.45222342  1
  Si  Si12  1  0.79259070  0.04777658  0.57270250  1
  Si  Si13  1  0.52492592  0.28011180  0.07270250  1
  Si  Si14  1  0.29259070  0.57270250  0.04777658  1
  Si  Si15  1  0.47507408  0.25518588  0.54777658  1
  Si  Si16  1  0.02492592  0.45222342  0.74481412  1
  Si  Si17  1  0.29259070  0.21988820  0.24481412  1
  Si  Si18  1  0.97507408  0.92729750  0.71988820  1
  Si  Si19  1  0.79259070  0.24481412  0.21988820  1
  Si  Si20  1  0.97507408  0.54777658  0.25518588  1
  Si  Si21  1  0.70740930  0.78011180  0.75518588  1
  Si  Si22  1  0.02492592  0.07270250  0.28011180  1
  Si  Si23  1  0.20740930  0.75518588  0.78011180  1
  B  B24  1  0.92122374  0.21061187  0.46061187  1
  B  B25  1  0.25000000  0.03938813  0.96061187  1
  B  B26  1  0.42122374  0.46061187  0.21061187  1
  B  B27  1  0.75000000  0.28938813  0.71061187  1
  B  B28  1  0.07877626  0.78938813  0.53938813  1
  B  B29  1  0.75000000  0.96061187  0.03938813  1
  B  B30  1  0.57877626  0.53938813  0.78938813  1
  B  B31  1  0.25000000  0.71061187  0.28938813  1
  O  O32  1  0.27485705  0.68318342  0.16518904  1
  O  O33  1  0.48200562  0.39033199  0.66518904  1
  O  O34  1  0.77485705  0.16518904  0.68318342  1
  O  O35  1  0.51799438  0.40832737  0.18318342  1
  O  O36  1  0.72514295  0.31681658  0.83481096  1
  O  O37  1  0.51799438  0.60966801  0.33481096  1
  O  O38  1  0.22514295  0.83481096  0.31681658  1
  O  O39  1  0.48200562  0.59167263  0.81681658  1
  O  O40  1  0.01799438  0.18318342  0.40832737  1
  O  O41  1  0.22514295  0.89033199  0.90832737  1
  O  O42  1  0.98200562  0.66518904  0.39033199  1
  O  O43  1  0.72514295  0.90832737  0.89033199  1
  O  O44  1  0.98200562  0.81681658  0.59167263  1
  O  O45  1  0.77485705  0.10966801  0.09167263  1
  O  O46  1  0.01799438  0.33481096  0.60966801  1
  O  O47  1  0.27485705  0.09167263  0.10966801  1
  O  O48  1  0.35636915  0.10950730  0.52886318  1
  O  O49  1  0.41935588  0.67249404  0.02886318  1
  O  O50  1  0.85636915  0.52886318  0.10950730  1
  O  O51  1  0.58064412  0.75313816  0.60950730  1
  O  O52  1  0.64363085  0.89049270  0.47113682  1
  O  O53  1  0.58064412  0.32750596  0.97113682  1
  O  O54  1  0.14363085  0.47113682  0.89049270  1
  O  O55  1  0.41935588  0.24686184  0.39049270  1
  O  O56  1  0.08064412  0.60950730  0.75313816  1
  O  O57  1  0.14363085  0.17249404  0.25313816  1
  O  O58  1  0.91935588  0.02886318  0.67249404  1
  O  O59  1  0.64363085  0.25313816  0.17249404  1
  O  O60  1  0.91935588  0.39049270  0.24686184  1
  O  O61  1  0.85636915  0.82750596  0.74686184  1
  O  O62  1  0.08064412  0.97113682  0.32750596  1
  O  O63  1  0.35636915  0.74686184  0.82750596  1
  O  O64  1  0.37547407  0.74551215  0.41759464  1
  O  O65  1  0.67208250  0.54212057  0.91759464  1
  O  O66  1  0.87547407  0.41759464  0.74551215  1
  O  O67  1  0.32791750  0.37003807  0.24551215  1
  O  O68  1  0.62452593  0.25448785  0.58240536  1
  O  O69  1  0.32791750  0.45787943  0.08240536  1
  O  O70  1  0.12452593  0.58240536  0.25448785  1
  O  O71  1  0.67208250  0.62996193  0.75448785  1
  O  O72  1  0.82791750  0.24551215  0.37003807  1
  O  O73  1  0.12452593  0.04212057  0.87003807  1
  O  O74  1  0.17208250  0.91759464  0.54212057  1
  O  O75  1  0.62452593  0.87003807  0.04212057  1
  O  O76  1  0.17208250  0.75448785  0.62996193  1
  O  O77  1  0.87547407  0.95787943  0.12996193  1
  O  O78  1  0.82791750  0.08240536  0.45787943  1
  O  O79  1  0.37547407  0.12996193  0.95787943  1
