# generated using pymatgen
data_NaEuGeO4
_symmetry_space_group_name_H-M   'P 1'
_cell_length_a   11.76342185
_cell_length_b   6.66867887
_cell_length_c   5.37953057
_cell_angle_alpha   90.00000000
_cell_angle_beta   90.00000000
_cell_angle_gamma   90.00000000
_symmetry_Int_Tables_number   1
_chemical_formula_structural   NaEuGeO4
_chemical_formula_sum   'Na4 Eu4 Ge4 O16'
_cell_volume   422.00525195
_cell_formula_units_Z   4
loop_
 _symmetry_equiv_pos_site_id
 _symmetry_equiv_pos_as_xyz
  1  'x, y, z'
loop_
 _atom_site_type_symbol
 _atom_site_label
 _atom_site_symmetry_multiplicity
 _atom_site_fract_x
 _atom_site_fract_y
 _atom_site_fract_z
 _atom_site_occupancy
  Na  Na0  1  0.50000000  0.00000000  0.50000000  1
  Na  Na1  1  -0.00000000  0.50000000  -0.00000000  1
  Na  Na2  1  0.50000000  0.50000000  0.50000000  1
  Na  Na3  1  -0.00000000  0.00000000  -0.00000000  1
  Eu  Eu4  1  0.77758696  0.75000000  0.49859761  1
  Eu  Eu5  1  0.27758696  0.75000000  0.00140239  1
  Eu  Eu6  1  0.22241304  0.25000000  0.50140239  1
  Eu  Eu7  1  0.72241304  0.25000000  0.99859761  1
  Ge  Ge8  1  0.59505772  0.75000000  0.94211888  1
  Ge  Ge9  1  0.09505772  0.75000000  0.55788112  1
  Ge  Ge10  1  0.40494228  0.25000000  0.05788112  1
  Ge  Ge11  1  0.90494228  0.25000000  0.44211888  1
  O  O12  1  0.45540926  0.75000000  0.82004018  1
  O  O13  1  0.95540926  0.75000000  0.67995982  1
  O  O14  1  0.54459074  0.25000000  0.17995982  1
  O  O15  1  0.04459074  0.25000000  0.32004018  1
  O  O16  1  0.60648532  0.75000000  0.26656488  1
  O  O17  1  0.10648532  0.75000000  0.23343512  1
  O  O18  1  0.39351468  0.25000000  0.73343512  1
  O  O19  1  0.89351468  0.25000000  0.76656488  1
  O  O20  1  0.66903827  0.54599161  0.79091045  1
  O  O21  1  0.16903827  0.95400839  0.70908955  1
  O  O22  1  0.33096173  0.04599161  0.20908955  1
  O  O23  1  0.83096173  0.45400839  0.29091045  1
  O  O24  1  0.33096173  0.45400839  0.20908955  1
  O  O25  1  0.83096173  0.04599161  0.29091045  1
  O  O26  1  0.66903827  0.95400839  0.79091045  1
  O  O27  1  0.16903827  0.54599161  0.70908955  1
