# generated using pymatgen
data_KB(SO4)2
_symmetry_space_group_name_H-M   'P 1'
_cell_length_a   7.54276750
_cell_length_b   9.22610595
_cell_length_c   9.22610595
_cell_angle_alpha   90.00000000
_cell_angle_beta   90.00000000
_cell_angle_gamma   90.00000000
_symmetry_Int_Tables_number   1
_chemical_formula_structural   KB(SO4)2
_chemical_formula_sum   'K4 B4 S8 O32'
_cell_volume   642.04814620
_cell_formula_units_Z   4
loop_
 _symmetry_equiv_pos_site_id
 _symmetry_equiv_pos_as_xyz
  1  'x, y, z'
loop_
 _atom_site_type_symbol
 _atom_site_label
 _atom_site_symmetry_multiplicity
 _atom_site_fract_x
 _atom_site_fract_y
 _atom_site_fract_z
 _atom_site_occupancy
  K  K0  1  0.43626163  0.75000000  0.75000000  1
  K  K1  1  0.93626163  0.75000000  0.75000000  1
  K  K2  1  0.56373837  0.25000000  0.25000000  1
  K  K3  1  0.06373837  0.25000000  0.25000000  1
  B  B4  1  0.50000000  0.75000000  0.25000000  1
  B  B5  1  0.00000000  0.75000000  0.25000000  1
  B  B6  1  0.00000000  0.25000000  0.75000000  1
  B  B7  1  0.50000000  0.25000000  0.75000000  1
  S  S8  1  0.25000000  0.90388354  0.09611646  1
  S  S9  1  0.75000000  0.59611646  0.09611646  1
  S  S10  1  0.75000000  0.90388354  0.40388354  1
  S  S11  1  0.25000000  0.59611646  0.40388354  1
  S  S12  1  0.75000000  0.09611646  0.90388354  1
  S  S13  1  0.25000000  0.40388354  0.90388354  1
  S  S14  1  0.25000000  0.09611646  0.59611646  1
  S  S15  1  0.75000000  0.40388354  0.59611646  1
  O  O16  1  0.17806167  0.62403866  0.54565979  1
  O  O17  1  0.67806167  0.87596134  0.54565979  1
  O  O18  1  0.67806167  0.62403866  0.95434021  1
  O  O19  1  0.17806167  0.87596134  0.95434021  1
  O  O20  1  0.67806167  0.54565979  0.62403866  1
  O  O21  1  0.17806167  0.95434021  0.62403866  1
  O  O22  1  0.17806167  0.54565979  0.87596134  1
  O  O23  1  0.67806167  0.95434021  0.87596134  1
  O  O24  1  0.82193833  0.37596134  0.45434021  1
  O  O25  1  0.32193833  0.12403866  0.45434021  1
  O  O26  1  0.32193833  0.37596134  0.04565979  1
  O  O27  1  0.82193833  0.12403866  0.04565979  1
  O  O28  1  0.32193833  0.45434021  0.37596134  1
  O  O29  1  0.82193833  0.04565979  0.37596134  1
  O  O30  1  0.82193833  0.45434021  0.12403866  1
  O  O31  1  0.32193833  0.04565979  0.12403866  1
  O  O32  1  0.39153168  0.12076894  0.71700468  1
  O  O33  1  0.89153168  0.37923106  0.71700468  1
  O  O34  1  0.89153168  0.12076894  0.78299532  1
  O  O35  1  0.39153168  0.37923106  0.78299532  1
  O  O36  1  0.89153168  0.71700468  0.12076894  1
  O  O37  1  0.39153168  0.78299532  0.12076894  1
  O  O38  1  0.39153168  0.71700468  0.37923106  1
  O  O39  1  0.89153168  0.78299532  0.37923106  1
  O  O40  1  0.60846832  0.87923106  0.28299532  1
  O  O41  1  0.10846832  0.62076894  0.28299532  1
  O  O42  1  0.10846832  0.87923106  0.21700468  1
  O  O43  1  0.60846832  0.62076894  0.21700468  1
  O  O44  1  0.10846832  0.28299532  0.87923106  1
  O  O45  1  0.60846832  0.21700468  0.87923106  1
  O  O46  1  0.60846832  0.28299532  0.62076894  1
  O  O47  1  0.10846832  0.21700468  0.62076894  1
