# generated using pymatgen
data_BaEu2O4
_symmetry_space_group_name_H-M   'P 1'
_cell_length_a   10.60788751
_cell_length_b   3.58064938
_cell_length_c   12.46557987
_cell_angle_alpha   90.00000000
_cell_angle_beta   90.00000000
_cell_angle_gamma   90.00000000
_symmetry_Int_Tables_number   1
_chemical_formula_structural   BaEu2O4
_chemical_formula_sum   'Ba4 Eu8 O16'
_cell_volume   473.48168882
_cell_formula_units_Z   4
loop_
 _symmetry_equiv_pos_site_id
 _symmetry_equiv_pos_as_xyz
  1  'x, y, z'
loop_
 _atom_site_type_symbol
 _atom_site_label
 _atom_site_symmetry_multiplicity
 _atom_site_fract_x
 _atom_site_fract_y
 _atom_site_fract_z
 _atom_site_occupancy
  Eu  Eu0  1  0.57798254  0.25000000  0.10917294  1
  Eu  Eu1  1  0.07798254  0.25000000  0.39082706  1
  Eu  Eu2  1  0.42201746  0.75000000  0.89082706  1
  Eu  Eu3  1  0.92201746  0.75000000  0.60917294  1
  Eu  Eu4  1  0.07471537  0.25000000  0.88812775  1
  Eu  Eu5  1  0.57471537  0.25000000  0.61187225  1
  Eu  Eu6  1  0.92528463  0.75000000  0.11187225  1
  Eu  Eu7  1  0.42528463  0.75000000  0.38812775  1
  Ba  Ba8  1  0.74754475  0.25000000  0.85008166  1
  Ba  Ba9  1  0.24754475  0.25000000  0.64991834  1
  Ba  Ba10  1  0.25245525  0.75000000  0.14991834  1
  Ba  Ba11  1  0.75245525  0.75000000  0.35008166  1
  O  O12  1  0.78701300  0.25000000  0.16794137  1
  O  O13  1  0.28701300  0.25000000  0.33205863  1
  O  O14  1  0.21298700  0.75000000  0.83205863  1
  O  O15  1  0.71298700  0.75000000  0.66794137  1
  O  O16  1  0.88198552  0.25000000  0.48114177  1
  O  O17  1  0.38198552  0.25000000  0.01885823  1
  O  O18  1  0.11801448  0.75000000  0.51885823  1
  O  O19  1  0.61801448  0.75000000  0.98114177  1
  O  O20  1  0.98508531  0.25000000  0.71636739  1
  O  O21  1  0.48508531  0.25000000  0.78363261  1
  O  O22  1  0.01491469  0.75000000  0.28363261  1
  O  O23  1  0.51491469  0.75000000  0.21636739  1
  O  O24  1  0.57277495  0.25000000  0.42448691  1
  O  O25  1  0.07277495  0.25000000  0.07551309  1
  O  O26  1  0.42722505  0.75000000  0.57551309  1
  O  O27  1  0.92722505  0.75000000  0.92448691  1
