# generated using pymatgen
data_Dy2Si3Ni
_symmetry_space_group_name_H-M   'P 1'
_cell_length_a   4.01059521
_cell_length_b   4.01198852
_cell_length_c   7.97584402
_cell_angle_alpha   90.00000000
_cell_angle_beta   90.00000000
_cell_angle_gamma   60.35091913
_symmetry_Int_Tables_number   1
_chemical_formula_structural   Dy2Si3Ni
_chemical_formula_sum   'Dy2 Si3 Ni1'
_cell_volume   111.53230226
_cell_formula_units_Z   1
loop_
 _symmetry_equiv_pos_site_id
 _symmetry_equiv_pos_as_xyz
  1  'x, y, z'
loop_
 _atom_site_type_symbol
 _atom_site_label
 _atom_site_symmetry_multiplicity
 _atom_site_fract_x
 _atom_site_fract_y
 _atom_site_fract_z
 _atom_site_occupancy
  Dy  Dy0  1  0.99999845  0.00007244  0.01171801  1
  Dy  Dy1  1  0.99999845  0.00007244  0.48828199  1
  Si  Si2  1  0.66628404  0.66618716  0.75000000  1
  Si  Si3  1  0.33295175  0.33280457  0.25000000  1
  Si  Si4  1  0.33360471  0.33372956  0.75000000  1
  Ni  Ni5  1  0.66696259  0.66713384  0.25000000  1
