# generated using pymatgen
data_Na2PdS2
_symmetry_space_group_name_H-M   'P 1'
_cell_length_a   3.58954801
_cell_length_b   5.52334606
_cell_length_c   10.98050257
_cell_angle_alpha   90.00000000
_cell_angle_beta   90.00000000
_cell_angle_gamma   108.96213663
_symmetry_Int_Tables_number   1
_chemical_formula_structural   Na2PdS2
_chemical_formula_sum   'Na4 Pd2 S4'
_cell_volume   205.88894105
_cell_formula_units_Z   2
loop_
 _symmetry_equiv_pos_site_id
 _symmetry_equiv_pos_as_xyz
  1  'x, y, z'
loop_
 _atom_site_type_symbol
 _atom_site_label
 _atom_site_symmetry_multiplicity
 _atom_site_fract_x
 _atom_site_fract_y
 _atom_site_fract_z
 _atom_site_occupancy
  Na  Na0  1  0.43004452  0.86008904  0.87642978  1
  Na  Na1  1  0.56995548  0.13991096  0.37642978  1
  Na  Na2  1  0.82794543  0.65589086  0.58809079  1
  Na  Na3  1  0.17205457  0.34410914  0.08809079  1
  S  S4  1  0.54815032  0.09630065  0.63436605  1
  S  S5  1  0.45184968  0.90369935  0.13436605  1
  S  S6  1  0.71734073  0.43468146  0.87000102  1
  S  S7  1  0.28265927  0.56531854  0.37000102  1
  Pd  Pd8  1  0.13360197  0.26720394  0.75111235  1
  Pd  Pd9  1  0.86639803  0.73279606  0.25111235  1
