# generated using pymatgen
data_Zn2CrN3
_symmetry_space_group_name_H-M   'P 1'
_cell_length_a   5.54243667
_cell_length_b   5.57539563
_cell_length_c   5.24938587
_cell_angle_alpha   90.00000000
_cell_angle_beta   90.00000000
_cell_angle_gamma   120.19690599
_symmetry_Int_Tables_number   1
_chemical_formula_structural   Zn2CrN3
_chemical_formula_sum   'Zn4 Cr2 N6'
_cell_volume   140.20077915
_cell_formula_units_Z   2
loop_
 _symmetry_equiv_pos_site_id
 _symmetry_equiv_pos_as_xyz
  1  'x, y, z'
loop_
 _atom_site_type_symbol
 _atom_site_label
 _atom_site_symmetry_multiplicity
 _atom_site_fract_x
 _atom_site_fract_y
 _atom_site_fract_z
 _atom_site_occupancy
  Zn  Zn0  1  0.33006051  0.83164326  0.47300560  1
  Zn  Zn1  1  0.66993949  0.50158275  0.47300560  1
  Zn  Zn2  1  0.66993949  0.16835674  0.97300560  1
  Zn  Zn3  1  0.33006051  0.49841725  0.97300560  1
  Cr  Cr4  1  -0.00000000  0.83675972  0.95961335  1
  Cr  Cr5  1  0.00000000  0.16324028  0.45961335  1
  N  N6  1  0.30394168  0.83423475  0.86282530  1
  N  N7  1  0.69605832  0.53029307  0.86282530  1
  N  N8  1  0.69605832  0.16576525  0.36282530  1
  N  N9  1  0.30394168  0.46970693  0.36282530  1
  N  N10  1  -0.00000000  0.86076698  0.31310386  1
  N  N11  1  0.00000000  0.13923302  0.81310386  1
