# generated using pymatgen
data_Li3CoN2
_symmetry_space_group_name_H-M   'P 1'
_cell_length_a   8.17144777
_cell_length_b   9.43557488
_cell_length_c   9.43557504
_cell_angle_alpha   89.99999813
_cell_angle_beta   125.26438769
_cell_angle_gamma   54.73561162
_symmetry_Int_Tables_number   1
_chemical_formula_structural   Li3CoN2
_chemical_formula_sum   'Li24 Co8 N16'
_cell_volume   420.02500048
_cell_formula_units_Z   8
loop_
 _symmetry_equiv_pos_site_id
 _symmetry_equiv_pos_as_xyz
  1  'x, y, z'
loop_
 _atom_site_type_symbol
 _atom_site_label
 _atom_site_symmetry_multiplicity
 _atom_site_fract_x
 _atom_site_fract_y
 _atom_site_fract_z
 _atom_site_occupancy
  Li  Li0  1  0.22239029  0.03523151  0.97969148  1
  Li  Li1  1  0.77760971  0.75762180  0.52030852  1
  Li  Li2  1  0.77760971  0.46476849  0.75730120  1
  Li  Li3  1  0.22239029  0.74237820  0.74269880  1
  Li  Li4  1  0.26300732  0.75730120  0.27793032  1
  Li  Li5  1  0.73699268  0.74269880  0.01492300  1
  Li  Li6  1  0.26300732  0.97969148  0.48507700  1
  Li  Li7  1  0.73699268  0.52030852  0.22206968  1
  Li  Li8  1  0.70714669  0.01492300  0.74237820  1
  Li  Li9  1  0.70714669  0.27793032  0.46476849  1
  Li  Li10  1  0.29285331  0.22206968  0.75762180  1
  Li  Li11  1  0.29285331  0.48507700  0.03523151  1
  Li  Li12  1  0.77760971  0.96476849  0.02030852  1
  Li  Li13  1  0.22239029  0.24237820  0.47969148  1
  Li  Li14  1  0.22239029  0.53523151  0.24269880  1
  Li  Li15  1  0.77760971  0.25762180  0.25730120  1
  Li  Li16  1  0.73699268  0.24269880  0.72206968  1
  Li  Li17  1  0.26300732  0.25730120  0.98507700  1
  Li  Li18  1  0.73699268  0.02030852  0.51492300  1
  Li  Li19  1  0.26300732  0.47969148  0.77793032  1
  Li  Li20  1  0.29285331  0.98507700  0.25762180  1
  Li  Li21  1  0.29285331  0.72206968  0.53523151  1
  Li  Li22  1  0.70714669  0.77793032  0.24237820  1
  Li  Li23  1  0.70714669  0.51492300  0.96476849  1
  Co  Co24  1  0.22594206  1.00000000  0.72594206  1
  Co  Co25  1  0.77405794  0.72594206  0.77405794  1
  Co  Co26  1  0.77405794  0.50000000  0.50000000  1
  Co  Co27  1  0.22594206  0.77405794  0.00000000  1
  Co  Co28  1  0.77405794  0.00000000  0.27405794  1
  Co  Co29  1  0.22594206  0.27405794  0.22594206  1
  Co  Co30  1  0.22594206  0.50000000  0.50000000  1
  Co  Co31  1  0.77405794  0.22594206  1.00000000  1
  N  N32  1  0.00000000  0.00000000  0.50000000  1
  N  N33  1  0.00000000  0.50000000  0.00000000  1
  N  N34  1  0.00000000  0.50000000  0.50000000  1
  N  N35  1  0.00000000  0.00000000  0.00000000  1
  N  N36  1  0.50000000  0.96669203  0.75000000  1
  N  N37  1  0.50000000  0.53330797  0.25000000  1
  N  N38  1  1.00000000  0.25000000  0.71669203  1
  N  N39  1  0.00000000  0.75000000  0.78330797  1
  N  N40  1  0.56661595  0.71669203  0.53330797  1
  N  N41  1  0.43338405  0.78330797  0.96669203  1
  N  N42  1  0.50000000  0.03330797  0.25000000  1
  N  N43  1  0.50000000  0.46669203  0.75000000  1
  N  N44  1  0.00000000  0.75000000  0.28330797  1
  N  N45  1  1.00000000  0.25000000  0.21669203  1
  N  N46  1  0.43338405  0.28330797  0.46669203  1
  N  N47  1  0.56661595  0.21669203  0.03330797  1
