# generated using pymatgen
data_Rb2MgCl4
_symmetry_space_group_name_H-M   'P 1'
_cell_length_a   5.05879453
_cell_length_b   5.05879453
_cell_length_c   8.93944750
_cell_angle_alpha   106.43621947
_cell_angle_beta   106.43621947
_cell_angle_gamma   90.00000000
_symmetry_Int_Tables_number   1
_chemical_formula_structural   Rb2MgCl4
_chemical_formula_sum   'Rb2 Mg1 Cl4'
_cell_volume   209.65906773
_cell_formula_units_Z   1
loop_
 _symmetry_equiv_pos_site_id
 _symmetry_equiv_pos_as_xyz
  1  'x, y, z'
loop_
 _atom_site_type_symbol
 _atom_site_label
 _atom_site_symmetry_multiplicity
 _atom_site_fract_x
 _atom_site_fract_y
 _atom_site_fract_z
 _atom_site_occupancy
  Rb  Rb0  1  0.35631706  0.35631706  0.71263413  1
  Rb  Rb1  1  0.64368294  0.64368294  0.28736587  1
  Mg  Mg2  1  -0.00000000  -0.00000000  -0.00000000  1
  Cl  Cl3  1  0.15397139  0.15397139  0.30794279  1
  Cl  Cl4  1  0.84602861  0.84602861  0.69205721  1
  Cl  Cl5  1  0.00000000  0.50000000  0.00000000  1
  Cl  Cl6  1  0.50000000  0.00000000  -0.00000000  1
