# generated using pymatgen
data_LiTi2N3
_symmetry_space_group_name_H-M   'P 1'
_cell_length_a   6.07743295
_cell_length_b   6.29451087
_cell_length_c   4.15750600
_cell_angle_alpha   90.00000000
_cell_angle_beta   90.00000000
_cell_angle_gamma   121.18876795
_symmetry_Int_Tables_number   1
_chemical_formula_structural   LiTi2N3
_chemical_formula_sum   'Li2 Ti4 N6'
_cell_volume   136.05599995
_cell_formula_units_Z   2
loop_
 _symmetry_equiv_pos_site_id
 _symmetry_equiv_pos_as_xyz
  1  'x, y, z'
loop_
 _atom_site_type_symbol
 _atom_site_label
 _atom_site_symmetry_multiplicity
 _atom_site_fract_x
 _atom_site_fract_y
 _atom_site_fract_z
 _atom_site_occupancy
  Li  Li0  1  0.00000000  0.64813400  0.43136200  1
  Li  Li1  1  0.00000000  0.35186600  0.93136200  1
  Ti  Ti2  1  0.32418200  0.33171400  0.43132600  1
  Ti  Ti3  1  0.67581800  0.00753100  0.43132600  1
  Ti  Ti4  1  0.67581800  0.66828600  0.93132600  1
  Ti  Ti5  1  0.32418200  0.99246900  0.93132600  1
  N  N6  1  0.36424100  0.32991100  0.93132500  1
  N  N7  1  0.63575900  0.96567000  0.93132500  1
  N  N8  1  0.63575900  0.67008900  0.43132500  1
  N  N9  1  0.36424100  0.03433000  0.43132500  1
  N  N10  1  0.00000000  0.69937700  0.93133500  1
  N  N11  1  0.00000000  0.30062300  0.43133500  1
