# generated using pymatgen
data_Li2PNO2
_symmetry_space_group_name_H-M   'P 1'
_cell_length_a   4.74896882
_cell_length_b   5.33040181
_cell_length_c   5.33040181
_cell_angle_alpha   118.37199812
_cell_angle_beta   90.00000000
_cell_angle_gamma   90.00000000
_symmetry_Int_Tables_number   1
_chemical_formula_structural   Li2PNO2
_chemical_formula_sum   'Li4 P2 N2 O4'
_cell_volume   118.72525534
_cell_formula_units_Z   2
loop_
 _symmetry_equiv_pos_site_id
 _symmetry_equiv_pos_as_xyz
  1  'x, y, z'
loop_
 _atom_site_type_symbol
 _atom_site_label
 _atom_site_symmetry_multiplicity
 _atom_site_fract_x
 _atom_site_fract_y
 _atom_site_fract_z
 _atom_site_occupancy
  Li  Li0  1  0.50155589  0.99379302  0.32513639  1
  Li  Li1  1  0.50155589  0.32513639  0.99379302  1
  Li  Li2  1  0.00155589  0.00620698  0.67486361  1
  Li  Li3  1  0.00155589  0.67486361  0.00620698  1
  P  P4  1  0.49851054  0.65375039  0.65375039  1
  P  P5  1  0.99851054  0.34624961  0.34624961  1
  N  N6  1  0.34117556  0.38699957  0.38699957  1
  N  N7  1  0.84117556  0.61300043  0.61300043  1
  O  O8  1  0.41910106  0.66640285  0.94449660  1
  O  O9  1  0.41910106  0.94449660  0.66640285  1
  O  O10  1  0.91910106  0.33359715  0.05550340  1
  O  O11  1  0.91910106  0.05550340  0.33359715  1
