# generated using pymatgen
data_Li2MnV5O12
_symmetry_space_group_name_H-M   'P 1'
_cell_length_a   6.90093943
_cell_length_b   6.90093967
_cell_length_c   5.81485496
_cell_angle_alpha   75.10380993
_cell_angle_beta   104.89619178
_cell_angle_gamma   96.43432588
_symmetry_Int_Tables_number   1
_chemical_formula_structural   Li2MnV5O12
_chemical_formula_sum   'Li2 Mn1 V5 O12'
_cell_volume   258.30692263
_cell_formula_units_Z   1
loop_
 _symmetry_equiv_pos_site_id
 _symmetry_equiv_pos_as_xyz
  1  'x, y, z'
loop_
 _atom_site_type_symbol
 _atom_site_label
 _atom_site_symmetry_multiplicity
 _atom_site_fract_x
 _atom_site_fract_y
 _atom_site_fract_z
 _atom_site_occupancy
  Li  Li0  1  0.24551604  0.24551604  0.25000000  1
  Li  Li1  1  0.75302145  0.75302145  0.75000000  1
  Mn  Mn2  1  0.91496931  0.91496931  0.25000000  1
  V  V3  1  0.08650153  0.08650153  0.75000000  1
  V  V4  1  0.19541634  0.60465657  0.76798629  1
  V  V5  1  0.39222372  0.79636282  0.26438605  1
  V  V6  1  0.60465657  0.19541634  0.73201371  1
  V  V7  1  0.79636282  0.39222372  0.23561395  1
  O  O8  1  0.02261223  0.80825663  0.65793147  1
  O  O9  1  0.10119112  0.35238120  0.82546249  1
  O  O10  1  0.20379502  0.98174842  0.13710988  1
  O  O11  1  0.36213925  0.65153365  0.55763783  1
  O  O12  1  0.35238120  0.10119112  0.67453751  1
  O  O13  1  0.36071512  0.62956872  0.06597529  1
  O  O14  1  0.65153365  0.36213925  0.94236217  1
  O  O15  1  0.63080397  0.90658592  0.32620013  1
  O  O16  1  0.62956872  0.36071512  0.43402471  1
  O  O17  1  0.80825663  0.02261223  0.84206853  1
  O  O18  1  0.90658592  0.63080397  0.17379987  1
  O  O19  1  0.98174842  0.20379502  0.36289012  1
