# generated using pymatgen
data_KSi2BO6
_symmetry_space_group_name_H-M   'P 1'
_cell_length_a   4.78068460
_cell_length_b   10.10641846
_cell_length_c   10.57487069
_cell_angle_alpha   90.00000000
_cell_angle_beta   90.00000000
_cell_angle_gamma   90.00000000
_symmetry_Int_Tables_number   1
_chemical_formula_structural   KSi2BO6
_chemical_formula_sum   'K4 Si8 B4 O24'
_cell_volume   510.93121272
_cell_formula_units_Z   4
loop_
 _symmetry_equiv_pos_site_id
 _symmetry_equiv_pos_as_xyz
  1  'x, y, z'
loop_
 _atom_site_type_symbol
 _atom_site_label
 _atom_site_symmetry_multiplicity
 _atom_site_fract_x
 _atom_site_fract_y
 _atom_site_fract_z
 _atom_site_occupancy
  K  K0  1  0.79754505  0.96565518  0.81111255  1
  K  K1  1  0.70245495  0.03434482  0.31111255  1
  K  K2  1  0.29754505  0.53434482  0.18888745  1
  K  K3  1  0.20245495  0.46565518  0.68888745  1
  Si  Si4  1  0.78582706  0.60904164  0.93503016  1
  Si  Si5  1  0.71417294  0.39095836  0.43503016  1
  Si  Si6  1  0.28582706  0.89095836  0.06496984  1
  Si  Si7  1  0.21417294  0.10904164  0.56496984  1
  Si  Si8  1  0.26613035  0.80197488  0.57561149  1
  Si  Si9  1  0.23386965  0.19802512  0.07561149  1
  Si  Si10  1  0.76613035  0.69802512  0.42438851  1
  Si  Si11  1  0.73386965  0.30197488  0.92438851  1
  B  B12  1  0.28910257  0.73133237  0.84309501  1
  B  B13  1  0.21089743  0.26866763  0.34309501  1
  B  B14  1  0.78910257  0.76866763  0.15690499  1
  B  B15  1  0.71089743  0.23133237  0.65690499  1
  O  O16  1  0.98922797  0.69386335  0.84187227  1
  O  O17  1  0.51077203  0.30613665  0.34187227  1
  O  O18  1  0.48922797  0.80613665  0.15812773  1
  O  O19  1  0.01077203  0.19386335  0.65812773  1
  O  O20  1  0.33039871  0.85630298  0.91497252  1
  O  O21  1  0.16960129  0.14369702  0.41497252  1
  O  O22  1  0.83039871  0.64369702  0.08502748  1
  O  O23  1  0.66960129  0.35630298  0.58502748  1
  O  O24  1  0.45744517  0.62144934  0.89475059  1
  O  O25  1  0.04255483  0.37855066  0.39475059  1
  O  O26  1  0.95744517  0.87855066  0.10524941  1
  O  O27  1  0.54255483  0.12144934  0.60524941  1
  O  O28  1  0.38247034  0.75545791  0.71127292  1
  O  O29  1  0.11752966  0.24454209  0.21127292  1
  O  O30  1  0.88247034  0.74454209  0.28872708  1
  O  O31  1  0.61752966  0.25545791  0.78872708  1
  O  O32  1  0.02475546  0.69760332  0.52683741  1
  O  O33  1  0.47524454  0.30239668  0.02683741  1
  O  O34  1  0.52475546  0.80239668  0.47316259  1
  O  O35  1  0.97524454  0.19760332  0.97316259  1
  O  O36  1  0.12923516  0.95046323  0.57931471  1
  O  O37  1  0.37076484  0.04953677  0.07931471  1
  O  O38  1  0.62923516  0.54953677  0.42068529  1
  O  O39  1  0.87076484  0.45046323  0.92068529  1
