# generated using pymatgen
data_Ca2TaN3
_symmetry_space_group_name_H-M   'P 1'
_cell_length_a   6.30257668
_cell_length_b   11.15932120
_cell_length_c   11.73075072
_cell_angle_alpha   90.00000000
_cell_angle_beta   90.00000000
_cell_angle_gamma   27.71175626
_symmetry_Int_Tables_number   1
_chemical_formula_structural   Ca2TaN3
_chemical_formula_sum   'Ca8 Ta4 N12'
_cell_volume   383.66909311
_cell_formula_units_Z   4
loop_
 _symmetry_equiv_pos_site_id
 _symmetry_equiv_pos_as_xyz
  1  'x, y, z'
loop_
 _atom_site_type_symbol
 _atom_site_label
 _atom_site_symmetry_multiplicity
 _atom_site_fract_x
 _atom_site_fract_y
 _atom_site_fract_z
 _atom_site_occupancy
  Ca  Ca0  1  0.00000000  0.46213794  0.64587095  1
  Ca  Ca1  1  0.00000000  0.53786206  0.35412905  1
  Ca  Ca2  1  0.00000000  0.03786206  0.14587095  1
  Ca  Ca3  1  0.00000000  0.96213794  0.85412905  1
  Ca  Ca4  1  0.00000000  0.12725246  0.57991696  1
  Ca  Ca5  1  0.00000000  0.87274754  0.42008304  1
  Ca  Ca6  1  0.00000000  0.37274754  0.07991696  1
  Ca  Ca7  1  0.00000000  0.62725246  0.92008304  1
  Ta  Ta8  1  0.00000000  0.24789584  0.84140758  1
  Ta  Ta9  1  0.00000000  0.75210416  0.15859242  1
  Ta  Ta10  1  0.00000000  0.25210416  0.34140758  1
  Ta  Ta11  1  0.00000000  0.74789584  0.65859242  1
  N  N12  1  0.00000000  0.15733655  0.97959243  1
  N  N13  1  0.00000000  0.84266345  0.02040757  1
  N  N14  1  0.00000000  0.34266345  0.47959243  1
  N  N15  1  0.00000000  0.65733655  0.52040757  1
  N  N16  1  0.00000000  0.42094803  0.86366737  1
  N  N17  1  0.00000000  0.57905197  0.13633263  1
  N  N18  1  0.00000000  0.07905197  0.36366737  1
  N  N19  1  0.00000000  0.92094803  0.63633263  1
  N  N20  1  0.50000000  0.43041688  0.75000000  1
  N  N21  1  0.50000000  0.06958312  0.25000000  1
  N  N22  1  0.50000000  0.56958312  0.25000000  1
  N  N23  1  0.50000000  0.93041688  0.75000000  1
