# generated using pymatgen
data_Ca2MnN3
_symmetry_space_group_name_H-M   'P 1'
_cell_length_a   5.45701647
_cell_length_b   10.49609805
_cell_length_c   11.62538128
_cell_angle_alpha   90.00000000
_cell_angle_beta   90.00000000
_cell_angle_gamma   90.00000000
_symmetry_Int_Tables_number   1
_chemical_formula_structural   Ca2MnN3
_chemical_formula_sum   'Ca16 Mn8 N24'
_cell_volume   665.87138040
_cell_formula_units_Z   8
loop_
 _symmetry_equiv_pos_site_id
 _symmetry_equiv_pos_as_xyz
  1  'x, y, z'
loop_
 _atom_site_type_symbol
 _atom_site_label
 _atom_site_symmetry_multiplicity
 _atom_site_fract_x
 _atom_site_fract_y
 _atom_site_fract_z
 _atom_site_occupancy
  Ca  Ca0  1  0.50000000  0.05133011  0.35557985  1
  Ca  Ca1  1  -0.00000000  0.44866989  0.64442015  1
  Ca  Ca2  1  0.50000000  0.44866989  0.85557985  1
  Ca  Ca3  1  -0.00000000  0.05133011  0.14442015  1
  Ca  Ca4  1  0.50000000  0.36061077  0.42299138  1
  Ca  Ca5  1  -0.00000000  0.13938923  0.57700862  1
  Ca  Ca6  1  0.50000000  0.13938923  0.92299138  1
  Ca  Ca7  1  -0.00000000  0.36061077  0.07700862  1
  Ca  Ca8  1  -0.00000000  0.55133011  0.35557985  1
  Ca  Ca9  1  0.50000000  0.94866989  0.64442015  1
  Ca  Ca10  1  0.00000000  0.94866989  0.85557985  1
  Ca  Ca11  1  0.50000000  0.55133011  0.14442015  1
  Ca  Ca12  1  -0.00000000  0.86061077  0.42299138  1
  Ca  Ca13  1  0.50000000  0.63938923  0.57700862  1
  Ca  Ca14  1  -0.00000000  0.63938923  0.92299138  1
  Ca  Ca15  1  0.50000000  0.86061077  0.07700862  1
  Mn  Mn16  1  0.50000000  0.24586194  0.16086052  1
  Mn  Mn17  1  -0.00000000  0.25413806  0.83913948  1
  Mn  Mn18  1  0.50000000  0.25413806  0.66086052  1
  Mn  Mn19  1  0.00000000  0.24586194  0.33913948  1
  Mn  Mn20  1  -0.00000000  0.74586194  0.16086052  1
  Mn  Mn21  1  0.50000000  0.75413806  0.83913948  1
  Mn  Mn22  1  -0.00000000  0.75413806  0.66086052  1
  Mn  Mn23  1  0.50000000  0.74586194  0.33913948  1
  N  N24  1  0.50000000  0.34342332  0.03873323  1
  N  N25  1  -0.00000000  0.15657668  0.96126677  1
  N  N26  1  0.50000000  0.15657668  0.53873323  1
  N  N27  1  -0.00000000  0.34342332  0.46126677  1
  N  N28  1  0.50000000  0.07946772  0.13444002  1
  N  N29  1  -0.00000000  0.42053228  0.86555998  1
  N  N30  1  0.50000000  0.42053228  0.63444002  1
  N  N31  1  -0.00000000  0.07946772  0.36555998  1
  N  N32  1  0.25000000  0.28639013  0.25000000  1
  N  N33  1  0.75000000  0.21360987  0.75000000  1
  N  N34  1  0.25000000  0.21360987  0.75000000  1
  N  N35  1  0.75000000  0.28639013  0.25000000  1
  N  N36  1  -0.00000000  0.84342332  0.03873323  1
  N  N37  1  0.50000000  0.65657668  0.96126677  1
  N  N38  1  -0.00000000  0.65657668  0.53873323  1
  N  N39  1  0.50000000  0.84342332  0.46126677  1
  N  N40  1  -0.00000000  0.57946772  0.13444002  1
  N  N41  1  0.50000000  0.92053228  0.86555998  1
  N  N42  1  -0.00000000  0.92053228  0.63444002  1
  N  N43  1  0.50000000  0.57946772  0.36555998  1
  N  N44  1  0.75000000  0.78639013  0.25000000  1
  N  N45  1  0.25000000  0.71360987  0.75000000  1
  N  N46  1  0.75000000  0.71360987  0.75000000  1
  N  N47  1  0.25000000  0.78639013  0.25000000  1
