# generated using pymatgen
data_K3W2N5
_symmetry_space_group_name_H-M   'P 1'
_cell_length_a   13.03993160
_cell_length_b   13.03993160
_cell_length_c   9.56216720
_cell_angle_alpha   90.00000000
_cell_angle_beta   90.00000000
_cell_angle_gamma   90.00000000
_symmetry_Int_Tables_number   1
_chemical_formula_structural   K3W2N5
_chemical_formula_sum   'K24 W16 N40'
_cell_volume   1625.94915252
_cell_formula_units_Z   8
loop_
 _symmetry_equiv_pos_site_id
 _symmetry_equiv_pos_as_xyz
  1  'x, y, z'
loop_
 _atom_site_type_symbol
 _atom_site_label
 _atom_site_symmetry_multiplicity
 _atom_site_fract_x
 _atom_site_fract_y
 _atom_site_fract_z
 _atom_site_occupancy
  K  K0  1  0.09847443  0.28035938  0.76842333  1
  K  K1  1  0.90152557  0.71964062  0.76842333  1
  K  K2  1  0.78035938  0.90152557  0.01842333  1
  K  K3  1  0.21964062  0.09847443  0.01842333  1
  K  K4  1  0.07969813  0.77509790  0.43931831  1
  K  K5  1  0.92030187  0.22490210  0.43931831  1
  K  K6  1  0.27509790  0.92030187  0.68931831  1
  K  K7  1  0.72490210  0.07969813  0.68931831  1
  K  K8  1  -0.00000000  0.50000000  0.94883661  1
  K  K9  1  -0.00000000  -0.00000000  0.19883661  1
  K  K10  1  -0.00000000  -0.00000000  0.74414836  1
  K  K11  1  -0.00000000  0.50000000  0.49414836  1
  K  K12  1  0.59847443  0.78035938  0.26842333  1
  K  K13  1  0.40152557  0.21964062  0.26842333  1
  K  K14  1  0.28035938  0.40152557  0.51842333  1
  K  K15  1  0.71964062  0.59847443  0.51842333  1
  K  K16  1  0.57969813  0.27509790  0.93931831  1
  K  K17  1  0.42030187  0.72490210  0.93931831  1
  K  K18  1  0.77509790  0.42030187  0.18931831  1
  K  K19  1  0.22490210  0.57969813  0.18931831  1
  K  K20  1  0.50000000  -0.00000000  0.44883661  1
  K  K21  1  0.50000000  0.50000000  0.69883661  1
  K  K22  1  0.50000000  0.50000000  0.24414836  1
  K  K23  1  0.50000000  -0.00000000  0.99414836  1
  W  W24  1  0.18408201  0.11135967  0.44403698  1
  W  W25  1  0.81591799  0.88864033  0.44403698  1
  W  W26  1  0.11135967  0.31591799  0.19403698  1
  W  W27  1  0.88864033  0.68408201  0.19403698  1
  W  W28  1  0.90533309  0.22283134  0.02200724  1
  W  W29  1  0.09466691  0.77716866  0.02200724  1
  W  W30  1  0.72283134  0.09466691  0.27200724  1
  W  W31  1  0.27716866  0.90533309  0.27200724  1
  W  W32  1  0.68408201  0.61135967  0.94403698  1
  W  W33  1  0.31591799  0.38864033  0.94403698  1
  W  W34  1  0.61135967  0.81591799  0.69403698  1
  W  W35  1  0.38864033  0.18408201  0.69403698  1
  W  W36  1  0.40533309  0.72283134  0.52200724  1
  W  W37  1  0.59466691  0.27716866  0.52200724  1
  W  W38  1  0.22283134  0.59466691  0.77200724  1
  W  W39  1  0.77716866  0.40533309  0.77200724  1
  N  N40  1  0.08302847  0.13652705  0.56310384  1
  N  N41  1  0.91697153  0.86347295  0.56310384  1
  N  N42  1  0.63652705  0.91697153  0.81310384  1
  N  N43  1  0.36347295  0.08302847  0.81310384  1
  N  N44  1  0.63854231  0.99612782  0.21342778  1
  N  N45  1  0.36145769  0.00387218  0.21342778  1
  N  N46  1  0.99612782  0.86145769  0.96342778  1
  N  N47  1  0.00387218  0.13854231  0.96342778  1
  N  N48  1  0.30982235  0.15415165  0.52934833  1
  N  N49  1  0.69017765  0.84584835  0.52934833  1
  N  N50  1  0.15415165  0.19017765  0.27934833  1
  N  N51  1  0.84584835  0.80982235  0.27934833  1
  N  N52  1  0.80073708  0.14554273  0.11689677  1
  N  N53  1  0.19926292  0.85445727  0.11689677  1
  N  N54  1  0.14554273  0.69926292  0.86689677  1
  N  N55  1  0.85445727  0.30073708  0.86689677  1
  N  N56  1  0.96428886  0.31727307  0.15549494  1
  N  N57  1  0.03571114  0.68272693  0.15549494  1
  N  N58  1  0.81727307  0.03571114  0.40549494  1
  N  N59  1  0.18272693  0.96428886  0.40549494  1
  N  N60  1  0.58302847  0.63652705  0.06310384  1
  N  N61  1  0.41697153  0.36347295  0.06310384  1
  N  N62  1  0.13652705  0.41697153  0.31310384  1
  N  N63  1  0.86347295  0.58302847  0.31310384  1
  N  N64  1  0.13854231  0.49612782  0.71342778  1
  N  N65  1  0.86145769  0.50387218  0.71342778  1
  N  N66  1  0.49612782  0.36145769  0.46342778  1
  N  N67  1  0.50387218  0.63854231  0.46342778  1
  N  N68  1  0.80982235  0.65415165  0.02934833  1
  N  N69  1  0.19017765  0.34584835  0.02934833  1
  N  N70  1  0.65415165  0.69017765  0.77934833  1
  N  N71  1  0.34584835  0.30982235  0.77934833  1
  N  N72  1  0.30073708  0.64554273  0.61689677  1
  N  N73  1  0.69926292  0.35445727  0.61689677  1
  N  N74  1  0.64554273  0.19926292  0.36689677  1
  N  N75  1  0.35445727  0.80073708  0.36689677  1
  N  N76  1  0.46428886  0.81727307  0.65549494  1
  N  N77  1  0.53571114  0.18272693  0.65549494  1
  N  N78  1  0.31727307  0.53571114  0.90549494  1
  N  N79  1  0.68272693  0.46428886  0.90549494  1
