# generated using pymatgen
data_Zr2N2O
_symmetry_space_group_name_H-M   'P 1'
_cell_length_a   5.88464323
_cell_length_b   9.61823446
_cell_length_c   8.10432712
_cell_angle_alpha   66.59900949
_cell_angle_beta   94.52702747
_cell_angle_gamma   74.17553406
_symmetry_Int_Tables_number   1
_chemical_formula_structural   Zr2N2O
_chemical_formula_sum   'Zr12 N12 O6'
_cell_volume   395.80968994
_cell_formula_units_Z   6
loop_
 _symmetry_equiv_pos_site_id
 _symmetry_equiv_pos_as_xyz
  1  'x, y, z'
loop_
 _atom_site_type_symbol
 _atom_site_label
 _atom_site_symmetry_multiplicity
 _atom_site_fract_x
 _atom_site_fract_y
 _atom_site_fract_z
 _atom_site_occupancy
  Zr  Zr0  1  0.29542520  0.99690143  0.35619901  1
  Zr  Zr1  1  0.70759980  0.99687223  0.14694621  1
  Zr  Zr2  1  0.27590051  0.99649568  0.86268454  1
  Zr  Zr3  1  0.72762042  0.99649166  0.64074844  1
  Zr  Zr4  1  0.61781185  0.33403955  0.19180820  1
  Zr  Zr5  1  0.04884915  0.33268631  0.47483852  1
  Zr  Zr6  1  0.93907380  0.67015420  0.02587977  1
  Zr  Zr7  1  0.37121336  0.66981595  0.31048937  1
  Zr  Zr8  1  0.04815113  0.33398771  0.97416597  1
  Zr  Zr9  1  0.61853028  0.33262489  0.69246207  1
  Zr  Zr10  1  0.39079333  0.67014376  0.80393452  1
  Zr  Zr11  1  0.95901968  0.66978966  0.51974592  1
  N  N12  1  0.39993385  0.20010812  0.15005462  1
  N  N13  1  0.03222901  0.23380795  0.78386222  1
  N  N14  1  0.73408559  0.23379547  0.48232021  1
  N  N15  1  0.93257837  0.43288480  0.18434010  1
  N  N16  1  0.26675637  0.46658447  0.51673536  1
  N  N17  1  0.39632203  0.90092819  0.15180742  1
  N  N18  1  0.27028563  0.76579511  0.51483601  1
  N  N19  1  0.96389560  0.76578329  0.21938799  1
  N  N20  1  0.63454760  0.43282481  0.88279339  1
  N  N21  1  0.06947485  0.86104474  0.81945818  1
  N  N22  1  0.70269670  0.90082746  0.44731270  1
  N  N23  1  0.59719853  0.80561451  0.84712606  1
  O  O24  1  0.30261995  0.10158313  0.54960367  1
  O  O25  1  0.93478517  0.13035643  0.18481127  1
  O  O26  1  0.36400852  0.56515760  0.11706981  1
  O  O27  1  0.59583350  0.10152884  0.84884100  1
  O  O28  1  0.73191045  0.53626873  0.48188231  1
  O  O29  1  0.07084677  0.56510430  0.81785318  1
