# generated using pymatgen
data_BaGaBO3F2
_symmetry_space_group_name_H-M   'P 1'
_cell_length_a   4.94782390
_cell_length_b   4.94782390
_cell_length_c   9.86622257
_cell_angle_alpha   90.00000000
_cell_angle_beta   90.00000000
_cell_angle_gamma   119.99999998
_symmetry_Int_Tables_number   1
_chemical_formula_structural   BaGaBO3F2
_chemical_formula_sum   'Ba2 Ga2 B2 O6 F4'
_cell_volume   209.17511127
_cell_formula_units_Z   2
loop_
 _symmetry_equiv_pos_site_id
 _symmetry_equiv_pos_as_xyz
  1  'x, y, z'
loop_
 _atom_site_type_symbol
 _atom_site_label
 _atom_site_symmetry_multiplicity
 _atom_site_fract_x
 _atom_site_fract_y
 _atom_site_fract_z
 _atom_site_occupancy
  B  B0  1  0.33333333  0.66666667  0.75000000  1
  B  B1  1  0.66666667  0.33333333  0.25000000  1
  O  O2  1  0.31113471  0.93447795  0.75000000  1
  O  O3  1  0.62334324  0.68886529  0.75000000  1
  O  O4  1  0.93447795  0.62334324  0.25000000  1
  O  O5  1  0.37665676  0.31113471  0.25000000  1
  O  O6  1  0.06552205  0.37665676  0.75000000  1
  O  O7  1  0.68886529  0.06552205  0.25000000  1
  F  F8  1  0.66666667  0.33333333  0.95225073  1
  F  F9  1  0.33333333  0.66666667  0.45225073  1
  F  F10  1  0.66666667  0.33333333  0.54774927  1
  F  F11  1  0.33333333  0.66666667  0.04774927  1
  Ga  Ga12  1  0.66666667  0.33333333  0.75000000  1
  Ga  Ga13  1  0.33333333  0.66666667  0.25000000  1
  Ba  Ba14  1  0.00000000  0.00000000  0.50000000  1
  Ba  Ba15  1  0.00000000  0.00000000  0.00000000  1
