# generated using pymatgen
data_Li2SbS2
_symmetry_space_group_name_H-M   'P 1'
_cell_length_a   12.57277150
_cell_length_b   8.68949855
_cell_length_c   7.61808680
_cell_angle_alpha   90.00000000
_cell_angle_beta   90.00000000
_cell_angle_gamma   90.00000000
_symmetry_Int_Tables_number   1
_chemical_formula_structural   Li2SbS2
_chemical_formula_sum   'Li16 Sb8 S16'
_cell_volume   832.28420829
_cell_formula_units_Z   8
loop_
 _symmetry_equiv_pos_site_id
 _symmetry_equiv_pos_as_xyz
  1  'x, y, z'
loop_
 _atom_site_type_symbol
 _atom_site_label
 _atom_site_symmetry_multiplicity
 _atom_site_fract_x
 _atom_site_fract_y
 _atom_site_fract_z
 _atom_site_occupancy
  Li  Li0  1  0.01599094  0.94399635  0.90937805  1
  Li  Li1  1  0.14319054  0.37086508  0.18503472  1
  Li  Li2  1  0.13842206  0.65102345  0.86093561  1
  Li  Li3  1  0.10884422  0.71723229  0.43578137  1
  Li  Li4  1  0.39115578  0.28276771  0.93578137  1
  Li  Li5  1  0.36157794  0.34897655  0.36093561  1
  Li  Li6  1  0.35680946  0.62913492  0.68503472  1
  Li  Li7  1  0.48400906  0.05600365  0.40937805  1
  Li  Li8  1  0.51599094  0.55600365  0.09062195  1
  Li  Li9  1  0.64319054  0.12913492  0.81496528  1
  Li  Li10  1  0.63842206  0.84897655  0.13906439  1
  Li  Li11  1  0.60884422  0.78276771  0.56421863  1
  Li  Li12  1  0.89115578  0.21723229  0.06421863  1
  Li  Li13  1  0.86157794  0.15102345  0.63906439  1
  Li  Li14  1  0.85680946  0.87086508  0.31496528  1
  Li  Li15  1  0.98400906  0.44399635  0.59062195  1
  Sb  Sb16  1  0.11867124  0.05833784  0.42746454  1
  Sb  Sb17  1  0.20165570  0.24329511  0.70836079  1
  Sb  Sb18  1  0.29834430  0.75670489  0.20836079  1
  Sb  Sb19  1  0.38132876  0.94166216  0.92746454  1
  Sb  Sb20  1  0.61867124  0.44166216  0.57253546  1
  Sb  Sb21  1  0.70165570  0.25670489  0.29163921  1
  Sb  Sb22  1  0.79834430  0.74329511  0.79163921  1
  Sb  Sb23  1  0.88132876  0.55833784  0.07253546  1
  S  S24  1  0.02957181  0.74013088  0.14235662  1
  S  S25  1  0.02690654  0.27446899  0.84627225  1
  S  S26  1  0.20499655  0.48222175  0.52576385  1
  S  S27  1  0.25918801  0.13868158  0.22610417  1
  S  S28  1  0.24081199  0.86131842  0.72610417  1
  S  S29  1  0.29500345  0.51777825  0.02576385  1
  S  S30  1  0.47309346  0.72553101  0.34627225  1
  S  S31  1  0.47042819  0.25986912  0.64235662  1
  S  S32  1  0.52957181  0.75986912  0.85764338  1
  S  S33  1  0.52690654  0.22553201  0.15372775  1
  S  S34  1  0.70499655  0.01777825  0.47423615  1
  S  S35  1  0.75918801  0.36131842  0.77389583  1
  S  S36  1  0.74081199  0.63868158  0.27389583  1
  S  S37  1  0.79500345  0.98222175  0.97423615  1
  S  S38  1  0.97309346  0.77446899  0.65372775  1
  S  S39  1  0.97042819  0.24013088  0.35764338  1
