# generated using pymatgen
data_Sr2CdPt2
_symmetry_space_group_name_H-M   'P 1'
_cell_length_a   4.59364979
_cell_length_b   5.98480561
_cell_length_c   5.98480561
_cell_angle_alpha   60.02885219
_cell_angle_beta   67.43222479
_cell_angle_gamma   67.43222479
_symmetry_Int_Tables_number   1
_chemical_formula_structural   Sr2CdPt2
_chemical_formula_sum   'Sr2 Cd1 Pt2'
_cell_volume   127.76887887
_cell_formula_units_Z   1
loop_
 _symmetry_equiv_pos_site_id
 _symmetry_equiv_pos_as_xyz
  1  'x, y, z'
loop_
 _atom_site_type_symbol
 _atom_site_label
 _atom_site_symmetry_multiplicity
 _atom_site_fract_x
 _atom_site_fract_y
 _atom_site_fract_z
 _atom_site_occupancy
  Sr  Sr0  1  0.20003752  0.29996248  0.29996248  1
  Sr  Sr1  1  0.79996248  0.70003752  0.70003752  1
  Cd  Cd2  1  0.00000000  -0.00000000  -0.00000000  1
  Pt  Pt3  1  0.50000000  0.27304380  0.72695620  1
  Pt  Pt4  1  0.50000000  0.72695620  0.27304380  1
