# generated using pymatgen
data_HfSi
_symmetry_space_group_name_H-M   'P 1'
_cell_length_a   3.78472794
_cell_length_b   5.25262912
_cell_length_c   6.91331547
_cell_angle_alpha   90.00000000
_cell_angle_beta   90.00000000
_cell_angle_gamma   90.00000000
_symmetry_Int_Tables_number   1
_chemical_formula_structural   HfSi
_chemical_formula_sum   'Hf4 Si4'
_cell_volume   137.43513661
_cell_formula_units_Z   4
loop_
 _symmetry_equiv_pos_site_id
 _symmetry_equiv_pos_as_xyz
  1  'x, y, z'
loop_
 _atom_site_type_symbol
 _atom_site_label
 _atom_site_symmetry_multiplicity
 _atom_site_fract_x
 _atom_site_fract_y
 _atom_site_fract_z
 _atom_site_occupancy
  Si  Si0  1  0.25000000  0.85980407  0.54394541  1
  Si  Si1  1  0.75000000  0.14019593  0.45605459  1
  Si  Si2  1  0.75000000  0.35980407  0.95605459  1
  Si  Si3  1  0.25000000  0.64019593  0.04394541  1
  Hf  Hf4  1  0.25000000  0.37447826  0.67512740  1
  Hf  Hf5  1  0.75000000  0.62552174  0.32487260  1
  Hf  Hf6  1  0.75000000  0.87447826  0.82487260  1
  Hf  Hf7  1  0.25000000  0.12552174  0.17512740  1
