# generated using pymatgen
data_YCuS2
_symmetry_space_group_name_H-M   'P 1'
_cell_length_a   3.96218863
_cell_length_b   6.26498422
_cell_length_c   13.48884744
_cell_angle_alpha   90.00000000
_cell_angle_beta   90.00000000
_cell_angle_gamma   90.00000000
_symmetry_Int_Tables_number   1
_chemical_formula_structural   YCuS2
_chemical_formula_sum   'Y4 Cu4 S8'
_cell_volume   334.83432424
_cell_formula_units_Z   4
loop_
 _symmetry_equiv_pos_site_id
 _symmetry_equiv_pos_as_xyz
  1  'x, y, z'
loop_
 _atom_site_type_symbol
 _atom_site_label
 _atom_site_symmetry_multiplicity
 _atom_site_fract_x
 _atom_site_fract_y
 _atom_site_fract_z
 _atom_site_occupancy
  S  S0  1  0.25000000  0.25808252  0.79639706  1
  S  S1  1  0.75000000  0.74191748  0.20360294  1
  S  S2  1  0.75000000  0.75808252  0.70360294  1
  S  S3  1  0.25000000  0.24191748  0.29639706  1
  S  S4  1  0.25000000  0.74741976  0.96051300  1
  S  S5  1  0.25000000  0.75258024  0.46051300  1
  S  S6  1  0.75000000  0.24741976  0.53948700  1
  S  S7  1  0.75000000  0.25258024  0.03948700  1
  Cu  Cu8  1  0.25000000  0.12581727  0.95547379  1
  Cu  Cu9  1  0.75000000  0.62581727  0.54452621  1
  Cu  Cu10  1  0.75000000  0.87418273  0.04452621  1
  Cu  Cu11  1  0.25000000  0.37418273  0.45547379  1
  Y  Y12  1  0.25000000  0.50002247  0.13351538  1
  Y  Y13  1  0.75000000  0.49997753  0.86648462  1
  Y  Y14  1  0.75000000  1.00002247  0.36648462  1
  Y  Y15  1  0.25000000  -0.00002247  0.63351538  1
