# generated using pymatgen
data_CeGaAg
_symmetry_space_group_name_H-M   'P 1'
_cell_length_a   4.65335561
_cell_length_b   5.86383614
_cell_length_c   5.86234220
_cell_angle_alpha   75.91124974
_cell_angle_beta   66.61638882
_cell_angle_gamma   66.62270053
_symmetry_Int_Tables_number   1
_chemical_formula_structural   CeGaAg
_chemical_formula_sum   'Ce2 Ga2 Ag2'
_cell_volume   134.06919958
_cell_formula_units_Z   2
loop_
 _symmetry_equiv_pos_site_id
 _symmetry_equiv_pos_as_xyz
  1  'x, y, z'
loop_
 _atom_site_type_symbol
 _atom_site_label
 _atom_site_symmetry_multiplicity
 _atom_site_fract_x
 _atom_site_fract_y
 _atom_site_fract_z
 _atom_site_occupancy
  Ce  Ce0  1  0.93173089  0.56834123  0.56819698  1
  Ce  Ce1  1  0.99616172  0.00393295  0.00374361  1
  Ga  Ga2  1  0.29959122  0.00335250  0.39746505  1
  Ga  Ga3  1  0.29962600  0.39711597  0.00363203  1
  Ag  Ag4  1  0.62983876  0.58122769  0.15909479  1
  Ag  Ag5  1  0.62980141  0.15937965  0.58101753  1
