# generated using pymatgen
data_Mg2Co12P7
_symmetry_space_group_name_H-M   'P 1'
_cell_length_a   8.96811337
_cell_length_b   8.96811337
_cell_length_c   3.46778550
_cell_angle_alpha   90.00000000
_cell_angle_beta   90.00000000
_cell_angle_gamma   119.99999999
_symmetry_Int_Tables_number   1
_chemical_formula_structural   Mg2Co12P7
_chemical_formula_sum   'Mg2 Co12 P7'
_cell_volume   241.53776182
_cell_formula_units_Z   1
loop_
 _symmetry_equiv_pos_site_id
 _symmetry_equiv_pos_as_xyz
  1  'x, y, z'
loop_
 _atom_site_type_symbol
 _atom_site_label
 _atom_site_symmetry_multiplicity
 _atom_site_fract_x
 _atom_site_fract_y
 _atom_site_fract_z
 _atom_site_occupancy
  Mg  Mg0  1  0.33333333  0.66666667  0.00000000  1
  Mg  Mg1  1  0.66666667  0.33333333  0.50000000  1
  P  P2  1  0.59454953  0.70767572  0.50000000  1
  P  P3  1  0.29232428  0.88687380  0.50000000  1
  P  P4  1  0.11312620  0.40545047  0.50000000  1
  P  P5  1  0.70965942  0.11561427  0.00000000  1
  P  P6  1  0.88438573  0.59404515  0.00000000  1
  P  P7  1  0.40595485  0.29034058  0.00000000  1
  P  P8  1  0.00000000  0.00000000  0.00000000  1
  Co  Co9  1  0.38196091  0.44214712  0.50000000  1
  Co  Co10  1  0.06018621  0.61803909  0.50000000  1
  Co  Co11  1  0.23932599  0.10548449  0.50000000  1
  Co  Co12  1  0.86615850  0.76067401  0.50000000  1
  Co  Co13  1  0.89451551  0.13384150  0.50000000  1
  Co  Co14  1  0.72555103  0.87862630  0.00000000  1
  Co  Co15  1  0.12137370  0.84692472  0.00000000  1
  Co  Co16  1  0.15307528  0.27444897  0.00000000  1
  Co  Co17  1  0.93365905  0.37675092  0.00000000  1
  Co  Co18  1  0.62324908  0.55690813  0.00000000  1
  Co  Co19  1  0.44309187  0.06634095  0.00000000  1
  Co  Co20  1  0.55785288  0.93981379  0.50000000  1
