# generated using pymatgen
data_Li4Mn3NbCr2(PO4)6
_symmetry_space_group_name_H-M   'P 1'
_cell_length_a   8.55347098
_cell_length_b   8.94375652
_cell_length_c   8.63033440
_cell_angle_alpha   62.20185730
_cell_angle_beta   63.08126851
_cell_angle_gamma   62.78560901
_symmetry_Int_Tables_number   1
_chemical_formula_structural   Li4Mn3NbCr2(PO4)6
_chemical_formula_sum   'Li4 Mn3 Nb1 Cr2 P6 O24'
_cell_volume   494.73371503
_cell_formula_units_Z   1
loop_
 _symmetry_equiv_pos_site_id
 _symmetry_equiv_pos_as_xyz
  1  'x, y, z'
loop_
 _atom_site_type_symbol
 _atom_site_label
 _atom_site_symmetry_multiplicity
 _atom_site_fract_x
 _atom_site_fract_y
 _atom_site_fract_z
 _atom_site_occupancy
  Li  Li0  1  0.74353621  0.15545493  0.35565633  1
  Li  Li1  1  0.29864126  0.83920997  0.64205636  1
  Li  Li2  1  0.63932066  0.30444756  0.85419769  1
  Li  Li3  1  0.85123386  0.64432195  0.29558622  1
  Mn  Mn4  1  0.15220209  0.15308178  0.14907313  1
  Mn  Mn5  1  0.34640881  0.35299648  0.35025269  1
  Mn  Mn6  1  0.65832168  0.65875245  0.65971144  1
  Nb  Nb7  1  0.84782379  0.84722338  0.84859268  1
  Cr  Cr8  1  0.00711523  0.00010094  0.00273974  1
  Cr  Cr9  1  0.49362650  0.50227858  0.50148945  1
  P  P10  1  0.74645843  0.44296267  0.06139639  1
  P  P11  1  0.25012161  0.54715140  0.94058791  1
  P  P12  1  0.56922910  0.95431630  0.25079384  1
  P  P13  1  0.93246041  0.24366753  0.54960713  1
  P  P14  1  0.05982429  0.74503935  0.43630073  1
  P  P15  1  0.43064670  0.04988403  0.74971654  1
  O  O16  1  0.09705910  0.29904456  0.49914673  1
  O  O17  1  0.30554065  0.52376311  0.09598753  1
  O  O18  1  0.05966779  0.90630182  0.25773275  1
  O  O19  1  0.56716921  0.10030497  0.29777459  1
  O  O20  1  0.99649214  0.81277092  0.60229705  1
  O  O21  1  0.25071584  0.60459190  0.43415516  1
  O  O22  1  0.24353407  0.07546661  0.90068183  1
  O  O23  1  0.45068907  0.22266720  0.59069357  1
  O  O24  1  0.18220889  0.40134502  0.97759701  1
  O  O25  1  0.60020271  0.43288739  0.25458587  1
  O  O26  1  0.10029680  0.74129740  0.90138409  1
  O  O27  1  0.40944272  0.00978083  0.18253976  1
  O  O28  1  0.59728538  0.98808946  0.82672328  1
  O  O29  1  0.89536992  0.25935830  0.08561685  1
  O  O30  1  0.40680500  0.56840978  0.74841970  1
  O  O31  1  0.81172743  0.60421317  0.00717624  1
  O  O32  1  0.57688090  0.76985296  0.40656825  1
  O  O33  1  0.76733736  0.90918352  0.09703744  1
  O  O34  1  0.74403086  0.39963036  0.57408693  1
  O  O35  1  0.94569471  0.17296736  0.41324726  1
  O  O36  1  0.45931340  0.90040232  0.68964021  1
  O  O37  1  0.91234933  0.09531267  0.75150121  1
  O  O38  1  0.67667767  0.47130297  0.91159481  1
  O  O39  1  0.91653640  0.66716510  0.46905259  1
