# generated using pymatgen
data_Li4TiCu2Ni3(PO4)6
_symmetry_space_group_name_H-M   'P 1'
_cell_length_a   8.35162613
_cell_length_b   8.75384973
_cell_length_c   8.53981389
_cell_angle_alpha   61.23394021
_cell_angle_beta   62.08375497
_cell_angle_gamma   61.95957105
_symmetry_Int_Tables_number   1
_chemical_formula_structural   Li4TiCu2Ni3(PO4)6
_chemical_formula_sum   'Li4 Ti1 Cu2 Ni3 P6 O24'
_cell_volume   458.81727197
_cell_formula_units_Z   1
loop_
 _symmetry_equiv_pos_site_id
 _symmetry_equiv_pos_as_xyz
  1  'x, y, z'
loop_
 _atom_site_type_symbol
 _atom_site_label
 _atom_site_symmetry_multiplicity
 _atom_site_fract_x
 _atom_site_fract_y
 _atom_site_fract_z
 _atom_site_occupancy
  Li  Li0  1  0.74474444  0.15361557  0.35913420  1
  Li  Li1  1  0.28160765  0.84264431  0.64324338  1
  Li  Li2  1  0.64889486  0.29660647  0.85327854  1
  Li  Li3  1  0.85518250  0.64339672  0.29493212  1
  Ti  Ti4  1  0.85121039  0.84677665  0.85415480  1
  Cu  Cu5  1  0.01272807  0.99135973  0.00654834  1
  Cu  Cu6  1  0.49246239  0.50091883  0.50367971  1
  Ni  Ni7  1  0.14275258  0.14733123  0.14222804  1
  Ni  Ni8  1  0.35961440  0.35461093  0.35604378  1
  Ni  Ni9  1  0.64241877  0.65172377  0.64797219  1
  P  P10  1  0.74674278  0.45146033  0.05044706  1
  P  P11  1  0.05462300  0.74324277  0.45142734  1
  P  P12  1  0.43705655  0.03902777  0.75209832  1
  P  P13  1  0.24795843  0.53732360  0.95559730  1
  P  P14  1  0.55820821  0.96888671  0.24596078  1
  P  P15  1  0.94602083  0.24588916  0.53652512  1
  O  O16  1  0.11558322  0.29468531  0.49385989  1
  O  O17  1  0.30276438  0.51385547  0.11268023  1
  O  O18  1  0.06272128  0.90834996  0.26505661  1
  O  O19  1  0.56105113  0.11440688  0.29386358  1
  O  O20  1  0.99598744  0.81191804  0.61698274  1
  O  O21  1  0.24812547  0.58780398  0.45118749  1
  O  O22  1  0.24186917  0.07176950  0.90712456  1
  O  O23  1  0.46037020  0.21756957  0.58744841  1
  O  O24  1  0.17430457  0.39314226  0.99060395  1
  O  O25  1  0.59362496  0.44241081  0.24826265  1
  O  O26  1  0.09789862  0.74039191  0.91098590  1
  O  O27  1  0.40060414  0.03253049  0.16859621  1
  O  O28  1  0.60927715  0.97074781  0.82580063  1
  O  O29  1  0.89817259  0.26028587  0.07746600  1
  O  O30  1  0.41431202  0.55271314  0.75864160  1
  O  O31  1  0.81354943  0.61633766  0.99660763  1
  O  O32  1  0.55857985  0.78010988  0.40855076  1
  O  O33  1  0.76725929  0.91643306  0.09204191  1
  O  O34  1  0.75334500  0.41572047  0.55147513  1
  O  O35  1  0.95986724  0.17806487  0.39572232  1
  O  O36  1  0.45707969  0.88911323  0.69459927  1
  O  O37  1  0.91004792  0.09624589  0.74263212  1
  O  O38  1  0.68027829  0.48381923  0.89557394  1
  O  O39  1  0.90110010  0.67376318  0.48396241  1
