# generated using pymatgen
data_NaVF6
_symmetry_space_group_name_H-M   'P 1'
_cell_length_a   5.98441781
_cell_length_b   7.99823183
_cell_length_c   9.65431257
_cell_angle_alpha   90.00013253
_cell_angle_beta   90.00003869
_cell_angle_gamma   90.00002049
_symmetry_Int_Tables_number   1
_chemical_formula_structural   NaVF6
_chemical_formula_sum   'Na4 V4 F24'
_cell_volume   462.10136390
_cell_formula_units_Z   4
loop_
 _symmetry_equiv_pos_site_id
 _symmetry_equiv_pos_as_xyz
  1  'x, y, z'
loop_
 _atom_site_type_symbol
 _atom_site_label
 _atom_site_symmetry_multiplicity
 _atom_site_fract_x
 _atom_site_fract_y
 _atom_site_fract_z
 _atom_site_occupancy
  Na  Na0  1  0.24999970  0.16665680  0.50416483  1
  Na  Na1  1  0.74999894  0.66664761  0.99583383  1
  Na  Na2  1  0.75000030  0.83334320  0.49583517  1
  Na  Na3  1  0.25000106  0.33335239  0.00416617  1
  V  V4  1  0.75000021  0.11551042  0.77205062  1
  V  V5  1  0.74999970  0.38449399  0.27204991  1
  V  V6  1  0.25000030  0.61550601  0.72795009  1
  V  V7  1  0.24999979  0.88448958  0.22794938  1
  F  F8  1  0.03807906  0.94873713  0.35650225  1
  F  F9  1  0.74999973  0.18065805  0.19780040  1
  F  F10  1  0.03806532  0.55125886  0.85650996  1
  F  F11  1  0.46553660  0.82765059  0.10653163  1
  F  F12  1  0.25000027  0.81934195  0.80219960  1
  F  F13  1  0.96192094  0.05126287  0.64349775  1
  F  F14  1  0.03446320  0.82765055  0.10653166  1
  F  F15  1  0.75000013  0.90114145  0.83532364  1
  F  F16  1  0.74999999  0.59887233  0.33532841  1
  F  F17  1  0.53445032  0.32764581  0.39347541  1
  F  F18  1  0.46193515  0.55125886  0.85650992  1
  F  F19  1  0.25000001  0.40112767  0.66467159  1
  F  F20  1  0.96193468  0.44874114  0.14349004  1
  F  F21  1  0.53446340  0.17234941  0.89346837  1
  F  F22  1  0.53806485  0.44874114  0.14349008  1
  F  F23  1  0.53807940  0.05126279  0.64349782  1
  F  F24  1  0.24999983  0.68067210  0.30219466  1
  F  F25  1  0.46554968  0.67235419  0.60652459  1
  F  F26  1  0.46192060  0.94873721  0.35650218  1
  F  F27  1  0.03445071  0.67235390  0.60652471  1
  F  F28  1  0.96553680  0.17234945  0.89346834  1
  F  F29  1  0.75000017  0.31932790  0.69780534  1
  F  F30  1  0.24999987  0.09885855  0.16467636  1
  F  F31  1  0.96554929  0.32764610  0.39347529  1
