# generated using pymatgen
data_Ca(PIr)2
_symmetry_space_group_name_H-M   'P 1'
_cell_length_a   6.66995423
_cell_length_b   6.66995424
_cell_length_c   7.10429223
_cell_angle_alpha   90.00000000
_cell_angle_beta   90.00000000
_cell_angle_gamma   120.00000002
_symmetry_Int_Tables_number   1
_chemical_formula_structural   Ca(PIr)2
_chemical_formula_sum   'Ca3 P6 Ir6'
_cell_volume   273.71409182
_cell_formula_units_Z   3
loop_
 _symmetry_equiv_pos_site_id
 _symmetry_equiv_pos_as_xyz
  1  'x, y, z'
loop_
 _atom_site_type_symbol
 _atom_site_label
 _atom_site_symmetry_multiplicity
 _atom_site_fract_x
 _atom_site_fract_y
 _atom_site_fract_z
 _atom_site_occupancy
  P  P0  1  0.88371473  0.22325468  0.54322678  1
  P  P1  1  0.22325468  0.88371473  0.45677322  1
  P  P2  1  0.11628527  0.33953995  0.12343988  1
  P  P3  1  0.77674532  0.66046005  0.20989345  1
  P  P4  1  0.33953995  0.11628527  0.87656012  1
  P  P5  1  0.66046005  0.77674532  0.79010655  1
  Ca  Ca6  1  0.39413285  0.39413285  0.50000000  1
  Ca  Ca7  1  0.60586715  0.00000000  0.16666667  1
  Ca  Ca8  1  0.00000000  0.60586715  0.83333333  1
  Ir  Ir9  1  0.86368555  0.86368555  0.50000000  1
  Ir  Ir10  1  0.13631445  0.00000000  0.16666667  1
  Ir  Ir11  1  0.48596348  0.48596348  0.00000000  1
  Ir  Ir12  1  0.00000000  0.51403652  0.33333333  1
  Ir  Ir13  1  0.51403652  0.00000000  0.66666667  1
  Ir  Ir14  1  0.00000000  0.13631445  0.83333333  1
