# generated using pymatgen
data_Fe3B7BrO13
_symmetry_space_group_name_H-M   'P 1'
_cell_length_a   8.74288875
_cell_length_b   8.74272912
_cell_length_c   8.74272905
_cell_angle_alpha   59.82211099
_cell_angle_beta   59.82239756
_cell_angle_gamma   59.82240593
_symmetry_Int_Tables_number   1
_chemical_formula_structural   Fe3B7BrO13
_chemical_formula_sum   'Fe6 B14 Br2 O26'
_cell_volume   470.62915273
_cell_formula_units_Z   2
loop_
 _symmetry_equiv_pos_site_id
 _symmetry_equiv_pos_as_xyz
  1  'x, y, z'
loop_
 _atom_site_type_symbol
 _atom_site_label
 _atom_site_symmetry_multiplicity
 _atom_site_fract_x
 _atom_site_fract_y
 _atom_site_fract_z
 _atom_site_occupancy
  Fe  Fe0  1  0.99053351  0.98948457  0.53925876  1
  Fe  Fe1  1  0.98961958  0.53916857  0.99058971  1
  Fe  Fe2  1  0.53913681  0.99059961  0.98960831  1
  Fe  Fe3  1  0.49053351  0.03925876  0.48948457  1
  Fe  Fe4  1  0.03913681  0.48960831  0.49059961  1
  Fe  Fe5  1  0.48961958  0.49058971  0.03916857  1
  B  B6  1  0.11190322  0.11186614  0.11194179  1
  B  B7  1  0.61190322  0.61194179  0.61186614  1
  B  B8  1  0.28036720  0.58524655  0.58411032  1
  B  B9  1  0.58525096  0.58412354  0.28035673  1
  B  B10  1  0.58413300  0.28035261  0.58523807  1
  B  B11  1  0.78036720  0.08411032  0.08524655  1
  B  B12  1  0.08413300  0.08523807  0.78035261  1
  B  B13  1  0.08525096  0.78035673  0.08412354  1
  B  B14  1  0.26540079  0.76076691  0.75735992  1
  B  B15  1  0.76075269  0.75737352  0.26538302  1
  B  B16  1  0.75738139  0.26537247  0.76074300  1
  B  B17  1  0.76540079  0.25735992  0.26076691  1
  B  B18  1  0.25738139  0.26074300  0.76537247  1
  B  B19  1  0.26075269  0.76538302  0.25737352  1
  Br  Br20  1  0.77014918  0.77009845  0.77008065  1
  Br  Br21  1  0.27014918  0.27008065  0.27009845  1
  O  O22  1  0.95614295  0.11871180  0.27272802  1
  O  O23  1  0.11871987  0.27275233  0.95611903  1
  O  O24  1  0.27272594  0.95614558  0.11870673  1
  O  O25  1  0.45614295  0.77272802  0.61871180  1
  O  O26  1  0.77272594  0.61870673  0.45614558  1
  O  O27  1  0.61871987  0.45611903  0.77275233  1
  O  O28  1  0.75724240  0.22691881  0.61552457  1
  O  O29  1  0.22692814  0.61551415  0.75724937  1
  O  O30  1  0.61552397  0.75725218  0.22690254  1
  O  O31  1  0.25724240  0.11552457  0.72691881  1
  O  O32  1  0.11552397  0.72690254  0.25725218  1
  O  O33  1  0.72692814  0.25724937  0.11551415  1
  O  O34  1  0.21457493  0.76248803  0.44519283  1
  O  O35  1  0.76251085  0.44518780  0.21455193  1
  O  O36  1  0.44517913  0.21455290  0.76251078  1
  O  O37  1  0.71457493  0.94519283  0.26248803  1
  O  O38  1  0.94517913  0.26251078  0.71455290  1
  O  O39  1  0.26251085  0.71455193  0.94518780  1
  O  O40  1  0.12516780  0.94774685  0.70229234  1
  O  O41  1  0.94776675  0.70229955  0.12515372  1
  O  O42  1  0.70230597  0.12516292  0.94775301  1
  O  O43  1  0.62516780  0.20229234  0.44774685  1
  O  O44  1  0.20230597  0.44775301  0.62516292  1
  O  O45  1  0.44776675  0.62515372  0.20229955  1
  O  O46  1  0.49982299  0.49982019  0.49981884  1
  O  O47  1  0.99982299  0.99981884  0.99982019  1
