# generated using pymatgen
data_Ti3Mn3(SnO8)2
_symmetry_space_group_name_H-M   'P 1'
_cell_length_a   5.89915370
_cell_length_b   5.90302734
_cell_length_c   9.52037737
_cell_angle_alpha   90.00024581
_cell_angle_beta   89.27692909
_cell_angle_gamma   120.02253665
_symmetry_Int_Tables_number   1
_chemical_formula_structural   Ti3Mn3(SnO8)2
_chemical_formula_sum   'Ti3 Mn3 Sn2 O16'
_cell_volume   287.01494526
_cell_formula_units_Z   1
loop_
 _symmetry_equiv_pos_site_id
 _symmetry_equiv_pos_as_xyz
  1  'x, y, z'
loop_
 _atom_site_type_symbol
 _atom_site_label
 _atom_site_symmetry_multiplicity
 _atom_site_fract_x
 _atom_site_fract_y
 _atom_site_fract_z
 _atom_site_occupancy
  Ti  Ti0  1  0.32047120  0.16024266  0.71267484  1
  Ti  Ti1  1  0.15766205  0.82813106  0.21250669  1
  Ti  Ti2  1  0.15765542  0.32951428  0.21250499  1
  Mn  Mn3  1  0.65564378  0.82783249  0.21332844  1
  Mn  Mn4  1  0.82644706  0.65957417  0.71238410  1
  Mn  Mn5  1  0.82646440  0.16692774  0.71239802  1
  Sn  Sn6  1  0.33954405  0.66977888  0.49258458  1
  Sn  Sn7  1  0.66814228  0.33408564  0.98933607  1
  O  O8  1  0.16550134  0.83898864  0.60613210  1
  O  O9  1  0.04254393  0.52127541  0.33409386  1
  O  O10  1  0.34031057  0.67016569  0.10621260  1
  O  O11  1  0.99179984  0.99590328  0.31128602  1
  O  O12  1  0.99005498  0.99503253  0.81155529  1
  O  O13  1  0.16549978  0.32652780  0.60613492  1
  O  O14  1  0.48695861  0.96100813  0.33103052  1
  O  O15  1  0.48695149  0.52597300  0.33102658  1
  O  O16  1  0.33154859  0.16578192  0.10740766  1
  O  O17  1  0.68251211  0.84126602  0.60636124  1
  O  O18  1  0.52448284  0.48478358  0.83093294  1
  O  O19  1  0.52448522  0.03971695  0.83093752  1
  O  O20  1  0.67587785  0.33794139  0.60842460  1
  O  O21  1  0.83853905  0.67376614  0.10539255  1
  O  O22  1  0.96235832  0.48119585  0.82568703  1
  O  O23  1  0.83854624  0.16478776  0.10538684  1
