# generated using pymatgen
data_Ba3AlO4
_symmetry_space_group_name_H-M   'P 1'
_cell_length_a   7.35627569
_cell_length_b   8.28274612
_cell_length_c   10.64628906
_cell_angle_alpha   90.00000000
_cell_angle_beta   90.00000000
_cell_angle_gamma   90.00000000
_symmetry_Int_Tables_number   1
_chemical_formula_structural   Ba3AlO4
_chemical_formula_sum   'Ba12 Al4 O16'
_cell_volume   648.68013766
_cell_formula_units_Z   4
loop_
 _symmetry_equiv_pos_site_id
 _symmetry_equiv_pos_as_xyz
  1  'x, y, z'
loop_
 _atom_site_type_symbol
 _atom_site_label
 _atom_site_symmetry_multiplicity
 _atom_site_fract_x
 _atom_site_fract_y
 _atom_site_fract_z
 _atom_site_occupancy
  Ba  Ba0  1  0.60223831  0.97375204  0.16402881  1
  Ba  Ba1  1  0.89776169  0.52624796  0.66402881  1
  Ba  Ba2  1  0.39776169  0.47375204  0.83597119  1
  Ba  Ba3  1  0.10223831  0.02624796  0.33597119  1
  Ba  Ba4  1  0.39776169  0.02624796  0.83597119  1
  Ba  Ba5  1  0.10223831  0.47375204  0.33597119  1
  Ba  Ba6  1  0.60223831  0.52624796  0.16402881  1
  Ba  Ba7  1  0.89776169  0.97375204  0.66402881  1
  Ba  Ba8  1  0.09563528  0.75000000  0.03706593  1
  Ba  Ba9  1  0.40436472  0.75000000  0.53706593  1
  Ba  Ba10  1  0.90436472  0.25000000  0.96293407  1
  Ba  Ba11  1  0.59563528  0.25000000  0.46293407  1
  Al  Al12  1  0.81105292  0.75000000  0.39613356  1
  Al  Al13  1  0.68894708  0.75000000  0.89613356  1
  Al  Al14  1  0.18894708  0.25000000  0.60386644  1
  Al  Al15  1  0.31105292  0.25000000  0.10386644  1
  O  O16  1  0.69549899  0.93379674  0.42791650  1
  O  O17  1  0.80450101  0.56620326  0.92791650  1
  O  O18  1  0.30450101  0.43379674  0.57208350  1
  O  O19  1  0.19549899  0.06620326  0.07208350  1
  O  O20  1  0.30450101  0.06620326  0.57208350  1
  O  O21  1  0.19549899  0.43379674  0.07208350  1
  O  O22  1  0.69549899  0.56620326  0.42791650  1
  O  O23  1  0.80450101  0.93379674  0.92791650  1
  O  O24  1  0.01702632  0.75000000  0.48769107  1
  O  O25  1  0.48297368  0.75000000  0.98769107  1
  O  O26  1  0.98297368  0.25000000  0.51230893  1
  O  O27  1  0.51702632  0.25000000  0.01230893  1
  O  O28  1  0.87221937  0.75000000  0.23288827  1
  O  O29  1  0.62778063  0.75000000  0.73288827  1
  O  O30  1  0.12778063  0.25000000  0.76711173  1
  O  O31  1  0.37221937  0.25000000  0.26711173  1
