# generated using pymatgen
data_LiCa3As2H
_symmetry_space_group_name_H-M   'P 1'
_cell_length_a   4.28335980
_cell_length_b   11.48061456
_cell_length_c   11.87829231
_cell_angle_alpha   90.00000000
_cell_angle_beta   90.00000000
_cell_angle_gamma   90.00000000
_symmetry_Int_Tables_number   1
_chemical_formula_structural   LiCa3As2H
_chemical_formula_sum   'Li4 Ca12 As8 H4'
_cell_volume   584.12218560
_cell_formula_units_Z   4
loop_
 _symmetry_equiv_pos_site_id
 _symmetry_equiv_pos_as_xyz
  1  'x, y, z'
loop_
 _atom_site_type_symbol
 _atom_site_label
 _atom_site_symmetry_multiplicity
 _atom_site_fract_x
 _atom_site_fract_y
 _atom_site_fract_z
 _atom_site_occupancy
  Li  Li0  1  0.75000000  0.36800651  0.63856244  1
  Li  Li1  1  0.75000000  0.86800651  0.86143756  1
  Li  Li2  1  0.25000000  0.63199349  0.36143756  1
  Li  Li3  1  0.25000000  0.13199349  0.13856244  1
  Ca  Ca4  1  0.75000000  0.43991357  0.87841146  1
  Ca  Ca5  1  0.75000000  0.93991357  0.62158854  1
  Ca  Ca6  1  0.25000000  0.56008643  0.12158854  1
  Ca  Ca7  1  0.25000000  0.06008643  0.37841146  1
  Ca  Ca8  1  0.75000000  0.13525478  0.93886697  1
  Ca  Ca9  1  0.75000000  0.63525478  0.56113303  1
  Ca  Ca10  1  0.25000000  0.86474522  0.06113303  1
  Ca  Ca11  1  0.25000000  0.36474522  0.43886697  1
  Ca  Ca12  1  0.75000000  0.29037482  0.20397400  1
  Ca  Ca13  1  0.75000000  0.79037482  0.29602600  1
  Ca  Ca14  1  0.25000000  0.70962518  0.79602600  1
  Ca  Ca15  1  0.25000000  0.20962518  0.70397400  1
  As  As16  1  0.75000000  0.01848454  0.17558329  1
  As  As17  1  0.75000000  0.51848454  0.32441671  1
  As  As18  1  0.25000000  0.98151546  0.82441671  1
  As  As19  1  0.25000000  0.48151546  0.67558329  1
  As  As20  1  0.75000000  0.18392903  0.51401952  1
  As  As21  1  0.75000000  0.68392903  0.98598048  1
  As  As22  1  0.25000000  0.81607097  0.48598048  1
  As  As23  1  0.25000000  0.31607097  0.01401952  1
  H  H24  1  0.75000000  0.26380760  0.77977872  1
  H  H25  1  0.75000000  0.76380760  0.72022128  1
  H  H26  1  0.25000000  0.73619240  0.22022128  1
  H  H27  1  0.25000000  0.23619240  0.27977872  1
