# generated using pymatgen
data_CsAlH4(OF2)2
_symmetry_space_group_name_H-M   'P 1'
_cell_length_a   6.69522485
_cell_length_b   6.69522485
_cell_length_c   8.33289840
_cell_angle_alpha   97.41467589
_cell_angle_beta   106.74307608
_cell_angle_gamma   118.74017836
_symmetry_Int_Tables_number   1
_chemical_formula_structural   CsAlH4(OF2)2
_chemical_formula_sum   'Cs2 Al2 H8 O4 F8'
_cell_volume   297.27941262
_cell_formula_units_Z   2
loop_
 _symmetry_equiv_pos_site_id
 _symmetry_equiv_pos_as_xyz
  1  'x, y, z'
loop_
 _atom_site_type_symbol
 _atom_site_label
 _atom_site_symmetry_multiplicity
 _atom_site_fract_x
 _atom_site_fract_y
 _atom_site_fract_z
 _atom_site_occupancy
  Cs  Cs0  1  0.47084241  0.22084241  0.25000000  1
  Cs  Cs1  1  0.52915759  0.77915759  0.75000000  1
  Al  Al2  1  0.00000000  0.50000000  -0.00000000  1
  Al  Al3  1  0.00000000  0.00000000  0.50000000  1
  H  H4  1  0.08490929  0.41141086  0.30704889  1
  H  H5  1  0.60436197  0.77786040  0.19295111  1
  H  H6  1  0.91509071  0.58858914  0.69295111  1
  H  H7  1  0.39563803  0.22213960  0.80704889  1
  H  H8  1  0.11637792  0.67278296  0.33421384  1
  H  H9  1  0.83856912  0.78216408  0.16578616  1
  H  H10  1  0.88362208  0.32721704  0.66578616  1
  H  H11  1  0.16143088  0.21783592  0.83421384  1
  O  O12  1  0.04865522  0.51592277  0.24499139  1
  O  O13  1  0.77093138  0.80366383  0.25500861  1
  O  O14  1  0.95134478  0.48407723  0.75500861  1
  O  O15  1  0.22906862  0.19633617  0.74499139  1
  F  F16  1  0.05219786  0.25859523  0.96947999  1
  F  F17  1  0.78911524  0.08271787  0.53052001  1
  F  F18  1  0.94780214  0.74140477  0.03052001  1
  F  F19  1  0.21088476  0.91728213  0.46947999  1
  F  F20  1  0.33352380  0.72115001  0.07052823  1
  F  F21  1  0.15062178  0.26299557  0.42947177  1
  F  F22  1  0.66647620  0.27884999  0.92947177  1
  F  F23  1  0.84937822  0.73700443  0.57052823  1
