# generated using pymatgen
data_Ti4Cr2Ge5
_symmetry_space_group_name_H-M   'P 1'
_cell_length_a   5.04709183
_cell_length_b   7.85662368
_cell_length_c   9.48298961
_cell_angle_alpha   114.47198664
_cell_angle_beta   105.43309227
_cell_angle_gamma   90.00000000
_symmetry_Int_Tables_number   1
_chemical_formula_structural   Ti4Cr2Ge5
_chemical_formula_sum   'Ti8 Cr4 Ge10'
_cell_volume   327.29346626
_cell_formula_units_Z   2
loop_
 _symmetry_equiv_pos_site_id
 _symmetry_equiv_pos_as_xyz
  1  'x, y, z'
loop_
 _atom_site_type_symbol
 _atom_site_label
 _atom_site_symmetry_multiplicity
 _atom_site_fract_x
 _atom_site_fract_y
 _atom_site_fract_z
 _atom_site_occupancy
  Ti  Ti0  1  0.64320198  0.03533808  0.28640396  1
  Ti  Ti1  1  0.35679802  0.96466192  0.71359604  1
  Ti  Ti2  1  0.85679802  0.74893412  0.71359604  1
  Ti  Ti3  1  0.14320198  0.25106588  0.28640396  1
  Ti  Ti4  1  0.93570688  0.19527252  0.87141376  1
  Ti  Ti5  1  0.06429312  0.80472748  0.12858624  1
  Ti  Ti6  1  0.56429312  0.32385876  0.12858624  1
  Ti  Ti7  1  0.43570688  0.67614124  0.87141376  1
  Cr  Cr8  1  0.55730882  0.30730882  0.61461765  1
  Cr  Cr9  1  0.94269118  0.69269118  0.38538235  1
  Cr  Cr10  1  0.44269118  0.69269118  0.38538235  1
  Cr  Cr11  1  0.05730882  0.30730882  0.61461765  1
  Ge  Ge12  1  0.78569102  0.98660935  0.57138205  1
  Ge  Ge13  1  0.21430898  0.01339065  0.42861795  1
  Ge  Ge14  1  0.71430898  0.41522730  0.42861795  1
  Ge  Ge15  1  0.28569102  0.58477270  0.57138205  1
  Ge  Ge16  1  0.57153805  0.66629704  0.14307610  1
  Ge  Ge17  1  0.42846195  0.33370296  0.85692390  1
  Ge  Ge18  1  0.92846195  0.52322094  0.85692390  1
  Ge  Ge19  1  0.07153805  0.47677906  0.14307610  1
  Ge  Ge20  1  0.25000000  0.00000000  0.00000000  1
  Ge  Ge21  1  0.75000000  0.00000000  0.00000000  1
