# generated using pymatgen
data_Mg2Mn(PO4)2
_symmetry_space_group_name_H-M   'P 1'
_cell_length_a   5.16024135
_cell_length_b   7.81677246
_cell_length_c   8.49590140
_cell_angle_alpha   90.00000000
_cell_angle_beta   90.00000000
_cell_angle_gamma   93.85129324
_symmetry_Int_Tables_number   1
_chemical_formula_structural   Mg2Mn(PO4)2
_chemical_formula_sum   'Mg4 Mn2 P4 O16'
_cell_volume   341.92045926
_cell_formula_units_Z   2
loop_
 _symmetry_equiv_pos_site_id
 _symmetry_equiv_pos_as_xyz
  1  'x, y, z'
loop_
 _atom_site_type_symbol
 _atom_site_label
 _atom_site_symmetry_multiplicity
 _atom_site_fract_x
 _atom_site_fract_y
 _atom_site_fract_z
 _atom_site_occupancy
  Mg  Mg0  1  0.40779783  0.89035306  0.64128562  1
  Mg  Mg1  1  0.90779783  0.39035306  0.85871438  1
  Mg  Mg2  1  0.59220217  0.10964694  0.35871438  1
  Mg  Mg3  1  0.09220217  0.60964694  0.14128562  1
  Mn  Mn4  1  0.00000000  0.50000000  0.50000000  1
  Mn  Mn5  1  0.50000000  -0.00000000  0.00000000  1
  P  P6  1  0.46856959  0.29481081  0.69877334  1
  P  P7  1  0.96856959  0.79481081  0.80122666  1
  P  P8  1  0.53143041  0.70518919  0.30122666  1
  P  P9  1  0.03143041  0.20518919  0.19877334  1
  O  O10  1  0.67848287  0.43674398  0.65245472  1
  O  O11  1  0.17848287  0.93674398  0.84754528  1
  O  O12  1  0.32151713  0.56325602  0.34754528  1
  O  O13  1  0.82151713  0.06325602  0.15245472  1
  O  O14  1  0.19702485  0.36624205  0.70799149  1
  O  O15  1  0.69702485  0.86624205  0.79200851  1
  O  O16  1  0.80297515  0.63375795  0.29200851  1
  O  O17  1  0.30297515  0.13375795  0.20799149  1
  O  O18  1  0.56625882  0.23513516  0.86270212  1
  O  O19  1  0.06625882  0.73513516  0.63729788  1
  O  O20  1  0.43374118  0.76486484  0.13729788  1
  O  O21  1  0.93374118  0.26486484  0.36270212  1
  O  O22  1  0.45835937  0.14352118  0.57849952  1
  O  O23  1  0.95835937  0.64352118  0.92150048  1
  O  O24  1  0.54164063  0.85647882  0.42150048  1
  O  O25  1  0.04164063  0.35647882  0.07849952  1
