# generated using pymatgen
data_Nd5P12Ru19
_symmetry_space_group_name_H-M   'P 1'
_cell_length_a   4.01418170
_cell_length_b   12.62606811
_cell_length_c   12.62692700
_cell_angle_alpha   119.99775029
_cell_angle_beta   90.00000000
_cell_angle_gamma   90.00000000
_symmetry_Int_Tables_number   1
_chemical_formula_structural   Nd5P12Ru19
_chemical_formula_sum   'Nd5 P12 Ru19'
_cell_volume   554.24693565
_cell_formula_units_Z   1
loop_
 _symmetry_equiv_pos_site_id
 _symmetry_equiv_pos_as_xyz
  1  'x, y, z'
loop_
 _atom_site_type_symbol
 _atom_site_label
 _atom_site_symmetry_multiplicity
 _atom_site_fract_x
 _atom_site_fract_y
 _atom_site_fract_z
 _atom_site_occupancy
  Nd  Nd0  1  0.50000000  0.99999710  0.18430772  1
  Nd  Nd1  1  0.50000000  0.18430038  0.00000000  1
  Nd  Nd2  1  0.50000000  0.81568939  0.81569228  1
  Nd  Nd3  1  -0.00000000  0.33335039  0.66668610  1
  Nd  Nd4  1  -0.00000000  0.66666429  0.33331390  1
  P  P5  1  -0.00000000  0.99999397  0.81326311  1
  P  P6  1  -0.00000000  0.81325427  0.00000000  1
  P  P7  1  -0.00000000  0.18673086  0.18673689  1
  P  P8  1  0.50000000  0.30641472  0.47634053  1
  P  P9  1  0.50000000  0.16988767  0.69356315  1
  P  P10  1  0.50000000  0.52367620  0.83010983  1
  P  P11  1  0.50000000  0.83007419  0.52365947  1
  P  P12  1  0.50000000  0.47632451  0.30643685  1
  P  P13  1  0.50000000  0.69356637  0.16989017  1
  P  P14  1  -0.00000000  0.00000356  0.37427102  1
  P  P15  1  -0.00000000  0.37427657  1.00000000  1
  P  P16  1  -0.00000000  0.62573254  0.62572898  1
  Ru  Ru17  1  -0.00000000  -0.00000620  0.55478265  1
  Ru  Ru18  1  -0.00000000  0.55478193  0.00000000  1
  Ru  Ru19  1  -0.00000000  0.44521115  0.44521735  1
  Ru  Ru20  1  0.50000000  0.00000203  0.71556881  1
  Ru  Ru21  1  0.50000000  0.71557006  0.00000000  1
  Ru  Ru22  1  0.50000000  0.28443321  0.28443119  1
  Ru  Ru23  1  0.00000000  0.19373776  0.37791980  1
  Ru  Ru24  1  0.00000000  0.18416849  0.80629339  1
  Ru  Ru25  1  0.00000000  0.62213244  0.81582892  1
  Ru  Ru26  1  0.00000000  0.81581796  0.62208020  1
  Ru  Ru27  1  0.00000000  0.37787509  0.19370661  1
  Ru  Ru28  1  -0.00000000  0.80630352  0.18417108  1
  Ru  Ru29  1  0.50000000  0.12480624  0.49060010  1
  Ru  Ru30  1  0.50000000  0.36579217  0.87514121  1
  Ru  Ru31  1  0.50000000  0.50935408  0.63419260  1
  Ru  Ru32  1  0.50000000  0.63420614  0.50939990  1
  Ru  Ru33  1  0.50000000  0.49065096  0.12485879  1
  Ru  Ru34  1  0.50000000  0.87516148  0.36580740  1
  Ru  Ru35  1  -0.00000000  0.99996451  0.00000000  1
