# generated using pymatgen
data_V2O3
_symmetry_space_group_name_H-M   'P 1'
_cell_length_a   5.62310430
_cell_length_b   12.04214684
_cell_length_c   3.76900094
_cell_angle_alpha   90.00000000
_cell_angle_beta   111.75617737
_cell_angle_gamma   90.00000000
_symmetry_Int_Tables_number   1
_chemical_formula_structural   V2O3
_chemical_formula_sum   'V8 O12'
_cell_volume   237.03599083
_cell_formula_units_Z   4
loop_
 _symmetry_equiv_pos_site_id
 _symmetry_equiv_pos_as_xyz
  1  'x, y, z'
loop_
 _atom_site_type_symbol
 _atom_site_label
 _atom_site_symmetry_multiplicity
 _atom_site_fract_x
 _atom_site_fract_y
 _atom_site_fract_z
 _atom_site_occupancy
  V  V0  1  0.17177940  0.84139624  0.55940598  1
  V  V1  1  0.21076666  0.55069746  0.36994313  1
  V  V2  1  0.28923334  0.05069746  0.13005687  1
  V  V3  1  0.32822060  0.34139624  0.94059402  1
  V  V4  1  0.67177940  0.65860376  0.05940598  1
  V  V5  1  0.71076666  0.94930254  0.86994313  1
  V  V6  1  0.78923334  0.44930254  0.63005687  1
  V  V7  1  0.82822060  0.15860376  0.44059402  1
  O  O8  1  0.08696162  0.89258240  0.01577612  1
  O  O9  1  0.04022910  0.69430061  0.36142922  1
  O  O10  1  0.32159767  0.00520119  0.64635363  1
  O  O11  1  0.17840233  0.50520119  0.85364637  1
  O  O12  1  0.41303838  0.39258240  0.48422388  1
  O  O13  1  0.45977090  0.19430061  0.13857078  1
  O  O14  1  0.54022910  0.80569939  0.86142922  1
  O  O15  1  0.58696162  0.60741760  0.51577612  1
  O  O16  1  0.82159767  0.49479881  0.14635363  1
  O  O17  1  0.67840233  0.99479881  0.35364637  1
  O  O18  1  0.95977090  0.30569939  0.63857078  1
  O  O19  1  0.91303838  0.10741760  0.98422388  1
