# generated using pymatgen
data_Sc2Nb3Ge4
_symmetry_space_group_name_H-M   'P 1'
_cell_length_a   6.86926071
_cell_length_b   7.05350857
_cell_length_c   13.38539356
_cell_angle_alpha   90.00000000
_cell_angle_beta   90.00000000
_cell_angle_gamma   90.00000000
_symmetry_Int_Tables_number   1
_chemical_formula_structural   Sc2Nb3Ge4
_chemical_formula_sum   'Sc8 Nb12 Ge16'
_cell_volume   648.55429954
_cell_formula_units_Z   4
loop_
 _symmetry_equiv_pos_site_id
 _symmetry_equiv_pos_as_xyz
  1  'x, y, z'
loop_
 _atom_site_type_symbol
 _atom_site_label
 _atom_site_symmetry_multiplicity
 _atom_site_fract_x
 _atom_site_fract_y
 _atom_site_fract_z
 _atom_site_occupancy
  Sc  Sc0  1  0.50585831  0.32321787  0.90609292  1
  Sc  Sc1  1  0.00585831  0.17678213  0.59390708  1
  Sc  Sc2  1  0.49414169  0.67678213  0.40609292  1
  Sc  Sc3  1  0.99414169  0.82321787  0.09390708  1
  Sc  Sc4  1  0.49414169  0.67678213  0.09390708  1
  Sc  Sc5  1  0.99414169  0.82321787  0.40609292  1
  Sc  Sc6  1  0.50585831  0.32321787  0.59390708  1
  Sc  Sc7  1  0.00585831  0.17678213  0.90609292  1
  Nb  Nb8  1  0.34022308  0.83072436  0.87450821  1
  Nb  Nb9  1  0.84022308  0.66927564  0.62549179  1
  Nb  Nb10  1  0.65977692  0.16927564  0.37450821  1
  Nb  Nb11  1  0.15977692  0.33072436  0.12549179  1
  Nb  Nb12  1  0.65977692  0.16927564  0.12549179  1
  Nb  Nb13  1  0.15977692  0.33072436  0.37450821  1
  Nb  Nb14  1  0.34022308  0.83072436  0.62549179  1
  Nb  Nb15  1  0.84022308  0.66927564  0.87450821  1
  Nb  Nb16  1  0.16430885  0.51040932  0.75000000  1
  Nb  Nb17  1  0.66430885  0.98959068  0.75000000  1
  Nb  Nb18  1  0.83569115  0.48959068  0.25000000  1
  Nb  Nb19  1  0.33569115  0.01040932  0.25000000  1
  Ge  Ge20  1  0.31879730  0.03396037  0.04042639  1
  Ge  Ge21  1  0.81879730  0.46603963  0.45957361  1
  Ge  Ge22  1  0.68120270  0.96603963  0.54042639  1
  Ge  Ge23  1  0.18120270  0.53396037  0.95957361  1
  Ge  Ge24  1  0.68120270  0.96603963  0.95957361  1
  Ge  Ge25  1  0.18120270  0.53396037  0.54042639  1
  Ge  Ge26  1  0.31879730  0.03396037  0.45957361  1
  Ge  Ge27  1  0.81879730  0.46603963  0.04042639  1
  Ge  Ge28  1  0.54023542  0.61499306  0.75000000  1
  Ge  Ge29  1  0.04023542  0.88500694  0.75000000  1
  Ge  Ge30  1  0.45976458  0.38500694  0.25000000  1
  Ge  Ge31  1  0.95976458  0.11499306  0.25000000  1
  Ge  Ge32  1  0.30462867  0.14822973  0.75000000  1
  Ge  Ge33  1  0.80462867  0.35177027  0.75000000  1
  Ge  Ge34  1  0.69537133  0.85177027  0.25000000  1
  Ge  Ge35  1  0.19537133  0.64822973  0.25000000  1
