# generated using pymatgen
data_CsNa3U4(MoO10)2
_symmetry_space_group_name_H-M   'P 1'
_cell_length_a   6.73002141
_cell_length_b   6.92751771
_cell_length_c   11.58945658
_cell_angle_alpha   84.02323083
_cell_angle_beta   77.12970179
_cell_angle_gamma   81.13631756
_symmetry_Int_Tables_number   1
_chemical_formula_structural   CsNa3U4(MoO10)2
_chemical_formula_sum   'Cs1 Na3 U4 Mo2 O20'
_cell_volume   519.09379314
_cell_formula_units_Z   1
loop_
 _symmetry_equiv_pos_site_id
 _symmetry_equiv_pos_as_xyz
  1  'x, y, z'
loop_
 _atom_site_type_symbol
 _atom_site_label
 _atom_site_symmetry_multiplicity
 _atom_site_fract_x
 _atom_site_fract_y
 _atom_site_fract_z
 _atom_site_occupancy
  Cs  Cs0  1  -0.00000000  0.50000000  0.00000000  1
  Na  Na1  1  0.94488571  0.02224107  0.33215423  1
  Na  Na2  1  0.05511429  0.97775893  0.66784577  1
  Na  Na3  1  -0.00000000  0.50000000  0.50000000  1
  U  U4  1  0.50800257  0.24187052  0.56270059  1
  U  U5  1  0.49199743  0.75812948  0.43729941  1
  U  U6  1  0.46134640  0.26711764  0.24720742  1
  U  U7  1  0.53865360  0.73288236  0.75279258  1
  Mo  Mo8  1  0.39151146  0.83009042  0.10180004  1
  Mo  Mo9  1  0.60848854  0.16990958  0.89819996  1
  O  O10  1  0.55486726  0.84164290  0.94669040  1
  O  O11  1  0.44513274  0.15835710  0.05330960  1
  O  O12  1  0.53086272  0.07976908  0.39828052  1
  O  O13  1  0.46913728  0.92023092  0.60171948  1
  O  O14  1  0.79598225  0.19848247  0.52693058  1
  O  O15  1  0.20401775  0.80151753  0.47306942  1
  O  O16  1  0.22001228  0.28099895  0.60382906  1
  O  O17  1  0.77998772  0.71900105  0.39617094  1
  O  O18  1  0.47180518  0.89532264  0.23287862  1
  O  O19  1  0.52819482  0.10467736  0.76712138  1
  O  O20  1  0.17945031  0.27249746  0.29835605  1
  O  O21  1  0.82054969  0.72750254  0.70164395  1
  O  O22  1  0.52978290  0.54175078  0.60795907  1
  O  O23  1  0.47021710  0.45824922  0.39204093  1
  O  O24  1  0.74235133  0.25392598  0.19108467  1
  O  O25  1  0.25764867  0.74607402  0.80891533  1
  O  O26  1  0.41176434  0.56765022  0.13317649  1
  O  O27  1  0.58823566  0.43234978  0.86682351  1
  O  O28  1  0.12782837  0.90278968  0.11415614  1
  O  O29  1  0.87217163  0.09721032  0.88584386  1
