# generated using pymatgen
data_Er7(TeIr)2
_symmetry_space_group_name_H-M   'P 1'
_cell_length_a   3.92329451
_cell_length_b   9.34488168
_cell_length_c   9.34488168
_cell_angle_alpha   60.64335764
_cell_angle_beta   77.88252318
_cell_angle_gamma   77.88252318
_symmetry_Int_Tables_number   1
_chemical_formula_structural   Er7(TeIr)2
_chemical_formula_sum   'Er7 Te2 Ir2'
_cell_volume   289.64847702
_cell_formula_units_Z   1
loop_
 _symmetry_equiv_pos_site_id
 _symmetry_equiv_pos_as_xyz
  1  'x, y, z'
loop_
 _atom_site_type_symbol
 _atom_site_label
 _atom_site_symmetry_multiplicity
 _atom_site_fract_x
 _atom_site_fract_y
 _atom_site_fract_z
 _atom_site_occupancy
  Er  Er0  1  0.13192370  0.45311266  0.28303994  1
  Er  Er1  1  0.86807630  0.71696006  0.54688734  1
  Er  Er2  1  0.31544071  0.06005732  0.30906127  1
  Er  Er3  1  0.68455929  0.69093873  0.93994268  1
  Er  Er4  1  0.35383446  0.37874605  0.91358503  1
  Er  Er5  1  0.64616554  0.08641497  0.62125395  1
  Er  Er6  1  0.00000000  0.00038682  0.99961318  1
  Te  Te7  1  0.50000000  0.73648731  0.26351269  1
  Te  Te8  1  0.00000000  0.33819405  0.66180595  1
  Ir  Ir9  1  0.23783490  0.83608612  0.68824408  1
  Ir  Ir10  1  0.76216510  0.31175592  0.16391388  1
