# generated using pymatgen
data_GdCrGeO5
_symmetry_space_group_name_H-M   'P 1'
_cell_length_a   5.84467332
_cell_length_b   7.51134434
_cell_length_c   8.54002723
_cell_angle_alpha   90.00000000
_cell_angle_beta   90.00000000
_cell_angle_gamma   90.00000000
_symmetry_Int_Tables_number   1
_chemical_formula_structural   GdCrGeO5
_chemical_formula_sum   'Gd4 Cr4 Ge4 O20'
_cell_volume   374.91875741
_cell_formula_units_Z   4
loop_
 _symmetry_equiv_pos_site_id
 _symmetry_equiv_pos_as_xyz
  1  'x, y, z'
loop_
 _atom_site_type_symbol
 _atom_site_label
 _atom_site_symmetry_multiplicity
 _atom_site_fract_x
 _atom_site_fract_y
 _atom_site_fract_z
 _atom_site_occupancy
  Gd  Gd0  1  0.50000000  0.35716132  0.32656020  1
  Gd  Gd1  1  0.50000000  0.64283868  0.67343980  1
  Gd  Gd2  1  0.50000000  0.14283868  0.82656020  1
  Gd  Gd3  1  0.50000000  0.85716132  0.17343980  1
  Cr  Cr4  1  0.24831120  0.00000000  0.50000000  1
  Cr  Cr5  1  0.75168880  -0.00000000  0.50000000  1
  Cr  Cr6  1  0.75168880  0.50000000  -0.00000000  1
  Cr  Cr7  1  0.24831120  0.50000000  -0.00000000  1
  Ge  Ge8  1  0.00000000  0.11664431  0.14391725  1
  Ge  Ge9  1  -0.00000000  0.88335569  0.85608275  1
  Ge  Ge10  1  -0.00000000  0.38335569  0.64391725  1
  Ge  Ge11  1  -0.00000000  0.61664431  0.35608275  1
  O  O12  1  0.24700519  0.10948530  0.28274227  1
  O  O13  1  0.75299481  0.89051470  0.71725773  1
  O  O14  1  0.24700519  0.89051470  0.71725773  1
  O  O15  1  0.75299481  0.39051470  0.78274227  1
  O  O16  1  0.75299481  0.10948530  0.28274227  1
  O  O17  1  0.24700519  0.60948530  0.21725773  1
  O  O18  1  0.75299481  0.60948530  0.21725773  1
  O  O19  1  0.24700519  0.39051470  0.78274227  1
  O  O20  1  0.00000000  0.34152296  0.07993710  1
  O  O21  1  0.00000000  0.65847704  0.92006290  1
  O  O22  1  -0.00000000  0.15847704  0.57993710  1
  O  O23  1  -0.00000000  0.84152296  0.42006290  1
  O  O24  1  0.50000000  0.33351065  0.05609780  1
  O  O25  1  0.50000000  0.66648935  0.94390220  1
  O  O26  1  0.50000000  0.16648935  0.55609780  1
  O  O27  1  0.50000000  0.83351065  0.44390220  1
  O  O28  1  0.20941924  -0.00000000  0.00000000  1
  O  O29  1  0.79058076  0.00000000  0.00000000  1
  O  O30  1  0.79058076  0.50000000  0.50000000  1
  O  O31  1  0.20941924  0.50000000  0.50000000  1
