# generated using pymatgen
data_Li2FeO2F
_symmetry_space_group_name_H-M   'P 1'
_cell_length_a   5.12943261
_cell_length_b   5.20405445
_cell_length_c   9.88584268
_cell_angle_alpha   84.95999766
_cell_angle_beta   100.26834197
_cell_angle_gamma   119.52678677
_symmetry_Int_Tables_number   1
_chemical_formula_structural   Li2FeO2F
_chemical_formula_sum   'Li8 Fe4 O8 F4'
_cell_volume   225.94076280
_cell_formula_units_Z   4
loop_
 _symmetry_equiv_pos_site_id
 _symmetry_equiv_pos_as_xyz
  1  'x, y, z'
loop_
 _atom_site_type_symbol
 _atom_site_label
 _atom_site_symmetry_multiplicity
 _atom_site_fract_x
 _atom_site_fract_y
 _atom_site_fract_z
 _atom_site_occupancy
  Li  Li0  1  0.18061188  0.87790979  0.49918346  1
  Li  Li1  1  0.00000000  0.50000000  0.00000000  1
  Li  Li2  1  0.06933383  0.13866765  0.25000000  1
  Li  Li3  1  0.69729791  0.87790979  0.00081654  1
  Li  Li4  1  0.50000000  0.50000000  0.50000000  1
  Li  Li5  1  0.30270209  0.12209021  0.99918346  1
  Li  Li6  1  0.93066617  0.86133235  0.75000000  1
  Li  Li7  1  0.81938812  0.12209021  0.50081654  1
  Fe  Fe8  1  0.24819239  0.49638477  0.75000000  1
  Fe  Fe9  1  0.43874703  0.87749307  0.25000000  1
  Fe  Fe10  1  0.56125297  0.12250693  0.75000000  1
  Fe  Fe11  1  0.75180761  0.50361523  0.25000000  1
  O  O12  1  0.04319893  0.80717632  0.13572492  1
  O  O13  1  0.29895455  0.82405214  0.86763980  1
  O  O14  1  0.52509759  0.82405214  0.63236020  1
  O  O15  1  0.23602362  0.19282368  0.63572492  1
  O  O16  1  0.76397638  0.80717632  0.36427508  1
  O  O17  1  0.47490241  0.17594786  0.36763980  1
  O  O18  1  0.70104545  0.17594786  0.13236020  1
  O  O19  1  0.95680107  0.19282368  0.86427508  1
  F  F20  1  0.12586977  0.50231110  0.37488646  1
  F  F21  1  0.62355868  0.49768890  0.87488646  1
  F  F22  1  0.37644132  0.50231110  0.12511354  1
  F  F23  1  0.87413023  0.49768890  0.62511354  1
