# generated using pymatgen
data_LiFeF3
_symmetry_space_group_name_H-M   'P 1'
_cell_length_a   8.81151880
_cell_length_b   8.81151880
_cell_length_c   6.20339192
_cell_angle_alpha   90.00000000
_cell_angle_beta   90.00000000
_cell_angle_gamma   90.00000000
_symmetry_Int_Tables_number   1
_chemical_formula_structural   LiFeF3
_chemical_formula_sum   'Li8 Fe8 F24'
_cell_volume   481.64911247
_cell_formula_units_Z   8
loop_
 _symmetry_equiv_pos_site_id
 _symmetry_equiv_pos_as_xyz
  1  'x, y, z'
loop_
 _atom_site_type_symbol
 _atom_site_label
 _atom_site_symmetry_multiplicity
 _atom_site_fract_x
 _atom_site_fract_y
 _atom_site_fract_z
 _atom_site_occupancy
  Li  Li0  1  0.00000000  0.00000000  0.00000000  1
  Li  Li1  1  0.00000000  0.00000000  0.50000000  1
  Li  Li2  1  0.25000000  0.25000000  0.75000000  1
  Li  Li3  1  0.25000000  0.75000000  0.25000000  1
  Li  Li4  1  0.50000000  0.50000000  0.00000000  1
  Li  Li5  1  0.50000000  0.50000000  0.50000000  1
  Li  Li6  1  0.75000000  0.25000000  0.25000000  1
  Li  Li7  1  0.75000000  0.75000000  0.75000000  1
  Fe  Fe8  1  0.90907441  0.33566779  0.71621782  1
  Fe  Fe9  1  0.16433221  0.40907441  0.21621782  1
  Fe  Fe10  1  0.33566779  0.09092559  0.28378218  1
  Fe  Fe11  1  0.59092559  0.16433221  0.78378218  1
  Fe  Fe12  1  0.40907441  0.83566779  0.78378218  1
  Fe  Fe13  1  0.66433221  0.90907441  0.28378218  1
  Fe  Fe14  1  0.83566779  0.59092559  0.21621782  1
  Fe  Fe15  1  0.09092559  0.66433221  0.71621782  1
  F  F16  1  0.04942427  0.16255229  0.67125737  1
  F  F17  1  0.05401733  0.63296108  0.29673978  1
  F  F18  1  0.18552790  0.19521474  0.06763944  1
  F  F19  1  0.13296108  0.44598267  0.79673978  1
  F  F20  1  0.16255229  0.95057573  0.32874263  1
  F  F21  1  0.19521474  0.81447210  0.93236056  1
  F  F22  1  0.30478526  0.68552790  0.56763944  1
  F  F23  1  0.33744771  0.54942427  0.17125737  1
  F  F24  1  0.36703892  0.05401733  0.70326022  1
  F  F25  1  0.31447210  0.30478526  0.43236056  1
  F  F26  1  0.44598267  0.86703892  0.20326022  1
  F  F27  1  0.45057573  0.33744771  0.82874263  1
  F  F28  1  0.54942427  0.66255229  0.82874263  1
  F  F29  1  0.55401733  0.13296108  0.20326022  1
  F  F30  1  0.68552790  0.69521474  0.43236056  1
  F  F31  1  0.63296108  0.94598267  0.70326022  1
  F  F32  1  0.66255229  0.45057573  0.17125737  1
  F  F33  1  0.69521474  0.31447210  0.56763944  1
  F  F34  1  0.80478526  0.18552790  0.93236056  1
  F  F35  1  0.83744771  0.04942427  0.32874263  1
  F  F36  1  0.86703892  0.55401733  0.79673978  1
  F  F37  1  0.81447210  0.80478526  0.06763944  1
  F  F38  1  0.94598267  0.36703892  0.29673978  1
  F  F39  1  0.95057573  0.83744771  0.67125737  1
