# generated using pymatgen
data_MnBe4Al
_symmetry_space_group_name_H-M   'P 1'
_cell_length_a   4.29427425
_cell_length_b   4.29427425
_cell_length_c   4.29427425
_cell_angle_alpha   90.00000000
_cell_angle_beta   60.00000000
_cell_angle_gamma   120.00000000
_symmetry_Int_Tables_number   1
_chemical_formula_structural   MnBe4Al
_chemical_formula_sum   'Mn1 Be4 Al1'
_cell_volume   55.99565532
_cell_formula_units_Z   1
loop_
 _symmetry_equiv_pos_site_id
 _symmetry_equiv_pos_as_xyz
  1  'x, y, z'
loop_
 _atom_site_type_symbol
 _atom_site_label
 _atom_site_symmetry_multiplicity
 _atom_site_fract_x
 _atom_site_fract_y
 _atom_site_fract_z
 _atom_site_occupancy
  Mn  Mn0  1  0.00000000  0.00000000  0.00000000  1
  Be  Be1  1  0.74683369  0.37341685  0.87974946  1
  Be  Be2  1  0.25316631  0.37341685  0.37341685  1
  Be  Be3  1  0.25316631  0.87974946  0.37341685  1
  Be  Be4  1  0.74683369  0.37341685  0.37341685  1
  Al  Al5  1  0.50000000  0.75000000  0.75000000  1
