# generated using pymatgen
data_Sr5V3O13
_symmetry_space_group_name_H-M   'P 1'
_cell_length_a   7.46052942
_cell_length_b   10.26094153
_cell_length_c   10.26109873
_cell_angle_alpha   119.99963681
_cell_angle_beta   90.00000000
_cell_angle_gamma   90.00000000
_symmetry_Int_Tables_number   1
_chemical_formula_structural   Sr5V3O13
_chemical_formula_sum   'Sr10 V6 O26'
_cell_volume   680.27255112
_cell_formula_units_Z   2
loop_
 _symmetry_equiv_pos_site_id
 _symmetry_equiv_pos_as_xyz
  1  'x, y, z'
loop_
 _atom_site_type_symbol
 _atom_site_label
 _atom_site_symmetry_multiplicity
 _atom_site_fract_x
 _atom_site_fract_y
 _atom_site_fract_z
 _atom_site_occupancy
  Sr  Sr0  1  0.49757549  0.33334804  0.66667146  1
  Sr  Sr1  1  0.99757549  0.66665196  0.33332854  1
  Sr  Sr2  1  0.50025239  0.66664339  0.33332147  1
  Sr  Sr3  1  0.00025239  0.33335661  0.66667853  1
  Sr  Sr4  1  0.74607735  0.25037778  0.00321055  1
  Sr  Sr5  1  0.74613295  0.99672854  0.24711927  1
  Sr  Sr6  1  0.74612741  0.75288862  0.74957936  1
  Sr  Sr7  1  0.24607735  0.74962222  0.99678945  1
  Sr  Sr8  1  0.24613295  0.00327146  0.75288073  1
  Sr  Sr9  1  0.24612741  0.24711138  0.25042064  1
  V  V10  1  0.74729957  0.03054655  0.63063031  1
  V  V11  1  0.74727962  0.36931677  0.39985240  1
  V  V12  1  0.74728443  0.60014173  0.96939114  1
  V  V13  1  0.24729957  0.96945345  0.36936969  1
  V  V14  1  0.24727962  0.63068323  0.60014760  1
  V  V15  1  0.24728443  0.39985827  0.03060886  1
  O  O16  1  0.74718974  0.83552702  0.51272911  1
  O  O17  1  0.74718069  0.48720045  0.32272643  1
  O  O18  1  0.74713157  0.67730950  0.16445700  1
  O  O19  1  0.24718974  0.16447298  0.48727089  1
  O  O20  1  0.24718069  0.51279955  0.67727357  1
  O  O21  1  0.24713157  0.32269050  0.83554300  1
  O  O22  1  0.56075673  0.09254524  0.74647046  1
  O  O23  1  0.56078863  0.25346979  0.34600405  1
  O  O24  1  0.56074284  0.65403288  0.90747090  1
  O  O25  1  0.06075673  0.90745476  0.25352954  1
  O  O26  1  0.06078863  0.74653021  0.65399595  1
  O  O27  1  0.06074284  0.34596712  0.09252910  1
  O  O28  1  0.43034786  0.91058103  0.24889935  1
  O  O29  1  0.43034912  0.75116473  0.66174707  1
  O  O30  1  0.43029111  0.33818371  0.08938895  1
  O  O31  1  0.93034786  0.08941897  0.75110065  1
  O  O32  1  0.93034912  0.24883527  0.33825293  1
  O  O33  1  0.93029111  0.66181629  0.91061105  1
  O  O34  1  0.75091695  0.12923046  0.53177839  1
  O  O35  1  0.75091693  0.46821272  0.59741419  1
  O  O36  1  0.75085683  0.40260268  0.87078770  1
  O  O37  1  0.25091695  0.87076954  0.46822161  1
  O  O38  1  0.25091693  0.53178728  0.40258581  1
  O  O39  1  0.25085683  0.59739732  0.12921230  1
  O  O40  1  0.71250180  0.00001270  0.99999175  1
  O  O41  1  0.21250180  0.99998730  0.00000825  1
