# generated using pymatgen
data_NdCuGe
_symmetry_space_group_name_H-M   'P 1'
_cell_length_a   4.07210134
_cell_length_b   4.22850098
_cell_length_c   4.22876377
_cell_angle_alpha   119.88933596
_cell_angle_beta   90.00000000
_cell_angle_gamma   90.00000000
_symmetry_Int_Tables_number   1
_chemical_formula_structural   NdCuGe
_chemical_formula_sum   'Nd1 Cu1 Ge1'
_cell_volume   63.12949025
_cell_formula_units_Z   1
loop_
 _symmetry_equiv_pos_site_id
 _symmetry_equiv_pos_as_xyz
  1  'x, y, z'
loop_
 _atom_site_type_symbol
 _atom_site_label
 _atom_site_symmetry_multiplicity
 _atom_site_fract_x
 _atom_site_fract_y
 _atom_site_fract_z
 _atom_site_occupancy
  Nd  Nd0  1  -0.00000000  0.99983849  0.00002594  1
  Cu  Cu1  1  0.50000000  0.33305044  0.66675500  1
  Ge  Ge2  1  0.50000000  0.66701107  0.33321906  1
