# generated using pymatgen
data_Li3FeF5
_symmetry_space_group_name_H-M   'P 1'
_cell_length_a   5.75838972
_cell_length_b   5.75838972
_cell_length_c   11.06589371
_cell_angle_alpha   90.00000000
_cell_angle_beta   90.00000000
_cell_angle_gamma   90.00000000
_symmetry_Int_Tables_number   1
_chemical_formula_structural   Li3FeF5
_chemical_formula_sum   'Li12 Fe4 F20'
_cell_volume   366.93454681
_cell_formula_units_Z   4
loop_
 _symmetry_equiv_pos_site_id
 _symmetry_equiv_pos_as_xyz
  1  'x, y, z'
loop_
 _atom_site_type_symbol
 _atom_site_label
 _atom_site_symmetry_multiplicity
 _atom_site_fract_x
 _atom_site_fract_y
 _atom_site_fract_z
 _atom_site_occupancy
  Li  Li0  1  0.01485720  0.16856363  0.32128605  1
  Li  Li1  1  0.08562129  0.32486337  0.84646935  1
  Li  Li2  1  0.21104980  0.44237324  0.61163552  1
  Li  Li3  1  0.16856363  0.98514280  0.07128605  1
  Li  Li4  1  0.32486337  0.91437871  0.59646935  1
  Li  Li5  1  0.44237324  0.78895020  0.36163552  1
  Li  Li6  1  0.55762676  0.21104980  0.86163552  1
  Li  Li7  1  0.67513563  0.08562129  0.09646935  1
  Li  Li8  1  0.83143637  0.01485720  0.57128605  1
  Li  Li9  1  0.78895020  0.55762676  0.11163552  1
  Li  Li10  1  0.91437871  0.67513563  0.34646935  1
  Li  Li11  1  0.98514280  0.83143637  0.82128605  1
  Fe  Fe12  1  0.28744523  0.49126599  0.14360110  1
  Fe  Fe13  1  0.49126599  0.71255477  0.89360110  1
  Fe  Fe14  1  0.50873401  0.28744523  0.39360110  1
  Fe  Fe15  1  0.71255477  0.50873401  0.64360110  1
  F  F16  1  0.97363236  0.25503858  0.14339409  1
  F  F17  1  0.01317250  0.77418921  0.17671770  1
  F  F18  1  0.15772413  0.57763136  0.96889362  1
  F  F19  1  0.22581079  0.01317250  0.42671770  1
  F  F20  1  0.20098094  0.48395296  0.32979473  1
  F  F21  1  0.25503858  0.02636764  0.89339409  1
  F  F22  1  0.42236864  0.15772413  0.21889362  1
  F  F23  1  0.37396571  0.44233673  0.76964784  1
  F  F24  1  0.55766327  0.37396571  0.01964784  1
  F  F25  1  0.48395296  0.79901906  0.07979473  1
  F  F26  1  0.51604704  0.20098094  0.57979473  1
  F  F27  1  0.44233673  0.62603429  0.51964784  1
  F  F28  1  0.62603429  0.55766327  0.26964784  1
  F  F29  1  0.57763136  0.84227587  0.71889362  1
  F  F30  1  0.74496142  0.97363236  0.39339409  1
  F  F31  1  0.79901906  0.51604704  0.82979473  1
  F  F32  1  0.77418921  0.98682750  0.92671770  1
  F  F33  1  0.84227587  0.42236864  0.46889362  1
  F  F34  1  0.98682750  0.22581079  0.67671770  1
  F  F35  1  0.02636764  0.74496142  0.64339409  1
