# generated using pymatgen
data_Dy6Al2SiS14
_symmetry_space_group_name_H-M   'P 1'
_cell_length_a   5.94915874
_cell_length_b   9.68636723
_cell_length_c   9.68631640
_cell_angle_alpha   60.00008031
_cell_angle_beta   90.00026296
_cell_angle_gamma   90.00060945
_symmetry_Int_Tables_number   1
_chemical_formula_structural   Dy6Al2SiS14
_chemical_formula_sum   'Dy6 Al2 Si1 S14'
_cell_volume   483.39941603
_cell_formula_units_Z   1
loop_
 _symmetry_equiv_pos_site_id
 _symmetry_equiv_pos_as_xyz
  1  'x, y, z'
loop_
 _atom_site_type_symbol
 _atom_site_label
 _atom_site_symmetry_multiplicity
 _atom_site_fract_x
 _atom_site_fract_y
 _atom_site_fract_z
 _atom_site_occupancy
  Dy  Dy0  1  0.06020418  0.63267109  0.22310757  1
  Dy  Dy1  1  0.06020229  0.14422859  0.63265760  1
  Dy  Dy2  1  0.06020042  0.22311326  0.14422810  1
  Dy  Dy3  1  0.57285732  0.36910333  0.78139743  1
  Dy  Dy4  1  0.57284637  0.84948585  0.36911964  1
  Dy  Dy5  1  0.57285072  0.78138982  0.84949218  1
  Al  Al6  1  0.88132887  0.00000136  0.99999889  1
  Al  Al7  1  0.98699337  0.66665634  0.66667176  1
  Si  Si8  1  0.48370864  0.33334693  0.33332710  1
  S  S9  1  0.84218780  0.33333885  0.33333020  1
  S  S10  1  0.36098083  0.66665606  0.66667253  1
  S  S11  1  0.64972667  0.76406557  0.13578617  1
  S  S12  1  0.64972379  0.10014576  0.76406012  1
  S  S13  1  0.64972738  0.13577955  0.10015550  1
  S  S14  1  0.11528552  0.24373030  0.85430168  1
  S  S15  1  0.11529407  0.90196989  0.24373627  1
  S  S16  1  0.11528732  0.85430500  0.90196310  1
  S  S17  1  0.33834754  0.42240236  0.47542403  1
  S  S18  1  0.33835878  0.10218982  0.42239022  1
  S  S19  1  0.33834559  0.47543485  0.10217253  1
  S  S20  1  0.83171967  0.56940205  0.52049500  1
  S  S21  1  0.83172502  0.91009438  0.56940810  1
  S  S22  1  0.83171782  0.52048899  0.91010428  1
