# generated using pymatgen
data_CeZnPt
_symmetry_space_group_name_H-M   'P 1'
_cell_length_a   4.34376405
_cell_length_b   6.95261152
_cell_length_c   8.12430705
_cell_angle_alpha   90.00000000
_cell_angle_beta   90.00000000
_cell_angle_gamma   90.00000000
_symmetry_Int_Tables_number   1
_chemical_formula_structural   CeZnPt
_chemical_formula_sum   'Ce4 Zn4 Pt4'
_cell_volume   245.35816735
_cell_formula_units_Z   4
loop_
 _symmetry_equiv_pos_site_id
 _symmetry_equiv_pos_as_xyz
  1  'x, y, z'
loop_
 _atom_site_type_symbol
 _atom_site_label
 _atom_site_symmetry_multiplicity
 _atom_site_fract_x
 _atom_site_fract_y
 _atom_site_fract_z
 _atom_site_occupancy
  Zn  Zn0  1  0.25000000  0.64615757  0.43459101  1
  Zn  Zn1  1  0.25000000  0.14615757  0.06540899  1
  Zn  Zn2  1  0.75000000  0.35384243  0.56540899  1
  Zn  Zn3  1  0.75000000  0.85384243  0.93459101  1
  Ce  Ce4  1  0.75000000  0.46534358  0.19338792  1
  Ce  Ce5  1  0.25000000  0.03465642  0.69338792  1
  Ce  Ce6  1  0.75000000  0.96534358  0.30661208  1
  Ce  Ce7  1  0.25000000  0.53465642  0.80661208  1
  Pt  Pt8  1  0.25000000  0.75467593  0.11331073  1
  Pt  Pt9  1  0.25000000  0.25467593  0.38668927  1
  Pt  Pt10  1  0.75000000  0.74532407  0.61331073  1
  Pt  Pt11  1  0.75000000  0.24532407  0.88668927  1
