# generated using pymatgen
data_BaCdSnS4
_symmetry_space_group_name_H-M   'P 1'
_cell_length_a   12.87067593
_cell_length_b   12.87067593
_cell_length_c   13.01833826
_cell_angle_alpha   105.37940861
_cell_angle_beta   105.37940862
_cell_angle_gamma   117.61288954
_symmetry_Int_Tables_number   1
_chemical_formula_structural   BaCdSnS4
_chemical_formula_sum   'Ba8 Cd8 Sn8 S32'
_cell_volume   1641.38164737
_cell_formula_units_Z   8
loop_
 _symmetry_equiv_pos_site_id
 _symmetry_equiv_pos_as_xyz
  1  'x, y, z'
loop_
 _atom_site_type_symbol
 _atom_site_label
 _atom_site_symmetry_multiplicity
 _atom_site_fract_x
 _atom_site_fract_y
 _atom_site_fract_z
 _atom_site_occupancy
  S  S0  1  0.46355024  0.22056173  0.41784147  1
  S  S1  1  0.80272027  0.04570877  0.58215853  1
  S  S2  1  0.97056173  0.71355024  0.91784147  1
  S  S3  1  0.79570877  0.05272027  0.08215853  1
  S  S4  1  0.47361952  0.21327278  0.91786334  1
  S  S5  1  0.29540945  0.55575619  0.08213666  1
  S  S6  1  0.96327278  0.72361952  0.41786334  1
  S  S7  1  0.30575619  0.54540945  0.58213666  1
  S  S8  1  0.17769457  0.76749346  0.24879893  1
  S  S9  1  0.51869453  0.92889564  0.75120107  1
  S  S10  1  0.51749346  0.42769457  0.74879893  1
  S  S11  1  0.67889564  0.76869453  0.25120107  1
  S  S12  1  0.21653358  0.27336609  0.24863880  1
  S  S13  1  0.02472729  0.96789478  0.75136120  1
  S  S14  1  0.02336609  0.46653358  0.74863880  1
  S  S15  1  0.71789478  0.27472729  0.25136120  1
  S  S16  1  0.04997322  0.46621259  0.24740477  1
  S  S17  1  0.21880782  0.80256845  0.75259523  1
  S  S18  1  0.21621259  0.29997322  0.74740477  1
  S  S19  1  0.55256845  0.46880782  0.25259523  1
  S  S20  1  0.02621553  0.96342581  0.24751102  1
  S  S21  1  0.71591479  0.77870452  0.75248898  1
  S  S22  1  0.71342581  0.27621553  0.74751102  1
  S  S23  1  0.52870452  0.96591479  0.25248898  1
  S  S24  1  0.46104778  0.72056651  0.41697668  1
  S  S25  1  0.30358983  0.04407111  0.58302332  1
  S  S26  1  0.47056651  0.71104778  0.91697668  1
  S  S27  1  0.79407111  0.55358983  0.08302332  1
  S  S28  1  0.29717196  0.05420072  0.08136296  1
  S  S29  1  0.97283776  0.21580900  0.91863704  1
  S  S30  1  0.80420072  0.54717196  0.58136296  1
  S  S31  1  0.96580900  0.22283776  0.41863704  1
  Cd  Cd32  1  0.33040744  0.97873822  0.24947471  1
  Cd  Cd33  1  0.83093274  0.97926352  0.25052529  1
  Cd  Cd34  1  0.72873822  0.58040744  0.74947471  1
  Cd  Cd35  1  0.72926352  0.08093274  0.75052529  1
  Cd  Cd36  1  0.26199972  0.48463523  0.24850094  1
  Cd  Cd37  1  0.23613430  0.01349879  0.75149906  1
  Cd  Cd38  1  0.23463523  0.51199972  0.74850094  1
  Cd  Cd39  1  0.76349879  0.48613430  0.25149906  1
  Sn  Sn40  1  0.90305930  0.26579287  0.24991729  1
  Sn  Sn41  1  0.98525922  0.76218628  0.24938505  1
  Sn  Sn42  1  0.48587417  0.76280123  0.25061495  1
  Sn  Sn43  1  0.51218628  0.23525922  0.74938505  1
  Sn  Sn44  1  0.01587558  0.65314201  0.75008271  1
  Sn  Sn45  1  0.40314201  0.26587558  0.25008271  1
  Sn  Sn46  1  0.01579287  0.15305930  0.74991729  1
  Sn  Sn47  1  0.51280123  0.73587417  0.75061495  1
  Ba  Ba48  1  0.24668771  0.24377958  0.49560522  1
  Ba  Ba49  1  0.74817436  0.75108249  0.50439478  1
  Ba  Ba50  1  0.99377958  0.49668771  0.99560522  1
  Ba  Ba51  1  0.50108249  0.99817436  0.00439478  1
  Ba  Ba52  1  0.24547680  0.74547680  0.50000000  1
  Ba  Ba53  1  0.49547680  0.49547680  0.00000000  1
  Ba  Ba54  1  0.74955268  0.24955268  0.50000000  1
  Ba  Ba55  1  0.99955268  0.99955268  0.00000000  1
