# generated using pymatgen
data_AlReSi
_symmetry_space_group_name_H-M   'P 1'
_cell_length_a   3.19959378
_cell_length_b   3.19959378
_cell_length_c   4.62425209
_cell_angle_alpha   69.75970828
_cell_angle_beta   69.75970828
_cell_angle_gamma   90.00000000
_symmetry_Int_Tables_number   1
_chemical_formula_structural   AlReSi
_chemical_formula_sum   'Al1 Re1 Si1'
_cell_volume   41.28732774
_cell_formula_units_Z   1
loop_
 _symmetry_equiv_pos_site_id
 _symmetry_equiv_pos_as_xyz
  1  'x, y, z'
loop_
 _atom_site_type_symbol
 _atom_site_label
 _atom_site_symmetry_multiplicity
 _atom_site_fract_x
 _atom_site_fract_y
 _atom_site_fract_z
 _atom_site_occupancy
  Al  Al0  1  0.33308755  0.33308755  0.33382490  1
  Re  Re1  1  0.00753002  0.00753002  0.98493996  1
  Si  Si2  1  0.65938243  0.65938243  0.68123515  1
