# generated using pymatgen
data_HoP5O14
_symmetry_space_group_name_H-M   'P 1'
_cell_length_a   9.19207978
_cell_length_b   9.19207978
_cell_length_c   12.57842512
_cell_angle_alpha   88.89024463
_cell_angle_beta   88.89024464
_cell_angle_gamma   89.58905066
_symmetry_Int_Tables_number   1
_chemical_formula_structural   HoP5O14
_chemical_formula_sum   'Ho4 P20 O56'
_cell_volume   1062.38238492
_cell_formula_units_Z   4
loop_
 _symmetry_equiv_pos_site_id
 _symmetry_equiv_pos_as_xyz
  1  'x, y, z'
loop_
 _atom_site_type_symbol
 _atom_site_label
 _atom_site_symmetry_multiplicity
 _atom_site_fract_x
 _atom_site_fract_y
 _atom_site_fract_z
 _atom_site_occupancy
  O  O0  1  0.64591261  0.57889023  0.61190680  1
  O  O1  1  0.42110977  0.35408739  0.88809320  1
  O  O2  1  0.35408739  0.42110977  0.38809320  1
  O  O3  1  0.57889023  0.64591261  0.11190680  1
  O  O4  1  0.64095505  0.51543025  0.41109864  1
  O  O5  1  0.48456975  0.35904495  0.08890136  1
  O  O6  1  0.35904495  0.48456975  0.58890136  1
  O  O7  1  0.51543025  0.64095505  0.91109864  1
  O  O8  1  0.28203047  0.53784225  0.19644498  1
  O  O9  1  0.46215775  0.71796953  0.30355502  1
  O  O10  1  0.71796953  0.46215775  0.80355502  1
  O  O11  1  0.53784225  0.28203047  0.69644498  1
  O  O12  1  0.07905554  0.87094510  0.92613324  1
  O  O13  1  0.12905490  0.92094446  0.57386676  1
  O  O14  1  0.92094446  0.12905490  0.07386676  1
  O  O15  1  0.87094510  0.07905554  0.42613324  1
  O  O16  1  0.03422069  0.85001419  0.13164045  1
  O  O17  1  0.14998581  0.96577931  0.36835955  1
  O  O18  1  0.96577931  0.14998581  0.86835955  1
  O  O19  1  0.97703985  0.28051971  0.26894345  1
  O  O20  1  0.85001419  0.03422069  0.63164045  1
  O  O21  1  0.20033519  0.10401748  0.18123286  1
  O  O22  1  0.10401748  0.20033519  0.68123286  1
  O  O23  1  0.79966481  0.89598252  0.81876714  1
  O  O24  1  0.53089607  0.97998336  0.83833600  1
  O  O25  1  0.02001664  0.46910393  0.66166400  1
  O  O26  1  0.46910393  0.02001664  0.16166400  1
  O  O27  1  0.97998336  0.53089607  0.33833600  1
  O  O28  1  0.49686606  0.01794471  0.64005057  1
  O  O29  1  0.98205529  0.50313394  0.85994943  1
  O  O30  1  0.50313394  0.98205529  0.35994943  1
  O  O31  1  0.01794471  0.49686606  0.14005057  1
  O  O32  1  0.89797085  0.28828642  0.55607877  1
  O  O33  1  0.71171358  0.10202915  0.94392123  1
  O  O34  1  0.10202915  0.71171358  0.44392123  1
  O  O35  1  0.28828642  0.89797085  0.05607877  1
  O  O36  1  0.65384672  0.84883319  0.99126674  1
  O  O37  1  0.15116681  0.34615328  0.50873326  1
  O  O38  1  0.34615328  0.15116681  0.00873326  1
  O  O39  1  0.84883319  0.65384672  0.49126674  1
  O  O40  1  0.65722101  0.17513845  0.52747462  1
  O  O41  1  0.82486155  0.34277899  0.97252538  1
  O  O42  1  0.34277899  0.82486155  0.47252538  1
  O  O43  1  0.17513845  0.65722101  0.02747462  1
  O  O44  1  0.77881415  0.60663168  0.97059811  1
  O  O45  1  0.39336832  0.22118585  0.52940189  1
  O  O46  1  0.22118585  0.39336832  0.02940189  1
  O  O47  1  0.60663168  0.77881415  0.47059811  1
  O  O48  1  0.45945756  0.76970137  0.71692939  1
  O  O49  1  0.23029863  0.54054244  0.78307061  1
  O  O50  1  0.54054244  0.23029863  0.28307061  1
  O  O51  1  0.76970137  0.45945756  0.21692939  1
  O  O52  1  0.28051971  0.97703985  0.76894345  1
  O  O53  1  0.02296015  0.71948029  0.73105655  1
  O  O54  1  0.71948029  0.02296015  0.23105655  1
  O  O55  1  0.89598252  0.79966481  0.31876714  1
  P  P56  1  0.67584151  0.61579990  0.49872046  1
  P  P57  1  0.38420010  0.32415849  0.00127954  1
  P  P58  1  0.32415849  0.38420010  0.50127954  1
  P  P59  1  0.61579990  0.67584151  0.99872046  1
  P  P60  1  0.18236596  0.52207133  0.10706414  1
  P  P61  1  0.47792867  0.81763404  0.39293586  1
  P  P62  1  0.81763404  0.47792867  0.89293586  1
  P  P63  1  0.52207133  0.18236596  0.60706414  1
  P  P64  1  0.12630660  0.82768554  0.03413632  1
  P  P65  1  0.17231446  0.87369340  0.46586368  1
  P  P66  1  0.87369340  0.17231446  0.96586368  1
  P  P67  1  0.82768554  0.12630660  0.53413632  1
  P  P68  1  0.95089644  0.68335331  0.39012949  1
  P  P69  1  0.31664669  0.04910356  0.10987051  1
  P  P70  1  0.04910356  0.31664669  0.60987051  1
  P  P71  1  0.68335331  0.95089644  0.89012949  1
  P  P72  1  0.92417907  0.42951135  0.24191032  1
  P  P73  1  0.57048865  0.07582093  0.25808968  1
  P  P74  1  0.07582093  0.57048865  0.75808968  1
  P  P75  1  0.42951135  0.92417907  0.74191032  1
  Ho  Ho76  1  0.52050280  0.47949720  0.25000000  1
  Ho  Ho77  1  0.47949720  0.52050280  0.75000000  1
  Ho  Ho78  1  0.96616940  0.03383060  0.25000000  1
  Ho  Ho79  1  0.03383060  0.96616940  0.75000000  1
