# generated using pymatgen
data_B4OsW
_symmetry_space_group_name_H-M   'P 1'
_cell_length_a   2.92974668
_cell_length_b   2.93089852
_cell_length_c   7.56092684
_cell_angle_alpha   90.00000000
_cell_angle_beta   90.00000000
_cell_angle_gamma   59.98698200
_symmetry_Int_Tables_number   1
_chemical_formula_structural   B4OsW
_chemical_formula_sum   'B4 Os1 W1'
_cell_volume   56.21853638
_cell_formula_units_Z   1
loop_
 _symmetry_equiv_pos_site_id
 _symmetry_equiv_pos_as_xyz
  1  'x, y, z'
loop_
 _atom_site_type_symbol
 _atom_site_label
 _atom_site_symmetry_multiplicity
 _atom_site_fract_x
 _atom_site_fract_y
 _atom_site_fract_z
 _atom_site_occupancy
  B  B0  1  0.33363655  0.33318172  0.04241639  1
  B  B1  1  0.66656460  0.66671770  0.95135533  1
  B  B2  1  0.66656460  0.66671770  0.54864467  1
  B  B3  1  0.33363655  0.33318172  0.45758361  1
  Os  Os4  1  0.33323327  0.33338336  0.75000000  1
  W  W5  1  0.66636443  0.66681779  0.25000000  1
