# generated using pymatgen
data_Nd3Au4
_symmetry_space_group_name_H-M   'P 1'
_cell_length_a   8.31825011
_cell_length_b   8.31825011
_cell_length_c   8.31825011
_cell_angle_alpha   114.03180661
_cell_angle_beta   114.03180653
_cell_angle_gamma   114.03180647
_symmetry_Int_Tables_number   1
_chemical_formula_structural   Nd3Au4
_chemical_formula_sum   'Nd6 Au8'
_cell_volume   348.86058939
_cell_formula_units_Z   2
loop_
 _symmetry_equiv_pos_site_id
 _symmetry_equiv_pos_as_xyz
  1  'x, y, z'
loop_
 _atom_site_type_symbol
 _atom_site_label
 _atom_site_symmetry_multiplicity
 _atom_site_fract_x
 _atom_site_fract_y
 _atom_site_fract_z
 _atom_site_occupancy
  Nd  Nd0  1  0.27132412  0.39905536  0.01517062  1
  Nd  Nd1  1  0.01517062  0.27132412  0.39905536  1
  Nd  Nd2  1  0.39905536  0.01517062  0.27132412  1
  Nd  Nd3  1  0.72867588  0.60094464  0.98482938  1
  Nd  Nd4  1  0.98482938  0.72867588  0.60094464  1
  Nd  Nd5  1  0.60094464  0.98482938  0.72867588  1
  Au  Au6  1  0.43778872  0.76727077  0.92858009  1
  Au  Au7  1  0.92858009  0.43778872  0.76727077  1
  Au  Au8  1  0.76727077  0.92858009  0.43778872  1
  Au  Au9  1  0.56221128  0.23272923  0.07141991  1
  Au  Au10  1  0.07141991  0.56221128  0.23272923  1
  Au  Au11  1  0.23272923  0.07141991  0.56221128  1
  Au  Au12  1  0.50000000  0.50000000  0.50000000  1
  Au  Au13  1  0.00000000  0.00000000  0.00000000  1
