# generated using pymatgen
data_Tb(Zn10Fe)2
_symmetry_space_group_name_H-M   'P 1'
_cell_length_a   9.95280493
_cell_length_b   9.95280493
_cell_length_c   9.95280494
_cell_angle_alpha   59.99999998
_cell_angle_beta   59.99999998
_cell_angle_gamma   60.00000001
_symmetry_Int_Tables_number   1
_chemical_formula_structural   Tb(Zn10Fe)2
_chemical_formula_sum   'Tb2 Zn40 Fe4'
_cell_volume   697.14237158
_cell_formula_units_Z   2
loop_
 _symmetry_equiv_pos_site_id
 _symmetry_equiv_pos_as_xyz
  1  'x, y, z'
loop_
 _atom_site_type_symbol
 _atom_site_label
 _atom_site_symmetry_multiplicity
 _atom_site_fract_x
 _atom_site_fract_y
 _atom_site_fract_z
 _atom_site_occupancy
  Fe  Fe0  1  0.50000000  0.50000000  0.50000000  1
  Fe  Fe1  1  0.50000000  0.00000000  0.50000000  1
  Fe  Fe2  1  0.00000000  0.50000000  0.50000000  1
  Fe  Fe3  1  0.50000000  0.50000000  0.00000000  1
  Zn  Zn4  1  0.00000000  0.50000000  0.00000000  1
  Zn  Zn5  1  0.50000000  0.00000000  0.00000000  1
  Zn  Zn6  1  0.32689903  0.32689903  0.79027577  1
  Zn  Zn7  1  0.67310097  0.20972423  0.94407384  1
  Zn  Zn8  1  0.94407384  0.67310097  0.67310097  1
  Zn  Zn9  1  0.67310097  0.94407384  0.67310097  1
  Zn  Zn10  1  0.20972423  0.67310097  0.94407384  1
  Zn  Zn11  1  0.20972423  0.94407384  0.67310097  1
  Zn  Zn12  1  0.94407384  0.20972423  0.67310097  1
  Zn  Zn13  1  0.79027577  0.32689903  0.32689903  1
  Zn  Zn14  1  0.32689903  0.79027577  0.32689903  1
  Zn  Zn15  1  0.05592616  0.32689903  0.79027577  1
  Zn  Zn16  1  0.32689903  0.05592616  0.79027577  1
  Zn  Zn17  1  0.05592616  0.32689903  0.32689903  1
  Zn  Zn18  1  0.79027577  0.32689903  0.05592616  1
  Zn  Zn19  1  0.32689903  0.79027577  0.05592616  1
  Zn  Zn20  1  0.32689903  0.05592616  0.32689903  1
  Zn  Zn21  1  0.94407384  0.67310097  0.20972423  1
  Zn  Zn22  1  0.67310097  0.94407384  0.20972423  1
  Zn  Zn23  1  0.67310097  0.67310097  0.94407384  1
  Zn  Zn24  1  0.67310097  0.67310097  0.20972423  1
  Zn  Zn25  1  0.20972423  0.67310097  0.67310097  1
  Zn  Zn26  1  0.67310097  0.20972423  0.67310097  1
  Zn  Zn27  1  0.79027577  0.05592616  0.32689903  1
  Zn  Zn28  1  0.05592616  0.79027577  0.32689903  1
  Zn  Zn29  1  0.32689903  0.32689903  0.05592616  1
  Zn  Zn30  1  0.76061888  0.48938112  0.48938112  1
  Zn  Zn31  1  0.51061888  0.51061888  0.23938112  1
  Zn  Zn32  1  0.23938112  0.23938112  0.51061888  1
  Zn  Zn33  1  0.51061888  0.23938112  0.23938112  1
  Zn  Zn34  1  0.51061888  0.23938112  0.51061888  1
  Zn  Zn35  1  0.23938112  0.51061888  0.23938112  1
  Zn  Zn36  1  0.48938112  0.76061888  0.48938112  1
  Zn  Zn37  1  0.48938112  0.48938112  0.76061888  1
  Zn  Zn38  1  0.76061888  0.76061888  0.48938112  1
  Zn  Zn39  1  0.76061888  0.48938112  0.76061888  1
  Zn  Zn40  1  0.23938112  0.51061888  0.51061888  1
  Zn  Zn41  1  0.48938112  0.76061888  0.76061888  1
  Zn  Zn42  1  0.00000000  0.00000000  0.00000000  1
  Zn  Zn43  1  0.00000000  0.00000000  0.50000000  1
  Tb  Tb44  1  0.87500000  0.87500000  0.87500000  1
  Tb  Tb45  1  0.12500000  0.12500000  0.12500000  1
