# generated using pymatgen
data_CsGe
_symmetry_space_group_name_H-M   'P 1'
_cell_length_a   13.93575639
_cell_length_b   13.93575639
_cell_length_c   13.93575639
_cell_angle_alpha   90.00000000
_cell_angle_beta   90.00000000
_cell_angle_gamma   90.00000000
_symmetry_Int_Tables_number   1
_chemical_formula_structural   CsGe
_chemical_formula_sum   'Cs32 Ge32'
_cell_volume   2706.39783631
_cell_formula_units_Z   32
loop_
 _symmetry_equiv_pos_site_id
 _symmetry_equiv_pos_as_xyz
  1  'x, y, z'
loop_
 _atom_site_type_symbol
 _atom_site_label
 _atom_site_symmetry_multiplicity
 _atom_site_fract_x
 _atom_site_fract_y
 _atom_site_fract_z
 _atom_site_occupancy
  Ge  Ge0  1  0.06615465  0.06615465  0.06615465  1
  Ge  Ge1  1  0.43384535  0.56615465  0.43384535  1
  Ge  Ge2  1  0.43384535  0.43384535  0.56615465  1
  Ge  Ge3  1  0.56615465  0.43384535  0.43384535  1
  Ge  Ge4  1  0.93384535  0.93384535  0.06615465  1
  Ge  Ge5  1  0.06615465  0.93384535  0.93384535  1
  Ge  Ge6  1  0.93384535  0.06615465  0.93384535  1
  Ge  Ge7  1  0.56615465  0.56615465  0.56615465  1
  Ge  Ge8  1  0.06128936  0.31497032  0.42817808  1
  Ge  Ge9  1  0.43871064  0.92817808  0.18502968  1
  Ge  Ge10  1  0.43871064  0.07182192  0.81497032  1
  Ge  Ge11  1  0.07182192  0.18502968  0.56128936  1
  Ge  Ge12  1  0.92817808  0.18502968  0.43871064  1
  Ge  Ge13  1  0.81497032  0.43871064  0.07182192  1
  Ge  Ge14  1  0.18502968  0.56128936  0.07182192  1
  Ge  Ge15  1  0.42817808  0.06128936  0.31497032  1
  Ge  Ge16  1  0.31497032  0.42817808  0.06128936  1
  Ge  Ge17  1  0.68502968  0.57182192  0.06128936  1
  Ge  Ge18  1  0.42817808  0.93871064  0.68502968  1
  Ge  Ge19  1  0.68502968  0.42817808  0.93871064  1
  Ge  Ge20  1  0.57182192  0.93871064  0.31497032  1
  Ge  Ge21  1  0.57182192  0.06128936  0.68502968  1
  Ge  Ge22  1  0.31497032  0.57182192  0.93871064  1
  Ge  Ge23  1  0.06128936  0.68502968  0.57182192  1
  Ge  Ge24  1  0.93871064  0.31497032  0.57182192  1
  Ge  Ge25  1  0.93871064  0.68502968  0.42817808  1
  Ge  Ge26  1  0.18502968  0.43871064  0.92817808  1
  Ge  Ge27  1  0.81497032  0.56128936  0.92817808  1
  Ge  Ge28  1  0.07182192  0.81497032  0.43871064  1
  Ge  Ge29  1  0.92817808  0.81497032  0.56128936  1
  Ge  Ge30  1  0.56128936  0.07182192  0.18502968  1
  Ge  Ge31  1  0.56128936  0.92817808  0.81497032  1
  Cs  Cs32  1  0.33458355  0.33458355  0.33458355  1
  Cs  Cs33  1  0.16541645  0.83458355  0.16541645  1
  Cs  Cs34  1  0.16541645  0.16541645  0.83458355  1
  Cs  Cs35  1  0.83458355  0.16541645  0.16541645  1
  Cs  Cs36  1  0.66541645  0.66541645  0.33458355  1
  Cs  Cs37  1  0.33458355  0.66541645  0.66541645  1
  Cs  Cs38  1  0.66541645  0.33458355  0.66541645  1
  Cs  Cs39  1  0.83458355  0.83458355  0.83458355  1
  Cs  Cs40  1  0.33832864  0.13903296  0.06706294  1
  Cs  Cs41  1  0.16167136  0.56706294  0.36096704  1
  Cs  Cs42  1  0.16167136  0.43293706  0.63903296  1
  Cs  Cs43  1  0.43293706  0.36096704  0.83832864  1
  Cs  Cs44  1  0.56706294  0.36096704  0.16167136  1
  Cs  Cs45  1  0.63903296  0.16167136  0.43293706  1
  Cs  Cs46  1  0.36096704  0.83832864  0.43293706  1
  Cs  Cs47  1  0.06706294  0.33832864  0.13903296  1
  Cs  Cs48  1  0.13903296  0.06706294  0.33832864  1
  Cs  Cs49  1  0.86096704  0.93293706  0.33832864  1
  Cs  Cs50  1  0.06706294  0.66167136  0.86096704  1
  Cs  Cs51  1  0.86096704  0.06706294  0.66167136  1
  Cs  Cs52  1  0.93293706  0.66167136  0.13903296  1
  Cs  Cs53  1  0.93293706  0.33832864  0.86096704  1
  Cs  Cs54  1  0.13903296  0.93293706  0.66167136  1
  Cs  Cs55  1  0.33832864  0.86096704  0.93293706  1
  Cs  Cs56  1  0.66167136  0.13903296  0.93293706  1
  Cs  Cs57  1  0.66167136  0.86096704  0.06706294  1
  Cs  Cs58  1  0.36096704  0.16167136  0.56706294  1
  Cs  Cs59  1  0.63903296  0.83832864  0.56706294  1
  Cs  Cs60  1  0.43293706  0.63903296  0.16167136  1
  Cs  Cs61  1  0.56706294  0.63903296  0.83832864  1
  Cs  Cs62  1  0.83832864  0.43293706  0.36096704  1
  Cs  Cs63  1  0.83832864  0.56706294  0.63903296  1
