# generated using pymatgen
data_YZnPO
_symmetry_space_group_name_H-M   'P 1'
_cell_length_a   10.41113895
_cell_length_b   10.41113895
_cell_length_c   10.41113895
_cell_angle_alpha   21.63297959
_cell_angle_beta   21.63297961
_cell_angle_gamma   21.63297959
_symmetry_Int_Tables_number   1
_chemical_formula_structural   YZnPO
_chemical_formula_sum   'Y2 Zn2 P2 O2'
_cell_volume   134.40133280
_cell_formula_units_Z   2
loop_
 _symmetry_equiv_pos_site_id
 _symmetry_equiv_pos_as_xyz
  1  'x, y, z'
loop_
 _atom_site_type_symbol
 _atom_site_label
 _atom_site_symmetry_multiplicity
 _atom_site_fract_x
 _atom_site_fract_y
 _atom_site_fract_z
 _atom_site_occupancy
  O  O0  1  0.69471788  0.69471788  0.69471788  1
  O  O1  1  0.30528212  0.30528212  0.30528212  1
  P  P2  1  0.11190734  0.11190734  0.11190734  1
  P  P3  1  0.88809266  0.88809266  0.88809266  1
  Zn  Zn4  1  0.80377740  0.80377740  0.80377740  1
  Zn  Zn5  1  0.19622260  0.19622260  0.19622260  1
  Y  Y6  1  0.62018338  0.62018338  0.62018338  1
  Y  Y7  1  0.37981662  0.37981662  0.37981662  1
