# generated using pymatgen
data_BaPdF4
_symmetry_space_group_name_H-M   'P 1'
_cell_length_a   6.28141007
_cell_length_b   6.28141007
_cell_length_c   7.09123276
_cell_angle_alpha   116.28904189
_cell_angle_beta   116.28904191
_cell_angle_gamma   89.99999993
_symmetry_Int_Tables_number   1
_chemical_formula_structural   BaPdF4
_chemical_formula_sum   'Ba2 Pd2 F8'
_cell_volume   218.10889936
_cell_formula_units_Z   2
loop_
 _symmetry_equiv_pos_site_id
 _symmetry_equiv_pos_as_xyz
  1  'x, y, z'
loop_
 _atom_site_type_symbol
 _atom_site_label
 _atom_site_symmetry_multiplicity
 _atom_site_fract_x
 _atom_site_fract_y
 _atom_site_fract_z
 _atom_site_occupancy
  F  F0  1  0.96726240  0.46726240  0.25607636  1
  F  F1  1  0.71118604  0.21118604  0.74392364  1
  F  F2  1  0.03273760  0.53273760  0.74392364  1
  F  F3  1  0.21118604  0.03273760  0.74392364  1
  F  F4  1  0.28881396  0.78881396  0.25607636  1
  F  F5  1  0.46726240  0.28881396  0.25607636  1
  F  F6  1  0.78881396  0.96726240  0.25607636  1
  F  F7  1  0.53273760  0.71118604  0.74392364  1
  Pd  Pd8  1  0.50000000  0.00000000  0.00000000  1
  Pd  Pd9  1  0.00000000  0.50000000  0.00000000  1
  Ba  Ba10  1  0.75000000  0.75000000  0.50000000  1
  Ba  Ba11  1  0.25000000  0.25000000  0.50000000  1
