# generated using pymatgen
data_Ba2LaRuO6
_symmetry_space_group_name_H-M   'P 1'
_cell_length_a   6.08111936
_cell_length_b   6.08111936
_cell_length_c   6.08111936
_cell_angle_alpha   60.64916339
_cell_angle_beta   60.64916338
_cell_angle_gamma   60.64916337
_symmetry_Int_Tables_number   1
_chemical_formula_structural   Ba2LaRuO6
_chemical_formula_sum   'Ba2 La1 Ru1 O6'
_cell_volume   161.34469704
_cell_formula_units_Z   1
loop_
 _symmetry_equiv_pos_site_id
 _symmetry_equiv_pos_as_xyz
  1  'x, y, z'
loop_
 _atom_site_type_symbol
 _atom_site_label
 _atom_site_symmetry_multiplicity
 _atom_site_fract_x
 _atom_site_fract_y
 _atom_site_fract_z
 _atom_site_occupancy
  O  O0  1  0.27510062  0.77196694  0.68447141  1
  O  O1  1  0.77196694  0.68447141  0.27510062  1
  O  O2  1  0.68447141  0.27510062  0.77196694  1
  O  O3  1  0.72489938  0.22803306  0.31552859  1
  O  O4  1  0.31552859  0.72489938  0.22803306  1
  O  O5  1  0.22803306  0.31552859  0.72489938  1
  Ru  Ru6  1  0.50000000  0.50000000  0.50000000  1
  Ba  Ba7  1  0.74797066  0.74797066  0.74797066  1
  Ba  Ba8  1  0.25202934  0.25202934  0.25202934  1
  La  La9  1  0.00000000  0.00000000  0.00000000  1
