# generated using pymatgen
data_Li6Nb3V3O16
_symmetry_space_group_name_H-M   'P 1'
_cell_length_a   6.06863885
_cell_length_b   6.10512926
_cell_length_c   10.10154135
_cell_angle_alpha   89.94660783
_cell_angle_beta   89.73956452
_cell_angle_gamma   120.22146778
_symmetry_Int_Tables_number   1
_chemical_formula_structural   Li6Nb3V3O16
_chemical_formula_sum   'Li6 Nb3 V3 O16'
_cell_volume   323.38763024
_cell_formula_units_Z   1
loop_
 _symmetry_equiv_pos_site_id
 _symmetry_equiv_pos_as_xyz
  1  'x, y, z'
loop_
 _atom_site_type_symbol
 _atom_site_label
 _atom_site_symmetry_multiplicity
 _atom_site_fract_x
 _atom_site_fract_y
 _atom_site_fract_z
 _atom_site_occupancy
  Li  Li0  1  0.31118270  0.65596026  0.50229993  1
  Li  Li1  1  0.33492398  0.66761306  0.89502063  1
  Li  Li2  1  0.01634673  0.00772757  0.99960439  1
  Li  Li3  1  0.02993796  0.01546175  0.49820030  1
  Li  Li4  1  0.65645217  0.32913937  0.01268171  1
  Li  Li5  1  0.66457864  0.33255270  0.38349334  1
  Nb  Nb6  1  0.65544375  0.82922723  0.22776364  1
  Nb  Nb7  1  0.82404988  0.65877174  0.71277477  1
  Nb  Nb8  1  0.82680747  0.16473613  0.71524130  1
  V  V9  1  0.33542129  0.16811820  0.71597080  1
  V  V10  1  0.15192355  0.81849625  0.20938059  1
  V  V11  1  0.15767521  0.33150916  0.20752889  1
  O  O12  1  0.15394753  0.84725221  0.61032938  1
  O  O13  1  0.03981274  0.52166685  0.31673297  1
  O  O14  1  0.33147756  0.66519192  0.10593884  1
  O  O15  1  0.99607675  0.99757809  0.31795318  1
  O  O16  1  0.98680592  0.99325803  0.81977811  1
  O  O17  1  0.15406234  0.30787376  0.60974988  1
  O  O18  1  0.48430982  0.97346443  0.32144319  1
  O  O19  1  0.48254588  0.51111698  0.32139552  1
  O  O20  1  0.30281513  0.15143800  0.11783411  1
  O  O21  1  0.69395392  0.84695908  0.60237530  1
  O  O22  1  0.51860463  0.49247703  0.82579525  1
  O  O23  1  0.51796553  0.02606728  0.82532125  1
  O  O24  1  0.67950670  0.33947132  0.59926790  1
  O  O25  1  0.85839222  0.70028708  0.10676324  1
  O  O26  1  0.97501559  0.48732276  0.81975120  1
  O  O27  1  0.85996541  0.15956074  0.10744740  1
