# generated using pymatgen
data_Zn3TeO6
_symmetry_space_group_name_H-M   'P 1'
_cell_length_a   8.79406309
_cell_length_b   8.79406309
_cell_length_c   10.54130834
_cell_angle_alpha   87.56742547
_cell_angle_beta   87.56742544
_cell_angle_gamma   61.37490808
_symmetry_Int_Tables_number   1
_chemical_formula_structural   Zn3TeO6
_chemical_formula_sum   'Zn18 Te6 O36'
_cell_volume   714.70433028
_cell_formula_units_Z   6
loop_
 _symmetry_equiv_pos_site_id
 _symmetry_equiv_pos_as_xyz
  1  'x, y, z'
loop_
 _atom_site_type_symbol
 _atom_site_label
 _atom_site_symmetry_multiplicity
 _atom_site_fract_x
 _atom_site_fract_y
 _atom_site_fract_z
 _atom_site_occupancy
  O  O0  1  0.08929203  0.76805754  0.42890511  1
  O  O1  1  0.23194246  0.91070797  0.07109489  1
  O  O2  1  0.91070797  0.23194246  0.57109489  1
  O  O3  1  0.76805754  0.08929203  0.92890511  1
  O  O4  1  0.42564399  0.43005403  0.42773805  1
  O  O5  1  0.56994597  0.57435601  0.07226195  1
  O  O6  1  0.57435601  0.56994597  0.57226195  1
  O  O7  1  0.43005403  0.42564399  0.92773805  1
  O  O8  1  0.23172186  0.54774389  0.20096676  1
  O  O9  1  0.45225611  0.76827814  0.29903324  1
  O  O10  1  0.76827814  0.45225611  0.79903324  1
  O  O11  1  0.54774389  0.23172186  0.70096676  1
  O  O12  1  0.12097837  0.43092977  0.40516096  1
  O  O13  1  0.56907023  0.87902163  0.09483904  1
  O  O14  1  0.75889387  0.44425787  0.29484848  1
  O  O15  1  0.87902163  0.56907023  0.59483904  1
  O  O16  1  0.77722278  0.74069150  0.31735732  1
  O  O17  1  0.25930850  0.22277722  0.18264268  1
  O  O18  1  0.22277722  0.25930850  0.68264268  1
  O  O19  1  0.74069150  0.77722278  0.81735732  1
  O  O20  1  0.88661915  0.58690397  0.09964312  1
  O  O21  1  0.41309603  0.11338085  0.40035688  1
  O  O22  1  0.11338085  0.41309603  0.90035688  1
  O  O23  1  0.58690397  0.88661915  0.59964312  1
  O  O24  1  0.09279321  0.04738047  0.84203489  1
  O  O25  1  0.95261953  0.90720679  0.65796511  1
  O  O26  1  0.90720679  0.95261953  0.15796511  1
  O  O27  1  0.04738047  0.09279321  0.34203489  1
  O  O28  1  0.23746912  0.90946469  0.55948599  1
  O  O29  1  0.09053531  0.76253088  0.94051401  1
  O  O30  1  0.76253088  0.09053531  0.44051401  1
  O  O31  1  0.90946469  0.23746912  0.05948599  1
  O  O32  1  0.44425787  0.75889387  0.79484848  1
  O  O33  1  0.24110613  0.55574213  0.70515152  1
  O  O34  1  0.55574213  0.24110613  0.20515152  1
  O  O35  1  0.43092977  0.12097837  0.90516096  1
  Zn  Zn36  1  0.79909245  0.20090755  0.25000000  1
  Zn  Zn37  1  0.20090755  0.79909245  0.75000000  1
  Zn  Zn38  1  0.37744075  0.67724603  0.44770320  1
  Zn  Zn39  1  0.32275397  0.62255925  0.05229680  1
  Zn  Zn40  1  0.62255925  0.32275397  0.55229680  1
  Zn  Zn41  1  0.67724603  0.37744075  0.94770320  1
  Zn  Zn42  1  0.00144256  0.72684936  0.25746377  1
  Zn  Zn43  1  0.27315064  0.99855744  0.24253623  1
  Zn  Zn44  1  0.99855744  0.27315064  0.74253623  1
  Zn  Zn45  1  0.72684936  0.00144256  0.75746377  1
  Zn  Zn46  1  0.06485098  0.34281362  0.07467926  1
  Zn  Zn47  1  0.65718638  0.93514902  0.42532074  1
  Zn  Zn48  1  0.93514902  0.65718638  0.92532074  1
  Zn  Zn49  1  0.34281362  0.06485098  0.57467926  1
  Zn  Zn50  1  0.89854052  0.42578874  0.44131203  1
  Zn  Zn51  1  0.57421126  0.10145948  0.05868797  1
  Zn  Zn52  1  0.10145948  0.57421126  0.55868797  1
  Zn  Zn53  1  0.42578874  0.89854052  0.94131203  1
  Te  Te54  1  0.00000000  0.00000000  0.50000000  1
  Te  Te55  1  0.00000000  0.00000000  0.00000000  1
  Te  Te56  1  0.66613788  0.66257034  0.19445942  1
  Te  Te57  1  0.33742966  0.33386212  0.30554058  1
  Te  Te58  1  0.33386212  0.33742966  0.80554058  1
  Te  Te59  1  0.66257034  0.66613788  0.69445942  1
