# generated using pymatgen
data_NaLa2TaO6
_symmetry_space_group_name_H-M   'P 1'
_cell_length_a   5.72443632
_cell_length_b   6.02150021
_cell_length_c   8.28537719
_cell_angle_alpha   90.00000000
_cell_angle_beta   90.96089959
_cell_angle_gamma   90.00000000
_symmetry_Int_Tables_number   1
_chemical_formula_structural   NaLa2TaO6
_chemical_formula_sum   'Na2 La4 Ta2 O12'
_cell_volume   285.55425817
_cell_formula_units_Z   2
loop_
 _symmetry_equiv_pos_site_id
 _symmetry_equiv_pos_as_xyz
  1  'x, y, z'
loop_
 _atom_site_type_symbol
 _atom_site_label
 _atom_site_symmetry_multiplicity
 _atom_site_fract_x
 _atom_site_fract_y
 _atom_site_fract_z
 _atom_site_occupancy
  O  O0  1  0.83250669  0.72502044  0.57725224  1
  O  O1  1  0.66749331  0.22502044  0.92274776  1
  O  O2  1  0.16749331  0.27497956  0.42274776  1
  O  O3  1  0.33250669  0.77497956  0.07725224  1
  O  O4  1  0.12419646  0.06021745  0.72468061  1
  O  O5  1  0.37580354  0.56021745  0.77531939  1
  O  O6  1  0.87580354  0.93978255  0.27531939  1
  O  O7  1  0.62419646  0.43978255  0.22468061  1
  O  O8  1  0.21433535  0.32478640  0.05205437  1
  O  O9  1  0.28566465  0.82478640  0.44794563  1
  O  O10  1  0.78566465  0.67521360  0.94794563  1
  O  O11  1  0.71433535  0.17521360  0.55205437  1
  Na  Na12  1  0.50000000  0.50000000  0.50000000  1
  Na  Na13  1  0.00000000  0.00000000  0.00000000  1
  La  La14  1  0.48147192  0.05851989  0.25654109  1
  La  La15  1  0.01852808  0.55851989  0.24345891  1
  La  La16  1  0.98147192  0.44148011  0.75654109  1
  La  La17  1  0.51852808  0.94148011  0.74345891  1
  Ta  Ta18  1  0.50000000  0.50000000  0.00000000  1
  Ta  Ta19  1  0.00000000  0.00000000  0.50000000  1
