# generated using pymatgen
data_LiCaGaF6
_symmetry_space_group_name_H-M   'P 1'
_cell_length_a   5.17020514
_cell_length_b   5.17020514
_cell_length_c   9.87808464
_cell_angle_alpha   90.00000000
_cell_angle_beta   90.00000000
_cell_angle_gamma   120.00000002
_symmetry_Int_Tables_number   1
_chemical_formula_structural   LiCaGaF6
_chemical_formula_sum   'Li2 Ca2 Ga2 F12'
_cell_volume   228.67512469
_cell_formula_units_Z   2
loop_
 _symmetry_equiv_pos_site_id
 _symmetry_equiv_pos_as_xyz
  1  'x, y, z'
loop_
 _atom_site_type_symbol
 _atom_site_label
 _atom_site_symmetry_multiplicity
 _atom_site_fract_x
 _atom_site_fract_y
 _atom_site_fract_z
 _atom_site_occupancy
  Li  Li0  1  0.33333333  0.66666667  0.25000000  1
  Li  Li1  1  0.66666667  0.33333333  0.75000000  1
  F  F2  1  0.98090870  0.34703819  0.14028630  1
  F  F3  1  0.01909130  0.36612949  0.64028630  1
  F  F4  1  0.63387051  0.65296181  0.64028630  1
  F  F5  1  0.34703819  0.98090870  0.64028630  1
  F  F6  1  0.65296181  0.01909130  0.35971370  1
  F  F7  1  0.65296181  0.63387051  0.14028630  1
  F  F8  1  0.36612949  0.01909130  0.14028630  1
  F  F9  1  0.36612949  0.34703819  0.35971370  1
  F  F10  1  0.34703819  0.36612949  0.85971370  1
  F  F11  1  0.98090870  0.63387051  0.35971370  1
  F  F12  1  0.01909130  0.65296181  0.85971370  1
  F  F13  1  0.63387051  0.98090870  0.85971370  1
  Ca  Ca14  1  0.00000000  0.00000000  0.00000000  1
  Ca  Ca15  1  0.00000000  0.00000000  0.50000000  1
  Ga  Ga16  1  0.66666667  0.33333333  0.25000000  1
  Ga  Ga17  1  0.33333333  0.66666667  0.75000000  1
