# generated using pymatgen
data_RbUAgSe3
_symmetry_space_group_name_H-M   'P 1'
_cell_length_a   4.27584010
_cell_length_b   8.00599890
_cell_length_c   10.92069595
_cell_angle_alpha   90.00000000
_cell_angle_beta   90.00000000
_cell_angle_gamma   105.48819117
_symmetry_Int_Tables_number   1
_chemical_formula_structural   RbUAgSe3
_chemical_formula_sum   'Rb2 U2 Ag2 Se6'
_cell_volume   360.26546040
_cell_formula_units_Z   2
loop_
 _symmetry_equiv_pos_site_id
 _symmetry_equiv_pos_as_xyz
  1  'x, y, z'
loop_
 _atom_site_type_symbol
 _atom_site_label
 _atom_site_symmetry_multiplicity
 _atom_site_fract_x
 _atom_site_fract_y
 _atom_site_fract_z
 _atom_site_occupancy
  Se  Se0  1  0.37809804  0.75619608  0.53967221  1
  Se  Se1  1  0.62190196  0.24380392  0.46032779  1
  Se  Se2  1  0.62190196  0.24380392  0.03967221  1
  Se  Se3  1  0.06283658  0.12567315  0.75000000  1
  Se  Se4  1  0.93716342  0.87432685  0.25000000  1
  Se  Se5  1  0.37809804  0.75619608  0.96032779  1
  Rb  Rb6  1  0.25394259  0.50788517  0.25000000  1
  Rb  Rb7  1  0.74605741  0.49211483  0.75000000  1
  Ag  Ag8  1  0.45861336  0.91722672  0.75000000  1
  Ag  Ag9  1  0.54138664  0.08277328  0.25000000  1
  U  U10  1  0.00000000  0.00000000  0.50000000  1
  U  U11  1  0.00000000  0.00000000  0.00000000  1
