# generated using pymatgen
data_BaZnSnS4
_symmetry_space_group_name_H-M   'P 1'
_cell_length_a   12.61563231
_cell_length_b   12.61563231
_cell_length_c   12.91352909
_cell_angle_alpha   104.69545253
_cell_angle_beta   104.69545249
_cell_angle_gamma   118.72833048
_symmetry_Int_Tables_number   1
_chemical_formula_structural   BaZnSnS4
_chemical_formula_sum   'Ba8 Zn8 Sn8 S32'
_cell_volume   1563.05976459
_cell_formula_units_Z   8
loop_
 _symmetry_equiv_pos_site_id
 _symmetry_equiv_pos_as_xyz
  1  'x, y, z'
loop_
 _atom_site_type_symbol
 _atom_site_label
 _atom_site_symmetry_multiplicity
 _atom_site_fract_x
 _atom_site_fract_y
 _atom_site_fract_z
 _atom_site_occupancy
  S  S0  1  0.45194062  0.20229227  0.41127143  1
  S  S1  1  0.79102084  0.04066919  0.58872857  1
  S  S2  1  0.95229227  0.70194062  0.91127143  1
  S  S3  1  0.79066919  0.04102084  0.08872857  1
  S  S4  1  0.45405585  0.20442398  0.91075836  1
  S  S5  1  0.29366562  0.54329749  0.08924164  1
  S  S6  1  0.95442398  0.70405585  0.41075836  1
  S  S7  1  0.29329749  0.54366562  0.58924164  1
  S  S8  1  0.18684135  0.78133047  0.24805615  1
  S  S9  1  0.53327432  0.93878520  0.75194385  1
  S  S10  1  0.53133047  0.43684135  0.74805615  1
  S  S11  1  0.68878520  0.78327432  0.25194385  1
  S  S12  1  0.22208010  0.28496179  0.24840292  1
  S  S13  1  0.03655887  0.97367719  0.75159708  1
  S  S14  1  0.03496179  0.47208010  0.74840292  1
  S  S15  1  0.72367719  0.28655887  0.25159708  1
  S  S16  1  0.06654734  0.46761787  0.24843915  1
  S  S17  1  0.21917872  0.81810819  0.75156085  1
  S  S18  1  0.21761787  0.31654734  0.74843915  1
  S  S19  1  0.56810819  0.46917872  0.25156085  1
  S  S20  1  0.01698671  0.96400889  0.24818255  1
  S  S21  1  0.71582634  0.76880416  0.75181745  1
  S  S22  1  0.71400889  0.26698671  0.74818255  1
  S  S23  1  0.51880416  0.96582634  0.25181745  1
  S  S24  1  0.45327728  0.70156811  0.41151125  1
  S  S25  1  0.29005685  0.04176603  0.58848875  1
  S  S26  1  0.45156811  0.70327728  0.91151125  1
  S  S27  1  0.79176603  0.54005685  0.08848875  1
  S  S28  1  0.29190609  0.04256442  0.08815997  1
  S  S29  1  0.95440444  0.20374612  0.91184003  1
  S  S30  1  0.79256442  0.54190609  0.58815997  1
  S  S31  1  0.95374612  0.20440444  0.41184003  1
  Zn  Zn32  1  0.33671874  0.98264001  0.24948006  1
  Zn  Zn33  1  0.83723869  0.98315995  0.25051994  1
  Zn  Zn34  1  0.73264001  0.58671874  0.74948006  1
  Zn  Zn35  1  0.73315995  0.08723869  0.75051994  1
  Zn  Zn36  1  0.26504319  0.48574302  0.24946817  1
  Zn  Zn37  1  0.23627484  0.01557502  0.75053183  1
  Zn  Zn38  1  0.23574302  0.51504319  0.74946817  1
  Zn  Zn39  1  0.76557502  0.48627484  0.25053183  1
  Sn  Sn40  1  0.90481963  0.26388191  0.24983212  1
  Sn  Sn41  1  0.98412635  0.76016254  0.24853288  1
  Sn  Sn42  1  0.48559347  0.76162966  0.25146712  1
  Sn  Sn43  1  0.51016254  0.23412635  0.74853288  1
  Sn  Sn44  1  0.01404979  0.65498751  0.75016788  1
  Sn  Sn45  1  0.40498751  0.26404979  0.25016788  1
  Sn  Sn46  1  0.01388191  0.15481963  0.74983212  1
  Sn  Sn47  1  0.51162966  0.73559347  0.75146712  1
  Ba  Ba48  1  0.24604406  0.24756803  0.49674519  1
  Ba  Ba49  1  0.75082284  0.74929888  0.50325481  1
  Ba  Ba50  1  0.99756803  0.49604406  0.99674519  1
  Ba  Ba51  1  0.49929888  0.00082284  0.00325481  1
  Ba  Ba52  1  0.24976729  0.74976729  0.50000000  1
  Ba  Ba53  1  0.49976729  0.49976729  0.00000000  1
  Ba  Ba54  1  0.74732230  0.24732230  0.50000000  1
  Ba  Ba55  1  0.99732230  0.99732230  0.00000000  1
