# generated using pymatgen
data_NaSn2F5
_symmetry_space_group_name_H-M   'P 1'
_cell_length_a   9.22690643
_cell_length_b   9.22690643
_cell_length_c   14.03372446
_cell_angle_alpha   90.00000000
_cell_angle_beta   90.00000000
_cell_angle_gamma   90.00000000
_symmetry_Int_Tables_number   1
_chemical_formula_structural   NaSn2F5
_chemical_formula_sum   'Na8 Sn16 F40'
_cell_volume   1194.77239071
_cell_formula_units_Z   8
loop_
 _symmetry_equiv_pos_site_id
 _symmetry_equiv_pos_as_xyz
  1  'x, y, z'
loop_
 _atom_site_type_symbol
 _atom_site_label
 _atom_site_symmetry_multiplicity
 _atom_site_fract_x
 _atom_site_fract_y
 _atom_site_fract_z
 _atom_site_occupancy
  F  F0  1  0.55650716  0.55650716  0.25000000  1
  F  F1  1  0.60001758  0.66083025  0.63499247  1
  F  F2  1  0.83916975  0.89998242  0.86500753  1
  F  F3  1  0.83916975  0.60001758  0.13499247  1
  F  F4  1  0.66083025  0.89998242  0.13499247  1
  F  F5  1  0.60001758  0.83916975  0.36500753  1
  F  F6  1  0.89998242  0.66083025  0.36500753  1
  F  F7  1  0.66083025  0.60001758  0.86500753  1
  F  F8  1  0.05650716  0.05650716  0.75000000  1
  F  F9  1  0.44349284  0.05650716  0.25000000  1
  F  F10  1  0.05650716  0.44349284  0.25000000  1
  F  F11  1  0.44349284  0.44349284  0.75000000  1
  F  F12  1  0.94349284  0.94349284  0.25000000  1
  F  F13  1  0.55650716  0.94349284  0.75000000  1
  F  F14  1  0.94349284  0.55650716  0.75000000  1
  F  F15  1  0.89998242  0.83916975  0.63499247  1
  F  F16  1  0.12023557  0.03098553  0.54903536  1
  F  F17  1  0.12023557  0.46901447  0.45096464  1
  F  F18  1  0.37976443  0.03098553  0.45096464  1
  F  F19  1  0.46901447  0.12023557  0.04903536  1
  F  F20  1  0.03098553  0.37976443  0.04903536  1
  F  F21  1  0.03098553  0.12023557  0.95096464  1
  F  F22  1  0.37976443  0.46901447  0.54903536  1
  F  F23  1  0.10001758  0.16083025  0.36500753  1
  F  F24  1  0.53098553  0.62023557  0.04903536  1
  F  F25  1  0.87976443  0.53098553  0.54903536  1
  F  F26  1  0.62023557  0.96901447  0.54903536  1
  F  F27  1  0.53098553  0.87976443  0.95096464  1
  F  F28  1  0.96901447  0.62023557  0.95096464  1
  F  F29  1  0.96901447  0.87976443  0.04903536  1
  F  F30  1  0.62023557  0.53098553  0.45096464  1
  F  F31  1  0.87976443  0.96901447  0.45096464  1
  F  F32  1  0.33916975  0.39998242  0.13499247  1
  F  F33  1  0.10001758  0.33916975  0.63499247  1
  F  F34  1  0.39998242  0.16083025  0.63499247  1
  F  F35  1  0.33916975  0.10001758  0.86500753  1
  F  F36  1  0.16083025  0.39998242  0.86500753  1
  F  F37  1  0.16083025  0.10001758  0.13499247  1
  F  F38  1  0.39998242  0.33916975  0.36500753  1
  F  F39  1  0.46901447  0.37976443  0.95096464  1
  Na  Na40  1  0.25000000  0.25000000  0.00000000  1
  Na  Na41  1  0.25000000  0.25000000  0.50000000  1
  Na  Na42  1  0.75000000  0.75000000  0.00000000  1
  Na  Na43  1  0.75000000  0.75000000  0.50000000  1
  Na  Na44  1  0.25000000  0.25000000  0.25000000  1
  Na  Na45  1  0.25000000  0.25000000  0.75000000  1
  Na  Na46  1  0.75000000  0.75000000  0.75000000  1
  Na  Na47  1  0.75000000  0.75000000  0.25000000  1
  Sn  Sn48  1  0.43518761  0.91813483  0.11726523  1
  Sn  Sn49  1  0.58186517  0.43518761  0.61726523  1
  Sn  Sn50  1  0.06481239  0.91813483  0.88273477  1
  Sn  Sn51  1  0.06481239  0.58186517  0.11726523  1
  Sn  Sn52  1  0.91813483  0.06481239  0.61726523  1
  Sn  Sn53  1  0.58186517  0.06481239  0.38273477  1
  Sn  Sn54  1  0.91813483  0.43518761  0.38273477  1
  Sn  Sn55  1  0.43518761  0.58186517  0.88273477  1
  Sn  Sn56  1  0.08186517  0.93518761  0.38273477  1
  Sn  Sn57  1  0.41813483  0.56481239  0.38273477  1
  Sn  Sn58  1  0.93518761  0.08186517  0.11726523  1
  Sn  Sn59  1  0.93518761  0.41813483  0.88273477  1
  Sn  Sn60  1  0.56481239  0.08186517  0.88273477  1
  Sn  Sn61  1  0.41813483  0.93518761  0.61726523  1
  Sn  Sn62  1  0.08186517  0.56481239  0.61726523  1
  Sn  Sn63  1  0.56481239  0.41813483  0.11726523  1
