# generated using pymatgen
data_K2Mg2Be3F12
_symmetry_space_group_name_H-M   'P 1'
_cell_length_a   10.03943749
_cell_length_b   10.03943749
_cell_length_c   10.03943749
_cell_angle_alpha   90.00000000
_cell_angle_beta   90.00000000
_cell_angle_gamma   90.00000000
_symmetry_Int_Tables_number   1
_chemical_formula_structural   K2Mg2Be3F12
_chemical_formula_sum   'K8 Mg8 Be12 F48'
_cell_volume   1011.87796781
_cell_formula_units_Z   4
loop_
 _symmetry_equiv_pos_site_id
 _symmetry_equiv_pos_as_xyz
  1  'x, y, z'
loop_
 _atom_site_type_symbol
 _atom_site_label
 _atom_site_symmetry_multiplicity
 _atom_site_fract_x
 _atom_site_fract_y
 _atom_site_fract_z
 _atom_site_occupancy
  Be  Be0  1  0.62619073  0.46004791  0.27144971  1
  Be  Be1  1  0.87380927  0.53995209  0.77144971  1
  Be  Be2  1  0.37380927  0.96004791  0.22855029  1
  Be  Be3  1  0.12619073  0.03995209  0.72855029  1
  Be  Be4  1  0.96004791  0.22855029  0.37380927  1
  Be  Be5  1  0.72855029  0.12619073  0.03995209  1
  Be  Be6  1  0.22855029  0.37380927  0.96004791  1
  Be  Be7  1  0.53995209  0.77144971  0.87380927  1
  Be  Be8  1  0.77144971  0.87380927  0.53995209  1
  Be  Be9  1  0.03995209  0.72855029  0.12619073  1
  Be  Be10  1  0.46004791  0.27144971  0.62619073  1
  Be  Be11  1  0.27144971  0.62619073  0.46004791  1
  F  F12  1  0.41719354  0.65253964  0.50354788  1
  F  F13  1  0.42396446  0.81278590  0.23351183  1
  F  F14  1  0.07603554  0.18721410  0.73351183  1
  F  F15  1  0.81278590  0.23351183  0.42396446  1
  F  F16  1  0.97831852  0.44799039  0.70011616  1
  F  F17  1  0.52168148  0.55200961  0.20011616  1
  F  F18  1  0.20011616  0.52168148  0.55200961  1
  F  F19  1  0.55200961  0.20011616  0.52168148  1
  F  F20  1  0.94799039  0.79988384  0.02168148  1
  F  F21  1  0.70011616  0.97831852  0.44799039  1
  F  F22  1  0.44799039  0.70011616  0.97831852  1
  F  F23  1  0.29988384  0.47831852  0.05200961  1
  F  F24  1  0.79988384  0.02168148  0.94799039  1
  F  F25  1  0.05200961  0.29988384  0.47831852  1
  F  F26  1  0.02168148  0.94799039  0.79988384  1
  F  F27  1  0.47831852  0.05200961  0.29988384  1
  F  F28  1  0.65253964  0.50354788  0.41719354  1
  F  F29  1  0.92396446  0.68721410  0.76648817  1
  F  F30  1  0.50354788  0.41719354  0.65253964  1
  F  F31  1  0.99645212  0.58280646  0.15253964  1
  F  F32  1  0.91719354  0.84746036  0.49645212  1
  F  F33  1  0.49645212  0.91719354  0.84746036  1
  F  F34  1  0.08280646  0.34746036  0.00354788  1
  F  F35  1  0.58280646  0.15253964  0.99645212  1
  F  F36  1  0.00354788  0.08280646  0.34746036  1
  F  F37  1  0.15253964  0.99645212  0.58280646  1
  F  F38  1  0.34746036  0.00354788  0.08280646  1
  F  F39  1  0.84746036  0.49645212  0.91719354  1
  F  F40  1  0.75695730  0.47921057  0.18958489  1
  F  F41  1  0.18958489  0.75695730  0.47921057  1
  F  F42  1  0.47921057  0.18958489  0.75695730  1
  F  F43  1  0.02078943  0.81041511  0.25695730  1
  F  F44  1  0.68958489  0.74304270  0.52078943  1
  F  F45  1  0.52078943  0.68958489  0.74304270  1
  F  F46  1  0.31041511  0.24304270  0.97921057  1
  F  F47  1  0.81041511  0.25695730  0.02078943  1
  F  F48  1  0.97921057  0.31041511  0.24304270  1
  F  F49  1  0.25695730  0.02078943  0.81041511  1
  F  F50  1  0.24304270  0.97921057  0.31041511  1
  F  F51  1  0.74304270  0.52078943  0.68958489  1
  F  F52  1  0.57603554  0.31278590  0.26648817  1
  F  F53  1  0.26648817  0.57603554  0.31278590  1
  F  F54  1  0.31278590  0.26648817  0.57603554  1
  F  F55  1  0.18721410  0.73351183  0.07603554  1
  F  F56  1  0.76648817  0.92396446  0.68721410  1
  F  F57  1  0.73351183  0.07603554  0.18721410  1
  F  F58  1  0.23351183  0.42396446  0.81278590  1
  F  F59  1  0.68721410  0.76648817  0.92396446  1
  Mg  Mg60  1  0.14670400  0.35329600  0.64670400  1
  Mg  Mg61  1  0.35329600  0.64670400  0.14670400  1
  Mg  Mg62  1  0.64670400  0.14670400  0.35329600  1
  Mg  Mg63  1  0.85329600  0.85329600  0.85329600  1
  Mg  Mg64  1  0.41469297  0.08530703  0.91469297  1
  Mg  Mg65  1  0.08530703  0.91469297  0.41469297  1
  Mg  Mg66  1  0.91469297  0.41469297  0.08530703  1
  Mg  Mg67  1  0.58530703  0.58530703  0.58530703  1
  K  K68  1  0.70150541  0.79849459  0.20150541  1
  K  K69  1  0.79849459  0.20150541  0.70150541  1
  K  K70  1  0.20150541  0.70150541  0.79849459  1
  K  K71  1  0.29849459  0.29849459  0.29849459  1
  K  K72  1  0.93519674  0.56480326  0.43519674  1
  K  K73  1  0.56480326  0.43519674  0.93519674  1
  K  K74  1  0.43519674  0.93519674  0.56480326  1
  K  K75  1  0.06480326  0.06480326  0.06480326  1
