# generated using pymatgen
data_Sm3Si2BO10
_symmetry_space_group_name_H-M   'P 1'
_cell_length_a   7.07935599
_cell_length_b   9.78857811
_cell_length_c   23.10967206
_cell_angle_alpha   90.00000000
_cell_angle_beta   90.00000000
_cell_angle_gamma   90.00000000
_symmetry_Int_Tables_number   1
_chemical_formula_structural   Sm3Si2BO10
_chemical_formula_sum   'Sm24 Si16 B8 O80'
_cell_volume   1601.42699476
_cell_formula_units_Z   8
loop_
 _symmetry_equiv_pos_site_id
 _symmetry_equiv_pos_as_xyz
  1  'x, y, z'
loop_
 _atom_site_type_symbol
 _atom_site_label
 _atom_site_symmetry_multiplicity
 _atom_site_fract_x
 _atom_site_fract_y
 _atom_site_fract_z
 _atom_site_occupancy
  B  B0  1  0.66479775  0.75823312  0.52815715  1
  B  B1  1  0.66479775  0.25823312  0.97184285  1
  B  B2  1  0.16479775  0.74176688  0.52815715  1
  B  B3  1  0.83520225  0.75823312  0.02815715  1
  B  B4  1  0.33520225  0.24176688  0.47184285  1
  B  B5  1  0.33520225  0.74176688  0.02815715  1
  B  B6  1  0.83520225  0.25823312  0.47184285  1
  B  B7  1  0.16479775  0.24176688  0.97184285  1
  O  O8  1  0.79388965  0.89387480  0.77825600  1
  O  O9  1  0.24856537  0.75930459  0.58107483  1
  O  O10  1  0.75143463  0.74069541  0.08107483  1
  O  O11  1  0.25143463  0.25930459  0.41892517  1
  O  O12  1  0.25143463  0.75930459  0.08107483  1
  O  O13  1  0.75143463  0.24069541  0.41892517  1
  O  O14  1  0.24856537  0.25930459  0.91892517  1
  O  O15  1  0.74856537  0.74069541  0.58107483  1
  O  O16  1  0.96354754  0.10917253  0.82854120  1
  O  O17  1  0.46354754  0.89082747  0.67145880  1
  O  O18  1  0.53645246  0.60917253  0.17145880  1
  O  O19  1  0.03645246  0.39082747  0.32854120  1
  O  O20  1  0.03645246  0.89082747  0.17145880  1
  O  O21  1  0.53645246  0.10917253  0.32854120  1
  O  O22  1  0.46354754  0.39082747  0.82854120  1
  O  O23  1  0.96354754  0.60917253  0.67145880  1
  O  O24  1  0.62298741  0.15640919  0.78915055  1
  O  O25  1  0.12298741  0.84359081  0.71084945  1
  O  O26  1  0.87701259  0.65640919  0.21084945  1
  O  O27  1  0.37701259  0.34359081  0.28915055  1
  O  O28  1  0.37701259  0.84359081  0.21084945  1
  O  O29  1  0.87701259  0.15640919  0.28915055  1
  O  O30  1  0.12298741  0.34359081  0.78915055  1
  O  O31  1  0.58432372  0.37496103  0.99102119  1
  O  O32  1  0.67120627  0.54808800  0.89261061  1
  O  O33  1  0.17120627  0.45191200  0.60738939  1
  O  O34  1  0.82879373  0.04808800  0.10738939  1
  O  O35  1  0.32879373  0.95191200  0.39261061  1
  O  O36  1  0.32879373  0.45191200  0.10738939  1
  O  O37  1  0.82879373  0.54808800  0.39261061  1
  O  O38  1  0.17120627  0.95191200  0.89261061  1
  O  O39  1  0.67120627  0.04808800  0.60738939  1
  O  O40  1  0.03910968  0.53501712  0.90015960  1
  O  O41  1  0.03910968  0.03501712  0.59984040  1
  O  O42  1  0.53910968  0.96498288  0.90015960  1
  O  O43  1  0.46089032  0.53501712  0.40015960  1
  O  O44  1  0.96089032  0.46498288  0.09984040  1
  O  O45  1  0.96089032  0.96498288  0.40015960  1
  O  O46  1  0.46089032  0.03501712  0.09984040  1
  O  O47  1  0.53910968  0.46498288  0.59984040  1
  O  O48  1  0.86713629  0.59832526  0.78858031  1
  O  O49  1  0.36713629  0.40167474  0.71141969  1
  O  O50  1  0.63286371  0.09832526  0.21141969  1
  O  O51  1  0.13286371  0.90167474  0.28858031  1
  O  O52  1  0.13286371  0.40167474  0.21141969  1
  O  O53  1  0.63286371  0.59832526  0.28858031  1
  O  O54  1  0.36713629  0.90167474  0.78858031  1
  O  O55  1  0.86713629  0.09832526  0.71141969  1
  O  O56  1  0.85338210  0.77493383  0.88962120  1
  O  O57  1  0.35338210  0.22506617  0.61037880  1
  O  O58  1  0.64661790  0.27493383  0.11037880  1
  O  O59  1  0.14661790  0.72506617  0.38962120  1
  O  O60  1  0.14661790  0.22506617  0.11037880  1
  O  O61  1  0.64661790  0.77493383  0.38962120  1
  O  O62  1  0.35338210  0.72506617  0.88962120  1
  O  O63  1  0.85338210  0.27493383  0.61037880  1
  O  O64  1  0.74856537  0.24069541  0.91892517  1
  O  O65  1  0.29388965  0.10612520  0.72174400  1
  O  O66  1  0.70611035  0.39387480  0.22174400  1
  O  O67  1  0.20611035  0.60612520  0.27825600  1
  O  O68  1  0.20611035  0.10612520  0.22174400  1
  O  O69  1  0.70611035  0.89387480  0.27825600  1
  O  O70  1  0.29388965  0.60612520  0.77825600  1
  O  O71  1  0.79388965  0.39387480  0.72174400  1
  O  O72  1  0.16716698  0.86146267  0.49255855  1
  O  O73  1  0.66716698  0.13853733  0.00744145  1
  O  O74  1  0.33283302  0.36146267  0.50744145  1
  O  O75  1  0.83283302  0.63853733  0.99255855  1
  O  O76  1  0.83283302  0.13853733  0.50744145  1
  O  O77  1  0.33283302  0.86146267  0.99255855  1
  O  O78  1  0.66716698  0.63853733  0.49255855  1
  O  O79  1  0.16716698  0.36146267  0.00744145  1
  O  O80  1  0.58432372  0.87496103  0.50897881  1
  O  O81  1  0.08432372  0.12503897  0.99102119  1
  O  O82  1  0.91567628  0.37496103  0.49102119  1
  O  O83  1  0.41567628  0.62503897  0.00897881  1
  O  O84  1  0.41567628  0.12503897  0.49102119  1
  O  O85  1  0.91567628  0.87496103  0.00897881  1
  O  O86  1  0.08432372  0.62503897  0.50897881  1
  O  O87  1  0.62298741  0.65640919  0.71084945  1
  Si  Si88  1  0.81226581  0.06159970  0.77932589  1
  Si  Si89  1  0.31226581  0.93840030  0.72067411  1
  Si  Si90  1  0.68773419  0.56159970  0.22067411  1
  Si  Si91  1  0.18773419  0.43840030  0.27932589  1
  Si  Si92  1  0.18773419  0.93840030  0.22067411  1
  Si  Si93  1  0.68773419  0.06159970  0.27932589  1
  Si  Si94  1  0.31226581  0.43840030  0.77932589  1
  Si  Si95  1  0.81226581  0.56159970  0.72067411  1
  Si  Si96  1  0.85645687  0.62299000  0.92124709  1
  Si  Si97  1  0.35645687  0.37701000  0.57875291  1
  Si  Si98  1  0.64354313  0.12299000  0.07875291  1
  Si  Si99  1  0.14354313  0.87701000  0.42124709  1
  Si  Si100  1  0.14354313  0.37701000  0.07875291  1
  Si  Si101  1  0.64354313  0.62299000  0.42124709  1
  Si  Si102  1  0.35645687  0.87701000  0.92124709  1
  Si  Si103  1  0.85645687  0.12299000  0.57875291  1
  Sm  Sm104  1  0.13602939  0.98973702  0.07176695  1
  Sm  Sm105  1  0.36397061  0.98973702  0.57176695  1
  Sm  Sm106  1  0.63602939  0.51026298  0.07176695  1
  Sm  Sm107  1  0.13602939  0.48973702  0.42823305  1
  Sm  Sm108  1  0.86397061  0.01026298  0.92823305  1
  Sm  Sm109  1  0.63602939  0.01026298  0.42823305  1
  Sm  Sm110  1  0.36397061  0.48973702  0.92823305  1
  Sm  Sm111  1  0.86397061  0.51026298  0.57176695  1
  Sm  Sm112  1  0.09251815  0.76781934  0.81752324  1
  Sm  Sm113  1  0.59251815  0.23218066  0.68247676  1
  Sm  Sm114  1  0.40748185  0.26781934  0.18247676  1
  Sm  Sm115  1  0.90748185  0.73218066  0.31752324  1
  Sm  Sm116  1  0.90748185  0.23218066  0.18247676  1
  Sm  Sm117  1  0.40748185  0.76781934  0.31752324  1
  Sm  Sm118  1  0.59251815  0.73218066  0.81752324  1
  Sm  Sm119  1  0.09251815  0.26781934  0.68247676  1
  Sm  Sm120  1  0.81830383  0.36618542  0.83582415  1
  Sm  Sm121  1  0.31830383  0.63381458  0.66417585  1
  Sm  Sm122  1  0.68169617  0.86618542  0.16417585  1
  Sm  Sm123  1  0.18169617  0.13381458  0.33582415  1
  Sm  Sm124  1  0.18169617  0.63381458  0.16417585  1
  Sm  Sm125  1  0.68169617  0.36618542  0.33582415  1
  Sm  Sm126  1  0.31830383  0.13381458  0.83582415  1
  Sm  Sm127  1  0.81830383  0.86618542  0.66417585  1
