# generated using pymatgen
data_Nb2O5
_symmetry_space_group_name_H-M   'P 1'
_cell_length_a   9.97851792
_cell_length_b   9.70188401
_cell_length_c   5.34330624
_cell_angle_alpha   90.00000000
_cell_angle_beta   90.00000000
_cell_angle_gamma   90.00000000
_symmetry_Int_Tables_number   1
_chemical_formula_structural   Nb2O5
_chemical_formula_sum   'Nb8 O20'
_cell_volume   517.28773973
_cell_formula_units_Z   4
loop_
 _symmetry_equiv_pos_site_id
 _symmetry_equiv_pos_as_xyz
  1  'x, y, z'
loop_
 _atom_site_type_symbol
 _atom_site_label
 _atom_site_symmetry_multiplicity
 _atom_site_fract_x
 _atom_site_fract_y
 _atom_site_fract_z
 _atom_site_occupancy
  Nb  Nb0  1  0.03321223  0.71933414  0.86345508  1
  Nb  Nb1  1  0.15211501  0.40459892  0.13115959  1
  Nb  Nb2  1  0.34788499  0.59540108  0.63115959  1
  Nb  Nb3  1  0.46678777  0.28066586  0.36345508  1
  Nb  Nb4  1  0.53321223  0.78066586  0.13654492  1
  Nb  Nb5  1  0.65211501  0.09540108  0.86884041  1
  Nb  Nb6  1  0.84788499  0.90459892  0.36884041  1
  Nb  Nb7  1  0.96678777  0.21933414  0.63654492  1
  O  O8  1  0.01709739  0.53628815  0.97731663  1
  O  O9  1  0.98800725  0.84585616  0.11375157  1
  O  O10  1  0.07517239  0.24801306  0.91537145  1
  O  O11  1  0.22237910  0.54470173  0.35762694  1
  O  O12  1  0.21575425  0.73220943  0.77538694  1
  O  O13  1  0.28424575  0.26779057  0.27538694  1
  O  O14  1  0.27762090  0.45529827  0.85762694  1
  O  O15  1  0.42482761  0.75198694  0.41537145  1
  O  O16  1  0.51199275  0.15414384  0.61375157  1
  O  O17  1  0.48290261  0.46371185  0.47731663  1
  O  O18  1  0.51709739  0.96371185  0.02268337  1
  O  O19  1  0.48800725  0.65414384  0.88624843  1
  O  O20  1  0.57517239  0.25198694  0.08462855  1
  O  O21  1  0.72237910  0.95529827  0.64237306  1
  O  O22  1  0.71575425  0.76779057  0.22461306  1
  O  O23  1  0.78424575  0.23220943  0.72461306  1
  O  O24  1  0.77762090  0.04470173  0.14237306  1
  O  O25  1  0.92482761  0.74801306  0.58462855  1
  O  O26  1  0.01199275  0.34585616  0.38624843  1
  O  O27  1  0.98290261  0.03628815  0.52268337  1
