# generated using pymatgen
data_Sm(ErS2)3
_symmetry_space_group_name_H-M   'P 1'
_cell_length_a   3.94832504
_cell_length_b   10.99931098
_cell_length_c   11.26554709
_cell_angle_alpha   108.78698177
_cell_angle_beta   90.00000000
_cell_angle_gamma   90.00000000
_symmetry_Int_Tables_number   1
_chemical_formula_structural   Sm(ErS2)3
_chemical_formula_sum   'Sm2 Er6 S12'
_cell_volume   463.18378306
_cell_formula_units_Z   2
loop_
 _symmetry_equiv_pos_site_id
 _symmetry_equiv_pos_as_xyz
  1  'x, y, z'
loop_
 _atom_site_type_symbol
 _atom_site_label
 _atom_site_symmetry_multiplicity
 _atom_site_fract_x
 _atom_site_fract_y
 _atom_site_fract_z
 _atom_site_occupancy
  S  S0  1  0.25000000  0.30498436  0.25100544  1
  S  S1  1  0.75000000  0.69501564  0.74899456  1
  S  S2  1  0.25000000  0.41792382  0.59529692  1
  S  S3  1  0.75000000  0.58207618  0.40470308  1
  S  S4  1  0.25000000  0.61577391  0.96330329  1
  S  S5  1  0.75000000  0.38422609  0.03669671  1
  S  S6  1  0.25000000  0.97752201  0.11200270  1
  S  S7  1  0.75000000  0.02247799  0.88799730  1
  S  S8  1  0.75000000  0.10402743  0.43946083  1
  S  S9  1  0.25000000  0.89597257  0.56053917  1
  S  S10  1  0.75000000  0.76118453  0.22623150  1
  S  S11  1  0.25000000  0.23881547  0.77376850  1
  Sm  Sm12  1  0.25000000  0.54716442  0.19347343  1
  Sm  Sm13  1  0.75000000  0.45283558  0.80652657  1
  Er  Er14  1  0.25000000  0.66080074  0.58570114  1
  Er  Er15  1  0.75000000  0.33919926  0.41429886  1
  Er  Er16  1  0.25000000  0.18100724  0.00213906  1
  Er  Er17  1  0.75000000  0.81899276  0.99786094  1
  Er  Er18  1  0.25000000  0.93790747  0.33232698  1
  Er  Er19  1  0.75000000  0.06209253  0.66767302  1
