# generated using pymatgen
data_CdB4O7
_symmetry_space_group_name_H-M   'P 1'
_cell_length_a   8.42086895
_cell_length_b   8.91336543
_cell_length_c   14.35463920
_cell_angle_alpha   90.00000000
_cell_angle_beta   90.00000000
_cell_angle_gamma   90.00000000
_symmetry_Int_Tables_number   1
_chemical_formula_structural   CdB4O7
_chemical_formula_sum   'Cd8 B32 O56'
_cell_volume   1077.43455980
_cell_formula_units_Z   8
loop_
 _symmetry_equiv_pos_site_id
 _symmetry_equiv_pos_as_xyz
  1  'x, y, z'
loop_
 _atom_site_type_symbol
 _atom_site_label
 _atom_site_symmetry_multiplicity
 _atom_site_fract_x
 _atom_site_fract_y
 _atom_site_fract_z
 _atom_site_occupancy
  B  B0  1  0.20432971  0.14803625  0.45514819  1
  B  B1  1  0.70432971  0.35196375  0.54485181  1
  B  B2  1  0.79567029  0.64803625  0.04485181  1
  B  B3  1  0.29567029  0.85196375  0.95514819  1
  B  B4  1  0.79567029  0.85196375  0.54485181  1
  B  B5  1  0.29567029  0.64803625  0.45514819  1
  B  B6  1  0.20432971  0.35196375  0.95514819  1
  B  B7  1  0.70432971  0.14803625  0.04485181  1
  B  B8  1  0.00924493  0.06892044  0.33752320  1
  B  B9  1  0.50924493  0.43107956  0.66247680  1
  B  B10  1  0.99075507  0.56892044  0.16247680  1
  B  B11  1  0.49075507  0.93107956  0.83752320  1
  B  B12  1  0.99075507  0.93107956  0.66247680  1
  B  B13  1  0.49075507  0.56892044  0.33752320  1
  B  B14  1  0.00924493  0.43107956  0.83752320  1
  B  B15  1  0.50924493  0.06892044  0.16247680  1
  B  B16  1  0.01550993  0.33229364  0.26591955  1
  B  B17  1  0.51550993  0.16770636  0.73408045  1
  B  B18  1  0.98449007  0.83229364  0.23408045  1
  B  B19  1  0.48449007  0.66770636  0.76591955  1
  B  B20  1  0.98449007  0.66770636  0.73408045  1
  B  B21  1  0.48449007  0.83229364  0.26591955  1
  B  B22  1  0.01550993  0.16770636  0.76591955  1
  B  B23  1  0.51550993  0.33229364  0.23408045  1
  B  B24  1  0.94481752  0.28311494  0.43513814  1
  B  B25  1  0.44481752  0.21688506  0.56486186  1
  B  B26  1  0.05518248  0.78311494  0.06486186  1
  B  B27  1  0.55518248  0.71688506  0.93513814  1
  B  B28  1  0.05518248  0.71688506  0.56486186  1
  B  B29  1  0.55518248  0.78311494  0.43513814  1
  B  B30  1  0.94481752  0.21688506  0.93513814  1
  B  B31  1  0.44481752  0.28311494  0.06486186  1
  O  O32  1  0.16321981  0.05544036  0.38423399  1
  O  O33  1  0.66321981  0.44455964  0.61576601  1
  O  O34  1  0.83678019  0.55544036  0.11576601  1
  O  O35  1  0.33678019  0.94455964  0.88423399  1
  O  O36  1  0.83678019  0.94455964  0.61576601  1
  O  O37  1  0.33678019  0.55544036  0.38423399  1
  O  O38  1  0.16321981  0.44455964  0.88423399  1
  O  O39  1  0.66321981  0.05544036  0.11576601  1
  O  O40  1  0.10094737  0.26129395  0.48326474  1
  O  O41  1  0.60094737  0.23870605  0.51673526  1
  O  O42  1  0.89905263  0.76129395  0.01673526  1
  O  O43  1  0.39905263  0.73870605  0.98326474  1
  O  O44  1  0.89905263  0.73870605  0.51673526  1
  O  O45  1  0.39905263  0.76129395  0.48326474  1
  O  O46  1  0.10094737  0.23870605  0.98326474  1
  O  O47  1  0.60094737  0.26129395  0.01673526  1
  O  O48  1  0.03242488  0.17806284  0.25451624  1
  O  O49  1  0.53242488  0.32193716  0.74548376  1
  O  O50  1  0.96757512  0.67806284  0.24548376  1
  O  O51  1  0.46757512  0.82193716  0.75451624  1
  O  O52  1  0.96757512  0.82193716  0.74548376  1
  O  O53  1  0.46757512  0.67806284  0.25451624  1
  O  O54  1  0.03242488  0.32193716  0.75451624  1
  O  O55  1  0.53242488  0.17806284  0.24548376  1
  O  O56  1  0.96914958  0.38575097  0.35229951  1
  O  O57  1  0.46914958  0.11424903  0.64770049  1
  O  O58  1  0.03085042  0.88575097  0.14770049  1
  O  O59  1  0.53085042  0.61424903  0.85229951  1
  O  O60  1  0.03085042  0.61424903  0.64770049  1
  O  O61  1  0.53085042  0.88575097  0.35229951  1
  O  O62  1  0.96914958  0.11424903  0.85229951  1
  O  O63  1  0.46914958  0.38575097  0.14770049  1
  O  O64  1  0.84800364  0.36874162  0.50002654  1
  O  O65  1  0.34800364  0.13125838  0.49997346  1
  O  O66  1  0.15199636  0.86874162  0.99997346  1
  O  O67  1  0.65199636  0.63125838  0.00002654  1
  O  O68  1  0.15199636  0.63125838  0.49997346  1
  O  O69  1  0.65199636  0.86874162  0.50002654  1
  O  O70  1  0.84800364  0.13125838  0.00002654  1
  O  O71  1  0.34800364  0.36874162  0.99997346  1
  O  O72  1  0.88889017  0.13898653  0.40023279  1
  O  O73  1  0.38889017  0.36101347  0.59976721  1
  O  O74  1  0.11110983  0.63898653  0.09976721  1
  O  O75  1  0.61110983  0.86101347  0.90023279  1
  O  O76  1  0.11110983  0.86101347  0.59976721  1
  O  O77  1  0.61110983  0.63898653  0.40023279  1
  O  O78  1  0.88889017  0.36101347  0.90023279  1
  O  O79  1  0.38889017  0.13898653  0.09976721  1
  O  O80  1  0.54735160  0.42317559  0.30764316  1
  O  O81  1  0.04735160  0.07682441  0.69235684  1
  O  O82  1  0.45264840  0.92317559  0.19235684  1
  O  O83  1  0.95264840  0.57682441  0.80764316  1
  O  O84  1  0.45264840  0.57682441  0.69235684  1
  O  O85  1  0.95264840  0.92317559  0.30764316  1
  O  O86  1  0.54735160  0.07682441  0.80764316  1
  O  O87  1  0.04735160  0.42317559  0.19235684  1
  Cd  Cd88  1  0.62613121  0.11066543  0.38608685  1
  Cd  Cd89  1  0.12613121  0.38933457  0.61391315  1
  Cd  Cd90  1  0.37386879  0.61066543  0.11391315  1
  Cd  Cd91  1  0.87386879  0.88933457  0.88608685  1
  Cd  Cd92  1  0.37386879  0.88933457  0.61391315  1
  Cd  Cd93  1  0.87386879  0.61066543  0.38608685  1
  Cd  Cd94  1  0.62613121  0.38933457  0.88608685  1
  Cd  Cd95  1  0.12613121  0.11066543  0.11391315  1
