# generated using pymatgen
data_Li3PO4
_symmetry_space_group_name_H-M   'P 1'
_cell_length_a   4.92244766
_cell_length_b   5.29640242
_cell_length_c   6.17613558
_cell_angle_alpha   90.00000000
_cell_angle_beta   90.00000000
_cell_angle_gamma   90.00000000
_symmetry_Int_Tables_number   1
_chemical_formula_structural   Li3PO4
_chemical_formula_sum   'Li6 P2 O8'
_cell_volume   161.01965935
_cell_formula_units_Z   2
loop_
 _symmetry_equiv_pos_site_id
 _symmetry_equiv_pos_as_xyz
  1  'x, y, z'
loop_
 _atom_site_type_symbol
 _atom_site_label
 _atom_site_symmetry_multiplicity
 _atom_site_fract_x
 _atom_site_fract_y
 _atom_site_fract_z
 _atom_site_occupancy
  Li  Li0  1  0.50941681  0.84452036  0.00000000  1
  Li  Li1  1  0.00941681  0.15547964  0.50000000  1
  Li  Li2  1  0.50836280  0.32643360  0.74712696  1
  Li  Li3  1  0.00836280  0.67356640  0.75287304  1
  Li  Li4  1  0.00836280  0.67356640  0.24712696  1
  Li  Li5  1  0.50836280  0.32643360  0.25287304  1
  O  O6  1  0.10701004  0.31350858  0.20713787  1
  O  O7  1  0.60212623  0.10350756  0.50000000  1
  O  O8  1  0.18519086  0.81839554  0.50000000  1
  O  O9  1  0.68519086  0.18160446  0.00000000  1
  O  O10  1  0.60701004  0.68649142  0.70713787  1
  O  O11  1  0.10701004  0.31350858  0.79286213  1
  O  O12  1  0.10212623  0.89649244  0.00000000  1
  O  O13  1  0.60701004  0.68649142  0.29286213  1
  P  P14  1  0.50142042  0.82426113  0.50000000  1
  P  P15  1  0.00142042  0.17573887  0.00000000  1
