# generated using pymatgen
data_NaNdSiO4
_symmetry_space_group_name_H-M   'P 1'
_cell_length_a   5.56223932
_cell_length_b   9.37183241
_cell_length_c   21.10563973
_cell_angle_alpha   90.00000000
_cell_angle_beta   90.00000000
_cell_angle_gamma   90.00000000
_symmetry_Int_Tables_number   1
_chemical_formula_structural   NaNdSiO4
_chemical_formula_sum   'Na12 Nd12 Si12 O48'
_cell_volume   1100.20269679
_cell_formula_units_Z   12
loop_
 _symmetry_equiv_pos_site_id
 _symmetry_equiv_pos_as_xyz
  1  'x, y, z'
loop_
 _atom_site_type_symbol
 _atom_site_label
 _atom_site_symmetry_multiplicity
 _atom_site_fract_x
 _atom_site_fract_y
 _atom_site_fract_z
 _atom_site_occupancy
  O  O0  1  0.45022936  0.42977340  0.60877424  1
  O  O1  1  0.95022936  0.57022660  0.39122576  1
  O  O2  1  0.45022936  0.07022660  0.10877424  1
  O  O3  1  0.95022936  0.92977340  0.89122576  1
  O  O4  1  0.07587324  0.44227811  0.49862547  1
  O  O5  1  0.57587324  0.55772189  0.50137453  1
  O  O6  1  0.07587324  0.05772189  0.99862547  1
  O  O7  1  0.57587324  0.94227811  0.00137453  1
  O  O8  1  0.77394018  0.19236593  0.91622159  1
  O  O9  1  0.27394018  0.80763407  0.08377841  1
  O  O10  1  0.77394018  0.30763407  0.41622159  1
  O  O11  1  0.27394018  0.69236593  0.58377841  1
  O  O12  1  0.25388741  0.15833038  0.89396828  1
  O  O13  1  0.75388741  0.84166962  0.10603172  1
  O  O14  1  0.25388741  0.34166962  0.39396828  1
  O  O15  1  0.75388741  0.65833038  0.60603172  1
  O  O16  1  0.56928002  0.07483770  0.77404477  1
  O  O17  1  0.06928002  0.92516230  0.22595523  1
  O  O18  1  0.56928002  0.42516230  0.27404477  1
  O  O19  1  0.06928002  0.57483770  0.72595523  1
  O  O20  1  0.92932532  0.05766060  0.66716793  1
  O  O21  1  0.93384545  0.44032002  0.83215061  1
  O  O22  1  0.93384545  0.05967998  0.33215061  1
  O  O23  1  0.43384545  0.94032002  0.66784939  1
  O  O24  1  0.22986430  0.30445773  0.74704119  1
  O  O25  1  0.72986430  0.69554227  0.25295881  1
  O  O26  1  0.22986430  0.19554227  0.24704119  1
  O  O27  1  0.72986430  0.80445773  0.75295881  1
  O  O28  1  0.75409413  0.35405428  0.72642769  1
  O  O29  1  0.25409413  0.64594572  0.27357231  1
  O  O30  1  0.75409413  0.14594572  0.22642769  1
  O  O31  1  0.25409413  0.85405428  0.77357231  1
  O  O32  1  0.46264786  0.42898815  0.94399677  1
  O  O33  1  0.96264786  0.57101185  0.05600323  1
  O  O34  1  0.46264786  0.07101185  0.44399677  1
  O  O35  1  0.96264786  0.92898815  0.55600323  1
  O  O36  1  0.72986536  0.66461877  0.92312912  1
  O  O37  1  0.22986536  0.33538123  0.07687088  1
  O  O38  1  0.72986536  0.83538123  0.42312912  1
  O  O39  1  0.22986536  0.16461877  0.57687088  1
  O  O40  1  0.24778297  0.68940755  0.93117812  1
  O  O41  1  0.74778297  0.31059245  0.06882188  1
  O  O42  1  0.24778297  0.81059245  0.43117812  1
  O  O43  1  0.74778297  0.18940755  0.56882188  1
  O  O44  1  0.42932532  0.55766060  0.83283207  1
  O  O45  1  0.92932532  0.44233940  0.16716793  1
  O  O46  1  0.42932532  0.94233940  0.33283207  1
  O  O47  1  0.43384545  0.55967998  0.16784939  1
  Na  Na48  1  0.95578354  0.43258101  0.94394758  1
  Na  Na49  1  0.45578354  0.56741899  0.05605242  1
  Na  Na50  1  0.95578354  0.06741899  0.44394758  1
  Na  Na51  1  0.45578354  0.93258101  0.55605242  1
  Na  Na52  1  0.01594520  0.07420655  0.77643218  1
  Na  Na53  1  0.51594520  0.92579345  0.22356782  1
  Na  Na54  1  0.01594520  0.42579345  0.27643218  1
  Na  Na55  1  0.51594520  0.57420655  0.72356782  1
  Na  Na56  1  0.00631787  0.42677702  0.60873760  1
  Na  Na57  1  0.50631787  0.57322298  0.39126240  1
  Na  Na58  1  0.00631787  0.07322298  0.10873760  1
  Na  Na59  1  0.50631787  0.92677702  0.89126240  1
  Si  Si60  1  0.00717363  0.08603787  0.92334633  1
  Si  Si61  1  0.50717363  0.91396213  0.07665367  1
  Si  Si62  1  0.00717363  0.41396213  0.42334633  1
  Si  Si63  1  0.50717363  0.58603787  0.57665367  1
  Si  Si64  1  0.00544244  0.41694993  0.75676326  1
  Si  Si65  1  0.50544244  0.58305007  0.24323674  1
  Si  Si66  1  0.00544244  0.08305007  0.25676326  1
  Si  Si67  1  0.50544244  0.91694993  0.74323674  1
  Si  Si68  1  0.97153414  0.08630147  0.59099916  1
  Si  Si69  1  0.47153414  0.91369853  0.40900084  1
  Si  Si70  1  0.97153414  0.41369853  0.09099916  1
  Si  Si71  1  0.47153414  0.58630147  0.90900084  1
  Nd  Nd72  1  0.52792237  0.30317538  0.83387099  1
  Nd  Nd73  1  0.02792237  0.69682462  0.16612901  1
  Nd  Nd74  1  0.52792237  0.19682462  0.33387099  1
  Nd  Nd75  1  0.02792237  0.80317538  0.66612901  1
  Nd  Nd76  1  0.51085265  0.19916486  0.66746771  1
  Nd  Nd77  1  0.01085265  0.80083514  0.33253229  1
  Nd  Nd78  1  0.51085265  0.30083514  0.16746771  1
  Nd  Nd79  1  0.01085265  0.69916486  0.83253229  1
  Nd  Nd80  1  0.46239256  0.30366427  0.50064135  1
  Nd  Nd81  1  0.96239256  0.69633573  0.49935865  1
  Nd  Nd82  1  0.46239256  0.19633573  0.00064135  1
  Nd  Nd83  1  0.96239256  0.80366427  0.99935865  1
