# generated using pymatgen
data_Nd4Re2O11
_symmetry_space_group_name_H-M   'P 1'
_cell_length_a   5.65973022
_cell_length_b   12.82314384
_cell_length_c   12.82314384
_cell_angle_alpha   90.00000000
_cell_angle_beta   90.00000000
_cell_angle_gamma   90.00000000
_symmetry_Int_Tables_number   1
_chemical_formula_structural   Nd4Re2O11
_chemical_formula_sum   'Nd16 Re8 O44'
_cell_volume   930.64652081
_cell_formula_units_Z   4
loop_
 _symmetry_equiv_pos_site_id
 _symmetry_equiv_pos_as_xyz
  1  'x, y, z'
loop_
 _atom_site_type_symbol
 _atom_site_label
 _atom_site_symmetry_multiplicity
 _atom_site_fract_x
 _atom_site_fract_y
 _atom_site_fract_z
 _atom_site_occupancy
  O  O0  1  0.25000000  0.75000000  0.75000000  1
  O  O1  1  0.75000000  0.25000000  0.25000000  1
  O  O2  1  0.75000000  0.75000000  0.75000000  1
  O  O3  1  0.25000000  0.25000000  0.25000000  1
  O  O4  1  0.30767701  0.95522021  0.84181900  1
  O  O5  1  0.80767701  0.15818100  0.45522021  1
  O  O6  1  0.80767701  0.34181900  0.04477979  1
  O  O7  1  0.30767701  0.54477979  0.65818100  1
  O  O8  1  0.69232299  0.04477979  0.15818100  1
  O  O9  1  0.19232299  0.84181900  0.54477979  1
  O  O10  1  0.19232299  0.65818100  0.95522021  1
  O  O11  1  0.69232299  0.45522021  0.34181900  1
  O  O12  1  0.51395347  0.64898823  0.30443509  1
  O  O13  1  0.01395347  0.69556491  0.14898823  1
  O  O14  1  0.01395347  0.80443509  0.35101177  1
  O  O15  1  0.51395347  0.85101177  0.19556491  1
  O  O16  1  0.28892314  0.45614190  0.87163940  1
  O  O17  1  0.48604653  0.35101177  0.69556491  1
  O  O18  1  0.98604653  0.19556491  0.64898823  1
  O  O19  1  0.48604653  0.14898823  0.80443509  1
  O  O20  1  0.71107686  0.54385810  0.12836060  1
  O  O21  1  0.21107686  0.87163940  0.04385810  1
  O  O22  1  0.21107686  0.62836060  0.45614190  1
  O  O23  1  0.71107686  0.95614190  0.37163940  1
  O  O24  1  0.20691469  0.03005982  0.19161459  1
  O  O25  1  0.70691469  0.80838541  0.53005982  1
  O  O26  1  0.70691469  0.69161459  0.96994018  1
  O  O27  1  0.20691469  0.46994018  0.30838541  1
  O  O28  1  0.79308531  0.96994018  0.80838541  1
  O  O29  1  0.29308531  0.19161459  0.46994018  1
  O  O30  1  0.29308531  0.30838541  0.03005982  1
  O  O31  1  0.79308531  0.53005982  0.69161459  1
  O  O32  1  0.19496518  0.00237906  0.40875550  1
  O  O33  1  0.69496518  0.59124450  0.50237906  1
  O  O34  1  0.69496518  0.90875550  0.99762094  1
  O  O35  1  0.19496518  0.49762094  0.09124450  1
  O  O36  1  0.80503482  0.99762094  0.59124450  1
  O  O37  1  0.30503482  0.40875550  0.49762094  1
  O  O38  1  0.30503482  0.09124450  0.00237906  1
  O  O39  1  0.80503482  0.50237906  0.90875550  1
  O  O40  1  0.28892314  0.04385810  0.62836060  1
  O  O41  1  0.78892314  0.37163940  0.54385810  1
  O  O42  1  0.78892314  0.12836060  0.95614190  1
  O  O43  1  0.98604653  0.30443509  0.85101177  1
  Nd  Nd44  1  0.00186530  0.18481039  0.11816734  1
  Nd  Nd45  1  0.50186530  0.88183266  0.68481039  1
  Nd  Nd46  1  0.50186530  0.61816734  0.81518961  1
  Nd  Nd47  1  0.00186530  0.31518961  0.38183266  1
  Nd  Nd48  1  0.99813470  0.81518961  0.88183266  1
  Nd  Nd49  1  0.49813470  0.11816734  0.31518961  1
  Nd  Nd50  1  0.49813470  0.38183266  0.18481039  1
  Nd  Nd51  1  0.99813470  0.68481039  0.61816734  1
  Nd  Nd52  1  0.92998959  0.61133582  0.30650694  1
  Nd  Nd53  1  0.42998959  0.69349306  0.11133582  1
  Nd  Nd54  1  0.42998959  0.80650694  0.38866418  1
  Nd  Nd55  1  0.92998959  0.88866418  0.19349306  1
  Nd  Nd56  1  0.07001041  0.38866418  0.69349306  1
  Nd  Nd57  1  0.57001041  0.30650694  0.88866418  1
  Nd  Nd58  1  0.57001041  0.19349306  0.61133582  1
  Nd  Nd59  1  0.07001041  0.11133582  0.80650694  1
  Re  Re60  1  0.56928345  0.02390129  0.91373163  1
  Re  Re61  1  0.06928345  0.08626837  0.52390129  1
  Re  Re62  1  0.06928345  0.41373163  0.97609871  1
  Re  Re63  1  0.56928345  0.47609871  0.58626837  1
  Re  Re64  1  0.43071655  0.97609871  0.08626837  1
  Re  Re65  1  0.93071655  0.91373163  0.47609871  1
  Re  Re66  1  0.93071655  0.58626837  0.02390129  1
  Re  Re67  1  0.43071655  0.52390129  0.41373163  1
