# generated using pymatgen
data_Li5Ti3Mn2(PO4)6
_symmetry_space_group_name_H-M   'P 1'
_cell_length_a   8.52967880
_cell_length_b   8.61100229
_cell_length_c   8.60783566
_cell_angle_alpha   62.61957970
_cell_angle_beta   63.08521665
_cell_angle_gamma   63.04281099
_symmetry_Int_Tables_number   1
_chemical_formula_structural   Li5Ti3Mn2(PO4)6
_chemical_formula_sum   'Li5 Ti3 Mn2 P6 O24'
_cell_volume   476.00060708
_cell_formula_units_Z   1
loop_
 _symmetry_equiv_pos_site_id
 _symmetry_equiv_pos_as_xyz
  1  'x, y, z'
loop_
 _atom_site_type_symbol
 _atom_site_label
 _atom_site_symmetry_multiplicity
 _atom_site_fract_x
 _atom_site_fract_y
 _atom_site_fract_z
 _atom_site_occupancy
  Li  Li0  1  0.75636180  0.14211990  0.35544530  1
  Li  Li1  1  0.19459690  0.85242183  0.66696644  1
  Li  Li2  1  0.66681657  0.19256676  0.85417126  1
  Li  Li3  1  0.85359873  0.66534456  0.19419909  1
  Li  Li4  1  0.84183596  0.83640431  0.84252306  1
  Ti  Ti5  1  0.14830828  0.14755235  0.14332942  1
  Ti  Ti6  1  0.35482142  0.35753754  0.35516376  1
  Ti  Ti7  1  0.64793024  0.64884134  0.65278038  1
  Mn  Mn8  1  0.00874163  0.99738866  0.99128624  1
  Mn  Mn9  1  0.48567476  0.50571632  0.49952404  1
  P  P10  1  0.25381634  0.54419594  0.95742003  1
  P  P11  1  0.55104391  0.95828620  0.25495723  1
  P  P12  1  0.95074836  0.25313784  0.54347550  1
  P  P13  1  0.05084116  0.75427795  0.45096729  1
  P  P14  1  0.45106321  0.05109477  0.75598647  1
  P  P15  1  0.75453759  0.45010617  0.05306595  1
  O  O16  1  0.11064380  0.32346195  0.48540915  1
  O  O17  1  0.33404643  0.49472573  0.10679639  1
  O  O18  1  0.04943199  0.91770400  0.26409656  1
  O  O19  1  0.52235150  0.10707564  0.32567392  1
  O  O20  1  0.03006829  0.81163194  0.60332151  1
  O  O21  1  0.24043604  0.59933658  0.41930742  1
  O  O22  1  0.25782796  0.06988981  0.90728237  1
  O  O23  1  0.43810873  0.23707797  0.58970678  1
  O  O24  1  0.18610478  0.39001465  0.99323616  1
  O  O25  1  0.60197017  0.41831112  0.24851349  1
  O  O26  1  0.09934174  0.73324112  0.94830857  1
  O  O27  1  0.38599780  0.00358322  0.19565701  1
  O  O28  1  0.60553957  0.02475559  0.81687476  1
  O  O29  1  0.90363019  0.25277779  0.07475489  1
  O  O30  1  0.40236962  0.57110718  0.75957384  1
  O  O31  1  0.81573932  0.60112408  0.02893973  1
  O  O32  1  0.56878677  0.76200422  0.40639994  1
  O  O33  1  0.73865406  0.94305918  0.09833788  1
  O  O34  1  0.75523975  0.40437922  0.57528734  1
  O  O35  1  0.96815041  0.19248506  0.39105204  1
  O  O36  1  0.48693786  0.89008728  0.69504618  1
  O  O37  1  0.94873215  0.09684901  0.73125173  1
  O  O38  1  0.69089384  0.48552496  0.89446479  1
  O  O39  1  0.88825937  0.68980128  0.49244611  1
