# generated using pymatgen
data_Ca(GaSe2)2
_symmetry_space_group_name_H-M   'P 1'
_cell_length_a   12.43271955
_cell_length_b   12.43271955
_cell_length_c   12.47352692
_cell_angle_alpha   105.40870801
_cell_angle_beta   105.40870801
_cell_angle_gamma   117.83004979
_symmetry_Int_Tables_number   1
_chemical_formula_structural   Ca(GaSe2)2
_chemical_formula_sum   'Ca8 Ga16 Se32'
_cell_volume   1461.94776890
_cell_formula_units_Z   8
loop_
 _symmetry_equiv_pos_site_id
 _symmetry_equiv_pos_as_xyz
  1  'x, y, z'
loop_
 _atom_site_type_symbol
 _atom_site_label
 _atom_site_symmetry_multiplicity
 _atom_site_fract_x
 _atom_site_fract_y
 _atom_site_fract_z
 _atom_site_occupancy
  Ca  Ca0  1  0.87500000  0.12500000  0.25000000  1
  Ca  Ca1  1  0.12500000  0.87500000  0.75000000  1
  Ca  Ca2  1  0.37500000  0.62500000  0.25000000  1
  Ca  Ca3  1  0.62500000  0.37500000  0.75000000  1
  Ca  Ca4  1  0.62288753  0.87288753  0.74577507  1
  Ca  Ca5  1  0.12711247  0.37711247  0.75422493  1
  Ca  Ca6  1  0.37711247  0.12711247  0.25422493  1
  Ca  Ca7  1  0.87288753  0.62288753  0.24577507  1
  Ga  Ga8  1  0.03050371  0.63940956  0.00033542  1
  Ga  Ga9  1  0.63907414  0.53016829  0.49966458  1
  Ga  Ga10  1  0.36059044  0.96949629  0.49966458  1
  Ga  Ga11  1  0.46983171  0.36092586  0.00033542  1
  Ga  Ga12  1  0.96949629  0.36059044  0.99966458  1
  Ga  Ga13  1  0.36092586  0.46983171  0.50033542  1
  Ga  Ga14  1  0.63940956  0.03050371  0.50033542  1
  Ga  Ga15  1  0.53016829  0.63907414  0.99966458  1
  Ga  Ga16  1  0.38830431  0.86562693  0.00128380  1
  Ga  Ga17  1  0.86434313  0.88702051  0.49871620  1
  Ga  Ga18  1  0.13437307  0.61169569  0.49871620  1
  Ga  Ga19  1  0.11297949  0.13565687  0.00128380  1
  Ga  Ga20  1  0.61169569  0.13437307  0.99871620  1
  Ga  Ga21  1  0.13565687  0.11297949  0.50128380  1
  Ga  Ga22  1  0.86562693  0.38830431  0.50128380  1
  Ga  Ga23  1  0.88702051  0.86434313  0.99871620  1
  Se  Se24  1  0.91114903  0.41168181  0.32594308  1
  Se  Se25  1  0.08573873  0.08520595  0.17405692  1
  Se  Se26  1  0.58831819  0.08885097  0.17405692  1
  Se  Se27  1  0.91479405  0.91426127  0.32594308  1
  Se  Se28  1  0.08885097  0.58831819  0.67405692  1
  Se  Se29  1  0.91426127  0.91479405  0.82594308  1
  Se  Se30  1  0.41168181  0.91114903  0.82594308  1
  Se  Se31  1  0.08520595  0.08573873  0.67405692  1
  Se  Se32  1  0.41117629  0.41074443  0.32496003  1
  Se  Se33  1  0.08578440  0.58621626  0.17503997  1
  Se  Se34  1  0.58925557  0.58882371  0.17503997  1
  Se  Se35  1  0.41378374  0.91421560  0.32496003  1
  Se  Se36  1  0.58882371  0.58925557  0.67503997  1
  Se  Se37  1  0.91421560  0.41378374  0.82496003  1
  Se  Se38  1  0.41074443  0.41117629  0.82496003  1
  Se  Se39  1  0.58621626  0.08578440  0.67503997  1
  Se  Se40  1  0.65924809  0.34569982  0.99718029  1
  Se  Se41  1  0.34851952  0.16206780  0.50281971  1
  Se  Se42  1  0.65430018  0.34075191  0.50281971  1
  Se  Se43  1  0.83793220  0.65148048  0.99718029  1
  Se  Se44  1  0.34075191  0.65430018  0.00281971  1
  Se  Se45  1  0.65148048  0.83793220  0.49718029  1
  Se  Se46  1  0.34569982  0.65924809  0.49718029  1
  Se  Se47  1  0.16206780  0.34851952  0.00281971  1
  Se  Se48  1  0.31823926  0.15044328  0.00260302  1
  Se  Se49  1  0.14784027  0.81563624  0.49739698  1
  Se  Se50  1  0.84955672  0.68176074  0.49739698  1
  Se  Se51  1  0.18436376  0.85215973  0.00260302  1
  Se  Se52  1  0.68176074  0.84955672  0.99739698  1
  Se  Se53  1  0.85215973  0.18436376  0.50260302  1
  Se  Se54  1  0.15044328  0.31823926  0.50260302  1
  Se  Se55  1  0.81563624  0.14784027  0.99739698  1
