# generated using pymatgen
data_Sc2Cd3(GeO4)3
_symmetry_space_group_name_H-M   'P 1'
_cell_length_a   10.95318418
_cell_length_b   10.95318418
_cell_length_c   10.95318418
_cell_angle_alpha   109.47122061
_cell_angle_beta   109.47122062
_cell_angle_gamma   109.47122064
_symmetry_Int_Tables_number   1
_chemical_formula_structural   Sc2Cd3(GeO4)3
_chemical_formula_sum   'Sc8 Cd12 Ge12 O48'
_cell_volume   1011.57777967
_cell_formula_units_Z   4
loop_
 _symmetry_equiv_pos_site_id
 _symmetry_equiv_pos_as_xyz
  1  'x, y, z'
loop_
 _atom_site_type_symbol
 _atom_site_label
 _atom_site_symmetry_multiplicity
 _atom_site_fract_x
 _atom_site_fract_y
 _atom_site_fract_z
 _atom_site_occupancy
  O  O0  1  0.79336421  0.41490797  0.81080916  1
  O  O1  1  0.08509203  0.87845624  0.39590119  1
  O  O2  1  0.68919084  0.10409881  0.98255505  1
  O  O3  1  0.70663579  0.51744495  0.62154376  1
  O  O4  1  0.70663579  0.68919084  0.08509203  1
  O  O5  1  0.51744495  0.62154376  0.70663579  1
  O  O6  1  0.10409881  0.62154376  0.41490797  1
  O  O7  1  0.62154376  0.70663579  0.51744495  1
  O  O8  1  0.39590119  0.81080916  0.51744495  1
  O  O9  1  0.87845624  0.98255505  0.79336421  1
  O  O10  1  0.98255505  0.79336421  0.87845624  1
  O  O11  1  0.08509203  0.70663579  0.68919084  1
  O  O12  1  0.62154376  0.41490797  0.10409881  1
  O  O13  1  0.51744495  0.39590119  0.81080916  1
  O  O14  1  0.68919084  0.08509203  0.70663579  1
  O  O15  1  0.41490797  0.10409881  0.62154376  1
  O  O16  1  0.81080916  0.51744495  0.39590119  1
  O  O17  1  0.39590119  0.08509203  0.87845624  1
  O  O18  1  0.10409881  0.98255505  0.68919084  1
  O  O19  1  0.60409881  0.18919084  0.48255505  1
  O  O20  1  0.98255505  0.68919084  0.10409881  1
  O  O21  1  0.81080916  0.79336421  0.41490797  1
  O  O22  1  0.87845624  0.39590119  0.08509203  1
  O  O23  1  0.79336421  0.87845624  0.98255505  1
  O  O24  1  0.20663579  0.58509203  0.18919084  1
  O  O25  1  0.91490797  0.12154376  0.60409881  1
  O  O26  1  0.31080916  0.89590119  0.01744495  1
  O  O27  1  0.29336421  0.48255505  0.37845624  1
  O  O28  1  0.29336421  0.31080916  0.91490797  1
  O  O29  1  0.48255505  0.37845624  0.29336421  1
  O  O30  1  0.89590119  0.37845624  0.58509203  1
  O  O31  1  0.37845624  0.29336421  0.48255505  1
  O  O32  1  0.20663579  0.12154376  0.01744495  1
  O  O33  1  0.12154376  0.60409881  0.91490797  1
  O  O34  1  0.18919084  0.20663579  0.58509203  1
  O  O35  1  0.58509203  0.18919084  0.20663579  1
  O  O36  1  0.01744495  0.31080916  0.89590119  1
  O  O37  1  0.89590119  0.01744495  0.31080916  1
  O  O38  1  0.60409881  0.91490797  0.12154376  1
  O  O39  1  0.18919084  0.48255505  0.60409881  1
  O  O40  1  0.58509203  0.89590119  0.37845624  1
  O  O41  1  0.31080916  0.91490797  0.29336421  1
  O  O42  1  0.48255505  0.60409881  0.18919084  1
  O  O43  1  0.37845624  0.58509203  0.89590119  1
  O  O44  1  0.91490797  0.29336421  0.31080916  1
  O  O45  1  0.01744495  0.20663579  0.12154376  1
  O  O46  1  0.12154376  0.01744495  0.20663579  1
  O  O47  1  0.41490797  0.81080916  0.79336421  1
  Sc  Sc48  1  0.50000000  0.00000000  0.00000000  1
  Sc  Sc49  1  0.00000000  0.00000000  0.00000000  1
  Sc  Sc50  1  0.00000000  0.50000000  0.00000000  1
  Sc  Sc51  1  0.00000000  0.00000000  0.50000000  1
  Sc  Sc52  1  0.00000000  0.50000000  0.50000000  1
  Sc  Sc53  1  0.50000000  0.00000000  0.50000000  1
  Sc  Sc54  1  0.50000000  0.50000000  0.00000000  1
  Sc  Sc55  1  0.50000000  0.50000000  0.50000000  1
  Ge  Ge56  1  0.25000000  0.12500000  0.87500000  1
  Ge  Ge57  1  0.87500000  0.25000000  0.12500000  1
  Ge  Ge58  1  0.62500000  0.75000000  0.37500000  1
  Ge  Ge59  1  0.25000000  0.62500000  0.37500000  1
  Ge  Ge60  1  0.37500000  0.62500000  0.75000000  1
  Ge  Ge61  1  0.75000000  0.37500000  0.62500000  1
  Ge  Ge62  1  0.87500000  0.12500000  0.75000000  1
  Ge  Ge63  1  0.12500000  0.75000000  0.87500000  1
  Ge  Ge64  1  0.12500000  0.87500000  0.25000000  1
  Ge  Ge65  1  0.62500000  0.37500000  0.25000000  1
  Ge  Ge66  1  0.37500000  0.25000000  0.62500000  1
  Ge  Ge67  1  0.75000000  0.87500000  0.12500000  1
  Cd  Cd68  1  0.25000000  0.87500000  0.62500000  1
  Cd  Cd69  1  0.87500000  0.62500000  0.25000000  1
  Cd  Cd70  1  0.62500000  0.87500000  0.75000000  1
  Cd  Cd71  1  0.87500000  0.75000000  0.62500000  1
  Cd  Cd72  1  0.62500000  0.25000000  0.87500000  1
  Cd  Cd73  1  0.75000000  0.62500000  0.87500000  1
  Cd  Cd74  1  0.75000000  0.12500000  0.37500000  1
  Cd  Cd75  1  0.12500000  0.37500000  0.75000000  1
  Cd  Cd76  1  0.37500000  0.12500000  0.25000000  1
  Cd  Cd77  1  0.12500000  0.25000000  0.37500000  1
  Cd  Cd78  1  0.37500000  0.75000000  0.12500000  1
  Cd  Cd79  1  0.25000000  0.37500000  0.12500000  1
