# generated using pymatgen
data_SmP5O14
_symmetry_space_group_name_H-M   'P 1'
_cell_length_a   8.88740326
_cell_length_b   9.11275392
_cell_length_c   13.11321810
_cell_angle_alpha   90.00000000
_cell_angle_beta   90.29716918
_cell_angle_gamma   90.00000000
_symmetry_Int_Tables_number   1
_chemical_formula_structural   SmP5O14
_chemical_formula_sum   'Sm4 P20 O56'
_cell_volume   1062.00845030
_cell_formula_units_Z   4
loop_
 _symmetry_equiv_pos_site_id
 _symmetry_equiv_pos_as_xyz
  1  'x, y, z'
loop_
 _atom_site_type_symbol
 _atom_site_label
 _atom_site_symmetry_multiplicity
 _atom_site_fract_x
 _atom_site_fract_y
 _atom_site_fract_z
 _atom_site_occupancy
  O  O0  1  0.08018869  0.87871851  0.11588610  1
  O  O1  1  0.91981131  0.37871851  0.38411390  1
  O  O2  1  0.91981131  0.12128149  0.88411390  1
  O  O3  1  0.08018869  0.62128149  0.61588610  1
  O  O4  1  0.41389967  0.88422543  0.14706613  1
  O  O5  1  0.58610033  0.38422543  0.35293387  1
  O  O6  1  0.58610033  0.11577457  0.85293387  1
  O  O7  1  0.41389967  0.61577457  0.64706613  1
  O  O8  1  0.91764301  0.11608193  0.12083365  1
  O  O9  1  0.08235699  0.61608193  0.37916635  1
  O  O10  1  0.08235699  0.88391807  0.87916635  1
  O  O11  1  0.91764301  0.38391807  0.62083365  1
  O  O12  1  0.58832990  0.11527047  0.14788592  1
  O  O13  1  0.41167010  0.61527047  0.35211408  1
  O  O14  1  0.41167010  0.88472953  0.85211408  1
  O  O15  1  0.58832990  0.38472953  0.64788592  1
  O  O16  1  0.12583195  0.08036122  0.24783669  1
  O  O17  1  0.87416805  0.58036122  0.25216331  1
  O  O18  1  0.87416805  0.91963878  0.75216331  1
  O  O19  1  0.90071052  0.91840167  0.25981967  1
  O  O20  1  0.12583195  0.41963878  0.74783669  1
  O  O21  1  0.59809200  0.57758876  0.21361496  1
  O  O22  1  0.59809200  0.92241124  0.71361496  1
  O  O23  1  0.40190800  0.42241124  0.78638504  1
  O  O24  1  0.52944041  0.80987172  0.49690828  1
  O  O25  1  0.47055959  0.30987172  0.00309172  1
  O  O26  1  0.47055959  0.19012828  0.50309172  1
  O  O27  1  0.52944041  0.69012828  0.99690828  1
  O  O28  1  0.71282020  0.91483658  0.99987930  1
  O  O29  1  0.28717980  0.41483658  0.50012070  1
  O  O30  1  0.28717980  0.08516342  0.00012070  1
  O  O31  1  0.71282020  0.58516342  0.49987930  1
  O  O32  1  0.78783577  0.68498463  0.90907638  1
  O  O33  1  0.21216423  0.18498463  0.59092362  1
  O  O34  1  0.21216423  0.31501537  0.09092362  1
  O  O35  1  0.78783577  0.81501537  0.40907638  1
  O  O36  1  0.22615330  0.59530959  0.88861419  1
  O  O37  1  0.77384670  0.09530959  0.61138581  1
  O  O38  1  0.77384670  0.40469041  0.11138581  1
  O  O39  1  0.22615330  0.90469041  0.38861419  1
  O  O40  1  0.76804575  0.40375076  0.88561100  1
  O  O41  1  0.23195425  0.90375076  0.61438900  1
  O  O42  1  0.23195425  0.59624924  0.11438900  1
  O  O43  1  0.76804575  0.09624924  0.38561100  1
  O  O44  1  0.77888721  0.68782287  0.09718272  1
  O  O45  1  0.22111279  0.18782287  0.40281728  1
  O  O46  1  0.22111279  0.31217713  0.90281728  1
  O  O47  1  0.77888721  0.81217713  0.59718272  1
  O  O48  1  0.62035511  0.59274236  0.77507875  1
  O  O49  1  0.37964489  0.09274236  0.72492125  1
  O  O50  1  0.37964489  0.40725764  0.22492125  1
  O  O51  1  0.62035511  0.90725764  0.27507875  1
  O  O52  1  0.90071052  0.58159833  0.75981967  1
  O  O53  1  0.09928948  0.08159833  0.74018033  1
  O  O54  1  0.09928948  0.41840167  0.24018033  1
  O  O55  1  0.40190800  0.07758876  0.28638504  1
  P  P56  1  0.00406346  0.99819675  0.17325849  1
  P  P57  1  0.99593654  0.49819675  0.32674151  1
  P  P58  1  0.99593654  0.00180325  0.82674151  1
  P  P59  1  0.00406346  0.50180325  0.67325849  1
  P  P60  1  0.50505674  0.99686304  0.20138398  1
  P  P61  1  0.49494326  0.49686304  0.29861602  1
  P  P62  1  0.49494326  0.00313696  0.79861602  1
  P  P63  1  0.50505674  0.50313696  0.70138398  1
  P  P64  1  0.24303188  0.04635209  0.33513590  1
  P  P65  1  0.75696812  0.54635209  0.16486410  1
  P  P66  1  0.75696812  0.95364791  0.66486410  1
  P  P67  1  0.24303188  0.45364791  0.83513590  1
  P  P68  1  0.76818079  0.95096133  0.33587457  1
  P  P69  1  0.23181921  0.45096133  0.16412543  1
  P  P70  1  0.23181921  0.04903867  0.66412543  1
  P  P71  1  0.76818079  0.54903867  0.83587457  1
  P  P72  1  0.68385336  0.74577064  0.50007926  1
  P  P73  1  0.31614664  0.24577064  0.99992074  1
  P  P74  1  0.31614664  0.25422936  0.49992074  1
  P  P75  1  0.68385336  0.75422936  0.00007926  1
  Sm  Sm76  1  0.27628170  0.68822632  0.49924555  1
  Sm  Sm77  1  0.72371830  0.18822632  0.00075445  1
  Sm  Sm78  1  0.72371830  0.31177368  0.50075445  1
  Sm  Sm79  1  0.27628170  0.81177368  0.99924555  1
