# generated using pymatgen
data_Al8(Pb3O7)3
_symmetry_space_group_name_H-M   'P 1'
_cell_length_a   13.47031751
_cell_length_b   13.47031751
_cell_length_c   13.47031751
_cell_angle_alpha   90.00000000
_cell_angle_beta   90.00000000
_cell_angle_gamma   90.00000000
_symmetry_Int_Tables_number   1
_chemical_formula_structural   Al8(Pb3O7)3
_chemical_formula_sum   'Al32 Pb36 O84'
_cell_volume   2444.18175497
_cell_formula_units_Z   4
loop_
 _symmetry_equiv_pos_site_id
 _symmetry_equiv_pos_as_xyz
  1  'x, y, z'
loop_
 _atom_site_type_symbol
 _atom_site_label
 _atom_site_symmetry_multiplicity
 _atom_site_fract_x
 _atom_site_fract_y
 _atom_site_fract_z
 _atom_site_occupancy
  O  O0  1  0.04717096  0.05407376  0.20306418  1
  O  O1  1  0.20306418  0.04717096  0.05407376  1
  O  O2  1  0.05407376  0.20306418  0.04717096  1
  O  O3  1  0.44592624  0.79693582  0.54717096  1
  O  O4  1  0.70306418  0.45282904  0.94592624  1
  O  O5  1  0.94592624  0.70306418  0.45282904  1
  O  O6  1  0.29693582  0.95282904  0.55407376  1
  O  O7  1  0.79693582  0.54717096  0.44592624  1
  O  O8  1  0.55407376  0.29693582  0.95282904  1
  O  O9  1  0.54717096  0.44592624  0.79693582  1
  O  O10  1  0.95282904  0.55407376  0.29693582  1
  O  O11  1  0.45282904  0.94592624  0.70306418  1
  O  O12  1  0.95282904  0.94592624  0.79693582  1
  O  O13  1  0.79693582  0.95282904  0.94592624  1
  O  O14  1  0.94592624  0.79693582  0.95282904  1
  O  O15  1  0.55407376  0.20306418  0.45282904  1
  O  O16  1  0.29693582  0.54717096  0.05407376  1
  O  O17  1  0.05407376  0.29693582  0.54717096  1
  O  O18  1  0.70306418  0.04717096  0.44592624  1
  O  O19  1  0.20306418  0.45282904  0.55407376  1
  O  O20  1  0.44592624  0.70306418  0.04717096  1
  O  O21  1  0.45282904  0.55407376  0.20306418  1
  O  O22  1  0.04717096  0.44592624  0.70306418  1
  O  O23  1  0.54717096  0.05407376  0.29693582  1
  O  O24  1  0.71180922  0.62102870  0.80956165  1
  O  O25  1  0.80956165  0.71180922  0.62102870  1
  O  O26  1  0.62102870  0.80956165  0.71180922  1
  O  O27  1  0.87897130  0.19043835  0.21180922  1
  O  O28  1  0.30956165  0.78819078  0.37897130  1
  O  O29  1  0.37897130  0.30956165  0.78819078  1
  O  O30  1  0.69043835  0.28819078  0.12102870  1
  O  O31  1  0.19043835  0.21180922  0.87897130  1
  O  O32  1  0.12102870  0.69043835  0.28819078  1
  O  O33  1  0.21180922  0.87897130  0.19043835  1
  O  O34  1  0.28819078  0.12102870  0.69043835  1
  O  O35  1  0.78819078  0.37897130  0.30956165  1
  O  O36  1  0.28819078  0.37897130  0.19043835  1
  O  O37  1  0.19043835  0.28819078  0.37897130  1
  O  O38  1  0.37897130  0.19043835  0.28819078  1
  O  O39  1  0.12102870  0.80956165  0.78819078  1
  O  O40  1  0.69043835  0.21180922  0.62102870  1
  O  O41  1  0.62102870  0.69043835  0.21180922  1
  O  O42  1  0.30956165  0.71180922  0.87897130  1
  O  O43  1  0.80956165  0.78819078  0.12102870  1
  O  O44  1  0.87897130  0.30956165  0.71180922  1
  O  O45  1  0.78819078  0.12102870  0.80956165  1
  O  O46  1  0.71180922  0.87897130  0.30956165  1
  O  O47  1  0.21180922  0.62102870  0.69043835  1
  O  O48  1  0.00000000  0.00000000  0.00000000  1
  O  O49  1  0.50000000  0.00000000  0.50000000  1
  O  O50  1  0.50000000  0.50000000  0.00000000  1
  O  O51  1  0.00000000  0.50000000  0.50000000  1
  O  O52  1  0.38484071  0.49334601  0.66961469  1
  O  O53  1  0.66961469  0.38484071  0.49334601  1
  O  O54  1  0.49334601  0.66961469  0.38484071  1
  O  O55  1  0.00665399  0.33038531  0.88484071  1
  O  O56  1  0.16961469  0.11515929  0.50665399  1
  O  O57  1  0.50665399  0.16961469  0.11515929  1
  O  O58  1  0.83038531  0.61515929  0.99334601  1
  O  O59  1  0.33038531  0.88484071  0.00665399  1
  O  O60  1  0.99334601  0.83038531  0.61515929  1
  O  O61  1  0.88484071  0.00665399  0.33038531  1
  O  O62  1  0.61515929  0.99334601  0.83038531  1
  O  O63  1  0.11515929  0.50665399  0.16961469  1
  O  O64  1  0.61515929  0.50665399  0.33038531  1
  O  O65  1  0.33038531  0.61515929  0.50665399  1
  O  O66  1  0.50665399  0.33038531  0.61515929  1
  O  O67  1  0.99334601  0.66961469  0.11515929  1
  O  O68  1  0.83038531  0.88484071  0.49334601  1
  O  O69  1  0.49334601  0.83038531  0.88484071  1
  O  O70  1  0.16961469  0.38484071  0.00665399  1
  O  O71  1  0.66961469  0.11515929  0.99334601  1
  O  O72  1  0.00665399  0.16961469  0.38484071  1
  O  O73  1  0.11515929  0.99334601  0.66961469  1
  O  O74  1  0.38484071  0.00665399  0.16961469  1
  O  O75  1  0.88484071  0.49334601  0.83038531  1
  O  O76  1  0.39219800  0.39219800  0.39219800  1
  O  O77  1  0.10780200  0.60780200  0.89219800  1
  O  O78  1  0.89219800  0.10780200  0.60780200  1
  O  O79  1  0.60780200  0.89219800  0.10780200  1
  O  O80  1  0.60780200  0.60780200  0.60780200  1
  O  O81  1  0.89219800  0.39219800  0.10780200  1
  O  O82  1  0.10780200  0.89219800  0.39219800  1
  O  O83  1  0.39219800  0.10780200  0.89219800  1
  Al  Al84  1  0.21837985  0.45458533  0.10695953  1
  Al  Al85  1  0.10695953  0.21837985  0.45458533  1
  Al  Al86  1  0.45458533  0.10695953  0.21837985  1
  Al  Al87  1  0.04541467  0.89304047  0.71837985  1
  Al  Al88  1  0.60695953  0.28162015  0.54541467  1
  Al  Al89  1  0.54541467  0.60695953  0.28162015  1
  Al  Al90  1  0.39304047  0.78162015  0.95458533  1
  Al  Al91  1  0.89304047  0.71837985  0.04541467  1
  Al  Al92  1  0.95458533  0.39304047  0.78162015  1
  Al  Al93  1  0.71837985  0.04541467  0.89304047  1
  Al  Al94  1  0.78162015  0.95458533  0.39304047  1
  Al  Al95  1  0.28162015  0.54541467  0.60695953  1
  Al  Al96  1  0.78162015  0.54541467  0.89304047  1
  Al  Al97  1  0.89304047  0.78162015  0.54541467  1
  Al  Al98  1  0.54541467  0.89304047  0.78162015  1
  Al  Al99  1  0.95458533  0.10695953  0.28162015  1
  Al  Al100  1  0.39304047  0.71837985  0.45458533  1
  Al  Al101  1  0.45458533  0.39304047  0.71837985  1
  Al  Al102  1  0.60695953  0.21837985  0.04541467  1
  Al  Al103  1  0.10695953  0.28162015  0.95458533  1
  Al  Al104  1  0.04541467  0.60695953  0.21837985  1
  Al  Al105  1  0.28162015  0.95458533  0.10695953  1
  Al  Al106  1  0.21837985  0.04541467  0.60695953  1
  Al  Al107  1  0.71837985  0.45458533  0.39304047  1
  Al  Al108  1  0.07454065  0.07454065  0.07454065  1
  Al  Al109  1  0.42545935  0.92545935  0.57454065  1
  Al  Al110  1  0.57454065  0.42545935  0.92545935  1
  Al  Al111  1  0.92545935  0.57454065  0.42545935  1
  Al  Al112  1  0.92545935  0.92545935  0.92545935  1
  Al  Al113  1  0.57454065  0.07454065  0.42545935  1
  Al  Al114  1  0.42545935  0.57454065  0.07454065  1
  Al  Al115  1  0.07454065  0.42545935  0.57454065  1
  Pb  Pb116  1  0.26537074  0.95682388  0.37654916  1
  Pb  Pb117  1  0.37654916  0.26537074  0.95682388  1
  Pb  Pb118  1  0.95682388  0.37654916  0.26537074  1
  Pb  Pb119  1  0.54317612  0.62345084  0.76537074  1
  Pb  Pb120  1  0.87654916  0.23462926  0.04317612  1
  Pb  Pb121  1  0.04317612  0.87654916  0.23462926  1
  Pb  Pb122  1  0.12345084  0.73462926  0.45682388  1
  Pb  Pb123  1  0.62345084  0.76537074  0.54317612  1
  Pb  Pb124  1  0.45682388  0.12345084  0.73462926  1
  Pb  Pb125  1  0.76537074  0.54317612  0.62345084  1
  Pb  Pb126  1  0.73462926  0.45682388  0.12345084  1
  Pb  Pb127  1  0.23462926  0.04317612  0.87654916  1
  Pb  Pb128  1  0.73462926  0.04317612  0.62345084  1
  Pb  Pb129  1  0.62345084  0.73462926  0.04317612  1
  Pb  Pb130  1  0.04317612  0.62345084  0.73462926  1
  Pb  Pb131  1  0.45682388  0.37654916  0.23462926  1
  Pb  Pb132  1  0.12345084  0.76537074  0.95682388  1
  Pb  Pb133  1  0.95682388  0.12345084  0.76537074  1
  Pb  Pb134  1  0.87654916  0.26537074  0.54317612  1
  Pb  Pb135  1  0.37654916  0.23462926  0.45682388  1
  Pb  Pb136  1  0.54317612  0.87654916  0.26537074  1
  Pb  Pb137  1  0.23462926  0.45682388  0.37654916  1
  Pb  Pb138  1  0.26537074  0.54317612  0.87654916  1
  Pb  Pb139  1  0.76537074  0.95682388  0.12345084  1
  Pb  Pb140  1  0.50000000  0.50000000  0.50000000  1
  Pb  Pb141  1  0.00000000  0.50000000  0.00000000  1
  Pb  Pb142  1  0.00000000  0.00000000  0.50000000  1
  Pb  Pb143  1  0.50000000  0.00000000  0.00000000  1
  Pb  Pb144  1  0.22448177  0.22448177  0.22448177  1
  Pb  Pb145  1  0.27551823  0.77551823  0.72448177  1
  Pb  Pb146  1  0.72448177  0.27551823  0.77551823  1
  Pb  Pb147  1  0.77551823  0.72448177  0.27551823  1
  Pb  Pb148  1  0.77551823  0.77551823  0.77551823  1
  Pb  Pb149  1  0.72448177  0.22448177  0.27551823  1
  Pb  Pb150  1  0.27551823  0.72448177  0.22448177  1
  Pb  Pb151  1  0.22448177  0.27551823  0.72448177  1
