# generated using pymatgen
data_KTaP4O13
_symmetry_space_group_name_H-M   'P 1'
_cell_length_a   7.18496876
_cell_length_b   8.54390826
_cell_length_c   18.52335041
_cell_angle_alpha   90.00000000
_cell_angle_beta   90.00000000
_cell_angle_gamma   90.00000000
_symmetry_Int_Tables_number   1
_chemical_formula_structural   KTaP4O13
_chemical_formula_sum   'K4 Ta4 P16 O52'
_cell_volume   1137.10613611
_cell_formula_units_Z   4
loop_
 _symmetry_equiv_pos_site_id
 _symmetry_equiv_pos_as_xyz
  1  'x, y, z'
loop_
 _atom_site_type_symbol
 _atom_site_label
 _atom_site_symmetry_multiplicity
 _atom_site_fract_x
 _atom_site_fract_y
 _atom_site_fract_z
 _atom_site_occupancy
  O  O0  1  0.05015224  0.16487894  0.60135816  1
  O  O1  1  0.55015224  0.33512106  0.39864184  1
  O  O2  1  0.94984776  0.66487894  0.89864184  1
  O  O3  1  0.44984776  0.83512106  0.10135816  1
  O  O4  1  0.17522050  0.00153812  0.70704691  1
  O  O5  1  0.67522050  0.49846188  0.29295309  1
  O  O6  1  0.82477950  0.50153812  0.79295309  1
  O  O7  1  0.32477950  0.99846188  0.20704691  1
  O  O8  1  0.07013574  0.70357921  0.76986576  1
  O  O9  1  0.57013574  0.79642079  0.23013424  1
  O  O10  1  0.92986426  0.20357921  0.73013424  1
  O  O11  1  0.42986426  0.29642079  0.26986576  1
  O  O12  1  0.41538726  0.38973401  0.59036703  1
  O  O13  1  0.91538726  0.11026599  0.40963297  1
  O  O14  1  0.58461274  0.88973401  0.90963297  1
  O  O15  1  0.08461274  0.61026599  0.09036703  1
  O  O16  1  0.42265004  0.83771479  0.78836075  1
  O  O17  1  0.92265004  0.66228521  0.21163925  1
  O  O18  1  0.24362812  0.28888773  0.70512681  1
  O  O19  1  0.57734996  0.33771479  0.71163925  1
  O  O20  1  0.35559900  0.56256701  0.70152694  1
  O  O21  1  0.85559900  0.93743299  0.29847306  1
  O  O22  1  0.64440100  0.06256701  0.79847306  1
  O  O23  1  0.14440100  0.43743299  0.20152694  1
  O  O24  1  0.02446911  0.17075685  0.13887740  1
  O  O25  1  0.52446911  0.32924315  0.86112260  1
  O  O26  1  0.97553089  0.67075685  0.36112260  1
  O  O27  1  0.47553089  0.82924315  0.63887740  1
  O  O28  1  0.70954148  0.14686651  0.07992500  1
  O  O29  1  0.20954148  0.35313349  0.92007500  1
  O  O30  1  0.29045852  0.64686651  0.42007500  1
  O  O31  1  0.79045852  0.85313349  0.57992500  1
  O  O32  1  0.99371659  0.23331339  0.00803695  1
  O  O33  1  0.49371659  0.26668661  0.99196305  1
  O  O34  1  0.00628341  0.73331339  0.49196305  1
  O  O35  1  0.50628341  0.76668661  0.50803695  1
  O  O36  1  0.95680886  0.94693415  0.05144822  1
  O  O37  1  0.45680886  0.55306585  0.94855178  1
  O  O38  1  0.04319114  0.44693415  0.44855178  1
  O  O39  1  0.54319114  0.05306585  0.55144822  1
  O  O40  1  0.40059856  0.24553923  0.12043012  1
  O  O41  1  0.90059856  0.25446077  0.87956988  1
  O  O42  1  0.59940144  0.74553923  0.37956988  1
  O  O43  1  0.09940144  0.75446077  0.62043012  1
  O  O44  1  0.15663722  0.05550855  0.91155285  1
  O  O45  1  0.65663722  0.44449145  0.08844715  1
  O  O46  1  0.84336278  0.55550855  0.58844715  1
  O  O47  1  0.34336278  0.94449145  0.41155285  1
  O  O48  1  0.25637188  0.71111227  0.20512681  1
  O  O49  1  0.75637188  0.78888773  0.79487319  1
  O  O50  1  0.74362812  0.21111227  0.29487319  1
  O  O51  1  0.07734996  0.16228521  0.28836075  1
  P  P52  1  0.09536160  0.16006823  0.67907950  1
  P  P53  1  0.59536160  0.33993177  0.32092050  1
  P  P54  1  0.90463840  0.66006823  0.82092050  1
  P  P55  1  0.40463840  0.83993177  0.17907950  1
  P  P56  1  0.40223074  0.39830901  0.66964014  1
  P  P57  1  0.90223074  0.10169099  0.33035986  1
  P  P58  1  0.59776926  0.89830901  0.83035986  1
  P  P59  1  0.09776926  0.60169099  0.16964014  1
  P  P60  1  0.43162715  0.79283055  0.42618047  1
  P  P61  1  0.93162715  0.70716945  0.57381953  1
  P  P62  1  0.56837285  0.29283055  0.07381953  1
  P  P63  1  0.06837285  0.20716945  0.92618047  1
  P  P64  1  0.57190250  0.88747449  0.56985475  1
  P  P65  1  0.07190250  0.61252551  0.43014525  1
  P  P66  1  0.42809750  0.38747449  0.93014525  1
  P  P67  1  0.92809750  0.11252551  0.06985475  1
  K  K68  1  0.23892607  0.79288157  0.97946725  1
  K  K69  1  0.73892607  0.70711843  0.02053275  1
  K  K70  1  0.76107393  0.29288157  0.52053275  1
  K  K71  1  0.26107393  0.20711843  0.47946725  1
  Ta  Ta72  1  0.26531700  0.78124836  0.70691183  1
  Ta  Ta73  1  0.76531700  0.71875164  0.29308817  1
  Ta  Ta74  1  0.73468300  0.28124836  0.79308817  1
  Ta  Ta75  1  0.23468300  0.21875164  0.20691183  1
