# generated using pymatgen
data_Lu3Ga5O12
_symmetry_space_group_name_H-M   'P 1'
_cell_length_a   10.62386112
_cell_length_b   10.62386112
_cell_length_c   10.62386112
_cell_angle_alpha   109.47122064
_cell_angle_beta   109.47122064
_cell_angle_gamma   109.47122063
_symmetry_Int_Tables_number   1
_chemical_formula_structural   Lu3Ga5O12
_chemical_formula_sum   'Lu12 Ga20 O48'
_cell_volume   923.05007832
_cell_formula_units_Z   4
loop_
 _symmetry_equiv_pos_site_id
 _symmetry_equiv_pos_as_xyz
  1  'x, y, z'
loop_
 _atom_site_type_symbol
 _atom_site_label
 _atom_site_symmetry_multiplicity
 _atom_site_fract_x
 _atom_site_fract_y
 _atom_site_fract_z
 _atom_site_occupancy
  O  O0  1  0.79093148  0.41678650  0.82317753  1
  O  O1  1  0.08321350  0.87414499  0.40639104  1
  O  O2  1  0.67682247  0.09360896  0.96775395  1
  O  O3  1  0.70906852  0.53224605  0.62585501  1
  O  O4  1  0.70906852  0.67682247  0.08321350  1
  O  O5  1  0.53224605  0.62585501  0.70906852  1
  O  O6  1  0.09360896  0.62585501  0.41678650  1
  O  O7  1  0.62585501  0.70906852  0.53224605  1
  O  O8  1  0.40639104  0.82317753  0.53224605  1
  O  O9  1  0.87414499  0.96775395  0.79093148  1
  O  O10  1  0.96775395  0.79093148  0.87414499  1
  O  O11  1  0.08321350  0.70906852  0.67682247  1
  O  O12  1  0.62585501  0.41678650  0.09360896  1
  O  O13  1  0.53224605  0.40639104  0.82317753  1
  O  O14  1  0.67682247  0.08321350  0.70906852  1
  O  O15  1  0.41678650  0.09360896  0.62585501  1
  O  O16  1  0.82317753  0.53224605  0.40639104  1
  O  O17  1  0.40639104  0.08321350  0.87414499  1
  O  O18  1  0.09360896  0.96775395  0.67682247  1
  O  O19  1  0.59360896  0.17682247  0.46775395  1
  O  O20  1  0.96775395  0.67682247  0.09360896  1
  O  O21  1  0.82317753  0.79093148  0.41678650  1
  O  O22  1  0.87414499  0.40639104  0.08321350  1
  O  O23  1  0.79093148  0.87414499  0.96775395  1
  O  O24  1  0.20906852  0.58321350  0.17682247  1
  O  O25  1  0.91678650  0.12585501  0.59360896  1
  O  O26  1  0.32317753  0.90639104  0.03224605  1
  O  O27  1  0.29093148  0.46775395  0.37414499  1
  O  O28  1  0.29093148  0.32317753  0.91678650  1
  O  O29  1  0.46775395  0.37414499  0.29093148  1
  O  O30  1  0.90639104  0.37414499  0.58321350  1
  O  O31  1  0.37414499  0.29093148  0.46775395  1
  O  O32  1  0.20906852  0.12585501  0.03224605  1
  O  O33  1  0.12585501  0.59360896  0.91678650  1
  O  O34  1  0.17682247  0.20906852  0.58321350  1
  O  O35  1  0.58321350  0.17682247  0.20906852  1
  O  O36  1  0.03224605  0.32317753  0.90639104  1
  O  O37  1  0.90639104  0.03224605  0.32317753  1
  O  O38  1  0.59360896  0.91678650  0.12585501  1
  O  O39  1  0.17682247  0.46775395  0.59360896  1
  O  O40  1  0.58321350  0.90639104  0.37414499  1
  O  O41  1  0.32317753  0.91678650  0.29093148  1
  O  O42  1  0.46775395  0.59360896  0.17682247  1
  O  O43  1  0.37414499  0.58321350  0.90639104  1
  O  O44  1  0.91678650  0.29093148  0.32317753  1
  O  O45  1  0.03224605  0.20906852  0.12585501  1
  O  O46  1  0.12585501  0.03224605  0.20906852  1
  O  O47  1  0.41678650  0.82317753  0.79093148  1
  Ga  Ga48  1  0.00000000  0.00000000  0.00000000  1
  Ga  Ga49  1  0.00000000  0.50000000  0.00000000  1
  Ga  Ga50  1  0.00000000  0.00000000  0.50000000  1
  Ga  Ga51  1  0.50000000  0.00000000  0.00000000  1
  Ga  Ga52  1  0.00000000  0.50000000  0.50000000  1
  Ga  Ga53  1  0.50000000  0.00000000  0.50000000  1
  Ga  Ga54  1  0.50000000  0.50000000  0.00000000  1
  Ga  Ga55  1  0.50000000  0.50000000  0.50000000  1
  Ga  Ga56  1  0.25000000  0.62500000  0.37500000  1
  Ga  Ga57  1  0.62500000  0.75000000  0.37500000  1
  Ga  Ga58  1  0.87500000  0.25000000  0.12500000  1
  Ga  Ga59  1  0.12500000  0.87500000  0.25000000  1
  Ga  Ga60  1  0.25000000  0.12500000  0.87500000  1
  Ga  Ga61  1  0.75000000  0.87500000  0.12500000  1
  Ga  Ga62  1  0.37500000  0.25000000  0.62500000  1
  Ga  Ga63  1  0.62500000  0.37500000  0.25000000  1
  Ga  Ga64  1  0.12500000  0.75000000  0.87500000  1
  Ga  Ga65  1  0.87500000  0.12500000  0.75000000  1
  Ga  Ga66  1  0.75000000  0.37500000  0.62500000  1
  Ga  Ga67  1  0.37500000  0.62500000  0.75000000  1
  Lu  Lu68  1  0.25000000  0.37500000  0.12500000  1
  Lu  Lu69  1  0.37500000  0.75000000  0.12500000  1
  Lu  Lu70  1  0.12500000  0.25000000  0.37500000  1
  Lu  Lu71  1  0.37500000  0.12500000  0.25000000  1
  Lu  Lu72  1  0.12500000  0.37500000  0.75000000  1
  Lu  Lu73  1  0.75000000  0.12500000  0.37500000  1
  Lu  Lu74  1  0.75000000  0.62500000  0.87500000  1
  Lu  Lu75  1  0.62500000  0.25000000  0.87500000  1
  Lu  Lu76  1  0.87500000  0.75000000  0.62500000  1
  Lu  Lu77  1  0.62500000  0.87500000  0.75000000  1
  Lu  Lu78  1  0.87500000  0.62500000  0.25000000  1
  Lu  Lu79  1  0.25000000  0.87500000  0.62500000  1
