# generated using pymatgen
data_KTaGeO5
_symmetry_space_group_name_H-M   'P 1'
_cell_length_a   6.75399325
_cell_length_b   11.16286603
_cell_length_c   13.60658783
_cell_angle_alpha   90.00000000
_cell_angle_beta   90.00000000
_cell_angle_gamma   90.00000000
_symmetry_Int_Tables_number   1
_chemical_formula_structural   KTaGeO5
_chemical_formula_sum   'K8 Ta8 Ge8 O40'
_cell_volume   1025.85401905
_cell_formula_units_Z   8
loop_
 _symmetry_equiv_pos_site_id
 _symmetry_equiv_pos_as_xyz
  1  'x, y, z'
loop_
 _atom_site_type_symbol
 _atom_site_label
 _atom_site_symmetry_multiplicity
 _atom_site_fract_x
 _atom_site_fract_y
 _atom_site_fract_z
 _atom_site_occupancy
  O  O0  1  0.93812009  0.12232244  0.78664087  1
  O  O1  1  0.06187991  0.62232244  0.21335913  1
  O  O2  1  0.56187991  0.12232244  0.28664087  1
  O  O3  1  0.43812009  0.62232244  0.71335913  1
  O  O4  1  0.45570402  0.87334478  0.28057072  1
  O  O5  1  0.54429598  0.37334478  0.71942928  1
  O  O6  1  0.04429598  0.87334478  0.78057072  1
  O  O7  1  0.95570402  0.37334478  0.21942928  1
  O  O8  1  0.53607262  0.12330733  0.74183459  1
  O  O9  1  0.46392738  0.62330733  0.25816541  1
  O  O10  1  0.96392738  0.12330733  0.24183459  1
  O  O11  1  0.03607262  0.62330733  0.75816541  1
  O  O12  1  0.04206577  0.87415081  0.23700849  1
  O  O13  1  0.95793423  0.37415081  0.76299151  1
  O  O14  1  0.45793423  0.87415081  0.73700849  1
  O  O15  1  0.17654112  0.77071141  0.60161879  1
  O  O16  1  0.54206577  0.37415081  0.26299151  1
  O  O17  1  0.71518665  0.52611013  0.10867805  1
  O  O18  1  0.21518665  0.02611013  0.39132195  1
  O  O19  1  0.78481335  0.52611013  0.60867805  1
  O  O20  1  0.79948241  0.96014150  0.39044714  1
  O  O21  1  0.20051759  0.46014150  0.60955286  1
  O  O22  1  0.70051759  0.96014150  0.89044714  1
  O  O23  1  0.29948241  0.46014150  0.10955286  1
  O  O24  1  0.49659168  0.86460058  0.48391697  1
  O  O25  1  0.50340832  0.36460058  0.51608303  1
  O  O26  1  0.00340832  0.86460058  0.98391697  1
  O  O27  1  0.99659168  0.36460058  0.01608303  1
  O  O28  1  0.96354243  0.11360138  0.99449702  1
  O  O29  1  0.03645757  0.61360138  0.00550298  1
  O  O30  1  0.53645757  0.11360138  0.49449702  1
  O  O31  1  0.46354243  0.61360138  0.50550298  1
  O  O32  1  0.18021163  0.72887541  0.38828817  1
  O  O33  1  0.81978837  0.22887541  0.61171183  1
  O  O34  1  0.31978837  0.72887541  0.88828817  1
  O  O35  1  0.68021163  0.22887541  0.11171183  1
  O  O36  1  0.67654112  0.27071141  0.89838121  1
  O  O37  1  0.32345888  0.77071141  0.10161879  1
  O  O38  1  0.82345888  0.27071141  0.39838121  1
  O  O39  1  0.28481335  0.02611013  0.89132195  1
  K  K40  1  0.77358586  0.70055082  0.37289473  1
  K  K41  1  0.28965876  0.43747248  0.88996504  1
  K  K42  1  0.21034124  0.43747248  0.38996504  1
  K  K43  1  0.71034124  0.93747248  0.11003496  1
  K  K44  1  0.27358586  0.20055082  0.12710527  1
  K  K45  1  0.72641414  0.70055082  0.87289473  1
  K  K46  1  0.22641414  0.20055082  0.62710527  1
  K  K47  1  0.78965876  0.93747248  0.61003496  1
  Ge  Ge48  1  0.67591985  0.24782626  0.50424940  1
  Ge  Ge49  1  0.17591985  0.74782626  0.99575060  1
  Ge  Ge50  1  0.82408015  0.24782626  0.00424940  1
  Ge  Ge51  1  0.50599624  0.49745941  0.18209435  1
  Ge  Ge52  1  0.49400376  0.99745941  0.81790565  1
  Ge  Ge53  1  0.99400376  0.49745941  0.68209435  1
  Ge  Ge54  1  0.32408015  0.74782626  0.49575060  1
  Ge  Ge55  1  0.00599624  0.99745941  0.31790565  1
  Ta  Ta56  1  0.25972705  0.75333108  0.24411637  1
  Ta  Ta57  1  0.74027295  0.25333108  0.75588363  1
  Ta  Ta58  1  0.24027295  0.75333108  0.74411637  1
  Ta  Ta59  1  0.50414778  0.00004417  0.38331162  1
  Ta  Ta60  1  0.49585222  0.50004417  0.61668838  1
  Ta  Ta61  1  0.99585222  0.00004417  0.88331162  1
  Ta  Ta62  1  0.00414778  0.50004417  0.11668838  1
  Ta  Ta63  1  0.75972705  0.25333108  0.25588363  1
