# generated using pymatgen
data_Na2TiZn2GeO7
_symmetry_space_group_name_H-M   'P 1'
_cell_length_a   5.29738183
_cell_length_b   11.98916315
_cell_length_c   20.70852269
_cell_angle_alpha   90.00000000
_cell_angle_beta   90.00000000
_cell_angle_gamma   90.00000000
_symmetry_Int_Tables_number   1
_chemical_formula_structural   Na2TiZn2GeO7
_chemical_formula_sum   'Na16 Ti8 Zn16 Ge8 O56'
_cell_volume   1315.22260913
_cell_formula_units_Z   8
loop_
 _symmetry_equiv_pos_site_id
 _symmetry_equiv_pos_as_xyz
  1  'x, y, z'
loop_
 _atom_site_type_symbol
 _atom_site_label
 _atom_site_symmetry_multiplicity
 _atom_site_fract_x
 _atom_site_fract_y
 _atom_site_fract_z
 _atom_site_occupancy
  O  O0  1  0.69506410  0.34809594  0.65574628  1
  O  O1  1  0.19506410  0.65190406  0.84425372  1
  O  O2  1  0.80493590  0.84809594  0.34425372  1
  O  O3  1  0.30493590  0.15190406  0.15574628  1
  O  O4  1  0.30493590  0.65190406  0.34425372  1
  O  O5  1  0.80493590  0.34809594  0.15574628  1
  O  O6  1  0.19506410  0.15190406  0.65574628  1
  O  O7  1  0.69506410  0.84809594  0.84425372  1
  O  O8  1  0.65199563  0.06773452  0.90208095  1
  O  O9  1  0.15199563  0.93226548  0.59791905  1
  O  O10  1  0.84800437  0.56773452  0.09791905  1
  O  O11  1  0.34800437  0.43226548  0.40208095  1
  O  O12  1  0.34800437  0.93226548  0.09791905  1
  O  O13  1  0.84800437  0.06773452  0.40208095  1
  O  O14  1  0.15199563  0.43226548  0.90208095  1
  O  O15  1  0.65199563  0.56773452  0.59791905  1
  O  O16  1  0.67417552  0.36278627  0.51737835  1
  O  O17  1  0.17417552  0.63721373  0.98262165  1
  O  O18  1  0.82582448  0.86278627  0.48262165  1
  O  O19  1  0.32582448  0.13721373  0.01737835  1
  O  O20  1  0.32582448  0.63721373  0.48262165  1
  O  O21  1  0.82582448  0.36278627  0.01737835  1
  O  O22  1  0.17417552  0.13721373  0.51737835  1
  O  O23  1  0.67417552  0.86278627  0.98262165  1
  O  O24  1  0.95189410  0.30517798  0.78569195  1
  O  O25  1  0.58816987  0.29772188  0.88682702  1
  O  O26  1  0.45189410  0.69482202  0.71430805  1
  O  O27  1  0.04810590  0.19482202  0.28569195  1
  O  O28  1  0.04810590  0.69482202  0.21430805  1
  O  O29  1  0.54810590  0.30517798  0.28569195  1
  O  O30  1  0.45189410  0.19482202  0.78569195  1
  O  O31  1  0.95189410  0.80517798  0.71430805  1
  O  O32  1  0.61732950  0.06255310  0.58422512  1
  O  O33  1  0.11732950  0.93744690  0.91577488  1
  O  O34  1  0.88267050  0.56255310  0.41577488  1
  O  O35  1  0.38267050  0.43744690  0.08422512  1
  O  O36  1  0.38267050  0.93744690  0.41577488  1
  O  O37  1  0.88267050  0.06255310  0.08422512  1
  O  O38  1  0.11732950  0.43744690  0.58422512  1
  O  O39  1  0.61732950  0.56255310  0.91577488  1
  O  O40  1  0.89573274  0.06908025  0.77589971  1
  O  O41  1  0.39573274  0.93091975  0.72410029  1
  O  O42  1  0.60426726  0.56908025  0.22410029  1
  O  O43  1  0.10426726  0.43091975  0.27589971  1
  O  O44  1  0.10426726  0.93091975  0.22410029  1
  O  O45  1  0.60426726  0.06908025  0.27589971  1
  O  O46  1  0.39573274  0.43091975  0.77589971  1
  O  O47  1  0.89573274  0.56908025  0.72410029  1
  O  O48  1  0.58816987  0.79772188  0.61317298  1
  O  O49  1  0.08816987  0.20227812  0.88682702  1
  O  O50  1  0.91183013  0.29772188  0.38682702  1
  O  O51  1  0.41183013  0.70227812  0.11317298  1
  O  O52  1  0.41183013  0.20227812  0.38682702  1
  O  O53  1  0.91183013  0.79772188  0.11317298  1
  O  O54  1  0.08816987  0.70227812  0.61317298  1
  O  O55  1  0.54810590  0.80517798  0.21430805  1
  Na  Na56  1  0.75558875  0.66389396  0.82574409  1
  Na  Na57  1  0.25558875  0.33610604  0.67425591  1
  Na  Na58  1  0.74441125  0.16389396  0.17425591  1
  Na  Na59  1  0.24441125  0.83610604  0.32574409  1
  Na  Na60  1  0.24441125  0.33610604  0.17425591  1
  Na  Na61  1  0.74441125  0.66389396  0.32574409  1
  Na  Na62  1  0.25558875  0.83610604  0.82574409  1
  Na  Na63  1  0.75558875  0.16389396  0.67425591  1
  Na  Na64  1  0.75802009  0.17438739  0.99745421  1
  Na  Na65  1  0.25802009  0.82561261  0.50254579  1
  Na  Na66  1  0.25802009  0.32561261  0.99745421  1
  Na  Na67  1  0.75802009  0.67438739  0.50254579  1
  Na  Na68  1  0.24197991  0.82561261  0.00254579  1
  Na  Na69  1  0.74197991  0.17438739  0.49745421  1
  Na  Na70  1  0.74197991  0.67438739  0.00254579  1
  Na  Na71  1  0.24197991  0.32561261  0.49745421  1
  Ti  Ti72  1  0.79139565  0.68657800  0.66656827  1
  Ti  Ti73  1  0.79139565  0.18657800  0.83343173  1
  Ti  Ti74  1  0.29139565  0.81342200  0.66656827  1
  Ti  Ti75  1  0.70860435  0.68657800  0.16656827  1
  Ti  Ti76  1  0.20860435  0.31342200  0.33343173  1
  Ti  Ti77  1  0.20860435  0.81342200  0.16656827  1
  Ti  Ti78  1  0.70860435  0.18657800  0.33343173  1
  Ti  Ti79  1  0.29139565  0.31342200  0.83343173  1
  Zn  Zn80  1  0.25461881  0.07939202  0.24079379  1
  Zn  Zn81  1  0.24538119  0.57939202  0.75920621  1
  Zn  Zn82  1  0.75461881  0.92060798  0.25920621  1
  Zn  Zn83  1  0.78528787  0.91978850  0.57225742  1
  Zn  Zn84  1  0.25461881  0.57939202  0.25920621  1
  Zn  Zn85  1  0.75461881  0.42060798  0.24079379  1
  Zn  Zn86  1  0.24538119  0.07939202  0.74079379  1
  Zn  Zn87  1  0.74538119  0.92060798  0.75920621  1
  Zn  Zn88  1  0.28528787  0.08021150  0.92774258  1
  Zn  Zn89  1  0.71471213  0.41978850  0.42774258  1
  Zn  Zn90  1  0.21471213  0.58021150  0.07225742  1
  Zn  Zn91  1  0.78528787  0.41978850  0.92774258  1
  Zn  Zn92  1  0.71471213  0.91978850  0.07225742  1
  Zn  Zn93  1  0.28528787  0.58021150  0.57225742  1
  Zn  Zn94  1  0.21471213  0.08021150  0.42774258  1
  Zn  Zn95  1  0.74538119  0.42060798  0.74079379  1
  Ge  Ge96  1  0.78289579  0.92898464  0.91154245  1
  Ge  Ge97  1  0.28289579  0.07101536  0.58845755  1
  Ge  Ge98  1  0.71710421  0.42898464  0.08845755  1
  Ge  Ge99  1  0.21710421  0.57101536  0.41154245  1
  Ge  Ge100  1  0.21710421  0.07101536  0.08845755  1
  Ge  Ge101  1  0.71710421  0.92898464  0.41154245  1
  Ge  Ge102  1  0.28289579  0.57101536  0.91154245  1
  Ge  Ge103  1  0.78289579  0.42898464  0.58845755  1
