# generated using pymatgen
data_BaNaNd(GeO3)3
_symmetry_space_group_name_H-M   'P 1'
_cell_length_a   5.94401968
_cell_length_b   11.87215556
_cell_length_c   13.06412911
_cell_angle_alpha   90.00000000
_cell_angle_beta   90.00000000
_cell_angle_gamma   90.00000000
_symmetry_Int_Tables_number   1
_chemical_formula_structural   BaNaNd(GeO3)3
_chemical_formula_sum   'Ba4 Na4 Nd4 Ge12 O36'
_cell_volume   921.91372576
_cell_formula_units_Z   4
loop_
 _symmetry_equiv_pos_site_id
 _symmetry_equiv_pos_as_xyz
  1  'x, y, z'
loop_
 _atom_site_type_symbol
 _atom_site_label
 _atom_site_symmetry_multiplicity
 _atom_site_fract_x
 _atom_site_fract_y
 _atom_site_fract_z
 _atom_site_occupancy
  O  O0  1  0.14222674  0.93703955  0.32329531  1
  O  O1  1  0.64222674  0.56296045  0.67670469  1
  O  O2  1  0.85777326  0.43703955  0.17670469  1
  O  O3  1  0.35777326  0.06296045  0.82329531  1
  O  O4  1  0.35473438  0.68868688  0.88219324  1
  O  O5  1  0.85473438  0.81131312  0.11780676  1
  O  O6  1  0.64526562  0.18868688  0.61780676  1
  O  O7  1  0.14526562  0.31131312  0.38219324  1
  O  O8  1  0.50061227  0.50738606  0.02895952  1
  O  O9  1  0.00061227  0.99261394  0.97104048  1
  O  O10  1  0.49938773  0.00738606  0.47104048  1
  O  O11  1  0.99938773  0.49261394  0.52895952  1
  O  O12  1  0.38312573  0.76859468  0.43848615  1
  O  O13  1  0.88312573  0.73140532  0.56151385  1
  O  O14  1  0.11446348  0.83381838  0.73778648  1
  O  O15  1  0.61687427  0.26859468  0.06151385  1
  O  O16  1  0.36066221  0.80296995  0.11709404  1
  O  O17  1  0.86066221  0.69703005  0.88290596  1
  O  O18  1  0.63933779  0.30296995  0.38290596  1
  O  O19  1  0.13933779  0.19703005  0.61709404  1
  O  O20  1  0.12402572  0.60014589  0.70988507  1
  O  O21  1  0.62402572  0.89985411  0.29011493  1
  O  O22  1  0.87597428  0.10014589  0.79011493  1
  O  O23  1  0.37597428  0.39985411  0.20988507  1
  O  O24  1  0.36777172  0.38324230  0.81245795  1
  O  O25  1  0.86777172  0.11675770  0.18754205  1
  O  O26  1  0.63222828  0.88324230  0.68754205  1
  O  O27  1  0.13222828  0.61675770  0.31245795  1
  O  O28  1  0.95973655  0.46133726  0.93350483  1
  O  O29  1  0.45973655  0.03866274  0.06649517  1
  O  O30  1  0.04026345  0.96133726  0.56649517  1
  O  O31  1  0.54026345  0.53866274  0.43350483  1
  O  O32  1  0.38553652  0.16618162  0.23778648  1
  O  O33  1  0.88553652  0.33381838  0.76221352  1
  O  O34  1  0.61446348  0.66618162  0.26221352  1
  O  O35  1  0.11687427  0.23140532  0.93848615  1
  Na  Na36  1  0.06248505  0.27884063  0.11440724  1
  Na  Na37  1  0.56248505  0.22115937  0.88559276  1
  Na  Na38  1  0.43751495  0.72115937  0.61440724  1
  Na  Na39  1  0.93751495  0.77884063  0.38559276  1
  Ge  Ge40  1  0.10103258  0.08983569  0.88367878  1
  Ge  Ge41  1  0.60805767  0.79595451  0.18813303  1
  Ge  Ge42  1  0.89194233  0.20404549  0.68813303  1
  Ge  Ge43  1  0.10805767  0.70404549  0.81186697  1
  Ge  Ge44  1  0.40232823  0.63975603  0.36081513  1
  Ge  Ge45  1  0.90232823  0.86024397  0.63918487  1
  Ge  Ge46  1  0.59767177  0.13975603  0.13918487  1
  Ge  Ge47  1  0.09767177  0.36024397  0.86081513  1
  Ge  Ge48  1  0.39896742  0.91016431  0.38367878  1
  Ge  Ge49  1  0.89896742  0.58983569  0.61632122  1
  Ge  Ge50  1  0.39194233  0.29595451  0.31186697  1
  Ge  Ge51  1  0.60103258  0.41016431  0.11632122  1
  Ba  Ba52  1  0.10657424  0.61393970  0.08194595  1
  Ba  Ba53  1  0.60657424  0.88606030  0.91805405  1
  Ba  Ba54  1  0.89342576  0.11393970  0.41805405  1
  Ba  Ba55  1  0.39342576  0.38606030  0.58194595  1
  Nd  Nd56  1  0.38317122  0.03619598  0.64154497  1
  Nd  Nd57  1  0.88317122  0.46380402  0.35845503  1
  Nd  Nd58  1  0.61682878  0.53619598  0.85845503  1
  Nd  Nd59  1  0.11682878  0.96380402  0.14154497  1
