# generated using pymatgen
data_Ba(AlS2)2
_symmetry_space_group_name_H-M   'P 1'
_cell_length_a   12.79680773
_cell_length_b   12.79680773
_cell_length_c   12.79680773
_cell_angle_alpha   90.00000000
_cell_angle_beta   90.00000000
_cell_angle_gamma   90.00000000
_symmetry_Int_Tables_number   1
_chemical_formula_structural   Ba(AlS2)2
_chemical_formula_sum   'Ba12 Al24 S48'
_cell_volume   2095.58332674
_cell_formula_units_Z   12
loop_
 _symmetry_equiv_pos_site_id
 _symmetry_equiv_pos_as_xyz
  1  'x, y, z'
loop_
 _atom_site_type_symbol
 _atom_site_label
 _atom_site_symmetry_multiplicity
 _atom_site_fract_x
 _atom_site_fract_y
 _atom_site_fract_z
 _atom_site_occupancy
  Al  Al0  1  0.64338028  0.62646533  0.30402725  1
  Al  Al1  1  0.69597275  0.35661972  0.37353467  1
  Al  Al2  1  0.19597275  0.14338028  0.62646533  1
  Al  Al3  1  0.30402725  0.85661972  0.12646533  1
  Al  Al4  1  0.14338028  0.62646533  0.19597275  1
  Al  Al5  1  0.12646533  0.30402725  0.85661972  1
  Al  Al6  1  0.62646533  0.19597275  0.14338028  1
  Al  Al7  1  0.35661972  0.37353467  0.69597275  1
  Al  Al8  1  0.37353467  0.69597275  0.35661972  1
  Al  Al9  1  0.85661972  0.12646533  0.30402725  1
  Al  Al10  1  0.64338028  0.87353467  0.80402725  1
  Al  Al11  1  0.87353467  0.80402725  0.64338028  1
  Al  Al12  1  0.19597275  0.35661972  0.12646533  1
  Al  Al13  1  0.12646533  0.19597275  0.35661972  1
  Al  Al14  1  0.35661972  0.12646533  0.19597275  1
  Al  Al15  1  0.14338028  0.87353467  0.69597275  1
  Al  Al16  1  0.62646533  0.30402725  0.64338028  1
  Al  Al17  1  0.80402725  0.64338028  0.87353467  1
  Al  Al18  1  0.37353467  0.80402725  0.85661972  1
  Al  Al19  1  0.87353467  0.69597275  0.14338028  1
  Al  Al20  1  0.85661972  0.37353467  0.80402725  1
  Al  Al21  1  0.69597275  0.14338028  0.87353467  1
  Al  Al22  1  0.80402725  0.85661972  0.37353467  1
  Al  Al23  1  0.30402725  0.64338028  0.62646533  1
  S  S24  1  0.72785307  0.52518196  0.42076818  1
  S  S25  1  0.77214693  0.47481804  0.92076818  1
  S  S26  1  0.92076818  0.77214693  0.47481804  1
  S  S27  1  0.47481804  0.92076818  0.77214693  1
  S  S28  1  0.02518196  0.07923182  0.27214693  1
  S  S29  1  0.42076818  0.72785307  0.52518196  1
  S  S30  1  0.52518196  0.42076818  0.72785307  1
  S  S31  1  0.57923182  0.22785307  0.97481804  1
  S  S32  1  0.07923182  0.27214693  0.02518196  1
  S  S33  1  0.97481804  0.57923182  0.22785307  1
  S  S34  1  0.27214693  0.02518196  0.07923182  1
  S  S35  1  0.22785307  0.97481804  0.57923182  1
  S  S36  1  0.35981185  0.29100447  0.12866893  1
  S  S37  1  0.12866893  0.35981185  0.29100447  1
  S  S38  1  0.29100447  0.12866893  0.35981185  1
  S  S39  1  0.20899553  0.87133107  0.85981185  1
  S  S40  1  0.62866893  0.14018815  0.70899553  1
  S  S41  1  0.70899553  0.62866893  0.14018815  1
  S  S42  1  0.37133107  0.64018815  0.79100447  1
  S  S43  1  0.87133107  0.85981185  0.20899553  1
  S  S44  1  0.79100447  0.37133107  0.64018815  1
  S  S45  1  0.85981185  0.20899553  0.87133107  1
  S  S46  1  0.64018815  0.79100447  0.37133107  1
  S  S47  1  0.14018815  0.70899553  0.62866893  1
  S  S48  1  0.64018815  0.70899553  0.87133107  1
  S  S49  1  0.87133107  0.64018815  0.70899553  1
  S  S50  1  0.70899553  0.87133107  0.64018815  1
  S  S51  1  0.79100447  0.12866893  0.14018815  1
  S  S52  1  0.37133107  0.85981185  0.29100447  1
  S  S53  1  0.29100447  0.37133107  0.85981185  1
  S  S54  1  0.62866893  0.35981185  0.20899553  1
  S  S55  1  0.12866893  0.14018815  0.79100447  1
  S  S56  1  0.20899553  0.62866893  0.35981185  1
  S  S57  1  0.14018815  0.79100447  0.12866893  1
  S  S58  1  0.35981185  0.20899553  0.62866893  1
  S  S59  1  0.85981185  0.29100447  0.37133107  1
  S  S60  1  0.22785307  0.52518196  0.07923182  1
  S  S61  1  0.07923182  0.22785307  0.52518196  1
  S  S62  1  0.52518196  0.07923182  0.22785307  1
  S  S63  1  0.27214693  0.47481804  0.57923182  1
  S  S64  1  0.57923182  0.27214693  0.47481804  1
  S  S65  1  0.47481804  0.57923182  0.27214693  1
  S  S66  1  0.42076818  0.77214693  0.02518196  1
  S  S67  1  0.92076818  0.72785307  0.97481804  1
  S  S68  1  0.02518196  0.42076818  0.77214693  1
  S  S69  1  0.72785307  0.97481804  0.92076818  1
  S  S70  1  0.77214693  0.02518196  0.42076818  1
  S  S71  1  0.97481804  0.92076818  0.72785307  1
  Ba  Ba72  1  0.37279421  0.12720579  0.87279421  1
  Ba  Ba73  1  0.12720579  0.87279421  0.37279421  1
  Ba  Ba74  1  0.87279421  0.37279421  0.12720579  1
  Ba  Ba75  1  0.62720579  0.62720579  0.62720579  1
  Ba  Ba76  1  0.62720579  0.87279421  0.12720579  1
  Ba  Ba77  1  0.87279421  0.12720579  0.62720579  1
  Ba  Ba78  1  0.12720579  0.62720579  0.87279421  1
  Ba  Ba79  1  0.37279421  0.37279421  0.37279421  1
  Ba  Ba80  1  0.00000000  0.50000000  0.50000000  1
  Ba  Ba81  1  0.50000000  0.50000000  0.00000000  1
  Ba  Ba82  1  0.50000000  0.00000000  0.50000000  1
  Ba  Ba83  1  0.00000000  0.00000000  0.00000000  1
