# generated using pymatgen
data_Gd3Al5O12
_symmetry_space_group_name_H-M   'P 1'
_cell_length_a   10.57487587
_cell_length_b   10.57487586
_cell_length_c   10.57487586
_cell_angle_alpha   109.47122064
_cell_angle_beta   109.47122062
_cell_angle_gamma   109.47122066
_symmetry_Int_Tables_number   1
_chemical_formula_structural   Gd3Al5O12
_chemical_formula_sum   'Gd12 Al20 O48'
_cell_volume   910.34066432
_cell_formula_units_Z   4
loop_
 _symmetry_equiv_pos_site_id
 _symmetry_equiv_pos_as_xyz
  1  'x, y, z'
loop_
 _atom_site_type_symbol
 _atom_site_label
 _atom_site_symmetry_multiplicity
 _atom_site_fract_x
 _atom_site_fract_y
 _atom_site_fract_z
 _atom_site_occupancy
  O  O0  1  0.80256761  0.41972810  0.82015112  1
  O  O1  1  0.08027190  0.88283951  0.40042303  1
  O  O2  1  0.67984888  0.09957697  0.98241649  1
  O  O3  1  0.69743239  0.51758351  0.61716049  1
  O  O4  1  0.69743239  0.67984888  0.08027190  1
  O  O5  1  0.51758351  0.61716049  0.69743239  1
  O  O6  1  0.09957697  0.61716049  0.41972810  1
  O  O7  1  0.61716049  0.69743239  0.51758351  1
  O  O8  1  0.40042303  0.82015112  0.51758351  1
  O  O9  1  0.88283951  0.98241649  0.80256761  1
  O  O10  1  0.98241649  0.80256761  0.88283951  1
  O  O11  1  0.08027190  0.69743239  0.67984888  1
  O  O12  1  0.61716049  0.41972810  0.09957697  1
  O  O13  1  0.51758351  0.40042303  0.82015112  1
  O  O14  1  0.67984888  0.08027190  0.69743239  1
  O  O15  1  0.41972810  0.09957697  0.61716049  1
  O  O16  1  0.82015112  0.51758351  0.40042303  1
  O  O17  1  0.40042303  0.08027190  0.88283951  1
  O  O18  1  0.09957697  0.98241649  0.67984888  1
  O  O19  1  0.59957697  0.17984888  0.48241649  1
  O  O20  1  0.98241649  0.67984888  0.09957697  1
  O  O21  1  0.82015112  0.80256761  0.41972810  1
  O  O22  1  0.88283951  0.40042303  0.08027190  1
  O  O23  1  0.80256761  0.88283951  0.98241649  1
  O  O24  1  0.19743239  0.58027190  0.17984888  1
  O  O25  1  0.91972810  0.11716049  0.59957697  1
  O  O26  1  0.32015112  0.90042303  0.01758351  1
  O  O27  1  0.30256761  0.48241649  0.38283951  1
  O  O28  1  0.30256761  0.32015112  0.91972810  1
  O  O29  1  0.48241649  0.38283951  0.30256761  1
  O  O30  1  0.90042303  0.38283951  0.58027190  1
  O  O31  1  0.38283951  0.30256761  0.48241649  1
  O  O32  1  0.19743239  0.11716049  0.01758351  1
  O  O33  1  0.11716049  0.59957697  0.91972810  1
  O  O34  1  0.17984888  0.19743239  0.58027190  1
  O  O35  1  0.58027190  0.17984888  0.19743239  1
  O  O36  1  0.01758351  0.32015112  0.90042303  1
  O  O37  1  0.90042303  0.01758351  0.32015112  1
  O  O38  1  0.59957697  0.91972810  0.11716049  1
  O  O39  1  0.17984888  0.48241649  0.59957697  1
  O  O40  1  0.58027190  0.90042303  0.38283951  1
  O  O41  1  0.32015112  0.91972810  0.30256761  1
  O  O42  1  0.48241649  0.59957697  0.17984888  1
  O  O43  1  0.38283951  0.58027190  0.90042303  1
  O  O44  1  0.91972810  0.30256761  0.32015112  1
  O  O45  1  0.01758351  0.19743239  0.11716049  1
  O  O46  1  0.11716049  0.01758351  0.19743239  1
  O  O47  1  0.41972810  0.82015112  0.80256761  1
  Al  Al48  1  0.00000000  0.00000000  0.00000000  1
  Al  Al49  1  0.00000000  0.50000000  0.00000000  1
  Al  Al50  1  0.00000000  0.00000000  0.50000000  1
  Al  Al51  1  0.50000000  0.00000000  0.00000000  1
  Al  Al52  1  0.00000000  0.50000000  0.50000000  1
  Al  Al53  1  0.50000000  0.00000000  0.50000000  1
  Al  Al54  1  0.50000000  0.50000000  0.00000000  1
  Al  Al55  1  0.50000000  0.50000000  0.50000000  1
  Al  Al56  1  0.25000000  0.62500000  0.37500000  1
  Al  Al57  1  0.62500000  0.75000000  0.37500000  1
  Al  Al58  1  0.87500000  0.25000000  0.12500000  1
  Al  Al59  1  0.12500000  0.87500000  0.25000000  1
  Al  Al60  1  0.25000000  0.12500000  0.87500000  1
  Al  Al61  1  0.75000000  0.87500000  0.12500000  1
  Al  Al62  1  0.37500000  0.25000000  0.62500000  1
  Al  Al63  1  0.62500000  0.37500000  0.25000000  1
  Al  Al64  1  0.12500000  0.75000000  0.87500000  1
  Al  Al65  1  0.87500000  0.12500000  0.75000000  1
  Al  Al66  1  0.75000000  0.37500000  0.62500000  1
  Al  Al67  1  0.37500000  0.62500000  0.75000000  1
  Gd  Gd68  1  0.25000000  0.37500000  0.12500000  1
  Gd  Gd69  1  0.37500000  0.75000000  0.12500000  1
  Gd  Gd70  1  0.12500000  0.25000000  0.37500000  1
  Gd  Gd71  1  0.37500000  0.12500000  0.25000000  1
  Gd  Gd72  1  0.12500000  0.37500000  0.75000000  1
  Gd  Gd73  1  0.75000000  0.12500000  0.37500000  1
  Gd  Gd74  1  0.75000000  0.62500000  0.87500000  1
  Gd  Gd75  1  0.62500000  0.25000000  0.87500000  1
  Gd  Gd76  1  0.87500000  0.75000000  0.62500000  1
  Gd  Gd77  1  0.62500000  0.87500000  0.75000000  1
  Gd  Gd78  1  0.87500000  0.62500000  0.25000000  1
  Gd  Gd79  1  0.25000000  0.87500000  0.62500000  1
