# generated using pymatgen
data_Na5AlO4
_symmetry_space_group_name_H-M   'P 1'
_cell_length_a   5.96427838
_cell_length_b   10.28152218
_cell_length_c   18.04662177
_cell_angle_alpha   90.00000000
_cell_angle_beta   90.00000000
_cell_angle_gamma   90.00000000
_symmetry_Int_Tables_number   1
_chemical_formula_structural   Na5AlO4
_chemical_formula_sum   'Na40 Al8 O32'
_cell_volume   1106.65242180
_cell_formula_units_Z   8
loop_
 _symmetry_equiv_pos_site_id
 _symmetry_equiv_pos_as_xyz
  1  'x, y, z'
loop_
 _atom_site_type_symbol
 _atom_site_label
 _atom_site_symmetry_multiplicity
 _atom_site_fract_x
 _atom_site_fract_y
 _atom_site_fract_z
 _atom_site_occupancy
  O  O0  1  0.62205775  0.45412049  0.61990872  1
  O  O1  1  0.12205775  0.54587951  0.88009128  1
  O  O2  1  0.87794225  0.95412049  0.38009128  1
  O  O3  1  0.37794225  0.04587951  0.11990872  1
  O  O4  1  0.37794225  0.54587951  0.38009128  1
  O  O5  1  0.87794225  0.45412049  0.11990872  1
  O  O6  1  0.12205775  0.04587951  0.61990872  1
  O  O7  1  0.62205775  0.95412049  0.88009128  1
  O  O8  1  0.23515884  0.37827328  0.70826245  1
  O  O9  1  0.73515884  0.62172672  0.79173755  1
  O  O10  1  0.26484116  0.87827328  0.29173755  1
  O  O11  1  0.23561455  0.12910737  0.87380376  1
  O  O12  1  0.76484116  0.62172672  0.29173755  1
  O  O13  1  0.26484116  0.37827328  0.20826245  1
  O  O14  1  0.73515884  0.12172672  0.70826245  1
  O  O15  1  0.23515884  0.87827328  0.79173755  1
  O  O16  1  0.19808053  0.37335763  0.54858953  1
  O  O17  1  0.69808053  0.62664237  0.95141047  1
  O  O18  1  0.30191947  0.87335763  0.45141047  1
  O  O19  1  0.80191947  0.12664237  0.04858953  1
  O  O20  1  0.80191947  0.62664237  0.45141047  1
  O  O21  1  0.30191947  0.37335763  0.04858953  1
  O  O22  1  0.69808053  0.12664237  0.54858953  1
  O  O23  1  0.19808053  0.87335763  0.95141047  1
  O  O24  1  0.23561455  0.62910737  0.62619624  1
  O  O25  1  0.73561455  0.37089263  0.87380376  1
  O  O26  1  0.26438545  0.12910737  0.37380376  1
  O  O27  1  0.76438545  0.87089263  0.12619624  1
  O  O28  1  0.76438545  0.37089263  0.37380376  1
  O  O29  1  0.26438545  0.62910737  0.12619624  1
  O  O30  1  0.73561455  0.87089263  0.62619624  1
  O  O31  1  0.76484116  0.12172672  0.20826245  1
  Na  Na32  1  0.10578968  0.32624890  0.82710168  1
  Na  Na33  1  0.60578968  0.67375110  0.67289832  1
  Na  Na34  1  0.39421032  0.82624890  0.17289832  1
  Na  Na35  1  0.89421032  0.17375110  0.32710168  1
  Na  Na36  1  0.89421032  0.67375110  0.17289832  1
  Na  Na37  1  0.39421032  0.32624890  0.32710168  1
  Na  Na38  1  0.60578968  0.17375110  0.82710168  1
  Na  Na39  1  0.10578968  0.82624890  0.67289832  1
  Na  Na40  1  0.10034342  0.57975619  0.74908268  1
  Na  Na41  1  0.60034342  0.42024381  0.75091732  1
  Na  Na42  1  0.39965658  0.07975619  0.25091732  1
  Na  Na43  1  0.89965658  0.92024381  0.24908268  1
  Na  Na44  1  0.89965658  0.42024381  0.25091732  1
  Na  Na45  1  0.39965658  0.57975619  0.24908268  1
  Na  Na46  1  0.60034342  0.92024381  0.74908268  1
  Na  Na47  1  0.10034342  0.07975619  0.75091732  1
  Na  Na48  1  0.08652618  0.16241371  0.50233974  1
  Na  Na49  1  0.58652618  0.83758629  0.99766026  1
  Na  Na50  1  0.41347382  0.66241371  0.49766026  1
  Na  Na51  1  0.91347382  0.33758629  0.00233974  1
  Na  Na52  1  0.91347382  0.83758629  0.49766026  1
  Na  Na53  1  0.41347382  0.16241371  0.00233974  1
  Na  Na54  1  0.58652618  0.33758629  0.50233974  1
  Na  Na55  1  0.08652618  0.66241371  0.99766026  1
  Na  Na56  1  0.91663353  0.30218278  0.63933535  1
  Na  Na57  1  0.41111030  0.44061144  0.93574244  1
  Na  Na58  1  0.58888970  0.05938856  0.43574244  1
  Na  Na59  1  0.08888970  0.94061144  0.06425756  1
  Na  Na60  1  0.08888970  0.44061144  0.43574244  1
  Na  Na61  1  0.58888970  0.55938856  0.06425756  1
  Na  Na62  1  0.41111030  0.94061144  0.56425756  1
  Na  Na63  1  0.91111030  0.05938856  0.93574244  1
  Na  Na64  1  0.91663353  0.80218278  0.86066465  1
  Na  Na65  1  0.41663353  0.19781722  0.63933535  1
  Na  Na66  1  0.58336647  0.30218278  0.13933535  1
  Na  Na67  1  0.08336647  0.69781722  0.36066465  1
  Na  Na68  1  0.08336647  0.19781722  0.13933535  1
  Na  Na69  1  0.58336647  0.80218278  0.36066465  1
  Na  Na70  1  0.41663353  0.69781722  0.86066465  1
  Na  Na71  1  0.91111030  0.55938856  0.56425756  1
  Al  Al72  1  0.32261592  0.46063340  0.62401628  1
  Al  Al73  1  0.82261592  0.53936660  0.87598372  1
  Al  Al74  1  0.17738408  0.96063340  0.37598372  1
  Al  Al75  1  0.67738408  0.03936660  0.12401628  1
  Al  Al76  1  0.67738408  0.53936660  0.37598372  1
  Al  Al77  1  0.17738408  0.46063340  0.12401628  1
  Al  Al78  1  0.82261592  0.03936660  0.62401628  1
  Al  Al79  1  0.32261592  0.96063340  0.87598372  1
