# generated using pymatgen
data_Lu2O3
_symmetry_space_group_name_H-M   'P 1'
_cell_length_a   8.97613692
_cell_length_b   8.97613693
_cell_length_c   8.97613693
_cell_angle_alpha   109.47122062
_cell_angle_beta   109.47122063
_cell_angle_gamma   109.47122066
_symmetry_Int_Tables_number   1
_chemical_formula_structural   Lu2O3
_chemical_formula_sum   'Lu16 O24'
_cell_volume   556.73242489
_cell_formula_units_Z   8
loop_
 _symmetry_equiv_pos_site_id
 _symmetry_equiv_pos_as_xyz
  1  'x, y, z'
loop_
 _atom_site_type_symbol
 _atom_site_label
 _atom_site_symmetry_multiplicity
 _atom_site_fract_x
 _atom_site_fract_y
 _atom_site_fract_z
 _atom_site_occupancy
  O  O0  1  0.03261592  0.48885290  0.76120407  1
  O  O1  1  0.22764884  0.27141185  0.73879593  1
  O  O2  1  0.27235116  0.01114710  0.04376301  1
  O  O3  1  0.22858815  0.45623699  0.46738408  1
  O  O4  1  0.45623699  0.46738408  0.22858815  1
  O  O5  1  0.76120407  0.03261592  0.48885290  1
  O  O6  1  0.27141185  0.73879593  0.22764884  1
  O  O7  1  0.04376301  0.27235116  0.01114710  1
  O  O8  1  0.48885290  0.76120407  0.03261592  1
  O  O9  1  0.73879593  0.22764884  0.27141185  1
  O  O10  1  0.01114710  0.04376301  0.27235116  1
  O  O11  1  0.46738408  0.22858815  0.45623699  1
  O  O12  1  0.96738408  0.51114710  0.23879593  1
  O  O13  1  0.77235116  0.72858815  0.26120407  1
  O  O14  1  0.72764884  0.98885290  0.95623699  1
  O  O15  1  0.77141185  0.54376301  0.53261592  1
  O  O16  1  0.53261592  0.77141185  0.54376301  1
  O  O17  1  0.98885290  0.95623699  0.72764884  1
  O  O18  1  0.26120407  0.77235116  0.72858815  1
  O  O19  1  0.51114710  0.23879593  0.96738408  1
  O  O20  1  0.95623699  0.72764884  0.98885290  1
  O  O21  1  0.72858815  0.26120407  0.77235116  1
  O  O22  1  0.23879593  0.96738408  0.51114710  1
  O  O23  1  0.54376301  0.53261592  0.77141185  1
  Lu  Lu24  1  0.25000000  0.71651054  0.46651054  1
  Lu  Lu25  1  0.03348946  0.75000000  0.78348946  1
  Lu  Lu26  1  0.78348946  0.03348946  0.75000000  1
  Lu  Lu27  1  0.46651054  0.25000000  0.71651054  1
  Lu  Lu28  1  0.71651054  0.46651054  0.25000000  1
  Lu  Lu29  1  0.75000000  0.78348946  0.03348946  1
  Lu  Lu30  1  0.75000000  0.28348946  0.53348946  1
  Lu  Lu31  1  0.96651054  0.25000000  0.21651054  1
  Lu  Lu32  1  0.21651054  0.96651054  0.25000000  1
  Lu  Lu33  1  0.53348946  0.75000000  0.28348946  1
  Lu  Lu34  1  0.28348946  0.53348946  0.75000000  1
  Lu  Lu35  1  0.25000000  0.21651054  0.96651054  1
  Lu  Lu36  1  0.00000000  0.50000000  0.00000000  1
  Lu  Lu37  1  0.50000000  0.00000000  0.00000000  1
  Lu  Lu38  1  0.00000000  0.00000000  0.50000000  1
  Lu  Lu39  1  0.50000000  0.50000000  0.50000000  1
