# generated using pymatgen
data_MgB4O7
_symmetry_space_group_name_H-M   'P 1'
_cell_length_a   8.11913399
_cell_length_b   8.73412628
_cell_length_c   13.89833588
_cell_angle_alpha   90.00000000
_cell_angle_beta   90.00000000
_cell_angle_gamma   90.00000000
_symmetry_Int_Tables_number   1
_chemical_formula_structural   MgB4O7
_chemical_formula_sum   'Mg8 B32 O56'
_cell_volume   985.58021894
_cell_formula_units_Z   8
loop_
 _symmetry_equiv_pos_site_id
 _symmetry_equiv_pos_as_xyz
  1  'x, y, z'
loop_
 _atom_site_type_symbol
 _atom_site_label
 _atom_site_symmetry_multiplicity
 _atom_site_fract_x
 _atom_site_fract_y
 _atom_site_fract_z
 _atom_site_occupancy
  B  B0  1  0.17737937  0.13699969  0.46511366  1
  B  B1  1  0.67737937  0.36300031  0.53488634  1
  B  B2  1  0.82262063  0.63699969  0.03488634  1
  B  B3  1  0.32262063  0.86300031  0.96511366  1
  B  B4  1  0.82262063  0.86300031  0.53488634  1
  B  B5  1  0.32262063  0.63699969  0.46511366  1
  B  B6  1  0.17737937  0.36300031  0.96511366  1
  B  B7  1  0.67737937  0.13699969  0.03488634  1
  B  B8  1  0.98393663  0.07641988  0.33394621  1
  B  B9  1  0.48393663  0.42358012  0.66605379  1
  B  B10  1  0.01606337  0.57641988  0.16605379  1
  B  B11  1  0.51606337  0.92358012  0.83394621  1
  B  B12  1  0.01606337  0.92358012  0.66605379  1
  B  B13  1  0.51606337  0.57641988  0.33394621  1
  B  B14  1  0.98393663  0.42358012  0.83394621  1
  B  B15  1  0.48393663  0.07641988  0.16605379  1
  B  B16  1  0.03635376  0.33742181  0.26454864  1
  B  B17  1  0.53635376  0.16257819  0.73545136  1
  B  B18  1  0.96364624  0.83742181  0.23545136  1
  B  B19  1  0.46364624  0.66257819  0.76454864  1
  B  B20  1  0.96364624  0.66257819  0.73545136  1
  B  B21  1  0.46364624  0.83742181  0.26454864  1
  B  B22  1  0.03635376  0.16257819  0.76454864  1
  B  B23  1  0.53635376  0.33742181  0.23545136  1
  B  B24  1  0.93101766  0.29634216  0.43279981  1
  B  B25  1  0.43101766  0.20365784  0.56720019  1
  B  B26  1  0.06898234  0.79634216  0.06720019  1
  B  B27  1  0.56898234  0.70365784  0.93279981  1
  B  B28  1  0.06898234  0.70365784  0.56720019  1
  B  B29  1  0.56898234  0.79634216  0.43279981  1
  B  B30  1  0.93101766  0.20365784  0.93279981  1
  B  B31  1  0.43101766  0.29634216  0.06720019  1
  O  O32  1  0.13510221  0.05068192  0.38848586  1
  O  O33  1  0.63510221  0.44931808  0.61151414  1
  O  O34  1  0.86489779  0.55068192  0.11151414  1
  O  O35  1  0.36489779  0.94931808  0.88848586  1
  O  O36  1  0.86489779  0.94931808  0.61151414  1
  O  O37  1  0.36489779  0.55068192  0.38848586  1
  O  O38  1  0.13510221  0.44931808  0.88848586  1
  O  O39  1  0.63510221  0.05068192  0.11151414  1
  O  O40  1  0.07696812  0.25776486  0.49622293  1
  O  O41  1  0.57696812  0.24223514  0.50377707  1
  O  O42  1  0.92303188  0.75776486  0.00377707  1
  O  O43  1  0.42303188  0.74223514  0.99622293  1
  O  O44  1  0.92303188  0.74223514  0.50377707  1
  O  O45  1  0.42303188  0.75776486  0.49622293  1
  O  O46  1  0.07696812  0.24223514  0.99622293  1
  O  O47  1  0.57696812  0.25776486  0.00377707  1
  O  O48  1  0.03274853  0.18054720  0.24718091  1
  O  O49  1  0.53274853  0.31945280  0.75281909  1
  O  O50  1  0.96725147  0.68054720  0.25281909  1
  O  O51  1  0.46725147  0.81945280  0.74718091  1
  O  O52  1  0.96725147  0.81945280  0.75281909  1
  O  O53  1  0.46725147  0.68054720  0.24718091  1
  O  O54  1  0.03274853  0.31945280  0.74718091  1
  O  O55  1  0.53274853  0.18054720  0.25281909  1
  O  O56  1  0.98805653  0.39758516  0.35244667  1
  O  O57  1  0.48805653  0.10241484  0.64755333  1
  O  O58  1  0.01194347  0.89758516  0.14755333  1
  O  O59  1  0.51194347  0.60241484  0.85244667  1
  O  O60  1  0.01194347  0.60241484  0.64755333  1
  O  O61  1  0.51194347  0.89758516  0.35244667  1
  O  O62  1  0.98805653  0.10241484  0.85244667  1
  O  O63  1  0.48805653  0.39758516  0.14755333  1
  O  O64  1  0.82407192  0.39582743  0.48828272  1
  O  O65  1  0.32407192  0.10417257  0.51171728  1
  O  O66  1  0.17592808  0.89582743  0.01171728  1
  O  O67  1  0.67592808  0.60417257  0.98828272  1
  O  O68  1  0.17592808  0.60417257  0.51171728  1
  O  O69  1  0.67592808  0.89582743  0.48828272  1
  O  O70  1  0.82407192  0.10417257  0.98828272  1
  O  O71  1  0.32407192  0.39582743  0.01171728  1
  O  O72  1  0.85976689  0.15939062  0.39181236  1
  O  O73  1  0.35976689  0.34060938  0.60818764  1
  O  O74  1  0.14023311  0.65939062  0.10818764  1
  O  O75  1  0.64023311  0.84060938  0.89181236  1
  O  O76  1  0.14023311  0.84060938  0.60818764  1
  O  O77  1  0.64023311  0.65939062  0.39181236  1
  O  O78  1  0.85976689  0.34060938  0.89181236  1
  O  O79  1  0.35976689  0.15939062  0.10818764  1
  O  O80  1  0.58883280  0.43299699  0.30589701  1
  O  O81  1  0.08883280  0.06700301  0.69410299  1
  O  O82  1  0.41116720  0.93299699  0.19410299  1
  O  O83  1  0.91116720  0.56700301  0.80589701  1
  O  O84  1  0.41116720  0.56700301  0.69410299  1
  O  O85  1  0.91116720  0.93299699  0.30589701  1
  O  O86  1  0.58883280  0.06700301  0.80589701  1
  O  O87  1  0.08883280  0.43299699  0.19410299  1
  Mg  Mg88  1  0.62094593  0.10169981  0.38747098  1
  Mg  Mg89  1  0.12094593  0.39830019  0.61252902  1
  Mg  Mg90  1  0.37905407  0.60169981  0.11252902  1
  Mg  Mg91  1  0.87905407  0.89830019  0.88747098  1
  Mg  Mg92  1  0.37905407  0.89830019  0.61252902  1
  Mg  Mg93  1  0.87905407  0.60169981  0.38747098  1
  Mg  Mg94  1  0.62094593  0.39830019  0.88747098  1
  Mg  Mg95  1  0.12094593  0.10169981  0.11252902  1
