# generated using pymatgen
data_NaCaPO4
_symmetry_space_group_name_H-M   'P 1'
_cell_length_a   5.47906114
_cell_length_b   9.20626022
_cell_length_c   20.65820037
_cell_angle_alpha   90.00000000
_cell_angle_beta   90.00000000
_cell_angle_gamma   90.00000000
_symmetry_Int_Tables_number   1
_chemical_formula_structural   NaCaPO4
_chemical_formula_sum   'Na12 Ca12 P12 O48'
_cell_volume   1042.03397332
_cell_formula_units_Z   12
loop_
 _symmetry_equiv_pos_site_id
 _symmetry_equiv_pos_as_xyz
  1  'x, y, z'
loop_
 _atom_site_type_symbol
 _atom_site_label
 _atom_site_symmetry_multiplicity
 _atom_site_fract_x
 _atom_site_fract_y
 _atom_site_fract_z
 _atom_site_occupancy
  O  O0  1  0.05486433  0.19414054  0.41858370  1
  O  O1  1  0.55486433  0.80585946  0.58141630  1
  O  O2  1  0.05486433  0.30585946  0.91858370  1
  O  O3  1  0.55486433  0.69414054  0.08141630  1
  O  O4  1  0.51153399  0.15944195  0.39623829  1
  O  O5  1  0.01153399  0.84055805  0.60376171  1
  O  O6  1  0.51153399  0.34055805  0.89623829  1
  O  O7  1  0.01153399  0.65944195  0.10376171  1
  O  O8  1  0.21974811  0.94378364  0.38994143  1
  O  O9  1  0.71974811  0.05621636  0.61005857  1
  O  O10  1  0.21974811  0.55621636  0.88994143  1
  O  O11  1  0.71974811  0.44378364  0.11005857  1
  O  O12  1  0.33398788  0.05754667  0.49744019  1
  O  O13  1  0.83398788  0.94245333  0.50255981  1
  O  O14  1  0.33398788  0.44245333  0.99744019  1
  O  O15  1  0.83398788  0.55754667  0.00255981  1
  O  O16  1  0.03767867  0.35222108  0.22718038  1
  O  O17  1  0.53767867  0.64777892  0.77281962  1
  O  O18  1  0.03767867  0.14777892  0.72718038  1
  O  O19  1  0.53767867  0.85222108  0.27281962  1
  O  O20  1  0.48663878  0.16780947  0.07878355  1
  O  O21  1  0.49088266  0.30844930  0.24838384  1
  O  O22  1  0.49088266  0.19155070  0.74838384  1
  O  O23  1  0.99088266  0.80844930  0.25161616  1
  O  O24  1  0.33471945  0.56466335  0.22480807  1
  O  O25  1  0.83471945  0.43533665  0.77519193  1
  O  O26  1  0.33471945  0.93533665  0.72480807  1
  O  O27  1  0.83471945  0.06466335  0.27519193  1
  O  O28  1  0.21839999  0.44164512  0.33032583  1
  O  O29  1  0.71839999  0.55835488  0.66967417  1
  O  O30  1  0.21839999  0.05835488  0.83032583  1
  O  O31  1  0.71839999  0.94164512  0.16967417  1
  O  O32  1  0.02370932  0.18799832  0.07341423  1
  O  O33  1  0.52370932  0.81200168  0.92658577  1
  O  O34  1  0.02370932  0.31200168  0.57341423  1
  O  O35  1  0.52370932  0.68799832  0.42658577  1
  O  O36  1  0.71918196  0.55186444  0.33471353  1
  O  O37  1  0.21918196  0.44813556  0.66528647  1
  O  O38  1  0.71918196  0.94813556  0.83471353  1
  O  O39  1  0.21918196  0.05186444  0.16528647  1
  O  O40  1  0.73140133  0.44397973  0.44733100  1
  O  O41  1  0.23140133  0.55602027  0.55266900  1
  O  O42  1  0.73140133  0.05602027  0.94733100  1
  O  O43  1  0.23140133  0.94397973  0.05266900  1
  O  O44  1  0.98663878  0.66780947  0.42121645  1
  O  O45  1  0.48663878  0.33219053  0.57878355  1
  O  O46  1  0.98663878  0.83219053  0.92121645  1
  O  O47  1  0.99088266  0.69155070  0.75161616  1
  Na  Na48  1  0.28356912  0.42795262  0.77623089  1
  Na  Na49  1  0.73779234  0.93616246  0.05736648  1
  Na  Na50  1  0.23779234  0.06383754  0.94263352  1
  Na  Na51  1  0.73779234  0.56383754  0.55736648  1
  Na  Na52  1  0.23779234  0.43616246  0.44263352  1
  Na  Na53  1  0.78356912  0.57204738  0.22376911  1
  Na  Na54  1  0.78356912  0.92795262  0.72376911  1
  Na  Na55  1  0.28356912  0.07204738  0.27623089  1
  Na  Na56  1  0.76794916  0.92456373  0.39180903  1
  Na  Na57  1  0.26794916  0.07543627  0.60819097  1
  Na  Na58  1  0.76794916  0.57543627  0.89180903  1
  Na  Na59  1  0.26794916  0.42456373  0.10819097  1
  P  P60  1  0.27630389  0.08913611  0.42533106  1
  P  P61  1  0.24164642  0.41219717  0.59256438  1
  P  P62  1  0.74164642  0.91219717  0.90743562  1
  P  P63  1  0.24164642  0.08780283  0.09256438  1
  P  P64  1  0.77434664  0.91626449  0.24219876  1
  P  P65  1  0.27434664  0.08373551  0.75780124  1
  P  P66  1  0.74164642  0.58780283  0.40743562  1
  P  P67  1  0.77434664  0.58373551  0.74219876  1
  P  P68  1  0.27434664  0.41626449  0.25780124  1
  P  P69  1  0.77630389  0.58913611  0.07466894  1
  P  P70  1  0.27630389  0.41086389  0.92533106  1
  P  P71  1  0.77630389  0.91086389  0.57466894  1
  Ca  Ca72  1  0.29449983  0.79620001  0.16518968  1
  Ca  Ca73  1  0.79449983  0.20379999  0.83481032  1
  Ca  Ca74  1  0.29449983  0.70379999  0.66518968  1
  Ca  Ca75  1  0.79449983  0.29620001  0.33481032  1
  Ca  Ca76  1  0.27200658  0.70522796  0.33118709  1
  Ca  Ca77  1  0.77200658  0.29477204  0.66881291  1
  Ca  Ca78  1  0.27200658  0.79477204  0.83118709  1
  Ca  Ca79  1  0.77200658  0.20522796  0.16881291  1
  Ca  Ca80  1  0.23583957  0.79885037  0.49788762  1
  Ca  Ca81  1  0.73583957  0.20114963  0.50211238  1
  Ca  Ca82  1  0.23583957  0.70114963  0.99788762  1
  Ca  Ca83  1  0.73583957  0.29885037  0.00211238  1
