# generated using pymatgen
data_CsNaSnF6
_symmetry_space_group_name_H-M   'P 1'
_cell_length_a   8.52461027
_cell_length_b   11.42353910
_cell_length_c   13.61486466
_cell_angle_alpha   90.00000000
_cell_angle_beta   90.00000000
_cell_angle_gamma   90.00000000
_symmetry_Int_Tables_number   1
_chemical_formula_structural   CsNaSnF6
_chemical_formula_sum   'Cs8 Na8 Sn8 F48'
_cell_volume   1325.83211346
_cell_formula_units_Z   8
loop_
 _symmetry_equiv_pos_site_id
 _symmetry_equiv_pos_as_xyz
  1  'x, y, z'
loop_
 _atom_site_type_symbol
 _atom_site_label
 _atom_site_symmetry_multiplicity
 _atom_site_fract_x
 _atom_site_fract_y
 _atom_site_fract_z
 _atom_site_occupancy
  F  F0  1  0.28052699  0.87832409  0.27862147  1
  F  F1  1  0.78052699  0.12167591  0.22137853  1
  F  F2  1  0.21947301  0.37832409  0.22137853  1
  F  F3  1  0.71947301  0.62167591  0.27862147  1
  F  F4  1  0.71947301  0.12167591  0.72137853  1
  F  F5  1  0.21947301  0.87832409  0.77862147  1
  F  F6  1  0.78052699  0.62167591  0.77862147  1
  F  F7  1  0.28052699  0.37832409  0.72137853  1
  F  F8  1  0.20653308  0.97768863  0.99969451  1
  F  F9  1  0.70653308  0.02231137  0.50030549  1
  F  F10  1  0.29346692  0.47768863  0.50030549  1
  F  F11  1  0.79346692  0.52231137  0.99969451  1
  F  F12  1  0.79346692  0.02231137  0.00030549  1
  F  F13  1  0.29346692  0.97768863  0.49969451  1
  F  F14  1  0.70653308  0.52231137  0.49969451  1
  F  F15  1  0.20653308  0.47768863  0.00030549  1
  F  F16  1  0.02099795  0.89085977  0.15330565  1
  F  F17  1  0.47873626  0.95790016  0.12083306  1
  F  F18  1  0.52099795  0.10914023  0.34669435  1
  F  F19  1  0.97900205  0.60914023  0.15330565  1
  F  F20  1  0.97900205  0.10914023  0.84669435  1
  F  F21  1  0.47900205  0.89085977  0.65330565  1
  F  F22  1  0.52099795  0.60914023  0.65330565  1
  F  F23  1  0.02099795  0.39085977  0.84669435  1
  F  F24  1  0.21771887  0.76105946  0.58431949  1
  F  F25  1  0.71771887  0.23894054  0.91568051  1
  F  F26  1  0.28228113  0.26105946  0.91568051  1
  F  F27  1  0.78228113  0.73894054  0.58431949  1
  F  F28  1  0.78228113  0.23894054  0.41568051  1
  F  F29  1  0.28228113  0.76105946  0.08431949  1
  F  F30  1  0.71771887  0.73894054  0.08431949  1
  F  F31  1  0.21771887  0.26105946  0.41568051  1
  F  F32  1  0.22280749  0.59003760  0.81437721  1
  F  F33  1  0.72280749  0.40996240  0.68562279  1
  F  F34  1  0.27719251  0.09003760  0.68562279  1
  F  F35  1  0.77719251  0.90996240  0.81437721  1
  F  F36  1  0.77719251  0.40996240  0.18562279  1
  F  F37  1  0.27719251  0.59003760  0.31437721  1
  F  F38  1  0.72280749  0.90996240  0.31437721  1
  F  F39  1  0.22280749  0.09003760  0.18562279  1
  F  F40  1  0.47873626  0.45790016  0.87916694  1
  F  F41  1  0.97873626  0.54209984  0.62083306  1
  F  F42  1  0.02126374  0.95790016  0.62083306  1
  F  F43  1  0.52126374  0.04209984  0.87916694  1
  F  F44  1  0.52126374  0.54209984  0.12083306  1
  F  F45  1  0.02126374  0.45790016  0.37916694  1
  F  F46  1  0.97873626  0.04209984  0.37916694  1
  F  F47  1  0.47900205  0.39085977  0.34669435  1
  Na  Na48  1  0.74743519  0.42660833  0.85688798  1
  Na  Na49  1  0.24743519  0.57339167  0.64311202  1
  Na  Na50  1  0.75256481  0.92660833  0.64311202  1
  Na  Na51  1  0.25256481  0.07339167  0.85688798  1
  Na  Na52  1  0.25256481  0.57339167  0.14311202  1
  Na  Na53  1  0.75256481  0.42660833  0.35688798  1
  Na  Na54  1  0.24743519  0.07339167  0.35688798  1
  Na  Na55  1  0.74743519  0.92660833  0.14311202  1
  Sn  Sn56  1  0.25032103  0.42391037  0.86286760  1
  Sn  Sn57  1  0.74967897  0.07608963  0.86286760  1
  Sn  Sn58  1  0.24967897  0.92391037  0.63713240  1
  Sn  Sn59  1  0.24967897  0.42391037  0.36286760  1
  Sn  Sn60  1  0.75032103  0.07608963  0.36286760  1
  Sn  Sn61  1  0.74967897  0.57608963  0.13713240  1
  Sn  Sn62  1  0.25032103  0.92391037  0.13713240  1
  Sn  Sn63  1  0.75032103  0.57608963  0.63713240  1
  Cs  Cs64  1  0.50000000  0.75000000  0.88444333  1
  Cs  Cs65  1  0.00000000  0.25000000  0.61555667  1
  Cs  Cs66  1  0.50000000  0.25000000  0.11555667  1
  Cs  Cs67  1  0.00000000  0.75000000  0.92674249  1
  Cs  Cs68  1  0.50000000  0.25000000  0.57325751  1
  Cs  Cs69  1  0.00000000  0.25000000  0.07325751  1
  Cs  Cs70  1  0.50000000  0.75000000  0.42674249  1
  Cs  Cs71  1  0.00000000  0.75000000  0.38444333  1
