# generated using pymatgen
data_Sr(GaS2)2
_symmetry_space_group_name_H-M   'P 1'
_cell_length_a   12.07438044
_cell_length_b   12.07438043
_cell_length_c   12.28191355
_cell_angle_alpha   104.88454616
_cell_angle_beta   104.88454617
_cell_angle_gamma   118.51739550
_symmetry_Int_Tables_number   1
_chemical_formula_structural   Sr(GaS2)2
_chemical_formula_sum   'Sr8 Ga16 S32'
_cell_volume   1360.25095439
_cell_formula_units_Z   8
loop_
 _symmetry_equiv_pos_site_id
 _symmetry_equiv_pos_as_xyz
  1  'x, y, z'
loop_
 _atom_site_type_symbol
 _atom_site_label
 _atom_site_symmetry_multiplicity
 _atom_site_fract_x
 _atom_site_fract_y
 _atom_site_fract_z
 _atom_site_occupancy
  S  S0  1  0.81056744  0.15582464  0.99794868  1
  S  S1  1  0.15787596  0.31261876  0.50205132  1
  S  S2  1  0.84417536  0.18943256  0.50205132  1
  S  S3  1  0.68738124  0.84212404  0.99794868  1
  S  S4  1  0.18943256  0.84417536  0.00205132  1
  S  S5  1  0.84212404  0.68738124  0.49794868  1
  S  S6  1  0.15582464  0.81056744  0.49794868  1
  S  S7  1  0.31261876  0.15787596  0.00205132  1
  S  S8  1  0.14991720  0.34081761  0.00176206  1
  S  S9  1  0.33905555  0.64815514  0.49823794  1
  S  S10  1  0.65918239  0.85008280  0.49823794  1
  S  S11  1  0.35184486  0.66094445  0.00176206  1
  S  S12  1  0.85008280  0.65918239  0.99823794  1
  S  S13  1  0.66094445  0.35184486  0.50176206  1
  S  S14  1  0.34081761  0.14991720  0.50176206  1
  S  S15  1  0.64815514  0.33905555  0.99823794  1
  S  S16  1  0.58070465  0.08079412  0.66367702  1
  S  S17  1  0.41711710  0.41702763  0.83632298  1
  S  S18  1  0.91920588  0.41929535  0.83632298  1
  S  S19  1  0.58297237  0.58288290  0.66367702  1
  S  S20  1  0.41929535  0.91920588  0.33632298  1
  S  S21  1  0.58288290  0.58297237  0.16367702  1
  S  S22  1  0.08079412  0.58070465  0.16367702  1
  S  S23  1  0.41702763  0.41711710  0.33632298  1
  S  S24  1  0.91709377  0.41760014  0.33690696  1
  S  S25  1  0.08069318  0.08018681  0.16309304  1
  S  S26  1  0.58239986  0.08290623  0.16309304  1
  S  S27  1  0.91981319  0.91930682  0.33690696  1
  S  S28  1  0.08290623  0.58239986  0.66309304  1
  S  S29  1  0.91930682  0.91981319  0.83690696  1
  S  S30  1  0.41760014  0.91709377  0.83690696  1
  S  S31  1  0.08018681  0.08069318  0.66309304  1
  Ga  Ga32  1  0.88934322  0.86302608  0.99907551  1
  Ga  Ga33  1  0.86395057  0.39026771  0.50092449  1
  Ga  Ga34  1  0.13697392  0.11065678  0.50092449  1
  Ga  Ga35  1  0.60973229  0.13604943  0.99907551  1
  Ga  Ga36  1  0.11065678  0.13697392  0.00092449  1
  Ga  Ga37  1  0.13604943  0.60973229  0.49907551  1
  Ga  Ga38  1  0.86302608  0.88934322  0.49907551  1
  Ga  Ga39  1  0.39026771  0.86395057  0.00092449  1
  Ga  Ga40  1  0.53244092  0.63945741  0.99953008  1
  Ga  Ga41  1  0.63992734  0.03291085  0.50046992  1
  Ga  Ga42  1  0.36054259  0.46755908  0.50046992  1
  Ga  Ga43  1  0.96708915  0.36007266  0.99953008  1
  Ga  Ga44  1  0.46755908  0.36054259  0.00046992  1
  Ga  Ga45  1  0.36007266  0.96708915  0.49953008  1
  Ga  Ga46  1  0.63945741  0.53244092  0.49953008  1
  Ga  Ga47  1  0.03291085  0.63992734  0.00046992  1
  Sr  Sr48  1  0.87333747  0.62333747  0.24667494  1
  Sr  Sr49  1  0.37666253  0.12666253  0.25332506  1
  Sr  Sr50  1  0.12666253  0.37666253  0.75332506  1
  Sr  Sr51  1  0.62333747  0.87333747  0.74667494  1
  Sr  Sr52  1  0.62500000  0.37500000  0.75000000  1
  Sr  Sr53  1  0.37500000  0.62500000  0.25000000  1
  Sr  Sr54  1  0.12500000  0.87500000  0.75000000  1
  Sr  Sr55  1  0.87500000  0.12500000  0.25000000  1
