# generated using pymatgen
data_KNa4GaO4
_symmetry_space_group_name_H-M   'P 1'
_cell_length_a   6.03818469
_cell_length_b   10.66154191
_cell_length_c   18.91911015
_cell_angle_alpha   90.00000000
_cell_angle_beta   90.00000000
_cell_angle_gamma   90.00000000
_symmetry_Int_Tables_number   1
_chemical_formula_structural   KNa4GaO4
_chemical_formula_sum   'K8 Na32 Ga8 O32'
_cell_volume   1217.94342949
_cell_formula_units_Z   8
loop_
 _symmetry_equiv_pos_site_id
 _symmetry_equiv_pos_as_xyz
  1  'x, y, z'
loop_
 _atom_site_type_symbol
 _atom_site_label
 _atom_site_symmetry_multiplicity
 _atom_site_fract_x
 _atom_site_fract_y
 _atom_site_fract_z
 _atom_site_occupancy
  O  O0  1  0.29088942  0.12904210  0.70953285  1
  O  O1  1  0.79088942  0.87095790  0.79046715  1
  O  O2  1  0.20911058  0.62904210  0.29046715  1
  O  O3  1  0.70911058  0.37095790  0.20953285  1
  O  O4  1  0.70911058  0.87095790  0.29046715  1
  O  O5  1  0.20911058  0.12904210  0.20953285  1
  O  O6  1  0.79088942  0.37095790  0.70953285  1
  O  O7  1  0.29088942  0.62904210  0.79046715  1
  O  O8  1  0.70168911  0.63216801  0.13600224  1
  O  O9  1  0.20168911  0.36783199  0.36399776  1
  O  O10  1  0.20168911  0.86783199  0.13600224  1
  O  O11  1  0.70168911  0.13216801  0.36399776  1
  O  O12  1  0.29831089  0.36783199  0.86399776  1
  O  O13  1  0.79831089  0.63216801  0.63600224  1
  O  O14  1  0.38770285  0.46427164  0.62601223  1
  O  O15  1  0.88770285  0.53572836  0.87398777  1
  O  O16  1  0.11229715  0.96427164  0.37398777  1
  O  O17  1  0.61229715  0.03572836  0.12601223  1
  O  O18  1  0.61229715  0.53572836  0.37398777  1
  O  O19  1  0.11229715  0.46427164  0.12601223  1
  O  O20  1  0.79831089  0.13216801  0.86399776  1
  O  O21  1  0.88770285  0.03572836  0.62601223  1
  O  O22  1  0.38770285  0.96427164  0.87398777  1
  O  O23  1  0.33400125  0.61421679  0.95070345  1
  O  O24  1  0.83400125  0.38578321  0.54929655  1
  O  O25  1  0.16599875  0.11421679  0.04929655  1
  O  O26  1  0.66599875  0.88578321  0.45070345  1
  O  O27  1  0.66599875  0.38578321  0.04929655  1
  O  O28  1  0.16599875  0.61421679  0.45070345  1
  O  O29  1  0.83400125  0.88578321  0.95070345  1
  O  O30  1  0.33400125  0.11421679  0.54929655  1
  O  O31  1  0.29831089  0.86783199  0.63600224  1
  Na  Na32  1  0.43895924  0.92967668  0.74691710  1
  Na  Na33  1  0.93895924  0.07032332  0.75308290  1
  Na  Na34  1  0.06104076  0.42967668  0.25308290  1
  Na  Na35  1  0.56104076  0.57032332  0.24691710  1
  Na  Na36  1  0.56104076  0.07032332  0.25308290  1
  Na  Na37  1  0.06104076  0.92967668  0.24691710  1
  Na  Na38  1  0.93895924  0.57032332  0.74691710  1
  Na  Na39  1  0.43895924  0.42967668  0.75308290  1
  Na  Na40  1  0.42254070  0.67629300  0.67755934  1
  Na  Na41  1  0.57745930  0.82370700  0.17755934  1
  Na  Na42  1  0.07745930  0.17629300  0.32244066  1
  Na  Na43  1  0.07745930  0.67629300  0.17755934  1
  Na  Na44  1  0.57745930  0.32370700  0.32244066  1
  Na  Na45  1  0.42254070  0.17629300  0.82244066  1
  Na  Na46  1  0.92254070  0.82370700  0.67755934  1
  Na  Na47  1  0.61056603  0.19474756  0.64681604  1
  Na  Na48  1  0.11056603  0.80525244  0.85318396  1
  Na  Na49  1  0.88943397  0.69474756  0.35318396  1
  Na  Na50  1  0.38943397  0.80525244  0.35318396  1
  Na  Na51  1  0.88943397  0.19474756  0.14681604  1
  Na  Na52  1  0.11056603  0.30525244  0.64681604  1
  Na  Na53  1  0.61056603  0.69474756  0.85318396  1
  Na  Na54  1  0.90429499  0.44545523  0.43327324  1
  Na  Na55  1  0.40429499  0.55454477  0.06672676  1
  Na  Na56  1  0.59570501  0.94545523  0.56672676  1
  Na  Na57  1  0.09570501  0.05454477  0.93327324  1
  Na  Na58  1  0.09570501  0.55454477  0.56672676  1
  Na  Na59  1  0.59570501  0.44545523  0.93327324  1
  Na  Na60  1  0.40429499  0.05454477  0.43327324  1
  Na  Na61  1  0.90429499  0.94545523  0.06672676  1
  Na  Na62  1  0.92254070  0.32370700  0.82244066  1
  Na  Na63  1  0.38943397  0.30525244  0.14681604  1
  K  K64  1  0.40973440  0.34239891  0.49764654  1
  K  K65  1  0.90973440  0.65760109  0.00235346  1
  K  K66  1  0.09026560  0.84239891  0.50235346  1
  K  K67  1  0.59026560  0.15760109  0.99764654  1
  K  K68  1  0.59026560  0.65760109  0.50235346  1
  K  K69  1  0.09026560  0.34239891  0.99764654  1
  K  K70  1  0.90973440  0.15760109  0.49764654  1
  K  K71  1  0.40973440  0.84239891  0.00235346  1
  Ga  Ga72  1  0.69979248  0.46262533  0.62813239  1
  Ga  Ga73  1  0.19979248  0.53737467  0.87186761  1
  Ga  Ga74  1  0.80020752  0.96262533  0.37186761  1
  Ga  Ga75  1  0.30020752  0.03737467  0.12813239  1
  Ga  Ga76  1  0.30020752  0.53737467  0.37186761  1
  Ga  Ga77  1  0.80020752  0.46262533  0.12813239  1
  Ga  Ga78  1  0.19979248  0.03737467  0.62813239  1
  Ga  Ga79  1  0.69979248  0.96262533  0.87186761  1
