# generated using pymatgen
data_Na3Li3Ti2F12
_symmetry_space_group_name_H-M   'P 1'
_cell_length_a   10.95541133
_cell_length_b   10.95541133
_cell_length_c   10.95541133
_cell_angle_alpha   109.47122065
_cell_angle_beta   109.47122066
_cell_angle_gamma   109.47122063
_symmetry_Int_Tables_number   1
_chemical_formula_structural   Na3Li3Ti2F12
_chemical_formula_sum   'Na12 Li12 Ti8 F48'
_cell_volume   1012.19496642
_cell_formula_units_Z   4
loop_
 _symmetry_equiv_pos_site_id
 _symmetry_equiv_pos_as_xyz
  1  'x, y, z'
loop_
 _atom_site_type_symbol
 _atom_site_label
 _atom_site_symmetry_multiplicity
 _atom_site_fract_x
 _atom_site_fract_y
 _atom_site_fract_z
 _atom_site_occupancy
  Li  Li0  1  0.25000000  0.62500000  0.37500000  1
  Li  Li1  1  0.87500000  0.25000000  0.12500000  1
  Li  Li2  1  0.12500000  0.75000000  0.87500000  1
  Li  Li3  1  0.87500000  0.12500000  0.75000000  1
  Li  Li4  1  0.62500000  0.37500000  0.25000000  1
  Li  Li5  1  0.75000000  0.87500000  0.12500000  1
  Li  Li6  1  0.12500000  0.87500000  0.25000000  1
  Li  Li7  1  0.37500000  0.62500000  0.75000000  1
  Li  Li8  1  0.62500000  0.75000000  0.37500000  1
  Li  Li9  1  0.75000000  0.37500000  0.62500000  1
  Li  Li10  1  0.25000000  0.12500000  0.87500000  1
  Li  Li11  1  0.37500000  0.25000000  0.62500000  1
  F  F12  1  0.80375127  0.42187933  0.82404881  1
  F  F13  1  0.52029754  0.40216948  0.82404881  1
  F  F14  1  0.67595119  0.07812067  0.69624873  1
  F  F15  1  0.42187933  0.09783052  0.61812806  1
  F  F16  1  0.82404881  0.52029754  0.40216948  1
  F  F17  1  0.40216948  0.07812067  0.88187194  1
  F  F18  1  0.09783052  0.97970246  0.67595119  1
  F  F19  1  0.42187933  0.82404881  0.80375127  1
  F  F20  1  0.07812067  0.69624873  0.67595119  1
  F  F21  1  0.97970246  0.80375127  0.88187194  1
  F  F22  1  0.88187194  0.97970246  0.80375127  1
  F  F23  1  0.40216948  0.82404881  0.52029754  1
  F  F24  1  0.61812806  0.69624873  0.52029754  1
  F  F25  1  0.09783052  0.61812806  0.42187933  1
  F  F26  1  0.52029754  0.61812806  0.69624873  1
  F  F27  1  0.69624873  0.67595119  0.07812067  1
  F  F28  1  0.69624873  0.52029754  0.61812806  1
  F  F29  1  0.61812806  0.42187933  0.09783052  1
  F  F30  1  0.67595119  0.09783052  0.97970246  1
  F  F31  1  0.07812067  0.88187194  0.40216948  1
  F  F32  1  0.19624873  0.11812806  0.02029754  1
  F  F33  1  0.11812806  0.59783052  0.92187933  1
  F  F34  1  0.17595119  0.19624873  0.57812067  1
  F  F35  1  0.57812067  0.17595119  0.19624873  1
  F  F36  1  0.02029754  0.32404881  0.90216948  1
  F  F37  1  0.90216948  0.02029754  0.32404881  1
  F  F38  1  0.59783052  0.92187933  0.11812806  1
  F  F39  1  0.17595119  0.47970246  0.59783052  1
  F  F40  1  0.57812067  0.90216948  0.38187194  1
  F  F41  1  0.32404881  0.92187933  0.30375127  1
  F  F42  1  0.47970246  0.59783052  0.17595119  1
  F  F43  1  0.38187194  0.57812067  0.90216948  1
  F  F44  1  0.92187933  0.30375127  0.32404881  1
  F  F45  1  0.02029754  0.19624873  0.11812806  1
  F  F46  1  0.11812806  0.02029754  0.19624873  1
  F  F47  1  0.59783052  0.17595119  0.47970246  1
  F  F48  1  0.38187194  0.30375127  0.47970246  1
  F  F49  1  0.90216948  0.38187194  0.57812067  1
  F  F50  1  0.47970246  0.38187194  0.30375127  1
  F  F51  1  0.30375127  0.32404881  0.92187933  1
  F  F52  1  0.30375127  0.47970246  0.38187194  1
  F  F53  1  0.32404881  0.90216948  0.02029754  1
  F  F54  1  0.92187933  0.11812806  0.59783052  1
  F  F55  1  0.19624873  0.57812067  0.17595119  1
  F  F56  1  0.80375127  0.88187194  0.97970246  1
  F  F57  1  0.88187194  0.40216948  0.07812067  1
  F  F58  1  0.82404881  0.80375127  0.42187933  1
  F  F59  1  0.97970246  0.67595119  0.09783052  1
  Na  Na60  1  0.62500000  0.87500000  0.75000000  1
  Na  Na61  1  0.87500000  0.62500000  0.25000000  1
  Na  Na62  1  0.62500000  0.25000000  0.87500000  1
  Na  Na63  1  0.25000000  0.87500000  0.62500000  1
  Na  Na64  1  0.75000000  0.62500000  0.87500000  1
  Na  Na65  1  0.87500000  0.75000000  0.62500000  1
  Na  Na66  1  0.37500000  0.12500000  0.25000000  1
  Na  Na67  1  0.12500000  0.37500000  0.75000000  1
  Na  Na68  1  0.37500000  0.75000000  0.12500000  1
  Na  Na69  1  0.75000000  0.12500000  0.37500000  1
  Na  Na70  1  0.12500000  0.25000000  0.37500000  1
  Na  Na71  1  0.25000000  0.37500000  0.12500000  1
  Ti  Ti72  1  0.50000000  0.50000000  0.50000000  1
  Ti  Ti73  1  0.50000000  0.50000000  0.00000000  1
  Ti  Ti74  1  0.50000000  0.00000000  0.50000000  1
  Ti  Ti75  1  0.00000000  0.50000000  0.50000000  1
  Ti  Ti76  1  0.50000000  0.00000000  0.00000000  1
  Ti  Ti77  1  0.00000000  0.00000000  0.50000000  1
  Ti  Ti78  1  0.00000000  0.50000000  0.00000000  1
  Ti  Ti79  1  0.00000000  0.00000000  0.00000000  1
