# generated using pymatgen
data_CsK4GaO4
_symmetry_space_group_name_H-M   'P 1'
_cell_length_a   6.77827592
_cell_length_b   11.74513629
_cell_length_c   21.15704518
_cell_angle_alpha   90.00000000
_cell_angle_beta   90.00000000
_cell_angle_gamma   90.00000000
_symmetry_Int_Tables_number   1
_chemical_formula_structural   CsK4GaO4
_chemical_formula_sum   'Cs8 K32 Ga8 O32'
_cell_volume   1684.34990978
_cell_formula_units_Z   8
loop_
 _symmetry_equiv_pos_site_id
 _symmetry_equiv_pos_as_xyz
  1  'x, y, z'
loop_
 _atom_site_type_symbol
 _atom_site_label
 _atom_site_symmetry_multiplicity
 _atom_site_fract_x
 _atom_site_fract_y
 _atom_site_fract_z
 _atom_site_occupancy
  O  O0  1  0.27642137  0.88269868  0.20281460  1
  O  O1  1  0.77642137  0.11730132  0.29718540  1
  O  O2  1  0.22357863  0.38269868  0.79718540  1
  O  O3  1  0.72357863  0.61730132  0.70281460  1
  O  O4  1  0.72357863  0.11730132  0.79718540  1
  O  O5  1  0.22357863  0.88269868  0.70281460  1
  O  O6  1  0.77642137  0.61730132  0.20281460  1
  O  O7  1  0.27642137  0.38269868  0.29718540  1
  O  O8  1  0.31552393  0.39568798  0.44372599  1
  O  O9  1  0.81552393  0.60431202  0.05627401  1
  O  O10  1  0.81552393  0.10431202  0.44372599  1
  O  O11  1  0.31552393  0.89568798  0.05627401  1
  O  O12  1  0.68447607  0.60431202  0.55627401  1
  O  O13  1  0.18447607  0.39568798  0.94372599  1
  O  O14  1  0.08555001  0.53782855  0.62123941  1
  O  O15  1  0.58555001  0.46217145  0.87876059  1
  O  O16  1  0.41444999  0.03782855  0.37876059  1
  O  O17  1  0.91444999  0.96217145  0.12123941  1
  O  O18  1  0.91444999  0.46217145  0.37876059  1
  O  O19  1  0.41444999  0.53782855  0.12123941  1
  O  O20  1  0.18447607  0.89568798  0.55627401  1
  O  O21  1  0.58555001  0.96217145  0.62123941  1
  O  O22  1  0.08555001  0.03782855  0.87876059  1
  O  O23  1  0.72133732  0.37793885  0.63591836  1
  O  O24  1  0.22133732  0.62206115  0.86408164  1
  O  O25  1  0.77866268  0.87793885  0.36408164  1
  O  O26  1  0.27866268  0.12206115  0.13591836  1
  O  O27  1  0.27866268  0.62206115  0.36408164  1
  O  O28  1  0.77866268  0.37793885  0.13591836  1
  O  O29  1  0.22133732  0.12206115  0.63591836  1
  O  O30  1  0.72133732  0.87793885  0.86408164  1
  O  O31  1  0.68447607  0.10431202  0.94372599  1
  K  K32  1  0.58693505  0.92347387  0.74800913  1
  K  K33  1  0.08693505  0.07652613  0.75199087  1
  K  K34  1  0.91306495  0.42347387  0.25199087  1
  K  K35  1  0.41306495  0.57652613  0.24800913  1
  K  K36  1  0.41306495  0.07652613  0.25199087  1
  K  K37  1  0.91306495  0.92347387  0.24800913  1
  K  K38  1  0.08693505  0.57652613  0.74800913  1
  K  K39  1  0.58693505  0.42347387  0.75199087  1
  K  K40  1  0.40762702  0.94206836  0.93266795  1
  K  K41  1  0.59237298  0.55793164  0.43266795  1
  K  K42  1  0.09237298  0.44206836  0.06733205  1
  K  K43  1  0.09237298  0.94206836  0.43266795  1
  K  K44  1  0.59237298  0.05793164  0.06733205  1
  K  K45  1  0.40762702  0.44206836  0.56733205  1
  K  K46  1  0.90762702  0.55793164  0.93266795  1
  K  K47  1  0.08814187  0.32556011  0.67758878  1
  K  K48  1  0.58814187  0.67443989  0.82241122  1
  K  K49  1  0.41185813  0.82556011  0.32241122  1
  K  K50  1  0.91185813  0.67443989  0.32241122  1
  K  K51  1  0.41185813  0.32556011  0.17758878  1
  K  K52  1  0.58814187  0.17443989  0.67758878  1
  K  K53  1  0.08814187  0.82556011  0.82241122  1
  K  K54  1  0.41018047  0.70276492  0.63977953  1
  K  K55  1  0.91018047  0.29723508  0.86022047  1
  K  K56  1  0.08981953  0.20276492  0.36022047  1
  K  K57  1  0.58981953  0.79723508  0.13977953  1
  K  K58  1  0.58981953  0.29723508  0.36022047  1
  K  K59  1  0.08981953  0.70276492  0.13977953  1
  K  K60  1  0.91018047  0.79723508  0.63977953  1
  K  K61  1  0.41018047  0.20276492  0.86022047  1
  K  K62  1  0.90762702  0.05793164  0.56733205  1
  K  K63  1  0.91185813  0.17443989  0.17758878  1
  Ga  Ga64  1  0.80392229  0.53393230  0.62838077  1
  Ga  Ga65  1  0.30392229  0.46606770  0.87161923  1
  Ga  Ga66  1  0.69607771  0.03393230  0.37161923  1
  Ga  Ga67  1  0.19607771  0.96606770  0.12838077  1
  Ga  Ga68  1  0.19607771  0.46606770  0.37161923  1
  Ga  Ga69  1  0.69607771  0.53393230  0.12838077  1
  Ga  Ga70  1  0.30392229  0.96606770  0.62838077  1
  Ga  Ga71  1  0.80392229  0.03393230  0.87161923  1
  Cs  Cs72  1  0.42196390  0.15465998  0.50185909  1
  Cs  Cs73  1  0.92196390  0.84534002  0.99814091  1
  Cs  Cs74  1  0.07803610  0.65465998  0.49814091  1
  Cs  Cs75  1  0.57803610  0.34534002  0.00185909  1
  Cs  Cs76  1  0.57803610  0.84534002  0.49814091  1
  Cs  Cs77  1  0.07803610  0.15465998  0.00185909  1
  Cs  Cs78  1  0.92196390  0.34534002  0.50185909  1
  Cs  Cs79  1  0.42196390  0.65465998  0.99814091  1
