# generated using pymatgen
data_Ca(GaS2)2
_symmetry_space_group_name_H-M   'P 1'
_cell_length_a   11.83970082
_cell_length_b   11.83970082
_cell_length_c   11.88680356
_cell_angle_alpha   105.40625470
_cell_angle_beta   105.40625470
_cell_angle_gamma   117.81145461
_symmetry_Int_Tables_number   1
_chemical_formula_structural   Ca(GaS2)2
_chemical_formula_sum   'Ca8 Ga16 S32'
_cell_volume   1263.85603656
_cell_formula_units_Z   8
loop_
 _symmetry_equiv_pos_site_id
 _symmetry_equiv_pos_as_xyz
  1  'x, y, z'
loop_
 _atom_site_type_symbol
 _atom_site_label
 _atom_site_symmetry_multiplicity
 _atom_site_fract_x
 _atom_site_fract_y
 _atom_site_fract_z
 _atom_site_occupancy
  S  S0  1  0.81376481  0.15040157  0.99732590  1
  S  S1  1  0.15307567  0.31643892  0.50267410  1
  S  S2  1  0.84959843  0.18623519  0.50267410  1
  S  S3  1  0.68356108  0.84692433  0.99732590  1
  S  S4  1  0.18623519  0.84959843  0.00267410  1
  S  S5  1  0.84692433  0.68356108  0.49732590  1
  S  S6  1  0.15040157  0.81376481  0.49732590  1
  S  S7  1  0.31643892  0.15307567  0.00267410  1
  S  S8  1  0.15730656  0.34567823  0.00249969  1
  S  S9  1  0.34317854  0.65480687  0.49750031  1
  S  S10  1  0.65432177  0.84269344  0.49750031  1
  S  S11  1  0.34519313  0.65682146  0.00249969  1
  S  S12  1  0.84269344  0.65432177  0.99750031  1
  S  S13  1  0.65682146  0.34519313  0.50249969  1
  S  S14  1  0.34567823  0.15730656  0.50249969  1
  S  S15  1  0.65480687  0.34317854  0.99750031  1
  S  S16  1  0.58413552  0.08379490  0.67100331  1
  S  S17  1  0.41279159  0.41313221  0.82899669  1
  S  S18  1  0.91620510  0.41586448  0.82899669  1
  S  S19  1  0.58686779  0.58720841  0.67100331  1
  S  S20  1  0.41586448  0.91620510  0.32899669  1
  S  S21  1  0.58720841  0.58686779  0.17100331  1
  S  S22  1  0.08379490  0.58413552  0.17100331  1
  S  S23  1  0.41313221  0.41279159  0.32899669  1
  S  S24  1  0.91344022  0.41356287  0.32999513  1
  S  S25  1  0.08356774  0.08344509  0.17000487  1
  S  S26  1  0.58643713  0.08655978  0.17000487  1
  S  S27  1  0.91655491  0.91643226  0.32999513  1
  S  S28  1  0.08655978  0.58643713  0.67000487  1
  S  S29  1  0.91643226  0.91655491  0.82999513  1
  S  S30  1  0.41356287  0.91344022  0.82999513  1
  S  S31  1  0.08344509  0.08356774  0.67000487  1
  Ca  Ca32  1  0.87500000  0.12500000  0.25000000  1
  Ca  Ca33  1  0.12500000  0.87500000  0.75000000  1
  Ca  Ca34  1  0.37500000  0.62500000  0.25000000  1
  Ca  Ca35  1  0.62500000  0.37500000  0.75000000  1
  Ca  Ca36  1  0.62281231  0.87281231  0.74562463  1
  Ca  Ca37  1  0.12718769  0.37718769  0.75437537  1
  Ca  Ca38  1  0.37718769  0.12718769  0.25437537  1
  Ca  Ca39  1  0.87281231  0.62281231  0.24562463  1
  Ga  Ga40  1  0.53194920  0.64039125  0.99950138  1
  Ga  Ga41  1  0.64088987  0.03244781  0.50049862  1
  Ga  Ga42  1  0.35960875  0.46805080  0.50049862  1
  Ga  Ga43  1  0.96755219  0.35911013  0.99950138  1
  Ga  Ga44  1  0.46805080  0.35960875  0.00049862  1
  Ga  Ga45  1  0.35911013  0.96755219  0.49950138  1
  Ga  Ga46  1  0.64039125  0.53194920  0.49950138  1
  Ga  Ga47  1  0.03244781  0.64088987  0.00049862  1
  Ga  Ga48  1  0.38846054  0.86429401  0.00129559  1
  Ga  Ga49  1  0.86299842  0.88716495  0.49870441  1
  Ga  Ga50  1  0.13570599  0.61153946  0.49870441  1
  Ga  Ga51  1  0.11283505  0.13700158  0.00129559  1
  Ga  Ga52  1  0.61153946  0.13570599  0.99870441  1
  Ga  Ga53  1  0.13700158  0.11283505  0.50129559  1
  Ga  Ga54  1  0.86429401  0.38846054  0.50129559  1
  Ga  Ga55  1  0.88716495  0.86299842  0.99870441  1
