# generated using pymatgen
data_Mn7Fe3O20
_symmetry_space_group_name_H-M   'P 1'
_cell_length_a   5.82531990
_cell_length_b   5.88368978
_cell_length_c   24.39576573
_cell_angle_alpha   90.29297744
_cell_angle_beta   96.88402883
_cell_angle_gamma   119.64994550
_symmetry_Int_Tables_number   1
_chemical_formula_structural   Mn7Fe3O20
_chemical_formula_sum   'Mn14 Fe6 O40'
_cell_volume   719.41591393
_cell_formula_units_Z   2
loop_
 _symmetry_equiv_pos_site_id
 _symmetry_equiv_pos_as_xyz
  1  'x, y, z'
loop_
 _atom_site_type_symbol
 _atom_site_label
 _atom_site_symmetry_multiplicity
 _atom_site_fract_x
 _atom_site_fract_y
 _atom_site_fract_z
 _atom_site_occupancy
  Mn  Mn0  1  0.40270746  0.70240948  0.10041713  1
  Mn  Mn1  1  0.40178073  0.20215973  0.10022197  1
  Mn  Mn2  1  0.19679846  0.59865931  0.29990362  1
  Mn  Mn3  1  0.69711230  0.59862635  0.30007194  1
  Mn  Mn4  1  0.90162468  0.20298956  0.10022584  1
  Mn  Mn5  1  0.19652850  0.09890296  0.30001838  1
  Mn  Mn6  1  0.99964110  0.99981613  0.50032132  1
  Mn  Mn7  1  0.09947641  0.79571298  0.89995652  1
  Mn  Mn8  1  0.49924366  0.99894910  0.50009545  1
  Mn  Mn9  1  0.29927692  0.39897558  0.69995793  1
  Mn  Mn10  1  0.60032299  0.79746271  0.90020938  1
  Mn  Mn11  1  0.79915947  0.39868696  0.70016519  1
  Mn  Mn12  1  0.69806113  0.59721072  0.80011663  1
  Mn  Mn13  1  0.89876734  0.19944633  0.60001129  1
  Fe  Fe14  1  0.09746710  0.79913004  0.39997916  1
  Fe  Fe15  1  0.50181320  0.00107754  0.00021205  1
  Fe  Fe16  1  0.29931127  0.39951589  0.20013623  1
  Fe  Fe17  1  0.99869742  0.49894658  0.49990119  1
  Fe  Fe18  1  0.79963522  0.89885901  0.70015306  1
  Fe  Fe19  1  0.59830122  0.29657762  0.89991338  1
  O  O20  1  0.24313363  0.87350372  0.05492691  1
  O  O21  1  0.68857624  0.87407850  0.05522001  1
  O  O22  1  0.00330973  0.75268919  0.25941715  1
  O  O23  1  0.20846511  0.35635580  0.05967940  1
  O  O24  1  0.11700672  0.53123421  0.14576247  1
  O  O25  1  0.56071065  0.52980490  0.14582286  1
  O  O26  1  0.35618690  0.92741844  0.34537928  1
  O  O27  1  0.11667608  0.08751565  0.14549830  1
  O  O28  1  0.48149775  0.71262785  0.25462500  1
  O  O29  1  0.68653658  0.31762947  0.05520154  1
  O  O30  1  0.03786272  0.27038335  0.25452106  1
  O  O31  1  0.48248052  0.26954324  0.25475085  1
  O  O32  1  0.28963218  0.67360276  0.45373003  1
  O  O33  1  0.19709855  0.85347156  0.54098328  1
  O  O34  1  0.59550210  0.04887475  0.14091100  1
  O  O35  1  0.39036274  0.44525644  0.34062890  1
  O  O36  1  0.91081188  0.92751761  0.34526007  1
  O  O37  1  0.91223642  0.48380393  0.34510754  1
  O  O38  1  0.71863344  0.89080676  0.54707620  1
  O  O39  1  0.15662366  0.32292491  0.54754665  1
  O  O40  1  0.83618018  0.67454239  0.45382008  1
  O  O41  1  0.08007848  0.50856864  0.65320555  1
  O  O42  1  0.28323631  0.11322031  0.45449651  1
  O  O43  1  0.08651985  0.07678747  0.65226552  1
  O  O44  1  0.51149837  0.72082535  0.74777354  1
  O  O45  1  0.80128525  0.14417687  0.45891042  1
  O  O46  1  0.71186794  0.32238036  0.54733416  1
  O  O47  1  0.60231107  0.54521123  0.65921331  1
  O  O48  1  0.40165669  0.94120571  0.85913590  1
  O  O49  1  0.31705892  0.68445031  0.94588029  1
  O  O50  1  0.51715327  0.28858404  0.74687043  1
  O  O51  1  0.95636155  0.72032169  0.74801478  1
  O  O52  1  0.64157524  0.07672401  0.65244437  1
  O  O53  1  0.88037262  0.90506965  0.85317985  1
  O  O54  1  0.44121975  0.47454834  0.85277223  1
  O  O55  1  0.88451634  0.47263051  0.85250181  1
  O  O56  1  0.99714493  0.25275871  0.74096023  1
  O  O57  1  0.79800842  0.65147895  0.94119751  1
  O  O58  1  0.30767113  0.12216157  0.94587376  1
  O  O59  1  0.76276049  0.12359828  0.94623163  1
