# generated using pymatgen
data_Na3GaP8O23
_symmetry_space_group_name_H-M   'P 1'
_cell_length_a   12.12027429
_cell_length_b   12.12027429
_cell_length_c   12.12027429
_cell_angle_alpha   90.00000000
_cell_angle_beta   90.00000000
_cell_angle_gamma   90.00000000
_symmetry_Int_Tables_number   1
_chemical_formula_structural   Na3GaP8O23
_chemical_formula_sum   'Na12 Ga4 P32 O92'
_cell_volume   1780.48100573
_cell_formula_units_Z   4
loop_
 _symmetry_equiv_pos_site_id
 _symmetry_equiv_pos_as_xyz
  1  'x, y, z'
loop_
 _atom_site_type_symbol
 _atom_site_label
 _atom_site_symmetry_multiplicity
 _atom_site_fract_x
 _atom_site_fract_y
 _atom_site_fract_z
 _atom_site_occupancy
  O  O0  1  0.66165868  0.66165868  0.66165868  1
  O  O1  1  0.91165868  0.58834132  0.41165868  1
  O  O2  1  0.58834132  0.41165868  0.91165868  1
  O  O3  1  0.41165868  0.91165868  0.58834132  1
  O  O4  1  0.16165868  0.83834132  0.33834132  1
  O  O5  1  0.83834132  0.33834132  0.16165868  1
  O  O6  1  0.33834132  0.16165868  0.83834132  1
  O  O7  1  0.08834132  0.08834132  0.08834132  1
  O  O8  1  0.43728318  0.51142464  0.67950015  1
  O  O9  1  0.93728318  0.98857536  0.32049985  1
  O  O10  1  0.51142464  0.67950015  0.43728318  1
  O  O11  1  0.48857536  0.17950015  0.06271682  1
  O  O12  1  0.67950015  0.43728318  0.51142464  1
  O  O13  1  0.82049985  0.56271682  0.01142464  1
  O  O14  1  0.18728318  0.92950015  0.73857536  1
  O  O15  1  0.68728318  0.57049985  0.26142464  1
  O  O16  1  0.81271682  0.42950015  0.76142464  1
  O  O17  1  0.57049985  0.26142464  0.68728318  1
  O  O18  1  0.76142464  0.81271682  0.42950015  1
  O  O19  1  0.26142464  0.68728318  0.57049985  1
  O  O20  1  0.92950015  0.73857536  0.18728318  1
  O  O21  1  0.73857536  0.18728318  0.92950015  1
  O  O22  1  0.42950015  0.76142464  0.81271682  1
  O  O23  1  0.07049985  0.23857536  0.31271682  1
  O  O24  1  0.23857536  0.31271682  0.07049985  1
  O  O25  1  0.32049985  0.93728318  0.98857536  1
  O  O26  1  0.17950015  0.06271682  0.48857536  1
  O  O27  1  0.01142464  0.82049985  0.56271682  1
  O  O28  1  0.98857536  0.32049985  0.93728318  1
  O  O29  1  0.06271682  0.48857536  0.17950015  1
  O  O30  1  0.56271682  0.01142464  0.82049985  1
  O  O31  1  0.31271682  0.07049985  0.23857536  1
  O  O32  1  0.37500000  0.73323782  0.01676218  1
  O  O33  1  0.51676218  0.12500000  0.26676218  1
  O  O34  1  0.73830797  0.32750279  0.34411389  1
  O  O35  1  0.23323782  0.48323782  0.62500000  1
  O  O36  1  0.98323782  0.87500000  0.76676218  1
  O  O37  1  0.01676218  0.37500000  0.73323782  1
  O  O38  1  0.48323782  0.62500000  0.23323782  1
  O  O39  1  0.26676218  0.51676218  0.12500000  1
  O  O40  1  0.73323782  0.01676218  0.37500000  1
  O  O41  1  0.62500000  0.23323782  0.48323782  1
  O  O42  1  0.12500000  0.26676218  0.51676218  1
  O  O43  1  0.87500000  0.76676218  0.98323782  1
  O  O44  1  0.32750279  0.34411389  0.73830797  1
  O  O45  1  0.82750279  0.15588611  0.26169203  1
  O  O46  1  0.34411389  0.73830797  0.32750279  1
  O  O47  1  0.65588611  0.23830797  0.17249721  1
  O  O48  1  0.03736491  0.12127738  0.63654537  1
  O  O49  1  0.28736491  0.61345463  0.87127738  1
  O  O50  1  0.78736491  0.88654537  0.12872262  1
  O  O51  1  0.38654537  0.37127738  0.21263509  1
  O  O52  1  0.61345463  0.87127738  0.28736491  1
  O  O53  1  0.12872262  0.78736491  0.88654537  1
  O  O54  1  0.37127738  0.21263509  0.38654537  1
  O  O55  1  0.63654537  0.03736491  0.12127738  1
  O  O56  1  0.12127738  0.63654537  0.03736491  1
  O  O57  1  0.37872262  0.36345463  0.53736491  1
  O  O58  1  0.13654537  0.46263509  0.87872262  1
  O  O59  1  0.87872262  0.13654537  0.46263509  1
  O  O60  1  0.86345463  0.96263509  0.62127738  1
  O  O61  1  0.36345463  0.53736491  0.37872262  1
  O  O62  1  0.62127738  0.86345463  0.96263509  1
  O  O63  1  0.53736491  0.37872262  0.36345463  1
  O  O64  1  0.96263509  0.62127738  0.86345463  1
  O  O65  1  0.46263509  0.87872262  0.13654537  1
  O  O66  1  0.87127738  0.28736491  0.61345463  1
  O  O67  1  0.62872262  0.71263509  0.11345463  1
  O  O68  1  0.88654537  0.12872262  0.78736491  1
  O  O69  1  0.11345463  0.62872262  0.71263509  1
  O  O70  1  0.21263509  0.38654537  0.37127738  1
  O  O71  1  0.71263509  0.11345463  0.62872262  1
  O  O72  1  0.42249721  0.01169203  0.40588611  1
  O  O73  1  0.67249721  0.84411389  0.76169203  1
  O  O74  1  0.17249721  0.65588611  0.23830797  1
  O  O75  1  0.15588611  0.26169203  0.82750279  1
  O  O76  1  0.84411389  0.76169203  0.67249721  1
  O  O77  1  0.23830797  0.17249721  0.65588611  1
  O  O78  1  0.26169203  0.82750279  0.15588611  1
  O  O79  1  0.40588611  0.42249721  0.01169203  1
  O  O80  1  0.01169203  0.40588611  0.42249721  1
  O  O81  1  0.48830797  0.59411389  0.92249721  1
  O  O82  1  0.90588611  0.07750279  0.98830797  1
  O  O83  1  0.98830797  0.90588611  0.07750279  1
  O  O84  1  0.09411389  0.57750279  0.51169203  1
  O  O85  1  0.59411389  0.92249721  0.48830797  1
  O  O86  1  0.51169203  0.09411389  0.57750279  1
  O  O87  1  0.92249721  0.48830797  0.59411389  1
  O  O88  1  0.57750279  0.51169203  0.09411389  1
  O  O89  1  0.07750279  0.98830797  0.90588611  1
  O  O90  1  0.76169203  0.67249721  0.84411389  1
  O  O91  1  0.76676218  0.98323782  0.87500000  1
  Na  Na92  1  0.12500000  0.04405194  0.29405194  1
  Na  Na93  1  0.62500000  0.45594806  0.70594806  1
  Na  Na94  1  0.95594806  0.79405194  0.37500000  1
  Na  Na95  1  0.04405194  0.29405194  0.12500000  1
  Na  Na96  1  0.70594806  0.62500000  0.45594806  1
  Na  Na97  1  0.79405194  0.37500000  0.95594806  1
  Na  Na98  1  0.20594806  0.87500000  0.54405194  1
  Na  Na99  1  0.54405194  0.20594806  0.87500000  1
  Na  Na100  1  0.45594806  0.70594806  0.62500000  1
  Na  Na101  1  0.29405194  0.12500000  0.04405194  1
  Na  Na102  1  0.37500000  0.95594806  0.79405194  1
  Na  Na103  1  0.87500000  0.54405194  0.20594806  1
  P  P104  1  0.06894543  0.36156616  0.85440487  1
  P  P105  1  0.89559513  0.38843384  0.68105457  1
  P  P106  1  0.36156616  0.85440487  0.06894543  1
  P  P107  1  0.86156616  0.64559513  0.93105457  1
  P  P108  1  0.63843384  0.35440487  0.43105457  1
  P  P109  1  0.64559513  0.93105457  0.86156616  1
  P  P110  1  0.43105457  0.63843384  0.35440487  1
  P  P111  1  0.93105457  0.86156616  0.64559513  1
  P  P112  1  0.85440487  0.06894543  0.36156616  1
  P  P113  1  0.60440487  0.61156616  0.18105457  1
  P  P114  1  0.35440487  0.43105457  0.63843384  1
  P  P115  1  0.14559513  0.56894543  0.13843384  1
  P  P116  1  0.81894543  0.10440487  0.88843384  1
  P  P117  1  0.39559513  0.11156616  0.31894543  1
  P  P118  1  0.10440487  0.88843384  0.81894543  1
  P  P119  1  0.68105457  0.89559513  0.38843384  1
  P  P120  1  0.31894543  0.39559513  0.11156616  1
  P  P121  1  0.88843384  0.81894543  0.10440487  1
  P  P122  1  0.38843384  0.68105457  0.89559513  1
  P  P123  1  0.13843384  0.14559513  0.56894543  1
  P  P124  1  0.18105457  0.60440487  0.61156616  1
  P  P125  1  0.11156616  0.31894543  0.39559513  1
  P  P126  1  0.61156616  0.18105457  0.60440487  1
  P  P127  1  0.01771894  0.01771894  0.01771894  1
  P  P128  1  0.26771894  0.23228106  0.76771894  1
  P  P129  1  0.76771894  0.26771894  0.23228106  1
  P  P130  1  0.23228106  0.76771894  0.26771894  1
  P  P131  1  0.48228106  0.98228106  0.51771894  1
  P  P132  1  0.51771894  0.48228106  0.98228106  1
  P  P133  1  0.98228106  0.51771894  0.48228106  1
  P  P134  1  0.73228106  0.73228106  0.73228106  1
  P  P135  1  0.56894543  0.13843384  0.14559513  1
  Ga  Ga136  1  0.12500000  0.62500000  0.87500000  1
  Ga  Ga137  1  0.37500000  0.37500000  0.37500000  1
  Ga  Ga138  1  0.87500000  0.12500000  0.62500000  1
  Ga  Ga139  1  0.62500000  0.87500000  0.12500000  1
