# generated using pymatgen
data_Na3AlP8O23
_symmetry_space_group_name_H-M   'P 1'
_cell_length_a   12.09100746
_cell_length_b   12.09100746
_cell_length_c   12.09100746
_cell_angle_alpha   90.00000000
_cell_angle_beta   90.00000000
_cell_angle_gamma   90.00000000
_symmetry_Int_Tables_number   1
_chemical_formula_structural   Na3AlP8O23
_chemical_formula_sum   'Na12 Al4 P32 O92'
_cell_volume   1767.61414136
_cell_formula_units_Z   4
loop_
 _symmetry_equiv_pos_site_id
 _symmetry_equiv_pos_as_xyz
  1  'x, y, z'
loop_
 _atom_site_type_symbol
 _atom_site_label
 _atom_site_symmetry_multiplicity
 _atom_site_fract_x
 _atom_site_fract_y
 _atom_site_fract_z
 _atom_site_occupancy
  O  O0  1  0.66146749  0.66146749  0.66146749  1
  O  O1  1  0.91146749  0.58853251  0.41146749  1
  O  O2  1  0.58853251  0.41146749  0.91146749  1
  O  O3  1  0.41146749  0.91146749  0.58853251  1
  O  O4  1  0.16146749  0.83853251  0.33853251  1
  O  O5  1  0.83853251  0.33853251  0.16146749  1
  O  O6  1  0.33853251  0.16146749  0.83853251  1
  O  O7  1  0.08853251  0.08853251  0.08853251  1
  O  O8  1  0.43738786  0.51107756  0.67748818  1
  O  O9  1  0.93738786  0.98892244  0.32251182  1
  O  O10  1  0.51107756  0.67748818  0.43738786  1
  O  O11  1  0.48892244  0.17748818  0.06261214  1
  O  O12  1  0.67748818  0.43738786  0.51107756  1
  O  O13  1  0.82251182  0.56261214  0.01107756  1
  O  O14  1  0.18738786  0.92748818  0.73892244  1
  O  O15  1  0.68738786  0.57251182  0.26107756  1
  O  O16  1  0.81261214  0.42748818  0.76107756  1
  O  O17  1  0.57251182  0.26107756  0.68738786  1
  O  O18  1  0.76107756  0.81261214  0.42748818  1
  O  O19  1  0.26107756  0.68738786  0.57251182  1
  O  O20  1  0.92748818  0.73892244  0.18738786  1
  O  O21  1  0.73892244  0.18738786  0.92748818  1
  O  O22  1  0.42748818  0.76107756  0.81261214  1
  O  O23  1  0.07251182  0.23892244  0.31261214  1
  O  O24  1  0.23892244  0.31261214  0.07251182  1
  O  O25  1  0.32251182  0.93738786  0.98892244  1
  O  O26  1  0.17748818  0.06261214  0.48892244  1
  O  O27  1  0.01107756  0.82251182  0.56261214  1
  O  O28  1  0.98892244  0.32251182  0.93738786  1
  O  O29  1  0.06261214  0.48892244  0.17748818  1
  O  O30  1  0.56261214  0.01107756  0.82251182  1
  O  O31  1  0.31261214  0.07251182  0.23892244  1
  O  O32  1  0.37500000  0.73241988  0.01758012  1
  O  O33  1  0.51758012  0.12500000  0.26758012  1
  O  O34  1  0.73434329  0.32978133  0.34188409  1
  O  O35  1  0.23241988  0.48241988  0.62500000  1
  O  O36  1  0.98241988  0.87500000  0.76758012  1
  O  O37  1  0.01758012  0.37500000  0.73241988  1
  O  O38  1  0.48241988  0.62500000  0.23241988  1
  O  O39  1  0.26758012  0.51758012  0.12500000  1
  O  O40  1  0.73241988  0.01758012  0.37500000  1
  O  O41  1  0.62500000  0.23241988  0.48241988  1
  O  O42  1  0.12500000  0.26758012  0.51758012  1
  O  O43  1  0.87500000  0.76758012  0.98241988  1
  O  O44  1  0.32978133  0.34188409  0.73434329  1
  O  O45  1  0.82978133  0.15811591  0.26565671  1
  O  O46  1  0.34188409  0.73434329  0.32978133  1
  O  O47  1  0.65811591  0.23434329  0.17021867  1
  O  O48  1  0.03185867  0.12246002  0.63345471  1
  O  O49  1  0.28185867  0.61654529  0.87246002  1
  O  O50  1  0.78185867  0.88345471  0.12753998  1
  O  O51  1  0.38345471  0.37246002  0.21814133  1
  O  O52  1  0.61654529  0.87246002  0.28185867  1
  O  O53  1  0.12753998  0.78185867  0.88345471  1
  O  O54  1  0.37246002  0.21814133  0.38345471  1
  O  O55  1  0.63345471  0.03185867  0.12246002  1
  O  O56  1  0.12246002  0.63345471  0.03185867  1
  O  O57  1  0.37753998  0.36654529  0.53185867  1
  O  O58  1  0.13345471  0.46814133  0.87753998  1
  O  O59  1  0.87753998  0.13345471  0.46814133  1
  O  O60  1  0.86654529  0.96814133  0.62246002  1
  O  O61  1  0.36654529  0.53185867  0.37753998  1
  O  O62  1  0.62246002  0.86654529  0.96814133  1
  O  O63  1  0.53185867  0.37753998  0.36654529  1
  O  O64  1  0.96814133  0.62246002  0.86654529  1
  O  O65  1  0.46814133  0.87753998  0.13345471  1
  O  O66  1  0.87246002  0.28185867  0.61654529  1
  O  O67  1  0.62753998  0.71814133  0.11654529  1
  O  O68  1  0.88345471  0.12753998  0.78185867  1
  O  O69  1  0.11654529  0.62753998  0.71814133  1
  O  O70  1  0.21814133  0.38345471  0.37246002  1
  O  O71  1  0.71814133  0.11654529  0.62753998  1
  O  O72  1  0.42021867  0.01565671  0.40811591  1
  O  O73  1  0.67021867  0.84188409  0.76565671  1
  O  O74  1  0.17021867  0.65811591  0.23434329  1
  O  O75  1  0.15811591  0.26565671  0.82978133  1
  O  O76  1  0.84188409  0.76565671  0.67021867  1
  O  O77  1  0.23434329  0.17021867  0.65811591  1
  O  O78  1  0.26565671  0.82978133  0.15811591  1
  O  O79  1  0.40811591  0.42021867  0.01565671  1
  O  O80  1  0.01565671  0.40811591  0.42021867  1
  O  O81  1  0.48434329  0.59188409  0.92021867  1
  O  O82  1  0.90811591  0.07978133  0.98434329  1
  O  O83  1  0.98434329  0.90811591  0.07978133  1
  O  O84  1  0.09188409  0.57978133  0.51565671  1
  O  O85  1  0.59188409  0.92021867  0.48434329  1
  O  O86  1  0.51565671  0.09188409  0.57978133  1
  O  O87  1  0.92021867  0.48434329  0.59188409  1
  O  O88  1  0.57978133  0.51565671  0.09188409  1
  O  O89  1  0.07978133  0.98434329  0.90811591  1
  O  O90  1  0.76565671  0.67021867  0.84188409  1
  O  O91  1  0.76758012  0.98241988  0.87500000  1
  Na  Na92  1  0.37500000  0.95607620  0.79392380  1
  Na  Na93  1  0.29392380  0.12500000  0.04392380  1
  Na  Na94  1  0.45607620  0.70607620  0.62500000  1
  Na  Na95  1  0.54392380  0.20607620  0.87500000  1
  Na  Na96  1  0.87500000  0.54392380  0.20607620  1
  Na  Na97  1  0.12500000  0.04392380  0.29392380  1
  Na  Na98  1  0.62500000  0.45607620  0.70607620  1
  Na  Na99  1  0.95607620  0.79392380  0.37500000  1
  Na  Na100  1  0.04392380  0.29392380  0.12500000  1
  Na  Na101  1  0.70607620  0.62500000  0.45607620  1
  Na  Na102  1  0.79392380  0.37500000  0.95607620  1
  Na  Na103  1  0.20607620  0.87500000  0.54392380  1
  Al  Al104  1  0.12500000  0.62500000  0.87500000  1
  Al  Al105  1  0.37500000  0.37500000  0.37500000  1
  Al  Al106  1  0.87500000  0.12500000  0.62500000  1
  Al  Al107  1  0.62500000  0.87500000  0.12500000  1
  P  P108  1  0.63537415  0.35449209  0.43084395  1
  P  P109  1  0.64550791  0.93084395  0.86462585  1
  P  P110  1  0.43084395  0.63537415  0.35449209  1
  P  P111  1  0.93084395  0.86462585  0.64550791  1
  P  P112  1  0.85449209  0.06915605  0.36462585  1
  P  P113  1  0.06915605  0.36462585  0.85449209  1
  P  P114  1  0.35449209  0.43084395  0.63537415  1
  P  P115  1  0.14550791  0.56915605  0.13537415  1
  P  P116  1  0.56915605  0.13537415  0.14550791  1
  P  P117  1  0.39550791  0.11462585  0.31915605  1
  P  P118  1  0.10449209  0.88537415  0.81915605  1
  P  P119  1  0.68084395  0.89550791  0.38537415  1
  P  P120  1  0.31915605  0.39550791  0.11462585  1
  P  P121  1  0.88537415  0.81915605  0.10449209  1
  P  P122  1  0.38537415  0.68084395  0.89550791  1
  P  P123  1  0.13537415  0.14550791  0.56915605  1
  P  P124  1  0.86462585  0.64550791  0.93084395  1
  P  P125  1  0.36462585  0.85449209  0.06915605  1
  P  P126  1  0.89550791  0.38537415  0.68084395  1
  P  P127  1  0.60449209  0.61462585  0.18084395  1
  P  P128  1  0.81915605  0.10449209  0.88537415  1
  P  P129  1  0.18084395  0.60449209  0.61462585  1
  P  P130  1  0.11462585  0.31915605  0.39550791  1
  P  P131  1  0.61462585  0.18084395  0.60449209  1
  P  P132  1  0.01774915  0.01774915  0.01774915  1
  P  P133  1  0.26774915  0.23225085  0.76774915  1
  P  P134  1  0.76774915  0.26774915  0.23225085  1
  P  P135  1  0.23225085  0.76774915  0.26774915  1
  P  P136  1  0.48225085  0.98225085  0.51774915  1
  P  P137  1  0.51774915  0.48225085  0.98225085  1
  P  P138  1  0.98225085  0.51774915  0.48225085  1
  P  P139  1  0.73225085  0.73225085  0.73225085  1
