# generated using pymatgen
data_NaAlGeO4
_symmetry_space_group_name_H-M   'P 1'
_cell_length_a   8.38498612
_cell_length_b   8.90829079
_cell_length_c   15.63316856
_cell_angle_alpha   90.10501319
_cell_angle_beta   90.00000000
_cell_angle_gamma   90.00000000
_symmetry_Int_Tables_number   1
_chemical_formula_structural   NaAlGeO4
_chemical_formula_sum   'Na12 Al12 Ge12 O48'
_cell_volume   1167.73154929
_cell_formula_units_Z   12
loop_
 _symmetry_equiv_pos_site_id
 _symmetry_equiv_pos_as_xyz
  1  'x, y, z'
loop_
 _atom_site_type_symbol
 _atom_site_label
 _atom_site_symmetry_multiplicity
 _atom_site_fract_x
 _atom_site_fract_y
 _atom_site_fract_z
 _atom_site_occupancy
  O  O0  1  0.02824654  0.48627110  0.89431394  1
  O  O1  1  0.52824654  0.01372890  0.60568606  1
  O  O2  1  0.97175346  0.51372890  0.10568606  1
  O  O3  1  0.47175346  0.98627110  0.39431394  1
  O  O4  1  0.02260733  0.66777278  0.55049827  1
  O  O5  1  0.52260733  0.83222722  0.94950173  1
  O  O6  1  0.97739267  0.33222722  0.44950173  1
  O  O7  1  0.47739267  0.16777278  0.05049827  1
  O  O8  1  0.02250509  0.07187889  0.80964088  1
  O  O9  1  0.52250509  0.42812111  0.69035912  1
  O  O10  1  0.97749491  0.92812111  0.19035912  1
  O  O11  1  0.47749491  0.57187889  0.30964088  1
  O  O12  1  0.35109821  0.44799328  0.84877492  1
  O  O13  1  0.85109821  0.05200672  0.65122508  1
  O  O14  1  0.64890179  0.55200672  0.15122508  1
  O  O15  1  0.14890179  0.94799328  0.34877492  1
  O  O16  1  0.34850766  0.75471403  0.55087203  1
  O  O17  1  0.84850766  0.74528597  0.94912797  1
  O  O18  1  0.65149234  0.24528597  0.44912797  1
  O  O19  1  0.15149234  0.25471403  0.05087203  1
  O  O20  1  0.22769293  0.74936673  0.87237538  1
  O  O21  1  0.34683032  0.05823497  0.85426475  1
  O  O22  1  0.65316968  0.94176503  0.14573525  1
  O  O23  1  0.15316968  0.55823497  0.35426475  1
  O  O24  1  0.23222092  0.06250837  0.52053744  1
  O  O25  1  0.73222092  0.43749163  0.97946256  1
  O  O26  1  0.76777908  0.93749163  0.47946256  1
  O  O27  1  0.26777908  0.56250837  0.02053744  1
  O  O28  1  0.26717632  0.44399790  0.52058715  1
  O  O29  1  0.76717632  0.05600210  0.97941285  1
  O  O30  1  0.73282368  0.55600210  0.47941285  1
  O  O31  1  0.23282368  0.94399790  0.02058715  1
  O  O32  1  0.24217570  0.24910307  0.70806004  1
  O  O33  1  0.74217570  0.25089693  0.79193996  1
  O  O34  1  0.75782430  0.75089693  0.29193996  1
  O  O35  1  0.25782430  0.74910307  0.20806004  1
  O  O36  1  0.26227095  0.43154365  0.19253365  1
  O  O37  1  0.76227095  0.06845635  0.30746635  1
  O  O38  1  0.73772905  0.56845635  0.80746635  1
  O  O39  1  0.23772905  0.93154365  0.69253365  1
  O  O40  1  0.27703097  0.07230885  0.18973249  1
  O  O41  1  0.77703097  0.42769115  0.31026751  1
  O  O42  1  0.72296903  0.92769115  0.81026751  1
  O  O43  1  0.22296903  0.57230885  0.68973249  1
  O  O44  1  0.27230707  0.24936673  0.37237538  1
  O  O45  1  0.77230707  0.25063327  0.12762462  1
  O  O46  1  0.72769293  0.75063327  0.62762462  1
  O  O47  1  0.84683032  0.44176503  0.64573525  1
  Na  Na48  1  0.47630360  0.27864125  0.56542769  1
  Na  Na49  1  0.97630360  0.22135875  0.93457231  1
  Na  Na50  1  0.52369640  0.72135875  0.43457231  1
  Na  Na51  1  0.02369640  0.77864125  0.06542769  1
  Na  Na52  1  0.03107266  0.23037620  0.58969659  1
  Na  Na53  1  0.53107266  0.26962380  0.91030341  1
  Na  Na54  1  0.96892734  0.76962380  0.41030341  1
  Na  Na55  1  0.46892734  0.73037620  0.08969659  1
  Na  Na56  1  0.05201305  0.75613711  0.75327313  1
  Na  Na57  1  0.55201305  0.74386289  0.74672687  1
  Na  Na58  1  0.94798695  0.24386289  0.24672687  1
  Na  Na59  1  0.44798695  0.25613711  0.25327313  1
  Al  Al60  1  0.33392939  0.93972327  0.59196488  1
  Al  Al61  1  0.83392939  0.56027673  0.90803512  1
  Al  Al62  1  0.66607061  0.06027673  0.40803512  1
  Al  Al63  1  0.16607061  0.43972327  0.09196488  1
  Al  Al64  1  0.33062608  0.89966664  0.92251467  1
  Al  Al65  1  0.83062608  0.60033336  0.57748533  1
  Al  Al66  1  0.66937392  0.10033336  0.07748533  1
  Al  Al67  1  0.16937392  0.39966664  0.42251467  1
  Al  Al68  1  0.32990942  0.42234029  0.73694299  1
  Al  Al69  1  0.82990942  0.07765971  0.76305701  1
  Al  Al70  1  0.67009058  0.57765971  0.26305701  1
  Al  Al71  1  0.17009058  0.92234029  0.23694299  1
  Ge  Ge72  1  0.21643417  0.60851902  0.57847763  1
  Ge  Ge73  1  0.71643417  0.89148098  0.92152237  1
  Ge  Ge74  1  0.78356583  0.39148098  0.42152237  1
  Ge  Ge75  1  0.28356583  0.10851902  0.07847763  1
  Ge  Ge76  1  0.22127259  0.56162004  0.90996103  1
  Ge  Ge77  1  0.72127259  0.93837996  0.59003897  1
  Ge  Ge78  1  0.77872741  0.43837996  0.09003897  1
  Ge  Ge79  1  0.27872741  0.06162004  0.40996103  1
  Ge  Ge80  1  0.21709962  0.08161048  0.76629159  1
  Ge  Ge81  1  0.71709962  0.41838952  0.73370841  1
  Ge  Ge82  1  0.78290038  0.91838952  0.23370841  1
  Ge  Ge83  1  0.28290038  0.58161048  0.26629159  1
