# generated using pymatgen
data_Y3Sc2Al3O12
_symmetry_space_group_name_H-M   'P 1'
_cell_length_a   10.77945522
_cell_length_b   10.77945523
_cell_length_c   10.77945523
_cell_angle_alpha   109.47122061
_cell_angle_beta   109.47122063
_cell_angle_gamma   109.47122066
_symmetry_Int_Tables_number   1
_chemical_formula_structural   Y3Sc2Al3O12
_chemical_formula_sum   'Y12 Sc8 Al12 O48'
_cell_volume   964.20315549
_cell_formula_units_Z   4
loop_
 _symmetry_equiv_pos_site_id
 _symmetry_equiv_pos_as_xyz
  1  'x, y, z'
loop_
 _atom_site_type_symbol
 _atom_site_label
 _atom_site_symmetry_multiplicity
 _atom_site_fract_x
 _atom_site_fract_y
 _atom_site_fract_z
 _atom_site_occupancy
  O  O0  1  0.28671648  0.47481193  0.37455874  1
  O  O1  1  0.02518807  0.31190455  0.89974681  1
  O  O2  1  0.12544126  0.60025319  0.91215774  1
  O  O3  1  0.21328352  0.58784226  0.18809545  1
  O  O4  1  0.21328352  0.12544126  0.02518807  1
  O  O5  1  0.58784226  0.18809545  0.21328352  1
  O  O6  1  0.60025319  0.18809545  0.47481193  1
  O  O7  1  0.18809545  0.21328352  0.58784226  1
  O  O8  1  0.89974681  0.37455874  0.58784226  1
  O  O9  1  0.31190455  0.91215774  0.28671648  1
  O  O10  1  0.91215774  0.28671648  0.31190455  1
  O  O11  1  0.02518807  0.21328352  0.12544126  1
  O  O12  1  0.18809545  0.47481193  0.60025319  1
  O  O13  1  0.58784226  0.89974681  0.37455874  1
  O  O14  1  0.12544126  0.02518807  0.21328352  1
  O  O15  1  0.47481193  0.60025319  0.18809545  1
  O  O16  1  0.37455874  0.58784226  0.89974681  1
  O  O17  1  0.89974681  0.02518807  0.31190455  1
  O  O18  1  0.60025319  0.91215774  0.12544126  1
  O  O19  1  0.10025319  0.62544126  0.41215774  1
  O  O20  1  0.91215774  0.12544126  0.60025319  1
  O  O21  1  0.37455874  0.28671648  0.47481193  1
  O  O22  1  0.31190455  0.89974681  0.02518807  1
  O  O23  1  0.28671648  0.31190455  0.91215774  1
  O  O24  1  0.71328352  0.52518807  0.62544126  1
  O  O25  1  0.97481193  0.68809545  0.10025319  1
  O  O26  1  0.87455874  0.39974681  0.08784226  1
  O  O27  1  0.78671648  0.41215774  0.81190455  1
  O  O28  1  0.78671648  0.87455874  0.97481193  1
  O  O29  1  0.41215774  0.81190455  0.78671648  1
  O  O30  1  0.39974681  0.81190455  0.52518807  1
  O  O31  1  0.81190455  0.78671648  0.41215774  1
  O  O32  1  0.71328352  0.68809545  0.08784226  1
  O  O33  1  0.68809545  0.10025319  0.97481193  1
  O  O34  1  0.62544126  0.71328352  0.52518807  1
  O  O35  1  0.52518807  0.62544126  0.71328352  1
  O  O36  1  0.08784226  0.87455874  0.39974681  1
  O  O37  1  0.39974681  0.08784226  0.87455874  1
  O  O38  1  0.10025319  0.97481193  0.68809545  1
  O  O39  1  0.62544126  0.41215774  0.10025319  1
  O  O40  1  0.52518807  0.39974681  0.81190455  1
  O  O41  1  0.87455874  0.97481193  0.78671648  1
  O  O42  1  0.41215774  0.10025319  0.62544126  1
  O  O43  1  0.81190455  0.52518807  0.39974681  1
  O  O44  1  0.97481193  0.78671648  0.87455874  1
  O  O45  1  0.08784226  0.71328352  0.68809545  1
  O  O46  1  0.68809545  0.08784226  0.71328352  1
  O  O47  1  0.47481193  0.37455874  0.28671648  1
  Al  Al48  1  0.87500000  0.12500000  0.75000000  1
  Al  Al49  1  0.12500000  0.87500000  0.25000000  1
  Al  Al50  1  0.25000000  0.62500000  0.37500000  1
  Al  Al51  1  0.12500000  0.75000000  0.87500000  1
  Al  Al52  1  0.75000000  0.87500000  0.12500000  1
  Al  Al53  1  0.37500000  0.25000000  0.62500000  1
  Al  Al54  1  0.62500000  0.75000000  0.37500000  1
  Al  Al55  1  0.87500000  0.25000000  0.12500000  1
  Al  Al56  1  0.25000000  0.12500000  0.87500000  1
  Al  Al57  1  0.62500000  0.37500000  0.25000000  1
  Al  Al58  1  0.37500000  0.62500000  0.75000000  1
  Al  Al59  1  0.75000000  0.37500000  0.62500000  1
  Sc  Sc60  1  0.00000000  0.50000000  0.00000000  1
  Sc  Sc61  1  0.00000000  0.00000000  0.50000000  1
  Sc  Sc62  1  0.50000000  0.00000000  0.00000000  1
  Sc  Sc63  1  0.00000000  0.50000000  0.50000000  1
  Sc  Sc64  1  0.50000000  0.50000000  0.50000000  1
  Sc  Sc65  1  0.50000000  0.00000000  0.50000000  1
  Sc  Sc66  1  0.50000000  0.50000000  0.00000000  1
  Sc  Sc67  1  0.00000000  0.00000000  0.00000000  1
  Y  Y68  1  0.25000000  0.37500000  0.12500000  1
  Y  Y69  1  0.75000000  0.12500000  0.37500000  1
  Y  Y70  1  0.12500000  0.37500000  0.75000000  1
  Y  Y71  1  0.37500000  0.12500000  0.25000000  1
  Y  Y72  1  0.12500000  0.25000000  0.37500000  1
  Y  Y73  1  0.37500000  0.75000000  0.12500000  1
  Y  Y74  1  0.62500000  0.87500000  0.75000000  1
  Y  Y75  1  0.25000000  0.87500000  0.62500000  1
  Y  Y76  1  0.75000000  0.62500000  0.87500000  1
  Y  Y77  1  0.87500000  0.75000000  0.62500000  1
  Y  Y78  1  0.62500000  0.25000000  0.87500000  1
  Y  Y79  1  0.87500000  0.62500000  0.25000000  1
