# generated using pymatgen
data_NaNd(GaS2)4
_symmetry_space_group_name_H-M   'P 1'
_cell_length_a   11.94023403
_cell_length_b   11.94023403
_cell_length_c   11.90717446
_cell_angle_alpha   105.35551661
_cell_angle_beta   105.35551658
_cell_angle_gamma   118.15453637
_symmetry_Int_Tables_number   1
_chemical_formula_structural   NaNd(GaS2)4
_chemical_formula_sum   'Na4 Nd4 Ga16 S32'
_cell_volume   1282.70777576
_cell_formula_units_Z   4
loop_
 _symmetry_equiv_pos_site_id
 _symmetry_equiv_pos_as_xyz
  1  'x, y, z'
loop_
 _atom_site_type_symbol
 _atom_site_label
 _atom_site_symmetry_multiplicity
 _atom_site_fract_x
 _atom_site_fract_y
 _atom_site_fract_z
 _atom_site_occupancy
  Na  Na0  1  0.37869989  0.62130011  0.75000000  1
  Na  Na1  1  0.12869989  0.87130011  0.25000000  1
  Na  Na2  1  0.62130011  0.37869989  0.25000000  1
  Na  Na3  1  0.87130011  0.12869989  0.75000000  1
  S  S4  1  0.90758978  0.57705770  0.99494890  1
  S  S5  1  0.58735912  0.41789121  0.99494890  1
  S  S6  1  0.42294230  0.09241022  0.50505110  1
  S  S7  1  0.58210879  0.41264088  0.50505110  1
  S  S8  1  0.09241022  0.42294230  0.00505110  1
  S  S9  1  0.41789121  0.58735912  0.49494890  1
  S  S10  1  0.57705770  0.90758978  0.49494890  1
  S  S11  1  0.41264088  0.58210879  0.00505110  1
  S  S12  1  0.07553459  0.40674111  0.49353865  1
  S  S13  1  0.91320246  0.08199594  0.00646135  1
  S  S14  1  0.59325889  0.92446541  0.00646135  1
  S  S15  1  0.91800406  0.08679754  0.49353865  1
  S  S16  1  0.92446541  0.59325889  0.50646135  1
  S  S17  1  0.08679754  0.91800406  0.99353865  1
  S  S18  1  0.40674111  0.07553459  0.99353865  1
  S  S19  1  0.08199594  0.91320246  0.50646135  1
  S  S20  1  0.84713437  0.84783630  0.16260499  1
  S  S21  1  0.68523131  0.18452938  0.33739501  1
  S  S22  1  0.15216370  0.15286563  0.33739501  1
  S  S23  1  0.81547062  0.31476869  0.16260499  1
  S  S24  1  0.66180306  0.65340729  0.81189910  1
  S  S25  1  0.84150819  0.34990397  0.68810090  1
  S  S26  1  0.34659271  0.33819694  0.68810090  1
  S  S27  1  0.65009603  0.15849181  0.81189910  1
  S  S28  1  0.33819694  0.34659271  0.18810090  1
  S  S29  1  0.15849181  0.65009603  0.31189910  1
  S  S30  1  0.65340729  0.66180306  0.31189910  1
  S  S31  1  0.34990397  0.84150819  0.18810090  1
  S  S32  1  0.18452938  0.68523131  0.83739501  1
  S  S33  1  0.84783630  0.84713437  0.66260499  1
  S  S34  1  0.31476869  0.81547062  0.66260499  1
  S  S35  1  0.15286563  0.15216370  0.83739501  1
  Ga  Ga36  1  0.35836190  0.36006117  0.39103388  1
  Ga  Ga37  1  0.96902729  0.46732803  0.10896612  1
  Ga  Ga38  1  0.63993883  0.64163810  0.10896612  1
  Ga  Ga39  1  0.53267197  0.03097271  0.39103388  1
  Ga  Ga40  1  0.64163810  0.63993883  0.60896612  1
  Ga  Ga41  1  0.03097271  0.53267197  0.89103388  1
  Ga  Ga42  1  0.36006117  0.35836190  0.89103388  1
  Ga  Ga43  1  0.46732803  0.96902729  0.60896612  1
  Ga  Ga44  1  0.86673030  0.86153132  0.97712231  1
  Ga  Ga45  1  0.88440901  0.38960799  0.52287769  1
  Ga  Ga46  1  0.13846868  0.13326970  0.52287769  1
  Ga  Ga47  1  0.61039201  0.11559099  0.97712231  1
  Ga  Ga48  1  0.13326970  0.13846868  0.02287769  1
  Ga  Ga49  1  0.11559099  0.61039201  0.47712231  1
  Ga  Ga50  1  0.86153132  0.86673030  0.47712231  1
  Ga  Ga51  1  0.38960799  0.88440901  0.02287769  1
  Nd  Nd52  1  0.37500000  0.62500000  0.25000000  1
  Nd  Nd53  1  0.62500000  0.37500000  0.75000000  1
  Nd  Nd54  1  0.87500000  0.12500000  0.25000000  1
  Nd  Nd55  1  0.12500000  0.87500000  0.75000000  1
