# generated using pymatgen
data_CaCuP2O7
_symmetry_space_group_name_H-M   'P 1'
_cell_length_a   5.30171385
_cell_length_b   8.13703212
_cell_length_c   12.49945506
_cell_angle_alpha   90.00000000
_cell_angle_beta   91.83202420
_cell_angle_gamma   90.00000000
_symmetry_Int_Tables_number   1
_chemical_formula_structural   CaCuP2O7
_chemical_formula_sum   'Ca4 Cu4 P8 O28'
_cell_volume   538.95356190
_cell_formula_units_Z   4
loop_
 _symmetry_equiv_pos_site_id
 _symmetry_equiv_pos_as_xyz
  1  'x, y, z'
loop_
 _atom_site_type_symbol
 _atom_site_label
 _atom_site_symmetry_multiplicity
 _atom_site_fract_x
 _atom_site_fract_y
 _atom_site_fract_z
 _atom_site_occupancy
  O  O0  1  0.71328382  0.31092090  0.59669670  1
  O  O1  1  0.78671618  0.81092090  0.90330330  1
  O  O2  1  0.28671618  0.68907910  0.40330330  1
  O  O3  1  0.21328382  0.18907910  0.09669670  1
  O  O4  1  0.59504661  0.16645399  0.97151241  1
  O  O5  1  0.90495339  0.66645399  0.52848759  1
  O  O6  1  0.40495339  0.83354601  0.02848759  1
  O  O7  1  0.09504661  0.33354601  0.47151241  1
  O  O8  1  0.97298521  0.45786266  0.79283832  1
  O  O9  1  0.52701479  0.95786266  0.70716168  1
  O  O10  1  0.02701479  0.54213734  0.20716168  1
  O  O11  1  0.47298521  0.04213734  0.29283832  1
  O  O12  1  0.26391880  0.39388254  0.95202902  1
  O  O13  1  0.23608120  0.89388254  0.54797098  1
  O  O14  1  0.73608120  0.60611746  0.04797098  1
  O  O15  1  0.76391880  0.10611746  0.45202902  1
  O  O16  1  0.65611117  0.35132253  0.15563458  1
  O  O17  1  0.84388883  0.85132253  0.34436542  1
  O  O18  1  0.34388883  0.64867747  0.84436542  1
  O  O19  1  0.15611117  0.14867747  0.65563458  1
  O  O20  1  0.65125964  0.39781359  0.40049803  1
  O  O21  1  0.84874036  0.89781359  0.09950197  1
  O  O22  1  0.34874036  0.60218641  0.59950197  1
  O  O23  1  0.15125964  0.10218641  0.90049803  1
  O  O24  1  0.93478421  0.12211152  0.26484881  1
  O  O25  1  0.56521579  0.62211152  0.23515119  1
  O  O26  1  0.06521579  0.87788848  0.73515119  1
  O  O27  1  0.43478421  0.37788848  0.76484881  1
  P  P28  1  0.81001868  0.29800372  0.48439983  1
  P  P29  1  0.68998132  0.79800372  0.01560017  1
  P  P30  1  0.18998132  0.70199628  0.51560017  1
  P  P31  1  0.31001868  0.20199628  0.98439983  1
  P  P32  1  0.25413752  0.97240536  0.66592761  1
  P  P33  1  0.24586248  0.47240536  0.83407239  1
  P  P34  1  0.74586248  0.02759464  0.33407239  1
  P  P35  1  0.75413752  0.52759464  0.16592761  1
  Ca  Ca36  1  0.78854850  0.18179902  0.77368286  1
  Ca  Ca37  1  0.71145150  0.68179902  0.72631714  1
  Ca  Ca38  1  0.21145150  0.81820098  0.22631714  1
  Ca  Ca39  1  0.28854850  0.31820098  0.27368286  1
  Cu  Cu40  1  0.29260157  0.35945178  0.61020445  1
  Cu  Cu41  1  0.20739843  0.85945178  0.88979555  1
  Cu  Cu42  1  0.70739843  0.64054822  0.38979555  1
  Cu  Cu43  1  0.79260157  0.14054822  0.11020445  1
