# generated using pymatgen
data_Li2Bi2(SO4)3
_symmetry_space_group_name_H-M   'P 1'
_cell_length_a   8.88152929
_cell_length_b   8.88152929
_cell_length_c   8.99917942
_cell_angle_alpha   66.01931283
_cell_angle_beta   113.98068717
_cell_angle_gamma   111.64229778
_symmetry_Int_Tables_number   1
_chemical_formula_structural   Li2Bi2(SO4)3
_chemical_formula_sum   'Li4 Bi4 S6 O24'
_cell_volume   574.71080420
_cell_formula_units_Z   2
loop_
 _symmetry_equiv_pos_site_id
 _symmetry_equiv_pos_as_xyz
  1  'x, y, z'
loop_
 _atom_site_type_symbol
 _atom_site_label
 _atom_site_symmetry_multiplicity
 _atom_site_fract_x
 _atom_site_fract_y
 _atom_site_fract_z
 _atom_site_occupancy
  Li  Li0  1  0.34954773  0.89319991  0.55613712  1
  Li  Li1  1  0.10680009  0.65045227  0.05613712  1
  Li  Li2  1  0.89319991  0.34954773  0.94386288  1
  Li  Li3  1  0.65045227  0.10680009  0.44386288  1
  Bi  Bi4  1  0.67459205  0.84623288  0.05749572  1
  Bi  Bi5  1  0.15376712  0.32540795  0.55749572  1
  Bi  Bi6  1  0.84623288  0.67459205  0.44250428  1
  Bi  Bi7  1  0.32540795  0.15376712  0.94250428  1
  S  S8  1  0.23704314  0.56077899  0.82304871  1
  S  S9  1  0.43922101  0.76295686  0.32304871  1
  S  S10  1  0.91426844  0.91426844  0.75000000  1
  S  S11  1  0.08573156  0.08573156  0.25000000  1
  S  S12  1  0.56077899  0.23704314  0.67695129  1
  S  S13  1  0.76295686  0.43922101  0.17695129  1
  O  O14  1  0.08797374  0.91439451  0.88444936  1
  O  O15  1  0.08560549  0.91202626  0.38444936  1
  O  O16  1  0.11351093  0.52782790  0.91215995  1
  O  O17  1  0.33927348  0.73827928  0.79577028  1
  O  O18  1  0.13987762  0.53510788  0.64701018  1
  O  O19  1  0.47217210  0.88648907  0.41215995  1
  O  O20  1  0.78633157  0.87615663  0.83240836  1
  O  O21  1  0.34577950  0.43803672  0.92049369  1
  O  O22  1  0.26172072  0.66072652  0.29577028  1
  O  O23  1  0.46489212  0.86012238  0.14701018  1
  O  O24  1  0.12384337  0.21366943  0.33240836  1
  O  O25  1  0.43803672  0.34577950  0.57950631  1
  O  O26  1  0.56196328  0.65422050  0.42049369  1
  O  O27  1  0.87615663  0.78633157  0.66759164  1
  O  O28  1  0.53510788  0.13987762  0.85298982  1
  O  O29  1  0.73827928  0.33927348  0.70422972  1
  O  O30  1  0.65422050  0.56196328  0.07950631  1
  O  O31  1  0.21366943  0.12384337  0.16759164  1
  O  O32  1  0.52782790  0.11351093  0.58784005  1
  O  O33  1  0.86012238  0.46489212  0.35298982  1
  O  O34  1  0.66072652  0.26172072  0.20422972  1
  O  O35  1  0.88648907  0.47217210  0.08784005  1
  O  O36  1  0.91439451  0.08797374  0.61555064  1
  O  O37  1  0.91202626  0.08560549  0.11555064  1
