# generated using pymatgen
data_Ba2SrUO6
_symmetry_space_group_name_H-M   'P 1'
_cell_length_a   6.30032318
_cell_length_b   6.37198898
_cell_length_c   8.93352289
_cell_angle_alpha   90.00000000
_cell_angle_beta   90.23984112
_cell_angle_gamma   90.00000000
_symmetry_Int_Tables_number   1
_chemical_formula_structural   Ba2SrUO6
_chemical_formula_sum   'Ba4 Sr2 U2 O12'
_cell_volume   358.63840370
_cell_formula_units_Z   2
loop_
 _symmetry_equiv_pos_site_id
 _symmetry_equiv_pos_as_xyz
  1  'x, y, z'
loop_
 _atom_site_type_symbol
 _atom_site_label
 _atom_site_symmetry_multiplicity
 _atom_site_fract_x
 _atom_site_fract_y
 _atom_site_fract_z
 _atom_site_occupancy
  O  O0  1  0.91220097  0.46854593  0.22625648  1
  O  O1  1  0.58779903  0.96854593  0.27374352  1
  O  O2  1  0.08779903  0.53145407  0.77374352  1
  O  O3  1  0.41220097  0.03145407  0.72625648  1
  O  O4  1  0.76534115  0.19016409  0.54226951  1
  O  O5  1  0.73465885  0.69016409  0.95773049  1
  O  O6  1  0.23465885  0.80983591  0.45773049  1
  O  O7  1  0.26534115  0.30983591  0.04226951  1
  O  O8  1  0.18765903  0.76546942  0.05215196  1
  O  O9  1  0.31234097  0.26546942  0.44784804  1
  O  O10  1  0.81234097  0.23453058  0.94784804  1
  O  O11  1  0.68765903  0.73453058  0.55215196  1
  Sr  Sr12  1  0.00000000  0.50000000  0.50000000  1
  Sr  Sr13  1  0.50000000  0.00000000  0.00000000  1
  Ba  Ba14  1  0.50896195  0.46475582  0.75106852  1
  Ba  Ba15  1  0.99103805  0.96475582  0.74893148  1
  Ba  Ba16  1  0.00896195  0.03524418  0.25106852  1
  Ba  Ba17  1  0.49103805  0.53524418  0.24893148  1
  U  U18  1  0.00000000  0.50000000  0.00000000  1
  U  U19  1  0.50000000  0.00000000  0.50000000  1
