# generated using pymatgen
data_In(PO3)3
_symmetry_space_group_name_H-M   'P 1'
_cell_length_a   9.84902796
_cell_length_b   11.11442894
_cell_length_c   12.12994284
_cell_angle_alpha   113.69032836
_cell_angle_beta   110.02276843
_cell_angle_gamma   97.97798239
_symmetry_Int_Tables_number   1
_chemical_formula_structural   In(PO3)3
_chemical_formula_sum   'In6 P18 O54'
_cell_volume   1081.89056446
_cell_formula_units_Z   6
loop_
 _symmetry_equiv_pos_site_id
 _symmetry_equiv_pos_as_xyz
  1  'x, y, z'
loop_
 _atom_site_type_symbol
 _atom_site_label
 _atom_site_symmetry_multiplicity
 _atom_site_fract_x
 _atom_site_fract_y
 _atom_site_fract_z
 _atom_site_occupancy
  O  O0  1  0.39803265  0.25922715  0.00976398  1
  O  O1  1  0.88826867  0.24946317  0.99023602  1
  O  O2  1  0.38344145  0.74540035  0.58026063  1
  O  O3  1  0.30318082  0.16513972  0.41973937  1
  O  O4  1  0.66748354  0.88638005  0.70981728  1
  O  O5  1  0.45766627  0.17656278  0.29018272  1
  O  O6  1  0.01391924  0.03710508  0.71028988  1
  O  O7  1  0.80362936  0.32681520  0.28971012  1
  O  O8  1  0.85379557  0.14170962  0.12997385  1
  O  O9  1  0.22382172  0.01173576  0.87002615  1
  O  O10  1  0.96743145  0.15249016  0.56638197  1
  O  O11  1  0.90104949  0.58610820  0.43361803  1
  O  O12  1  0.74138294  0.08613427  0.26837395  1
  O  O13  1  0.97300899  0.81776032  0.73162605  1
  O  O14  1  0.51976819  0.80364798  0.46096218  1
  O  O15  1  0.55880601  0.34268580  0.53903782  1
  O  O16  1  0.47216851  0.99291107  0.61997909  1
  O  O17  1  0.35218941  0.37293198  0.38002091  1
  O  O18  1  0.01875143  0.23872931  0.37847869  1
  O  O19  1  0.14027274  0.86025063  0.62152131  1
  O  O20  1  0.59505149  0.70400597  0.27742382  1
  O  O21  1  0.81762768  0.42658216  0.72257618  1
  O  O22  1  0.54199468  0.93834024  0.33997359  1
  O  O23  1  0.70202109  0.59836665  0.66002641  1
  O  O24  1  0.18145216  0.55846269  0.82436162  1
  O  O25  1  0.85709054  0.73410107  0.17563838  1
  O  O26  1  0.62729186  0.59975806  0.95606021  1
  O  O27  1  0.17123166  0.64369785  0.04393979  1
  O  O28  1  0.16381436  0.57825189  0.62476215  1
  O  O29  1  0.03905221  0.95348974  0.37523785  1
  O  O30  1  0.35583803  0.51413091  0.00009076  1
  O  O31  1  0.85574727  0.51404016  0.99990924  1
  O  O32  1  0.42299991  0.64014800  0.80292534  1
  O  O33  1  0.12007456  0.83722266  0.19707466  1
  O  O34  1  0.07103003  0.38506322  0.88787288  1
  O  O35  1  0.68315716  0.49719034  0.11212712  1
  O  O36  1  0.52856075  0.79805578  0.05401886  1
  O  O37  1  0.97454189  0.74403692  0.94598114  1
  O  O38  1  0.68428925  0.81163927  0.92570283  1
  O  O39  1  0.25858642  0.88593645  0.07429717  1
  O  O40  1  0.79469152  0.42605491  0.51138979  1
  O  O41  1  0.78330173  0.91466512  0.48861021  1
  O  O42  1  0.61681838  0.45435243  0.32402057  1
  O  O43  1  0.79279781  0.13033186  0.67597943  1
  O  O44  1  0.12258533  0.24237185  0.16221936  1
  O  O45  1  0.46036596  0.08015249  0.83778064  1
  O  O46  1  0.26402995  0.38873321  0.66433821  1
  O  O47  1  0.09969174  0.72439499  0.33566179  1
  O  O48  1  0.94990462  0.02298175  0.96305002  1
  O  O49  1  0.48685460  0.05993173  0.03694998  1
  O  O50  1  0.30608894  0.46460173  0.21393316  1
  O  O51  1  0.59215577  0.25066856  0.78606684  1
  O  O52  1  0.13809946  0.47366881  0.33603790  1
  O  O53  1  0.30206156  0.13763092  0.66396210  1
  P  P54  1  0.60526755  0.83963991  0.38182149  1
  P  P55  1  0.72344606  0.45781842  0.61817851  1
  P  P56  1  0.39756018  0.11228674  0.94947099  1
  P  P57  1  0.94808919  0.16281576  0.05052901  1
  P  P58  1  0.85790221  0.19408220  0.27475848  1
  P  P59  1  0.08314373  0.91932372  0.72524152  1
  P  P60  1  0.51377399  0.85357379  0.60176993  1
  P  P61  1  0.41200406  0.25180386  0.39823007  1
  P  P62  1  0.03459946  0.81394939  0.28150849  1
  P  P63  1  0.25309096  0.53244090  0.71849151  1
  P  P64  1  0.75693390  0.57655038  0.06135987  1
  P  P65  1  0.19557404  0.51519051  0.93864013  1
  P  P66  1  0.12770903  0.78141418  0.05659169  1
  P  P67  1  0.57111734  0.72482249  0.94340831  1
  P  P68  1  0.88865328  0.06808386  0.61007209  1
  P  P69  1  0.77858119  0.45801177  0.38992791  1
  P  P70  1  0.45616370  0.12621636  0.72721780  1
  P  P71  1  0.22894590  0.39899856  0.27278220  1
  In  In72  1  0.49976656  0.98804666  0.17872444  1
  In  In73  1  0.82104212  0.80932222  0.82127556  1
  In  In74  1  0.15154691  0.17312728  0.51228542  1
  In  In75  1  0.13926149  0.66084186  0.48771458  1
  In  In76  1  0.83326168  0.32227759  0.84308502  1
  In  In77  1  0.49017666  0.47919257  0.15691498  1
