# generated using pymatgen
data_Er3CrB7
_symmetry_space_group_name_H-M   'P 1'
_cell_length_a   3.41498846
_cell_length_b   8.02738194
_cell_length_c   9.29026782
_cell_angle_alpha   90.00000000
_cell_angle_beta   90.00000000
_cell_angle_gamma   102.28113824
_symmetry_Int_Tables_number   1
_chemical_formula_structural   Er3CrB7
_chemical_formula_sum   'Er6 Cr2 B14'
_cell_volume   248.84984306
_cell_formula_units_Z   2
loop_
 _symmetry_equiv_pos_site_id
 _symmetry_equiv_pos_as_xyz
  1  'x, y, z'
loop_
 _atom_site_type_symbol
 _atom_site_label
 _atom_site_symmetry_multiplicity
 _atom_site_fract_x
 _atom_site_fract_y
 _atom_site_fract_z
 _atom_site_occupancy
  B  B0  1  0.45798393  0.91596785  0.25000000  1
  B  B1  1  0.54201607  0.08403215  0.75000000  1
  B  B2  1  0.47923387  0.95846774  0.90407493  1
  B  B3  1  0.52076613  0.04153226  0.09592507  1
  B  B4  1  0.52076613  0.04153226  0.40407493  1
  B  B5  1  0.47923387  0.95846774  0.59592507  1
  B  B6  1  0.36893734  0.73787467  0.84886790  1
  B  B7  1  0.63106266  0.26212533  0.15113210  1
  B  B8  1  0.27279934  0.54559867  0.96763079  1
  B  B9  1  0.72720066  0.45440133  0.03236921  1
  B  B10  1  0.72720066  0.45440133  0.46763079  1
  B  B11  1  0.27279934  0.54559867  0.53236921  1
  B  B12  1  0.36893734  0.73787467  0.65113210  1
  B  B13  1  0.63106266  0.26212533  0.34886790  1
  Cr  Cr14  1  0.05287857  0.10575714  0.25000000  1
  Cr  Cr15  1  0.94712143  0.89424286  0.75000000  1
  Er  Er16  1  0.24142013  0.48284026  0.25000000  1
  Er  Er17  1  0.75857987  0.51715974  0.75000000  1
  Er  Er18  1  0.10512456  0.21024912  0.55954727  1
  Er  Er19  1  0.89487544  0.78975088  0.44045273  1
  Er  Er20  1  0.89487544  0.78975088  0.05954727  1
  Er  Er21  1  0.10512456  0.21024912  0.94045273  1
