# generated using pymatgen
data_Na5InO4
_symmetry_space_group_name_H-M   'P 1'
_cell_length_a   10.69586274
_cell_length_b   10.83039693
_cell_length_c   10.89529524
_cell_angle_alpha   90.00000000
_cell_angle_beta   90.00000000
_cell_angle_gamma   90.00000000
_symmetry_Int_Tables_number   1
_chemical_formula_structural   Na5InO4
_chemical_formula_sum   'Na40 In8 O32'
_cell_volume   1262.11578345
_cell_formula_units_Z   8
loop_
 _symmetry_equiv_pos_site_id
 _symmetry_equiv_pos_as_xyz
  1  'x, y, z'
loop_
 _atom_site_type_symbol
 _atom_site_label
 _atom_site_symmetry_multiplicity
 _atom_site_fract_x
 _atom_site_fract_y
 _atom_site_fract_z
 _atom_site_occupancy
  O  O0  1  0.50961990  0.74717718  0.98814761  1
  O  O1  1  0.00961990  0.25282282  0.51185239  1
  O  O2  1  0.99038010  0.24717718  0.01185239  1
  O  O3  1  0.49038010  0.75282282  0.48814761  1
  O  O4  1  0.49038010  0.25282282  0.01185239  1
  O  O5  1  0.99038010  0.74717718  0.48814761  1
  O  O6  1  0.00961990  0.75282282  0.98814761  1
  O  O7  1  0.50961990  0.24717718  0.51185239  1
  O  O8  1  0.23758876  0.51520238  0.45632051  1
  O  O9  1  0.73758876  0.48479762  0.04367949  1
  O  O10  1  0.26241124  0.01520238  0.54367949  1
  O  O11  1  0.76241124  0.98479762  0.95632051  1
  O  O12  1  0.76241124  0.48479762  0.54367949  1
  O  O13  1  0.26241124  0.51520238  0.95632051  1
  O  O14  1  0.73758876  0.98479762  0.45632051  1
  O  O15  1  0.23758876  0.01520238  0.04367949  1
  O  O16  1  0.76801916  0.25241723  0.74297848  1
  O  O17  1  0.26801916  0.74758277  0.75702152  1
  O  O18  1  0.73198084  0.75241723  0.25702152  1
  O  O19  1  0.23198084  0.24758277  0.24297848  1
  O  O20  1  0.23198084  0.74758277  0.25702152  1
  O  O21  1  0.73198084  0.25241723  0.24297848  1
  O  O22  1  0.26801916  0.24758277  0.74297848  1
  O  O23  1  0.76801916  0.75241723  0.75702152  1
  O  O24  1  0.99940172  0.45669098  0.74412746  1
  O  O25  1  0.49940172  0.54330902  0.75587254  1
  O  O26  1  0.50059828  0.95669098  0.25587254  1
  O  O27  1  0.00059828  0.04330902  0.24412746  1
  O  O28  1  0.00059828  0.54330902  0.25587254  1
  O  O29  1  0.50059828  0.45669098  0.24412746  1
  O  O30  1  0.49940172  0.04330902  0.74412746  1
  O  O31  1  0.99940172  0.95669098  0.75587254  1
  Na  Na32  1  0.10329974  0.11914773  0.66144120  1
  Na  Na33  1  0.60329974  0.88085227  0.83855880  1
  Na  Na34  1  0.39670026  0.61914773  0.33855880  1
  Na  Na35  1  0.89670026  0.38085227  0.16144120  1
  Na  Na36  1  0.89670026  0.88085227  0.33855880  1
  Na  Na37  1  0.39670026  0.11914773  0.16144120  1
  Na  Na38  1  0.60329974  0.38085227  0.66144120  1
  Na  Na39  1  0.10329974  0.61914773  0.83855880  1
  Na  Na40  1  0.64331909  0.88692501  0.10336524  1
  Na  Na41  1  0.14331909  0.11307499  0.39663476  1
  Na  Na42  1  0.85668091  0.38692501  0.89663476  1
  Na  Na43  1  0.35668091  0.61307499  0.60336524  1
  Na  Na44  1  0.35668091  0.11307499  0.89663476  1
  Na  Na45  1  0.85668091  0.88692501  0.60336524  1
  Na  Na46  1  0.14331909  0.61307499  0.10336524  1
  Na  Na47  1  0.64331909  0.38692501  0.39663476  1
  Na  Na48  1  0.59500770  0.62422806  0.14728897  1
  Na  Na49  1  0.09500770  0.37577194  0.35271103  1
  Na  Na50  1  0.90499230  0.12422806  0.85271103  1
  Na  Na51  1  0.40499230  0.87577194  0.64728897  1
  Na  Na52  1  0.40499230  0.37577194  0.85271103  1
  Na  Na53  1  0.90499230  0.62422806  0.64728897  1
  Na  Na54  1  0.09500770  0.87577194  0.14728897  1
  Na  Na55  1  0.59500770  0.12422806  0.35271103  1
  Na  Na56  1  0.66610305  0.10642351  0.61722341  1
  Na  Na57  1  0.16610305  0.89357649  0.88277659  1
  Na  Na58  1  0.83389695  0.60642351  0.38277659  1
  Na  Na59  1  0.33389695  0.39357649  0.11722341  1
  Na  Na60  1  0.33389695  0.89357649  0.38277659  1
  Na  Na61  1  0.83389695  0.10642351  0.11722341  1
  Na  Na62  1  0.16610305  0.39357649  0.61722341  1
  Na  Na63  1  0.66610305  0.60642351  0.88277659  1
  Na  Na64  1  0.13194935  0.84952654  0.61831530  1
  Na  Na65  1  0.63194935  0.15047346  0.88168470  1
  Na  Na66  1  0.36805065  0.34952654  0.38168470  1
  Na  Na67  1  0.86805065  0.65047346  0.11831530  1
  Na  Na68  1  0.86805065  0.15047346  0.38168470  1
  Na  Na69  1  0.36805065  0.84952654  0.11831530  1
  Na  Na70  1  0.63194935  0.65047346  0.61831530  1
  Na  Na71  1  0.13194935  0.34952654  0.88168470  1
  In  In72  1  0.88465510  0.35240205  0.62209086  1
  In  In73  1  0.38465510  0.64759795  0.87790914  1
  In  In74  1  0.61534490  0.85240205  0.37790914  1
  In  In75  1  0.11534490  0.14759795  0.12209086  1
  In  In76  1  0.11534490  0.64759795  0.37790914  1
  In  In77  1  0.61534490  0.35240205  0.12209086  1
  In  In78  1  0.38465510  0.14759795  0.62209086  1
  In  In79  1  0.88465510  0.85240205  0.87790914  1
