# generated using pymatgen
data_Pr2Au5F21
_symmetry_space_group_name_H-M   'P 1'
_cell_length_a   8.45678719
_cell_length_b   8.45678719
_cell_length_c   26.34041984
_cell_angle_alpha   90.00000000
_cell_angle_beta   90.00000000
_cell_angle_gamma   90.00000000
_symmetry_Int_Tables_number   1
_chemical_formula_structural   Pr2Au5F21
_chemical_formula_sum   'Pr8 Au20 F84'
_cell_volume   1883.79437966
_cell_formula_units_Z   4
loop_
 _symmetry_equiv_pos_site_id
 _symmetry_equiv_pos_as_xyz
  1  'x, y, z'
loop_
 _atom_site_type_symbol
 _atom_site_label
 _atom_site_symmetry_multiplicity
 _atom_site_fract_x
 _atom_site_fract_y
 _atom_site_fract_z
 _atom_site_occupancy
  Pr  Pr0  1  0.55132409  0.92854411  0.99803018  1
  Pr  Pr1  1  0.44867591  0.07145589  0.49803018  1
  Pr  Pr2  1  0.92854411  0.55132409  0.00196982  1
  Pr  Pr3  1  0.42854411  0.94867591  0.74803018  1
  Pr  Pr4  1  0.57145589  0.05132409  0.24803018  1
  Pr  Pr5  1  0.94867591  0.42854411  0.25196982  1
  Pr  Pr6  1  0.05132409  0.57145589  0.75196982  1
  Pr  Pr7  1  0.07145589  0.44867591  0.50196982  1
  Au  Au8  1  0.40473590  0.35663328  0.84438495  1
  Au  Au9  1  0.59526410  0.64336672  0.34438495  1
  Au  Au10  1  0.35663328  0.40473590  0.15561505  1
  Au  Au11  1  0.85663328  0.09526410  0.59438495  1
  Au  Au12  1  0.14336672  0.90473590  0.09438495  1
  Au  Au13  1  0.09526410  0.85663328  0.40561505  1
  Au  Au14  1  0.90473590  0.14336672  0.90561505  1
  Au  Au15  1  0.64336672  0.59526410  0.65561505  1
  Au  Au16  1  0.20460460  0.82145127  0.88912508  1
  Au  Au17  1  0.79539540  0.17854873  0.38912508  1
  Au  Au18  1  0.82145127  0.20460460  0.11087492  1
  Au  Au19  1  0.32145127  0.29539540  0.63912508  1
  Au  Au20  1  0.67854873  0.70460460  0.13912508  1
  Au  Au21  1  0.29539540  0.32145127  0.36087492  1
  Au  Au22  1  0.70460460  0.67854873  0.86087492  1
  Au  Au23  1  0.17854873  0.79539540  0.61087492  1
  Au  Au24  1  0.56477501  0.56477501  0.50000000  1
  Au  Au25  1  0.93522499  0.06477501  0.75000000  1
  Au  Au26  1  0.06477501  0.93522499  0.25000000  1
  Au  Au27  1  0.43522499  0.43522499  0.00000000  1
  F  F28  1  0.59039550  0.78385949  0.80502764  1
  F  F29  1  0.40960450  0.21614051  0.30502764  1
  F  F30  1  0.78385949  0.59039550  0.19497236  1
  F  F31  1  0.28385949  0.90960450  0.55502764  1
  F  F32  1  0.71614051  0.09039550  0.05502764  1
  F  F33  1  0.90960450  0.28385949  0.44497236  1
  F  F34  1  0.09039550  0.71614051  0.94497236  1
  F  F35  1  0.21614051  0.40960450  0.69497236  1
  F  F36  1  0.03825720  0.68943220  0.45465506  1
  F  F37  1  0.96174280  0.31056780  0.95465506  1
  F  F38  1  0.68943220  0.03825720  0.54534494  1
  F  F39  1  0.18943220  0.46174280  0.20465506  1
  F  F40  1  0.81056780  0.53825720  0.70465506  1
  F  F41  1  0.46174280  0.18943220  0.79534494  1
  F  F42  1  0.53825720  0.81056780  0.29534494  1
  F  F43  1  0.31056780  0.96174280  0.04534494  1
  F  F44  1  0.91312379  0.80185646  0.36483228  1
  F  F45  1  0.08687621  0.19814354  0.86483228  1
  F  F46  1  0.80185646  0.91312379  0.63516772  1
  F  F47  1  0.30185646  0.58687621  0.11483228  1
  F  F48  1  0.69814354  0.41312379  0.61483228  1
  F  F49  1  0.58687621  0.30185646  0.88516772  1
  F  F50  1  0.41312379  0.69814354  0.38516772  1
  F  F51  1  0.19814354  0.08687621  0.13516772  1
  F  F52  1  0.93466196  0.29692565  0.75229583  1
  F  F53  1  0.06533804  0.70307435  0.25229583  1
  F  F54  1  0.29692565  0.93466196  0.24770417  1
  F  F55  1  0.20307435  0.43466196  0.00229583  1
  F  F56  1  0.79692565  0.56533804  0.50229583  1
  F  F57  1  0.06443973  0.68188654  0.66450840  1
  F  F58  1  0.93556027  0.31811346  0.16450840  1
  F  F59  1  0.68188654  0.06443973  0.33549160  1
  F  F60  1  0.31811346  0.93556027  0.83549160  1
  F  F61  1  0.81811346  0.56443973  0.91450840  1
  F  F62  1  0.43556027  0.18188654  0.58549160  1
  F  F63  1  0.56443973  0.81811346  0.08549160  1
  F  F64  1  0.91852810  0.30076868  0.33901771  1
  F  F65  1  0.19923132  0.41852810  0.58901771  1
  F  F66  1  0.80076868  0.58147190  0.08901771  1
  F  F67  1  0.41852810  0.19923132  0.41098229  1
  F  F68  1  0.58147190  0.80076868  0.91098229  1
  F  F69  1  0.08147190  0.69923132  0.83901771  1
  F  F70  1  0.30076868  0.91852810  0.66098229  1
  F  F71  1  0.69923132  0.08147190  0.16098229  1
  F  F72  1  0.45031733  0.18125273  0.68977789  1
  F  F73  1  0.31874727  0.95031733  0.93977789  1
  F  F74  1  0.68125273  0.04968267  0.43977789  1
  F  F75  1  0.95031733  0.31874727  0.06022211  1
  F  F76  1  0.04968267  0.68125273  0.56022211  1
  F  F77  1  0.54968267  0.81874727  0.18977789  1
  F  F78  1  0.18125273  0.45031733  0.31022211  1
  F  F79  1  0.81874727  0.54968267  0.81022211  1
  F  F80  1  0.33170464  0.56941667  0.50009673  1
  F  F81  1  0.93058333  0.83170464  0.75009673  1
  F  F82  1  0.06941667  0.16829536  0.25009673  1
  F  F83  1  0.83170464  0.93058333  0.24990327  1
  F  F84  1  0.16829536  0.06941667  0.74990327  1
  F  F85  1  0.66829536  0.43058333  0.00009673  1
  F  F86  1  0.56941667  0.33170464  0.49990327  1
  F  F87  1  0.43058333  0.66829536  0.99990327  1
  F  F88  1  0.91268919  0.27969388  0.55119124  1
  F  F89  1  0.22030612  0.41268919  0.80119124  1
  F  F90  1  0.77969388  0.58731081  0.30119124  1
  F  F91  1  0.41268919  0.22030612  0.19880876  1
  F  F92  1  0.58731081  0.77969388  0.69880876  1
  F  F93  1  0.08731081  0.72030612  0.05119124  1
  F  F94  1  0.27969388  0.91268919  0.44880876  1
  F  F95  1  0.72030612  0.08731081  0.94880876  1
  F  F96  1  0.77762416  0.77762416  0.00000000  1
  F  F97  1  0.72237584  0.27762416  0.25000000  1
  F  F98  1  0.27762416  0.72237584  0.75000000  1
  F  F99  1  0.22237584  0.22237584  0.50000000  1
  F  F100  1  0.52598820  0.35640501  0.10786518  1
  F  F101  1  0.14359499  0.02598820  0.35786518  1
  F  F102  1  0.85640501  0.97401180  0.85786518  1
  F  F103  1  0.02598820  0.14359499  0.64213482  1
  F  F104  1  0.97401180  0.85640501  0.14213482  1
  F  F105  1  0.47401180  0.64359499  0.60786518  1
  F  F106  1  0.35640501  0.52598820  0.89213482  1
  F  F107  1  0.64359499  0.47401180  0.39213482  1
  F  F108  1  0.70307435  0.06533804  0.74770417  1
  F  F109  1  0.43466196  0.20307435  0.99770417  1
  F  F110  1  0.56533804  0.79692565  0.49770417  1
  F  F111  1  0.18188654  0.43556027  0.41450840  1
