# generated using pymatgen
data_LiFeF3
_symmetry_space_group_name_H-M   'P 1'
_cell_length_a   5.66352545
_cell_length_b   5.80900390
_cell_length_c   4.04065640
_cell_angle_alpha   90.00000000
_cell_angle_beta   112.35856565
_cell_angle_gamma   90.00000000
_symmetry_Int_Tables_number   1
_chemical_formula_structural   LiFeF3
_chemical_formula_sum   'Li2 Fe2 F6'
_cell_volume   122.94144164
_cell_formula_units_Z   2
loop_
 _symmetry_equiv_pos_site_id
 _symmetry_equiv_pos_as_xyz
  1  'x, y, z'
loop_
 _atom_site_type_symbol
 _atom_site_label
 _atom_site_symmetry_multiplicity
 _atom_site_fract_x
 _atom_site_fract_y
 _atom_site_fract_z
 _atom_site_occupancy
  Li  Li0  1  0.43643669  0.75000000  0.62589691  1
  Li  Li1  1  0.56356331  0.25000000  0.37410309  1
  Fe  Fe2  1  0.99710135  0.25000000  0.01539218  1
  Fe  Fe3  1  0.00289865  0.75000000  0.98460782  1
  F  F4  1  0.93645406  0.25000000  0.47679261  1
  F  F5  1  0.29794368  0.00796206  0.17480015  1
  F  F6  1  0.29794368  0.49203794  0.17480015  1
  F  F7  1  0.70205632  0.50796206  0.82519985  1
  F  F8  1  0.70205632  0.99203794  0.82519985  1
  F  F9  1  0.06354594  0.75000000  0.52320739  1
