# generated using pymatgen
data_RbSnAsO5
_symmetry_space_group_name_H-M   'P 1'
_cell_length_a   6.92512002
_cell_length_b   11.12054129
_cell_length_c   13.87581480
_cell_angle_alpha   90.00000000
_cell_angle_beta   90.00000000
_cell_angle_gamma   90.00000000
_symmetry_Int_Tables_number   1
_chemical_formula_structural   RbSnAsO5
_chemical_formula_sum   'Rb8 Sn8 As8 O40'
_cell_volume   1068.59152693
_cell_formula_units_Z   8
loop_
 _symmetry_equiv_pos_site_id
 _symmetry_equiv_pos_as_xyz
  1  'x, y, z'
loop_
 _atom_site_type_symbol
 _atom_site_label
 _atom_site_symmetry_multiplicity
 _atom_site_fract_x
 _atom_site_fract_y
 _atom_site_fract_z
 _atom_site_occupancy
  O  O0  1  0.46781051  0.87157797  0.25648101  1
  O  O1  1  0.53218949  0.37157797  0.74351899  1
  O  O2  1  0.03218949  0.87157797  0.75648101  1
  O  O3  1  0.96781051  0.37157797  0.24351899  1
  O  O4  1  0.97170891  0.10996637  0.75150278  1
  O  O5  1  0.02829109  0.60996637  0.24849722  1
  O  O6  1  0.52829109  0.10996637  0.25150278  1
  O  O7  1  0.47170891  0.60996637  0.74849722  1
  O  O8  1  0.04748818  0.86322682  0.23158302  1
  O  O9  1  0.95251182  0.36322682  0.76841698  1
  O  O10  1  0.45251182  0.86322682  0.73158302  1
  O  O11  1  0.54748818  0.36322682  0.26841698  1
  O  O12  1  0.53107245  0.12022974  0.72289122  1
  O  O13  1  0.46892755  0.62022974  0.27710878  1
  O  O14  1  0.96892755  0.12022974  0.22289122  1
  O  O15  1  0.81680734  0.21016452  0.40062227  1
  O  O16  1  0.03107245  0.62022974  0.77710878  1
  O  O17  1  0.30382932  0.45790626  0.89751203  1
  O  O18  1  0.80382932  0.95790626  0.60248797  1
  O  O19  1  0.19617068  0.45790626  0.39751203  1
  O  O20  1  0.19283506  0.01577882  0.60227454  1
  O  O21  1  0.80716494  0.51577882  0.39772546  1
  O  O22  1  0.30716494  0.01577882  0.10227454  1
  O  O23  1  0.69283506  0.51577882  0.89772546  1
  O  O24  1  0.50974935  0.11454641  0.51196109  1
  O  O25  1  0.49025065  0.61454641  0.48803891  1
  O  O26  1  0.99025065  0.11454641  0.01196109  1
  O  O27  1  0.00974935  0.61454641  0.98803891  1
  O  O28  1  0.01966140  0.85887866  0.01412530  1
  O  O29  1  0.98033860  0.35887866  0.98587470  1
  O  O30  1  0.48033860  0.85887866  0.51412530  1
  O  O31  1  0.51966140  0.35887866  0.48587470  1
  O  O32  1  0.81102140  0.25948570  0.59653498  1
  O  O33  1  0.18897860  0.75948570  0.40346502  1
  O  O34  1  0.68897860  0.25948570  0.09653498  1
  O  O35  1  0.31102140  0.75948570  0.90346502  1
  O  O36  1  0.31680734  0.71016452  0.09937773  1
  O  O37  1  0.68319266  0.21016452  0.90062227  1
  O  O38  1  0.18319266  0.71016452  0.59937773  1
  O  O39  1  0.69617068  0.95790626  0.10248797  1
  As  As40  1  0.99779200  0.98746823  0.67602675  1
  As  As41  1  0.00220800  0.48746823  0.32397325  1
  As  As42  1  0.50220800  0.98746823  0.17602675  1
  As  As43  1  0.49779200  0.48746823  0.82397325  1
  As  As44  1  0.16688121  0.73384774  0.00239910  1
  As  As45  1  0.83311879  0.23384774  0.99760090  1
  As  As46  1  0.33311879  0.73384774  0.50239910  1
  As  As47  1  0.66688121  0.23384774  0.49760090  1
  Rb  Rb48  1  0.77904459  0.79626585  0.37821963  1
  Rb  Rb49  1  0.27904459  0.29626585  0.12178037  1
  Rb  Rb50  1  0.72095541  0.79626585  0.87821963  1
  Rb  Rb51  1  0.31038427  0.05253341  0.88862144  1
  Rb  Rb52  1  0.81038427  0.55253341  0.61137856  1
  Rb  Rb53  1  0.68961573  0.55253341  0.11137856  1
  Rb  Rb54  1  0.18961573  0.05253341  0.38862144  1
  Rb  Rb55  1  0.22095541  0.29626585  0.62178037  1
  Sn  Sn56  1  0.74639954  0.23663434  0.75010768  1
  Sn  Sn57  1  0.25360046  0.73663434  0.24989232  1
  Sn  Sn58  1  0.75360046  0.23663434  0.25010768  1
  Sn  Sn59  1  0.50117508  0.98518915  0.62692691  1
  Sn  Sn60  1  0.49882492  0.48518915  0.37307309  1
  Sn  Sn61  1  0.99882492  0.98518915  0.12692691  1
  Sn  Sn62  1  0.00117508  0.48518915  0.87307309  1
  Sn  Sn63  1  0.24639954  0.73663434  0.74989232  1
