# generated using pymatgen
data_La(P3Ru)4
_symmetry_space_group_name_H-M   'P 1'
_cell_length_a   7.02479569
_cell_length_b   7.02479568
_cell_length_c   7.02479569
_cell_angle_alpha   109.47122062
_cell_angle_beta   109.47122061
_cell_angle_gamma   109.47122062
_symmetry_Int_Tables_number   1
_chemical_formula_structural   La(P3Ru)4
_chemical_formula_sum   'La1 P12 Ru4'
_cell_volume   266.85737028
_cell_formula_units_Z   1
loop_
 _symmetry_equiv_pos_site_id
 _symmetry_equiv_pos_as_xyz
  1  'x, y, z'
loop_
 _atom_site_type_symbol
 _atom_site_label
 _atom_site_symmetry_multiplicity
 _atom_site_fract_x
 _atom_site_fract_y
 _atom_site_fract_z
 _atom_site_occupancy
  P  P0  1  0.49774086  0.85592154  0.64181931  1
  P  P1  1  0.21410223  0.85592154  0.35818069  1
  P  P2  1  0.78589777  0.14407846  0.64181931  1
  P  P3  1  0.14407846  0.35818069  0.50225914  1
  P  P4  1  0.35818069  0.50225914  0.14407846  1
  P  P5  1  0.50225914  0.14407846  0.35818069  1
  P  P6  1  0.14407846  0.64181931  0.78589777  1
  P  P7  1  0.35818069  0.21410223  0.85592154  1
  P  P8  1  0.85592154  0.64181931  0.49774086  1
  P  P9  1  0.64181931  0.78589777  0.14407846  1
  P  P10  1  0.85592154  0.35818069  0.21410223  1
  P  P11  1  0.64181931  0.49774086  0.85592154  1
  Ru  Ru12  1  0.50000000  0.00000000  0.00000000  1
  Ru  Ru13  1  0.00000000  0.00000000  0.50000000  1
  Ru  Ru14  1  0.00000000  0.50000000  0.00000000  1
  Ru  Ru15  1  0.50000000  0.50000000  0.50000000  1
  La  La16  1  0.00000000  0.00000000  0.00000000  1
