# generated using pymatgen
data_RbScAsO4F
_symmetry_space_group_name_H-M   'P 1'
_cell_length_a   6.89715134
_cell_length_b   11.42323024
_cell_length_c   13.91489017
_cell_angle_alpha   90.00000000
_cell_angle_beta   90.00000000
_cell_angle_gamma   90.00000000
_symmetry_Int_Tables_number   1
_chemical_formula_structural   RbScAsO4F
_chemical_formula_sum   'Rb8 Sc8 As8 O32 F8'
_cell_volume   1096.32285678
_cell_formula_units_Z   8
loop_
 _symmetry_equiv_pos_site_id
 _symmetry_equiv_pos_as_xyz
  1  'x, y, z'
loop_
 _atom_site_type_symbol
 _atom_site_label
 _atom_site_symmetry_multiplicity
 _atom_site_fract_x
 _atom_site_fract_y
 _atom_site_fract_z
 _atom_site_occupancy
  O  O0  1  0.53446519  0.60419404  0.25652115  1
  O  O1  1  0.31641333  0.21211127  0.09837015  1
  O  O2  1  0.81641333  0.71211127  0.40162985  1
  O  O3  1  0.18358667  0.21211127  0.59837015  1
  O  O4  1  0.68641840  0.75240692  0.10301317  1
  O  O5  1  0.31358160  0.25240692  0.89698683  1
  O  O6  1  0.81358160  0.75240692  0.60301317  1
  O  O7  1  0.18641840  0.25240692  0.39698683  1
  O  O8  1  0.95268105  0.86814886  0.24300560  1
  O  O9  1  0.04731895  0.36814886  0.75699440  1
  O  O10  1  0.54731895  0.86814886  0.74300560  1
  O  O11  1  0.45268105  0.36814886  0.25699440  1
  O  O12  1  0.03446519  0.10419404  0.24347885  1
  O  O13  1  0.96553481  0.60419404  0.75652115  1
  O  O14  1  0.46553481  0.10419404  0.74347885  1
  O  O15  1  0.68358667  0.71211127  0.90162985  1
  O  O16  1  0.19767835  0.95700331  0.38750195  1
  O  O17  1  0.80232165  0.45700331  0.61249805  1
  O  O18  1  0.30232165  0.95700331  0.88750195  1
  O  O19  1  0.96728013  0.85669743  0.99019969  1
  O  O20  1  0.80035880  0.01587414  0.38845935  1
  O  O21  1  0.19964120  0.51587414  0.61154065  1
  O  O22  1  0.69964120  0.01587414  0.88845935  1
  O  O23  1  0.30035880  0.51587414  0.11154065  1
  O  O24  1  0.48562030  0.12018206  0.48385580  1
  O  O25  1  0.51437970  0.62018206  0.51614420  1
  O  O26  1  0.01437970  0.12018206  0.98385580  1
  O  O27  1  0.98562030  0.62018206  0.01614420  1
  O  O28  1  0.46728013  0.35669743  0.50980031  1
  O  O29  1  0.53271987  0.85669743  0.49019969  1
  O  O30  1  0.03271987  0.35669743  0.00980031  1
  O  O31  1  0.69767835  0.45700331  0.11249805  1
  F  F32  1  0.46608317  0.10947787  0.27533840  1
  F  F33  1  0.53391683  0.60947787  0.72466160  1
  F  F34  1  0.03391683  0.10947787  0.77533840  1
  F  F35  1  0.96608317  0.60947787  0.22466160  1
  F  F36  1  0.03962525  0.35996727  0.22393894  1
  F  F37  1  0.96037475  0.85996727  0.77606106  1
  F  F38  1  0.46037475  0.35996727  0.72393894  1
  F  F39  1  0.53962525  0.85996727  0.27606106  1
  Sc  Sc40  1  0.99472855  0.48216311  0.11184077  1
  Sc  Sc41  1  0.49472855  0.98216311  0.38815923  1
  Sc  Sc42  1  0.50527145  0.48216311  0.61184077  1
  Sc  Sc43  1  0.00527145  0.98216311  0.88815923  1
  Sc  Sc44  1  0.25147416  0.23123019  0.24582649  1
  Sc  Sc45  1  0.74852584  0.73123019  0.75417351  1
  Sc  Sc46  1  0.24852584  0.23123019  0.74582649  1
  Sc  Sc47  1  0.75147416  0.73123019  0.25417351  1
  As  As48  1  0.99833092  0.98508665  0.31786185  1
  As  As49  1  0.67575270  0.73367219  0.50150027  1
  As  As50  1  0.17575270  0.23367219  0.99849973  1
  As  As51  1  0.82424730  0.73367219  0.00150027  1
  As  As52  1  0.32424730  0.23367219  0.49849973  1
  As  As53  1  0.49833092  0.48508665  0.18213815  1
  As  As54  1  0.50166908  0.98508665  0.81786185  1
  As  As55  1  0.00166908  0.48508665  0.68213815  1
  Rb  Rb56  1  0.20070468  0.54405190  0.39331112  1
  Rb  Rb57  1  0.79929532  0.04405190  0.60668888  1
  Rb  Rb58  1  0.29929532  0.54405190  0.89331112  1
  Rb  Rb59  1  0.70070468  0.04405190  0.10668888  1
  Rb  Rb60  1  0.27320954  0.78493279  0.12369531  1
  Rb  Rb61  1  0.72679046  0.28493279  0.87630469  1
  Rb  Rb62  1  0.22679046  0.78493279  0.62369531  1
  Rb  Rb63  1  0.77320954  0.28493279  0.37630469  1
