# generated using pymatgen
data_SrZn2(AsO4)2
_symmetry_space_group_name_H-M   'P 1'
_cell_length_a   8.74395974
_cell_length_b   9.44062629
_cell_length_c   9.90812975
_cell_angle_alpha   90.00000000
_cell_angle_beta   90.00000000
_cell_angle_gamma   91.82087417
_symmetry_Int_Tables_number   1
_chemical_formula_structural   SrZn2(AsO4)2
_chemical_formula_sum   'Sr4 Zn8 As8 O32'
_cell_volume   817.48781525
_cell_formula_units_Z   4
loop_
 _symmetry_equiv_pos_site_id
 _symmetry_equiv_pos_as_xyz
  1  'x, y, z'
loop_
 _atom_site_type_symbol
 _atom_site_label
 _atom_site_symmetry_multiplicity
 _atom_site_fract_x
 _atom_site_fract_y
 _atom_site_fract_z
 _atom_site_occupancy
  O  O0  1  0.26326570  0.16741052  0.43092054  1
  O  O1  1  0.73673430  0.33258948  0.93092054  1
  O  O2  1  0.73673430  0.83258948  0.56907946  1
  O  O3  1  0.26326570  0.66741052  0.06907946  1
  O  O4  1  0.21656997  0.49915433  0.63320477  1
  O  O5  1  0.78343003  0.00084567  0.13320477  1
  O  O6  1  0.78343003  0.50084567  0.36679523  1
  O  O7  1  0.21656997  0.99915433  0.86679523  1
  O  O8  1  0.56878361  0.61697590  0.70160218  1
  O  O9  1  0.43121639  0.88302410  0.20160218  1
  O  O10  1  0.43121639  0.38302410  0.29839782  1
  O  O11  1  0.56878361  0.11697590  0.79839782  1
  O  O12  1  0.91565533  0.56785631  0.70699220  1
  O  O13  1  0.08434467  0.93214369  0.20699220  1
  O  O14  1  0.08434467  0.43214369  0.29300780  1
  O  O15  1  0.91565533  0.06785631  0.79300780  1
  O  O16  1  0.43542961  0.38272575  0.87517959  1
  O  O17  1  0.56457039  0.11727425  0.37517959  1
  O  O18  1  0.56457039  0.61727425  0.12482041  1
  O  O19  1  0.43542961  0.88272575  0.62482041  1
  O  O20  1  0.97423183  0.80236098  0.89718062  1
  O  O21  1  0.02576817  0.69763902  0.39718062  1
  O  O22  1  0.02576817  0.19763902  0.10281938  1
  O  O23  1  0.97423183  0.30236098  0.60281938  1
  O  O24  1  0.52029347  0.81235840  0.93494845  1
  O  O25  1  0.47970653  0.68764160  0.43494845  1
  O  O26  1  0.47970653  0.18764160  0.06505155  1
  O  O27  1  0.52029347  0.31235840  0.56505155  1
  O  O28  1  0.06973180  0.88044391  0.63153624  1
  O  O29  1  0.93026820  0.61955609  0.13153624  1
  O  O30  1  0.93026820  0.11955609  0.36846376  1
  O  O31  1  0.06973180  0.38044391  0.86846376  1
  Zn  Zn32  1  0.42236289  0.45040662  0.68606178  1
  Zn  Zn33  1  0.57763711  0.04959338  0.18606178  1
  Zn  Zn34  1  0.57763711  0.54959338  0.31393822  1
  Zn  Zn35  1  0.42236289  0.95040662  0.81393822  1
  Zn  Zn36  1  0.92599516  0.22066754  0.92637952  1
  Zn  Zn37  1  0.07400484  0.27933246  0.42637952  1
  Zn  Zn38  1  0.07400484  0.77933246  0.07362048  1
  Zn  Zn39  1  0.92599516  0.72066754  0.57362048  1
  As  As40  1  0.44164725  0.25043291  0.41654373  1
  As  As41  1  0.55835275  0.24956709  0.91654373  1
  As  As42  1  0.55835275  0.74956709  0.58345627  1
  As  As43  1  0.44164725  0.75043291  0.08345627  1
  As  As44  1  0.95077230  0.06290142  0.20406738  1
  As  As45  1  0.04922770  0.43709858  0.70406738  1
  As  As46  1  0.04922770  0.93709858  0.79593262  1
  As  As47  1  0.95077230  0.56290142  0.29593262  1
  Sr  Sr48  1  0.74996061  0.61512444  0.91680651  1
  Sr  Sr49  1  0.25003939  0.88487556  0.41680651  1
  Sr  Sr50  1  0.25003939  0.38487556  0.08319349  1
  Sr  Sr51  1  0.74996061  0.11512444  0.58319349  1
