# generated using pymatgen
data_Ba2YIrO6
_symmetry_space_group_name_H-M   'P 1'
_cell_length_a   5.97597477
_cell_length_b   5.97569963
_cell_length_c   8.45261068
_cell_angle_alpha   90.00000000
_cell_angle_beta   89.99324992
_cell_angle_gamma   90.00000000
_symmetry_Int_Tables_number   1
_chemical_formula_structural   Ba2YIrO6
_chemical_formula_sum   'Ba4 Y2 Ir2 O12'
_cell_volume   301.84805247
_cell_formula_units_Z   2
loop_
 _symmetry_equiv_pos_site_id
 _symmetry_equiv_pos_as_xyz
  1  'x, y, z'
loop_
 _atom_site_type_symbol
 _atom_site_label
 _atom_site_symmetry_multiplicity
 _atom_site_fract_x
 _atom_site_fract_y
 _atom_site_fract_z
 _atom_site_occupancy
  O  O0  1  0.99805406  0.49997097  0.73553272  1
  O  O1  1  0.50194594  0.99997097  0.76446728  1
  O  O2  1  0.00194594  0.50002903  0.26446728  1
  O  O3  1  0.49805406  0.00002903  0.23553272  1
  O  O4  1  0.76524913  0.73629760  0.49898782  1
  O  O5  1  0.73475087  0.23629760  0.00101218  1
  O  O6  1  0.23475087  0.26370240  0.50101218  1
  O  O7  1  0.26524913  0.76370240  0.99898782  1
  O  O8  1  0.26370757  0.23475622  0.99908137  1
  O  O9  1  0.23629243  0.73475622  0.50091863  1
  O  O10  1  0.73629243  0.76524378  0.00091863  1
  O  O11  1  0.76370757  0.26524378  0.49908137  1
  Y  Y12  1  0.00000000  0.50000000  0.00000000  1
  Y  Y13  1  0.50000000  0.00000000  0.50000000  1
  Ba  Ba14  1  0.50012732  0.49996730  0.75002188  1
  Ba  Ba15  1  0.49987268  0.50003270  0.24997812  1
  Ba  Ba16  1  0.99987268  0.99996730  0.74997812  1
  Ba  Ba17  1  0.00012732  0.00003270  0.25002188  1
  Ir  Ir18  1  0.50000000  0.00000000  0.00000000  1
  Ir  Ir19  1  0.00000000  0.50000000  0.50000000  1
