# generated using pymatgen
data_Li4Ti3V2Sn3O16
_symmetry_space_group_name_H-M   'P 1'
_cell_length_a   6.16732046
_cell_length_b   6.13900079
_cell_length_c   9.91370569
_cell_angle_alpha   89.99634404
_cell_angle_beta   89.52647134
_cell_angle_gamma   119.92338981
_symmetry_Int_Tables_number   1
_chemical_formula_structural   Li4Ti3V2Sn3O16
_chemical_formula_sum   'Li4 Ti3 V2 Sn3 O16'
_cell_volume   325.29374053
_cell_formula_units_Z   1
loop_
 _symmetry_equiv_pos_site_id
 _symmetry_equiv_pos_as_xyz
  1  'x, y, z'
loop_
 _atom_site_type_symbol
 _atom_site_label
 _atom_site_symmetry_multiplicity
 _atom_site_fract_x
 _atom_site_fract_y
 _atom_site_fract_z
 _atom_site_occupancy
  Li  Li0  1  0.33915596  0.66973711  0.88619795  1
  Li  Li1  1  0.98248828  0.99103453  0.99520475  1
  Li  Li2  1  0.98379489  0.99193208  0.50140724  1
  Li  Li3  1  0.67152654  0.33581947  0.39398058  1
  Ti  Ti4  1  0.66469603  0.83222918  0.21676706  1
  Ti  Ti5  1  0.83042648  0.66296230  0.71528085  1
  Ti  Ti6  1  0.83149033  0.16924190  0.71563383  1
  V  V7  1  0.34093061  0.67057120  0.49182175  1
  V  V8  1  0.67375491  0.33690966  0.98519739  1
  Sn  Sn9  1  0.17167296  0.83297317  0.21561319  1
  Sn  Sn10  1  0.17147018  0.33868988  0.21557248  1
  Sn  Sn11  1  0.33796018  0.16876569  0.71032646  1
  O  O12  1  0.14649520  0.83145996  0.60313089  1
  O  O13  1  0.03863417  0.51949128  0.34168020  1
  O  O14  1  0.34940841  0.67462529  0.09939125  1
  O  O15  1  0.98852323  0.99433855  0.31939375  1
  O  O16  1  0.98821716  0.99421920  0.81249974  1
  O  O17  1  0.14649861  0.31483102  0.60322379  1
  O  O18  1  0.49223507  0.96534393  0.33583322  1
  O  O19  1  0.49211072  0.52704366  0.33584992  1
  O  O20  1  0.31138287  0.15551824  0.09581613  1
  O  O21  1  0.68150894  0.84033862  0.61068632  1
  O  O22  1  0.52816582  0.49056129  0.83158013  1
  O  O23  1  0.52812135  0.03728425  0.83153633  1
  O  O24  1  0.68456520  0.34214714  0.60295102  1
  O  O25  1  0.83165336  0.68242921  0.10731243  1
  O  O26  1  0.96176585  0.48062025  0.82680736  1
  O  O27  1  0.83134768  0.14918196  0.10714399  1
