# generated using pymatgen
data_Y5S7
_symmetry_space_group_name_H-M   'P 1'
_cell_length_a   3.82024986
_cell_length_b   6.71864432
_cell_length_c   11.63742761
_cell_angle_alpha   103.96739196
_cell_angle_beta   90.00000000
_cell_angle_gamma   106.51713842
_symmetry_Int_Tables_number   1
_chemical_formula_structural   Y5S7
_chemical_formula_sum   'Y5 S7'
_cell_volume   277.14691051
_cell_formula_units_Z   1
loop_
 _symmetry_equiv_pos_site_id
 _symmetry_equiv_pos_as_xyz
  1  'x, y, z'
loop_
 _atom_site_type_symbol
 _atom_site_label
 _atom_site_symmetry_multiplicity
 _atom_site_fract_x
 _atom_site_fract_y
 _atom_site_fract_z
 _atom_site_occupancy
  S  S0  1  0.74068577  0.48137155  0.35268322  1
  S  S1  1  0.25931423  0.51862845  0.64731678  1
  S  S2  1  0.04182315  0.08364630  0.78511460  1
  S  S3  1  0.95817685  0.91635370  0.21488540  1
  S  S4  1  0.34091282  0.68182564  0.94881249  1
  S  S5  1  0.50000000  0.00000000  0.50000000  1
  S  S6  1  0.65908718  0.31817436  0.05118751  1
  Y  Y7  1  0.88805359  0.77610718  0.57882764  1
  Y  Y8  1  0.11194641  0.22389282  0.42117236  1
  Y  Y9  1  0.69968396  0.39936791  0.81258294  1
  Y  Y10  1  0.30031604  0.60063209  0.18741706  1
  Y  Y11  1  0.00000000  0.00000000  0.00000000  1
