# generated using pymatgen
data_LiFe2F7
_symmetry_space_group_name_H-M   'P 1'
_cell_length_a   5.16045348
_cell_length_b   9.39472538
_cell_length_c   6.02184321
_cell_angle_alpha   90.00000000
_cell_angle_beta   95.57687274
_cell_angle_gamma   90.00000000
_symmetry_Int_Tables_number   1
_chemical_formula_structural   LiFe2F7
_chemical_formula_sum   'Li2 Fe4 F14'
_cell_volume   290.56337959
_cell_formula_units_Z   2
loop_
 _symmetry_equiv_pos_site_id
 _symmetry_equiv_pos_as_xyz
  1  'x, y, z'
loop_
 _atom_site_type_symbol
 _atom_site_label
 _atom_site_symmetry_multiplicity
 _atom_site_fract_x
 _atom_site_fract_y
 _atom_site_fract_z
 _atom_site_occupancy
  Li  Li0  1  0.70106245  0.25000000  0.34763144  1
  Li  Li1  1  0.29893755  0.75000000  0.65236856  1
  Fe  Fe2  1  0.37886947  0.40198562  0.82053114  1
  Fe  Fe3  1  0.37886947  0.09801438  0.82053114  1
  Fe  Fe4  1  0.62113053  0.59801438  0.17946886  1
  Fe  Fe5  1  0.62113053  0.90198562  0.17946886  1
  F  F6  1  0.10597496  0.25000000  0.80127250  1
  F  F7  1  0.24426117  0.95614820  0.63034034  1
  F  F8  1  0.24426117  0.54385180  0.63034034  1
  F  F9  1  0.28943359  0.49479004  0.09813659  1
  F  F10  1  0.28943359  0.00520996  0.09813659  1
  F  F11  1  0.45836734  0.75000000  0.96429792  1
  F  F12  1  0.48875144  0.75000000  0.38520765  1
  F  F13  1  0.51124856  0.25000000  0.61479235  1
  F  F14  1  0.54163266  0.25000000  0.03570208  1
  F  F15  1  0.71056641  0.50520996  0.90186341  1
  F  F16  1  0.71056641  0.99479004  0.90186341  1
  F  F17  1  0.75573883  0.45614820  0.36965966  1
  F  F18  1  0.75573883  0.04385180  0.36965966  1
  F  F19  1  0.89402504  0.75000000  0.19872750  1
