# generated using pymatgen
data_GePt3
_symmetry_space_group_name_H-M   'P 1'
_cell_length_a   5.59755951
_cell_length_b   5.59755951
_cell_length_c   5.64118010
_cell_angle_alpha   60.24127532
_cell_angle_beta   60.24127531
_cell_angle_gamma   89.97959144
_symmetry_Int_Tables_number   1
_chemical_formula_structural   GePt3
_chemical_formula_sum   'Ge2 Pt6'
_cell_volume   125.91126680
_cell_formula_units_Z   2
loop_
 _symmetry_equiv_pos_site_id
 _symmetry_equiv_pos_as_xyz
  1  'x, y, z'
loop_
 _atom_site_type_symbol
 _atom_site_label
 _atom_site_symmetry_multiplicity
 _atom_site_fract_x
 _atom_site_fract_y
 _atom_site_fract_z
 _atom_site_occupancy
  Ge  Ge0  1  0.74964301  0.74964301  0.50007983  1
  Ge  Ge1  1  0.25035699  0.25035699  0.49992017  1
  Pt  Pt2  1  0.74981156  0.25018844  0.50000000  1
  Pt  Pt3  1  0.25018844  0.74981156  0.50000000  1
  Pt  Pt4  1  0.30431859  0.30431859  0.00064479  1
  Pt  Pt5  1  0.69568141  0.69568141  0.99935521  1
  Pt  Pt6  1  0.19532453  0.80467547  0.00000000  1
  Pt  Pt7  1  0.80467547  0.19532453  0.00000000  1
