# generated using pymatgen
data_Tb3Co29(Si2B5)2
_symmetry_space_group_name_H-M   'P 1'
_cell_length_a   7.82648066
_cell_length_b   11.13881412
_cell_length_c   11.13881412
_cell_angle_alpha   90.00000000
_cell_angle_beta   90.00000000
_cell_angle_gamma   90.00000000
_symmetry_Int_Tables_number   1
_chemical_formula_structural   Tb3Co29(Si2B5)2
_chemical_formula_sum   'Tb6 Co58 Si8 B20'
_cell_volume   971.05634369
_cell_formula_units_Z   2
loop_
 _symmetry_equiv_pos_site_id
 _symmetry_equiv_pos_as_xyz
  1  'x, y, z'
loop_
 _atom_site_type_symbol
 _atom_site_label
 _atom_site_symmetry_multiplicity
 _atom_site_fract_x
 _atom_site_fract_y
 _atom_site_fract_z
 _atom_site_occupancy
  Tb  Tb0  1  -0.00000000  0.50000000  0.50000000  1
  Tb  Tb1  1  -0.00000000  0.00000000  0.50000000  1
  Tb  Tb2  1  -0.00000000  0.50000000  -0.00000000  1
  Tb  Tb3  1  -0.00000000  0.00000000  -0.00000000  1
  Tb  Tb4  1  0.50000000  0.75000000  0.25000000  1
  Tb  Tb5  1  0.50000000  0.25000000  0.75000000  1
  Co  Co6  1  0.33694613  0.42470332  0.58837177  1
  Co  Co7  1  0.52573527  0.75000000  0.52274992  1
  Co  Co8  1  0.52573527  0.52274992  0.75000000  1
  Co  Co9  1  0.52573527  0.97725008  0.75000000  1
  Co  Co10  1  0.97039614  0.25000000  0.08578826  1
  Co  Co11  1  0.97039614  0.41421174  0.25000000  1
  Co  Co12  1  0.97039614  0.08578826  0.25000000  1
  Co  Co13  1  0.97039614  0.25000000  0.41421174  1
  Co  Co14  1  0.02960386  0.75000000  0.91421174  1
  Co  Co15  1  0.02960386  0.75000000  0.58578826  1
  Co  Co16  1  0.02960386  0.58578826  0.75000000  1
  Co  Co17  1  0.02960386  0.91421174  0.75000000  1
  Co  Co18  1  0.24995890  0.13484239  0.13484239  1
  Co  Co19  1  0.24995890  0.36515761  0.13484239  1
  Co  Co20  1  0.24995890  0.13484239  0.36515761  1
  Co  Co21  1  0.24995890  0.36515761  0.36515761  1
  Co  Co22  1  0.75004110  0.63484239  0.86515761  1
  Co  Co23  1  0.75004110  0.86515761  0.63484239  1
  Co  Co24  1  0.75004110  0.63484239  0.63484239  1
  Co  Co25  1  0.75004110  0.86515761  0.86515761  1
  Co  Co26  1  0.69840347  0.14007670  0.14007670  1
  Co  Co27  1  0.69840347  0.35992330  0.14007670  1
  Co  Co28  1  0.69840347  0.14007670  0.35992330  1
  Co  Co29  1  0.69840347  0.35992330  0.35992330  1
  Co  Co30  1  0.30159653  0.64007670  0.85992330  1
  Co  Co31  1  0.30159653  0.85992330  0.64007670  1
  Co  Co32  1  0.30159653  0.64007670  0.64007670  1
  Co  Co33  1  0.30159653  0.85992330  0.85992330  1
  Co  Co34  1  0.33694613  0.07529668  0.58837177  1
  Co  Co35  1  0.33694613  0.91162823  0.07529668  1
  Co  Co36  1  0.33694613  0.58837177  0.42470332  1
  Co  Co37  1  0.33694613  0.42470332  0.91162823  1
  Co  Co38  1  0.66305387  0.57529668  0.41162823  1
  Co  Co39  1  0.66305387  0.92470332  0.08837177  1
  Co  Co40  1  0.66305387  0.08837177  0.57529668  1
  Co  Co41  1  0.88839787  0.25000000  0.86036825  1
  Co  Co42  1  0.66305387  0.92470332  0.41162823  1
  Co  Co43  1  0.66305387  0.08837177  0.92470332  1
  Co  Co44  1  0.66305387  0.41162823  0.57529668  1
  Co  Co45  1  0.66305387  0.57529668  0.08837177  1
  Co  Co46  1  0.52573527  0.75000000  0.97725008  1
  Co  Co47  1  0.88839787  0.63963175  0.25000000  1
  Co  Co48  1  0.33694613  0.91162823  0.42470332  1
  Co  Co49  1  0.33694613  0.58837177  0.07529668  1
  Co  Co50  1  0.88839787  0.86036825  0.25000000  1
  Co  Co51  1  0.88839787  0.25000000  0.63963175  1
  Co  Co52  1  0.53300230  0.75000000  0.75000000  1
  Co  Co53  1  0.46699770  0.25000000  0.25000000  1
  Co  Co54  1  0.11160213  0.75000000  0.36036825  1
  Co  Co55  1  0.47426473  0.25000000  0.47725008  1
  Co  Co56  1  0.47426473  0.02274992  0.25000000  1
  Co  Co57  1  0.47426473  0.47725008  0.25000000  1
  Co  Co58  1  0.47426473  0.25000000  0.02274992  1
  Co  Co59  1  0.11160213  0.36036825  0.75000000  1
  Co  Co60  1  0.11160213  0.13963175  0.75000000  1
  Co  Co61  1  0.11160213  0.75000000  0.13963175  1
  Co  Co62  1  0.66305387  0.41162823  0.92470332  1
  Co  Co63  1  0.33694613  0.07529668  0.91162823  1
  Si  Si64  1  0.82486773  0.43199981  0.75000000  1
  Si  Si65  1  0.17513227  0.25000000  0.56800019  1
  Si  Si66  1  0.17513227  0.93199981  0.25000000  1
  Si  Si67  1  0.17513227  0.56800019  0.25000000  1
  Si  Si68  1  0.17513227  0.25000000  0.93199981  1
  Si  Si69  1  0.82486773  0.75000000  0.43199981  1
  Si  Si70  1  0.82486773  0.75000000  0.06800019  1
  Si  Si71  1  0.82486773  0.06800019  0.75000000  1
  B  B72  1  0.51810547  0.93601733  0.93601733  1
  B  B73  1  0.51810547  0.56398267  0.56398267  1
  B  B74  1  0.51810547  0.93601733  0.56398267  1
  B  B75  1  0.51810547  0.56398267  0.93601733  1
  B  B76  1  0.48189453  0.43601733  0.43601733  1
  B  B77  1  0.48189453  0.06398267  0.43601733  1
  B  B78  1  0.26323213  0.00603501  0.75000000  1
  B  B79  1  0.26323213  0.49396499  0.75000000  1
  B  B80  1  0.26323213  0.75000000  0.49396499  1
  B  B81  1  0.26323213  0.75000000  0.00603501  1
  B  B82  1  0.73676787  0.25000000  0.50603501  1
  B  B83  1  0.73676787  0.99396499  0.25000000  1
  B  B84  1  0.73676787  0.50603501  0.25000000  1
  B  B85  1  0.73676787  0.25000000  0.99396499  1
  B  B86  1  0.14822799  0.75000000  0.75000000  1
  B  B87  1  0.85177201  0.25000000  0.25000000  1
  B  B88  1  0.89326510  0.75000000  0.75000000  1
  B  B89  1  0.10673490  0.25000000  0.25000000  1
  B  B90  1  0.48189453  0.43601733  0.06398267  1
  B  B91  1  0.48189453  0.06398267  0.06398267  1
