# generated using pymatgen
data_Na3TiP8O23
_symmetry_space_group_name_H-M   'P 1'
_cell_length_a   12.19252600
_cell_length_b   12.19252600
_cell_length_c   12.19252600
_cell_angle_alpha   90.00000000
_cell_angle_beta   90.00000000
_cell_angle_gamma   90.00000000
_symmetry_Int_Tables_number   1
_chemical_formula_structural   Na3TiP8O23
_chemical_formula_sum   'Na12 Ti4 P32 O92'
_cell_volume   1812.51275360
_cell_formula_units_Z   4
loop_
 _symmetry_equiv_pos_site_id
 _symmetry_equiv_pos_as_xyz
  1  'x, y, z'
loop_
 _atom_site_type_symbol
 _atom_site_label
 _atom_site_symmetry_multiplicity
 _atom_site_fract_x
 _atom_site_fract_y
 _atom_site_fract_z
 _atom_site_occupancy
  O  O0  1  0.66255749  0.66255749  0.66255749  1
  O  O1  1  0.91255749  0.58744251  0.41255749  1
  O  O2  1  0.58744251  0.41255749  0.91255749  1
  O  O3  1  0.41255749  0.91255749  0.58744251  1
  O  O4  1  0.16255749  0.83744251  0.33744251  1
  O  O5  1  0.83744251  0.33744251  0.16255749  1
  O  O6  1  0.33744251  0.16255749  0.83744251  1
  O  O7  1  0.08744251  0.08744251  0.08744251  1
  O  O8  1  0.43659993  0.51133070  0.68328238  1
  O  O9  1  0.93659993  0.98866930  0.31671762  1
  O  O10  1  0.51133070  0.68328238  0.43659993  1
  O  O11  1  0.48866930  0.18328238  0.06340007  1
  O  O12  1  0.68328238  0.43659993  0.51133070  1
  O  O13  1  0.81671762  0.56340007  0.01133070  1
  O  O14  1  0.18659993  0.93328238  0.73866930  1
  O  O15  1  0.68659993  0.56671762  0.26133070  1
  O  O16  1  0.81340007  0.43328238  0.76133070  1
  O  O17  1  0.56671762  0.26133070  0.68659993  1
  O  O18  1  0.76133070  0.81340007  0.43328238  1
  O  O19  1  0.26133070  0.68659993  0.56671762  1
  O  O20  1  0.93328238  0.73866930  0.18659993  1
  O  O21  1  0.73866930  0.18659993  0.93328238  1
  O  O22  1  0.43328238  0.76133070  0.81340007  1
  O  O23  1  0.06671762  0.23866930  0.31340007  1
  O  O24  1  0.23866930  0.31340007  0.06671762  1
  O  O25  1  0.31671762  0.93659993  0.98866930  1
  O  O26  1  0.18328238  0.06340007  0.48866930  1
  O  O27  1  0.01133070  0.81671762  0.56340007  1
  O  O28  1  0.98866930  0.31671762  0.93659993  1
  O  O29  1  0.06340007  0.48866930  0.18328238  1
  O  O30  1  0.56340007  0.01133070  0.81671762  1
  O  O31  1  0.31340007  0.06671762  0.23866930  1
  O  O32  1  0.62500000  0.23432202  0.48432202  1
  O  O33  1  0.76567798  0.98432202  0.87500000  1
  O  O34  1  0.74113904  0.32458071  0.34596922  1
  O  O35  1  0.48432202  0.62500000  0.23432202  1
  O  O36  1  0.23432202  0.48432202  0.62500000  1
  O  O37  1  0.51567798  0.12500000  0.26567798  1
  O  O38  1  0.98432202  0.87500000  0.76567798  1
  O  O39  1  0.73432202  0.01567798  0.37500000  1
  O  O40  1  0.26567798  0.51567798  0.12500000  1
  O  O41  1  0.87500000  0.76567798  0.98432202  1
  O  O42  1  0.37500000  0.73432202  0.01567798  1
  O  O43  1  0.12500000  0.26567798  0.51567798  1
  O  O44  1  0.32458071  0.34596922  0.74113904  1
  O  O45  1  0.82458071  0.15403078  0.25886096  1
  O  O46  1  0.34596922  0.74113904  0.32458071  1
  O  O47  1  0.65403078  0.24113904  0.17541929  1
  O  O48  1  0.04160553  0.12037758  0.63519089  1
  O  O49  1  0.29160553  0.61480911  0.87037758  1
  O  O50  1  0.79160553  0.88519089  0.12962242  1
  O  O51  1  0.38519089  0.37037758  0.20839447  1
  O  O52  1  0.61480911  0.87037758  0.29160553  1
  O  O53  1  0.12962242  0.79160553  0.88519089  1
  O  O54  1  0.37037758  0.20839447  0.38519089  1
  O  O55  1  0.63519089  0.04160553  0.12037758  1
  O  O56  1  0.12037758  0.63519089  0.04160553  1
  O  O57  1  0.37962242  0.36480911  0.54160553  1
  O  O58  1  0.13519089  0.45839447  0.87962242  1
  O  O59  1  0.87962242  0.13519089  0.45839447  1
  O  O60  1  0.86480911  0.95839447  0.62037758  1
  O  O61  1  0.36480911  0.54160553  0.37962242  1
  O  O62  1  0.62037758  0.86480911  0.95839447  1
  O  O63  1  0.54160553  0.37962242  0.36480911  1
  O  O64  1  0.95839447  0.62037758  0.86480911  1
  O  O65  1  0.45839447  0.87962242  0.13519089  1
  O  O66  1  0.87037758  0.29160553  0.61480911  1
  O  O67  1  0.62962242  0.70839447  0.11480911  1
  O  O68  1  0.88519089  0.12962242  0.79160553  1
  O  O69  1  0.11480911  0.62962242  0.70839447  1
  O  O70  1  0.20839447  0.38519089  0.37037758  1
  O  O71  1  0.70839447  0.11480911  0.62962242  1
  O  O72  1  0.42541929  0.00886096  0.40403078  1
  O  O73  1  0.67541929  0.84596922  0.75886096  1
  O  O74  1  0.17541929  0.65403078  0.24113904  1
  O  O75  1  0.15403078  0.25886096  0.82458071  1
  O  O76  1  0.84596922  0.75886096  0.67541929  1
  O  O77  1  0.24113904  0.17541929  0.65403078  1
  O  O78  1  0.25886096  0.82458071  0.15403078  1
  O  O79  1  0.40403078  0.42541929  0.00886096  1
  O  O80  1  0.00886096  0.40403078  0.42541929  1
  O  O81  1  0.49113904  0.59596922  0.92541929  1
  O  O82  1  0.90403078  0.07458071  0.99113904  1
  O  O83  1  0.99113904  0.90403078  0.07458071  1
  O  O84  1  0.09596922  0.57458071  0.50886096  1
  O  O85  1  0.59596922  0.92541929  0.49113904  1
  O  O86  1  0.50886096  0.09596922  0.57458071  1
  O  O87  1  0.92541929  0.49113904  0.59596922  1
  O  O88  1  0.57458071  0.50886096  0.09596922  1
  O  O89  1  0.07458071  0.99113904  0.90403078  1
  O  O90  1  0.75886096  0.67541929  0.84596922  1
  O  O91  1  0.01567798  0.37500000  0.73432202  1
  Na  Na92  1  0.37500000  0.95566729  0.79433271  1
  Na  Na93  1  0.87500000  0.54433271  0.20566729  1
  Na  Na94  1  0.04433271  0.29433271  0.12500000  1
  Na  Na95  1  0.95566729  0.79433271  0.37500000  1
  Na  Na96  1  0.20566729  0.87500000  0.54433271  1
  Na  Na97  1  0.29433271  0.12500000  0.04433271  1
  Na  Na98  1  0.45566729  0.70566729  0.62500000  1
  Na  Na99  1  0.79433271  0.37500000  0.95566729  1
  Na  Na100  1  0.70566729  0.62500000  0.45566729  1
  Na  Na101  1  0.54433271  0.20566729  0.87500000  1
  Na  Na102  1  0.62500000  0.45566729  0.70566729  1
  Na  Na103  1  0.12500000  0.04433271  0.29433271  1
  P  P104  1  0.06831592  0.35803898  0.85407282  1
  P  P105  1  0.89592718  0.39196102  0.68168408  1
  P  P106  1  0.35803898  0.85407282  0.06831592  1
  P  P107  1  0.85803898  0.64592718  0.93168408  1
  P  P108  1  0.64196102  0.35407282  0.43168408  1
  P  P109  1  0.64592718  0.93168408  0.85803898  1
  P  P110  1  0.43168408  0.64196102  0.35407282  1
  P  P111  1  0.93168408  0.85803898  0.64592718  1
  P  P112  1  0.85407282  0.06831592  0.35803898  1
  P  P113  1  0.60407282  0.60803898  0.18168408  1
  P  P114  1  0.35407282  0.43168408  0.64196102  1
  P  P115  1  0.14592718  0.56831592  0.14196102  1
  P  P116  1  0.81831592  0.10407282  0.89196102  1
  P  P117  1  0.39592718  0.10803898  0.31831592  1
  P  P118  1  0.10407282  0.89196102  0.81831592  1
  P  P119  1  0.68168408  0.89592718  0.39196102  1
  P  P120  1  0.31831592  0.39592718  0.10803898  1
  P  P121  1  0.89196102  0.81831592  0.10407282  1
  P  P122  1  0.39196102  0.68168408  0.89592718  1
  P  P123  1  0.14196102  0.14592718  0.56831592  1
  P  P124  1  0.18168408  0.60407282  0.60803898  1
  P  P125  1  0.10803898  0.31831592  0.39592718  1
  P  P126  1  0.60803898  0.18168408  0.60407282  1
  P  P127  1  0.01721403  0.01721403  0.01721403  1
  P  P128  1  0.26721403  0.23278597  0.76721403  1
  P  P129  1  0.76721403  0.26721403  0.23278597  1
  P  P130  1  0.23278597  0.76721403  0.26721403  1
  P  P131  1  0.48278597  0.98278597  0.51721403  1
  P  P132  1  0.51721403  0.48278597  0.98278597  1
  P  P133  1  0.98278597  0.51721403  0.48278597  1
  P  P134  1  0.73278597  0.73278597  0.73278597  1
  P  P135  1  0.56831592  0.14196102  0.14592718  1
  Ti  Ti136  1  0.87500000  0.12500000  0.62500000  1
  Ti  Ti137  1  0.12500000  0.62500000  0.87500000  1
  Ti  Ti138  1  0.62500000  0.87500000  0.12500000  1
  Ti  Ti139  1  0.37500000  0.37500000  0.37500000  1
