# generated using pymatgen
data_RbNa2Ge17
_symmetry_space_group_name_H-M   'P 1'
_cell_length_a   11.18865704
_cell_length_b   11.18865704
_cell_length_c   11.18865704
_cell_angle_alpha   60.00000001
_cell_angle_beta   60.00000000
_cell_angle_gamma   59.99999999
_symmetry_Int_Tables_number   1
_chemical_formula_structural   RbNa2Ge17
_chemical_formula_sum   'Rb2 Na4 Ge34'
_cell_volume   990.41882803
_cell_formula_units_Z   2
loop_
 _symmetry_equiv_pos_site_id
 _symmetry_equiv_pos_as_xyz
  1  'x, y, z'
loop_
 _atom_site_type_symbol
 _atom_site_label
 _atom_site_symmetry_multiplicity
 _atom_site_fract_x
 _atom_site_fract_y
 _atom_site_fract_z
 _atom_site_occupancy
  Na  Na0  1  0.50000000  0.00000000  0.00000000  1
  Na  Na1  1  0.00000000  0.00000000  0.50000000  1
  Na  Na2  1  0.00000000  0.00000000  0.00000000  1
  Na  Na3  1  0.00000000  0.50000000  0.00000000  1
  Ge  Ge4  1  0.23458305  0.62994940  0.00551815  1
  Ge  Ge5  1  0.23458305  0.00551815  0.62994940  1
  Ge  Ge6  1  0.00551815  0.23458305  0.62994940  1
  Ge  Ge7  1  0.76541695  0.37005060  0.37005060  1
  Ge  Ge8  1  0.37005060  0.76541695  0.37005060  1
  Ge  Ge9  1  0.99448185  0.37005060  0.76541695  1
  Ge  Ge10  1  0.37005060  0.99448185  0.76541695  1
  Ge  Ge11  1  0.99448185  0.37005060  0.37005060  1
  Ge  Ge12  1  0.76541695  0.37005060  0.99448185  1
  Ge  Ge13  1  0.37005060  0.76541695  0.99448185  1
  Ge  Ge14  1  0.37005060  0.99448185  0.37005060  1
  Ge  Ge15  1  0.00551815  0.62994940  0.23458305  1
  Ge  Ge16  1  0.62994940  0.00551815  0.23458305  1
  Ge  Ge17  1  0.62994940  0.62994940  0.00551815  1
  Ge  Ge18  1  0.62994940  0.62994940  0.23458305  1
  Ge  Ge19  1  0.23458305  0.62994940  0.62994940  1
  Ge  Ge20  1  0.62994940  0.23458305  0.62994940  1
  Ge  Ge21  1  0.76541695  0.99448185  0.37005060  1
  Ge  Ge22  1  0.99448185  0.76541695  0.37005060  1
  Ge  Ge23  1  0.37005060  0.37005060  0.99448185  1
  Ge  Ge24  1  0.21742734  0.21742734  0.21742734  1
  Ge  Ge25  1  0.78257266  0.78257266  0.15228202  1
  Ge  Ge26  1  0.15228202  0.78257266  0.78257266  1
  Ge  Ge27  1  0.78257266  0.15228202  0.78257266  1
  Ge  Ge28  1  0.84771798  0.21742734  0.21742734  1
  Ge  Ge29  1  0.21742734  0.84771798  0.21742734  1
  Ge  Ge30  1  0.21742734  0.21742734  0.84771798  1
  Ge  Ge31  1  0.78257266  0.78257266  0.78257266  1
  Ge  Ge32  1  0.12500000  0.12500000  0.12500000  1
  Ge  Ge33  1  0.87500000  0.87500000  0.87500000  1
  Ge  Ge34  1  0.00551815  0.62994940  0.62994940  1
  Ge  Ge35  1  0.62994940  0.23458305  0.00551815  1
  Ge  Ge36  1  0.37005060  0.37005060  0.76541695  1
  Ge  Ge37  1  0.62994940  0.00551815  0.62994940  1
  Rb  Rb38  1  0.37500000  0.37500000  0.37500000  1
  Rb  Rb39  1  0.62500000  0.62500000  0.62500000  1
