# generated using pymatgen
data_Tm3Co29(Si2B5)2
_symmetry_space_group_name_H-M   'P 1'
_cell_length_a   7.79779235
_cell_length_b   11.09511829
_cell_length_c   11.09511829
_cell_angle_alpha   90.00000000
_cell_angle_beta   90.00000000
_cell_angle_gamma   90.00000000
_symmetry_Int_Tables_number   1
_chemical_formula_structural   Tm3Co29(Si2B5)2
_chemical_formula_sum   'Tm6 Co58 Si8 B20'
_cell_volume   959.92110362
_cell_formula_units_Z   2
loop_
 _symmetry_equiv_pos_site_id
 _symmetry_equiv_pos_as_xyz
  1  'x, y, z'
loop_
 _atom_site_type_symbol
 _atom_site_label
 _atom_site_symmetry_multiplicity
 _atom_site_fract_x
 _atom_site_fract_y
 _atom_site_fract_z
 _atom_site_occupancy
  B  B0  1  0.51853604  0.93582376  0.93582376  1
  B  B1  1  0.51853604  0.56417624  0.56417624  1
  B  B2  1  0.51853604  0.93582376  0.56417624  1
  B  B3  1  0.51853604  0.56417624  0.93582376  1
  B  B4  1  0.48146396  0.43582376  0.43582376  1
  B  B5  1  0.48146396  0.06417624  0.43582376  1
  B  B6  1  0.26405265  0.00610153  0.75000000  1
  B  B7  1  0.26405265  0.49389847  0.75000000  1
  B  B8  1  0.26405265  0.75000000  0.49389847  1
  B  B9  1  0.26405265  0.75000000  0.00610153  1
  B  B10  1  0.73594735  0.25000000  0.50610153  1
  B  B11  1  0.73594735  0.99389847  0.25000000  1
  B  B12  1  0.73594735  0.50610153  0.25000000  1
  B  B13  1  0.73594735  0.25000000  0.99389847  1
  B  B14  1  0.14904220  0.75000000  0.75000000  1
  B  B15  1  0.85095780  0.25000000  0.25000000  1
  B  B16  1  0.89251993  0.75000000  0.75000000  1
  B  B17  1  0.10748007  0.25000000  0.25000000  1
  B  B18  1  0.48146396  0.43582376  0.06417624  1
  B  B19  1  0.48146396  0.06417624  0.06417624  1
  Si  Si20  1  0.82492801  0.43260512  0.75000000  1
  Si  Si21  1  0.17507199  0.25000000  0.56739488  1
  Si  Si22  1  0.17507199  0.93260512  0.25000000  1
  Si  Si23  1  0.17507199  0.56739488  0.25000000  1
  Si  Si24  1  0.17507199  0.25000000  0.93260512  1
  Si  Si25  1  0.82492801  0.75000000  0.43260512  1
  Si  Si26  1  0.82492801  0.75000000  0.06739488  1
  Si  Si27  1  0.82492801  0.06739488  0.75000000  1
  Co  Co28  1  0.33600327  0.42412971  0.58860951  1
  Co  Co29  1  0.52670966  0.75000000  0.52141367  1
  Co  Co30  1  0.52670966  0.52141367  0.75000000  1
  Co  Co31  1  0.52670966  0.97858633  0.75000000  1
  Co  Co32  1  0.97011853  0.25000000  0.08498355  1
  Co  Co33  1  0.97011853  0.41501645  0.25000000  1
  Co  Co34  1  0.97011853  0.08498355  0.25000000  1
  Co  Co35  1  0.97011853  0.25000000  0.41501645  1
  Co  Co36  1  0.02988147  0.75000000  0.91501645  1
  Co  Co37  1  0.02988147  0.75000000  0.58498355  1
  Co  Co38  1  0.02988147  0.58498355  0.75000000  1
  Co  Co39  1  0.02988147  0.91501645  0.75000000  1
  Co  Co40  1  0.24761571  0.13365632  0.13365632  1
  Co  Co41  1  0.24761571  0.36634368  0.13365632  1
  Co  Co42  1  0.24761571  0.13365632  0.36634368  1
  Co  Co43  1  0.24761571  0.36634368  0.36634368  1
  Co  Co44  1  0.75238429  0.63365632  0.86634368  1
  Co  Co45  1  0.75238429  0.86634368  0.63365632  1
  Co  Co46  1  0.75238429  0.63365632  0.63365632  1
  Co  Co47  1  0.75238429  0.86634368  0.86634368  1
  Co  Co48  1  0.69851695  0.13978982  0.13978982  1
  Co  Co49  1  0.69851695  0.36021018  0.13978982  1
  Co  Co50  1  0.69851695  0.13978982  0.36021018  1
  Co  Co51  1  0.69851695  0.36021018  0.36021018  1
  Co  Co52  1  0.30148305  0.63978982  0.86021018  1
  Co  Co53  1  0.30148305  0.86021018  0.63978982  1
  Co  Co54  1  0.30148305  0.63978982  0.63978982  1
  Co  Co55  1  0.30148305  0.86021018  0.86021018  1
  Co  Co56  1  0.33600327  0.07587029  0.58860951  1
  Co  Co57  1  0.33600327  0.91139049  0.07587029  1
  Co  Co58  1  0.33600327  0.58860951  0.42412971  1
  Co  Co59  1  0.33600327  0.42412971  0.91139049  1
  Co  Co60  1  0.66399673  0.57587029  0.41139049  1
  Co  Co61  1  0.66399673  0.92412971  0.08860951  1
  Co  Co62  1  0.66399673  0.08860951  0.57587029  1
  Co  Co63  1  0.88853601  0.25000000  0.86014060  1
  Co  Co64  1  0.66399673  0.92412971  0.41139049  1
  Co  Co65  1  0.66399673  0.08860951  0.92412971  1
  Co  Co66  1  0.66399673  0.41139049  0.57587029  1
  Co  Co67  1  0.66399673  0.57587029  0.08860951  1
  Co  Co68  1  0.52670966  0.75000000  0.97858633  1
  Co  Co69  1  0.88853601  0.63985940  0.25000000  1
  Co  Co70  1  0.33600327  0.91139049  0.42412971  1
  Co  Co71  1  0.33600327  0.58860951  0.07587029  1
  Co  Co72  1  0.88853601  0.86014060  0.25000000  1
  Co  Co73  1  0.88853601  0.25000000  0.63985940  1
  Co  Co74  1  0.53490606  0.75000000  0.75000000  1
  Co  Co75  1  0.46509394  0.25000000  0.25000000  1
  Co  Co76  1  0.11146399  0.75000000  0.36014060  1
  Co  Co77  1  0.47329034  0.25000000  0.47858633  1
  Co  Co78  1  0.47329034  0.02141367  0.25000000  1
  Co  Co79  1  0.47329034  0.47858633  0.25000000  1
  Co  Co80  1  0.47329034  0.25000000  0.02141367  1
  Co  Co81  1  0.11146399  0.36014060  0.75000000  1
  Co  Co82  1  0.11146399  0.13985940  0.75000000  1
  Co  Co83  1  0.11146399  0.75000000  0.13985940  1
  Co  Co84  1  0.66399673  0.41139049  0.92412971  1
  Co  Co85  1  0.33600327  0.07587029  0.91139049  1
  Tm  Tm86  1  0.00000000  0.50000000  0.50000000  1
  Tm  Tm87  1  0.00000000  0.00000000  0.50000000  1
  Tm  Tm88  1  0.00000000  0.50000000  0.00000000  1
  Tm  Tm89  1  0.00000000  0.00000000  0.00000000  1
  Tm  Tm90  1  0.50000000  0.75000000  0.25000000  1
  Tm  Tm91  1  0.50000000  0.25000000  0.75000000  1
