# generated using pymatgen
data_Pr3Co29(Si2B5)2
_symmetry_space_group_name_H-M   'P 1'
_cell_length_a   7.86430622
_cell_length_b   11.19757522
_cell_length_c   11.19757522
_cell_angle_alpha   90.00000000
_cell_angle_beta   90.00000000
_cell_angle_gamma   90.00000000
_symmetry_Int_Tables_number   1
_chemical_formula_structural   Pr3Co29(Si2B5)2
_chemical_formula_sum   'Pr6 Co58 Si8 B20'
_cell_volume   986.07146812
_cell_formula_units_Z   2
loop_
 _symmetry_equiv_pos_site_id
 _symmetry_equiv_pos_as_xyz
  1  'x, y, z'
loop_
 _atom_site_type_symbol
 _atom_site_label
 _atom_site_symmetry_multiplicity
 _atom_site_fract_x
 _atom_site_fract_y
 _atom_site_fract_z
 _atom_site_occupancy
  B  B0  1  0.51749045  0.93608186  0.93608186  1
  B  B1  1  0.51749045  0.56391814  0.56391814  1
  B  B2  1  0.51749045  0.93608186  0.56391814  1
  B  B3  1  0.51749045  0.56391814  0.93608186  1
  B  B4  1  0.48250955  0.43608186  0.43608186  1
  B  B5  1  0.48250955  0.06391814  0.43608186  1
  B  B6  1  0.26159204  0.00588110  0.75000000  1
  B  B7  1  0.26159204  0.49411890  0.75000000  1
  B  B8  1  0.26159204  0.75000000  0.49411890  1
  B  B9  1  0.26159204  0.75000000  0.00588110  1
  B  B10  1  0.73840796  0.25000000  0.50588110  1
  B  B11  1  0.73840796  0.99411890  0.25000000  1
  B  B12  1  0.73840796  0.50588110  0.25000000  1
  B  B13  1  0.73840796  0.25000000  0.99411890  1
  B  B14  1  0.14769111  0.75000000  0.75000000  1
  B  B15  1  0.85230889  0.25000000  0.25000000  1
  B  B16  1  0.89340664  0.75000000  0.75000000  1
  B  B17  1  0.10659336  0.25000000  0.25000000  1
  B  B18  1  0.48250955  0.43608186  0.06391814  1
  B  B19  1  0.48250955  0.06391814  0.06391814  1
  Si  Si20  1  0.82437218  0.43122308  0.75000000  1
  Si  Si21  1  0.17562782  0.25000000  0.56877692  1
  Si  Si22  1  0.17562782  0.93122308  0.25000000  1
  Si  Si23  1  0.17562782  0.56877692  0.25000000  1
  Si  Si24  1  0.17562782  0.25000000  0.93122308  1
  Si  Si25  1  0.82437218  0.75000000  0.43122308  1
  Si  Si26  1  0.82437218  0.75000000  0.06877692  1
  Si  Si27  1  0.82437218  0.06877692  0.75000000  1
  Co  Co28  1  0.33746780  0.42497890  0.58814053  1
  Co  Co29  1  0.52514538  0.75000000  0.52472524  1
  Co  Co30  1  0.52514538  0.52472524  0.75000000  1
  Co  Co31  1  0.52514538  0.97527476  0.75000000  1
  Co  Co32  1  0.97153663  0.25000000  0.08616184  1
  Co  Co33  1  0.97153663  0.41383816  0.25000000  1
  Co  Co34  1  0.97153663  0.08616184  0.25000000  1
  Co  Co35  1  0.97153663  0.25000000  0.41383816  1
  Co  Co36  1  0.02846337  0.75000000  0.91383816  1
  Co  Co37  1  0.02846337  0.75000000  0.58616184  1
  Co  Co38  1  0.02846337  0.58616184  0.75000000  1
  Co  Co39  1  0.02846337  0.91383816  0.75000000  1
  Co  Co40  1  0.25318197  0.13644203  0.13644203  1
  Co  Co41  1  0.25318197  0.36355797  0.13644203  1
  Co  Co42  1  0.25318197  0.13644203  0.36355797  1
  Co  Co43  1  0.25318197  0.36355797  0.36355797  1
  Co  Co44  1  0.74681803  0.63644203  0.86355797  1
  Co  Co45  1  0.74681803  0.86355797  0.63644203  1
  Co  Co46  1  0.74681803  0.63644203  0.63644203  1
  Co  Co47  1  0.74681803  0.86355797  0.86355797  1
  Co  Co48  1  0.69794976  0.14067215  0.14067215  1
  Co  Co49  1  0.69794976  0.35932785  0.14067215  1
  Co  Co50  1  0.69794976  0.14067215  0.35932785  1
  Co  Co51  1  0.69794976  0.35932785  0.35932785  1
  Co  Co52  1  0.30205024  0.64067215  0.85932785  1
  Co  Co53  1  0.30205024  0.85932785  0.64067215  1
  Co  Co54  1  0.30205024  0.64067215  0.64067215  1
  Co  Co55  1  0.30205024  0.85932785  0.85932785  1
  Co  Co56  1  0.33746780  0.07502110  0.58814053  1
  Co  Co57  1  0.33746780  0.91185947  0.07502110  1
  Co  Co58  1  0.33746780  0.58814053  0.42497890  1
  Co  Co59  1  0.33746780  0.42497890  0.91185947  1
  Co  Co60  1  0.66253220  0.57502110  0.41185947  1
  Co  Co61  1  0.66253220  0.92497890  0.08814053  1
  Co  Co62  1  0.66253220  0.08814053  0.57502110  1
  Co  Co63  1  0.88879067  0.25000000  0.86008227  1
  Co  Co64  1  0.66253220  0.92497890  0.41185947  1
  Co  Co65  1  0.66253220  0.08814053  0.92497890  1
  Co  Co66  1  0.66253220  0.41185947  0.57502110  1
  Co  Co67  1  0.66253220  0.57502110  0.08814053  1
  Co  Co68  1  0.52514538  0.75000000  0.97527476  1
  Co  Co69  1  0.88879067  0.63991773  0.25000000  1
  Co  Co70  1  0.33746780  0.91185947  0.42497890  1
  Co  Co71  1  0.33746780  0.58814053  0.07502110  1
  Co  Co72  1  0.88879067  0.86008227  0.25000000  1
  Co  Co73  1  0.88879067  0.25000000  0.63991773  1
  Co  Co74  1  0.53089884  0.75000000  0.75000000  1
  Co  Co75  1  0.46910116  0.25000000  0.25000000  1
  Co  Co76  1  0.11120933  0.75000000  0.36008227  1
  Co  Co77  1  0.47485462  0.25000000  0.47527476  1
  Co  Co78  1  0.47485462  0.02472524  0.25000000  1
  Co  Co79  1  0.47485462  0.47527476  0.25000000  1
  Co  Co80  1  0.47485462  0.25000000  0.02472524  1
  Co  Co81  1  0.11120933  0.36008227  0.75000000  1
  Co  Co82  1  0.11120933  0.13991773  0.75000000  1
  Co  Co83  1  0.11120933  0.75000000  0.13991773  1
  Co  Co84  1  0.66253220  0.41185947  0.92497890  1
  Co  Co85  1  0.33746780  0.07502110  0.91185947  1
  Pr  Pr86  1  0.00000000  0.50000000  0.50000000  1
  Pr  Pr87  1  0.00000000  0.00000000  0.50000000  1
  Pr  Pr88  1  0.00000000  0.50000000  0.00000000  1
  Pr  Pr89  1  0.00000000  0.00000000  0.00000000  1
  Pr  Pr90  1  0.50000000  0.75000000  0.25000000  1
  Pr  Pr91  1  0.50000000  0.25000000  0.75000000  1
