# generated using pymatgen
data_Lu3Co29(Si2B5)2
_symmetry_space_group_name_H-M   'P 1'
_cell_length_a   7.79002834
_cell_length_b   11.08495826
_cell_length_c   11.08495826
_cell_angle_alpha   90.00000000
_cell_angle_beta   90.00000000
_cell_angle_gamma   90.00000000
_symmetry_Int_Tables_number   1
_chemical_formula_structural   Lu3Co29(Si2B5)2
_chemical_formula_sum   'Lu6 Co58 Si8 B20'
_cell_volume   957.20985640
_cell_formula_units_Z   2
loop_
 _symmetry_equiv_pos_site_id
 _symmetry_equiv_pos_as_xyz
  1  'x, y, z'
loop_
 _atom_site_type_symbol
 _atom_site_label
 _atom_site_symmetry_multiplicity
 _atom_site_fract_x
 _atom_site_fract_y
 _atom_site_fract_z
 _atom_site_occupancy
  B  B0  1  0.51882047  0.93580649  0.93580649  1
  B  B1  1  0.51882047  0.56419351  0.56419351  1
  B  B2  1  0.51882047  0.93580649  0.56419351  1
  B  B3  1  0.51882047  0.56419351  0.93580649  1
  B  B4  1  0.48117953  0.43580649  0.43580649  1
  B  B5  1  0.48117953  0.06419351  0.43580649  1
  B  B6  1  0.26448294  0.00607561  0.75000000  1
  B  B7  1  0.26448294  0.49392439  0.75000000  1
  B  B8  1  0.26448294  0.75000000  0.49392439  1
  B  B9  1  0.26448294  0.75000000  0.00607561  1
  B  B10  1  0.73551706  0.25000000  0.50607561  1
  B  B11  1  0.73551706  0.99392439  0.25000000  1
  B  B12  1  0.73551706  0.50607561  0.25000000  1
  B  B13  1  0.73551706  0.25000000  0.99392439  1
  B  B14  1  0.14936020  0.75000000  0.75000000  1
  B  B15  1  0.85063980  0.25000000  0.25000000  1
  B  B16  1  0.89271178  0.75000000  0.75000000  1
  B  B17  1  0.10728822  0.25000000  0.25000000  1
  B  B18  1  0.48117953  0.43580649  0.06419351  1
  B  B19  1  0.48117953  0.06419351  0.06419351  1
  Si  Si20  1  0.82513887  0.43274296  0.75000000  1
  Si  Si21  1  0.17486113  0.25000000  0.56725704  1
  Si  Si22  1  0.17486113  0.93274296  0.25000000  1
  Si  Si23  1  0.17486113  0.56725704  0.25000000  1
  Si  Si24  1  0.17486113  0.25000000  0.93274296  1
  Si  Si25  1  0.82513887  0.75000000  0.43274296  1
  Si  Si26  1  0.82513887  0.75000000  0.06725704  1
  Si  Si27  1  0.82513887  0.06725704  0.75000000  1
  Co  Co28  1  0.33574134  0.42407543  0.58868397  1
  Co  Co29  1  0.52710128  0.75000000  0.52098905  1
  Co  Co30  1  0.52710128  0.52098905  0.75000000  1
  Co  Co31  1  0.52710128  0.97901095  0.75000000  1
  Co  Co32  1  0.96967387  0.25000000  0.08480057  1
  Co  Co33  1  0.96967387  0.41519943  0.25000000  1
  Co  Co34  1  0.96967387  0.08480057  0.25000000  1
  Co  Co35  1  0.96967387  0.25000000  0.41519943  1
  Co  Co36  1  0.03032613  0.75000000  0.91519943  1
  Co  Co37  1  0.03032613  0.75000000  0.58480057  1
  Co  Co38  1  0.03032613  0.58480057  0.75000000  1
  Co  Co39  1  0.03032613  0.91519943  0.75000000  1
  Co  Co40  1  0.24659515  0.13326351  0.13326351  1
  Co  Co41  1  0.24659515  0.36673649  0.13326351  1
  Co  Co42  1  0.24659515  0.13326351  0.36673649  1
  Co  Co43  1  0.24659515  0.36673649  0.36673649  1
  Co  Co44  1  0.75340485  0.63326351  0.86673649  1
  Co  Co45  1  0.75340485  0.86673649  0.63326351  1
  Co  Co46  1  0.75340485  0.63326351  0.63326351  1
  Co  Co47  1  0.75340485  0.86673649  0.86673649  1
  Co  Co48  1  0.69820958  0.13975093  0.13975093  1
  Co  Co49  1  0.69820958  0.36024907  0.13975093  1
  Co  Co50  1  0.69820958  0.13975093  0.36024907  1
  Co  Co51  1  0.69820958  0.36024907  0.36024907  1
  Co  Co52  1  0.30179042  0.63975093  0.86024907  1
  Co  Co53  1  0.30179042  0.86024907  0.63975093  1
  Co  Co54  1  0.30179042  0.63975093  0.63975093  1
  Co  Co55  1  0.30179042  0.86024907  0.86024907  1
  Co  Co56  1  0.33574134  0.07592457  0.58868397  1
  Co  Co57  1  0.33574134  0.91131603  0.07592457  1
  Co  Co58  1  0.33574134  0.58868397  0.42407543  1
  Co  Co59  1  0.33574134  0.42407543  0.91131603  1
  Co  Co60  1  0.66425866  0.57592457  0.41131603  1
  Co  Co61  1  0.66425866  0.92407543  0.08868397  1
  Co  Co62  1  0.66425866  0.08868397  0.57592457  1
  Co  Co63  1  0.88841671  0.25000000  0.86013383  1
  Co  Co64  1  0.66425866  0.92407543  0.41131603  1
  Co  Co65  1  0.66425866  0.08868397  0.92407543  1
  Co  Co66  1  0.66425866  0.41131603  0.57592457  1
  Co  Co67  1  0.66425866  0.57592457  0.08868397  1
  Co  Co68  1  0.52710128  0.75000000  0.97901095  1
  Co  Co69  1  0.88841671  0.63986617  0.25000000  1
  Co  Co70  1  0.33574134  0.91131603  0.42407543  1
  Co  Co71  1  0.33574134  0.58868397  0.07592457  1
  Co  Co72  1  0.88841671  0.86013383  0.25000000  1
  Co  Co73  1  0.88841671  0.25000000  0.63986617  1
  Co  Co74  1  0.53585154  0.75000000  0.75000000  1
  Co  Co75  1  0.46414846  0.25000000  0.25000000  1
  Co  Co76  1  0.11158329  0.75000000  0.36013383  1
  Co  Co77  1  0.47289872  0.25000000  0.47901095  1
  Co  Co78  1  0.47289872  0.02098905  0.25000000  1
  Co  Co79  1  0.47289872  0.47901095  0.25000000  1
  Co  Co80  1  0.47289872  0.25000000  0.02098905  1
  Co  Co81  1  0.11158329  0.36013383  0.75000000  1
  Co  Co82  1  0.11158329  0.13986617  0.75000000  1
  Co  Co83  1  0.11158329  0.75000000  0.13986617  1
  Co  Co84  1  0.66425866  0.41131603  0.92407543  1
  Co  Co85  1  0.33574134  0.07592457  0.91131603  1
  Lu  Lu86  1  0.00000000  0.50000000  0.50000000  1
  Lu  Lu87  1  0.00000000  0.00000000  0.50000000  1
  Lu  Lu88  1  0.00000000  0.50000000  0.00000000  1
  Lu  Lu89  1  0.00000000  0.00000000  0.00000000  1
  Lu  Lu90  1  0.50000000  0.75000000  0.25000000  1
  Lu  Lu91  1  0.50000000  0.25000000  0.75000000  1
