# generated using pymatgen
data_DyAl7Au3
_symmetry_space_group_name_H-M   'P 1'
_cell_length_a   8.45827939
_cell_length_b   8.45827940
_cell_length_c   8.45827940
_cell_angle_alpha   57.22023311
_cell_angle_beta   57.22023309
_cell_angle_gamma   57.22023310
_symmetry_Int_Tables_number   1
_chemical_formula_structural   DyAl7Au3
_chemical_formula_sum   'Dy2 Al14 Au6'
_cell_volume   400.49356137
_cell_formula_units_Z   2
loop_
 _symmetry_equiv_pos_site_id
 _symmetry_equiv_pos_as_xyz
  1  'x, y, z'
loop_
 _atom_site_type_symbol
 _atom_site_label
 _atom_site_symmetry_multiplicity
 _atom_site_fract_x
 _atom_site_fract_y
 _atom_site_fract_z
 _atom_site_occupancy
  Al  Al0  1  0.64724893  0.43024811  0.83276040  1
  Al  Al1  1  0.43024811  0.83276040  0.64724893  1
  Al  Al2  1  0.83276040  0.64724893  0.43024811  1
  Al  Al3  1  0.66723960  0.06975189  0.85275107  1
  Al  Al4  1  0.06975189  0.85275107  0.66723960  1
  Al  Al5  1  0.85275107  0.66723960  0.06975189  1
  Al  Al6  1  0.35275107  0.56975189  0.16723960  1
  Al  Al7  1  0.56975189  0.16723960  0.35275107  1
  Al  Al8  1  0.25000000  0.25000000  0.25000000  1
  Al  Al9  1  0.75000000  0.75000000  0.75000000  1
  Al  Al10  1  0.14724893  0.33276040  0.93024811  1
  Al  Al11  1  0.93024811  0.14724893  0.33276040  1
  Al  Al12  1  0.33276040  0.93024811  0.14724893  1
  Al  Al13  1  0.16723960  0.35275107  0.56975189  1
  Dy  Dy14  1  0.50000000  0.50000000  0.50000000  1
  Dy  Dy15  1  0.00000000  0.00000000  0.00000000  1
  Au  Au16  1  0.07380264  0.75000000  0.42619736  1
  Au  Au17  1  0.75000000  0.42619736  0.07380264  1
  Au  Au18  1  0.42619736  0.07380264  0.75000000  1
  Au  Au19  1  0.92619736  0.25000000  0.57380264  1
  Au  Au20  1  0.25000000  0.57380264  0.92619736  1
  Au  Au21  1  0.57380264  0.92619736  0.25000000  1
