# generated using pymatgen
data_BaAgTeF
_symmetry_space_group_name_H-M   'P 1'
_cell_length_a   4.58337329
_cell_length_b   4.58337329
_cell_length_c   9.83436951
_cell_angle_alpha   90.00000000
_cell_angle_beta   90.00000000
_cell_angle_gamma   90.00000000
_symmetry_Int_Tables_number   1
_chemical_formula_structural   BaAgTeF
_chemical_formula_sum   'Ba2 Ag2 Te2 F2'
_cell_volume   206.59365599
_cell_formula_units_Z   2
loop_
 _symmetry_equiv_pos_site_id
 _symmetry_equiv_pos_as_xyz
  1  'x, y, z'
loop_
 _atom_site_type_symbol
 _atom_site_label
 _atom_site_symmetry_multiplicity
 _atom_site_fract_x
 _atom_site_fract_y
 _atom_site_fract_z
 _atom_site_occupancy
  F  F0  1  0.75000000  0.25000000  0.00000000  1
  F  F1  1  0.25000000  0.75000000  0.00000000  1
  Ag  Ag2  1  0.25000000  0.75000000  0.50000000  1
  Ag  Ag3  1  0.75000000  0.25000000  0.50000000  1
  Te  Te4  1  0.75000000  0.75000000  0.31661143  1
  Te  Te5  1  0.25000000  0.25000000  0.68338857  1
  Ba  Ba6  1  0.25000000  0.25000000  0.14797088  1
  Ba  Ba7  1  0.75000000  0.75000000  0.85202912  1
