# generated using pymatgen
data_Ba6YBr15
_symmetry_space_group_name_H-M   'P 1'
_cell_length_a   24.96041214
_cell_length_b   12.35180670
_cell_length_c   16.61459759
_cell_angle_alpha   90.00000000
_cell_angle_beta   114.46977947
_cell_angle_gamma   90.00000000
_symmetry_Int_Tables_number   1
_chemical_formula_structural   Ba6YBr15
_chemical_formula_sum   'Ba24 Y4 Br60'
_cell_volume   4662.29010599
_cell_formula_units_Z   4
loop_
 _symmetry_equiv_pos_site_id
 _symmetry_equiv_pos_as_xyz
  1  'x, y, z'
loop_
 _atom_site_type_symbol
 _atom_site_label
 _atom_site_symmetry_multiplicity
 _atom_site_fract_x
 _atom_site_fract_y
 _atom_site_fract_z
 _atom_site_occupancy
  Ba  Ba0  1  0.11617454  0.62722206  0.86794386  1
  Ba  Ba1  1  0.11941239  0.12266082  0.87623911  1
  Ba  Ba2  1  0.05702298  0.87204538  0.45107317  1
  Ba  Ba3  1  0.03763289  0.37286014  0.42907822  1
  Ba  Ba4  1  0.09027200  0.38130339  0.09983583  1
  Ba  Ba5  1  0.08380396  0.86823684  0.10301503  1
  Ba  Ba6  1  0.41619604  0.36823684  0.89698497  1
  Ba  Ba7  1  0.40972800  0.88130339  0.90016417  1
  Ba  Ba8  1  0.46236711  0.87286014  0.57092178  1
  Ba  Ba9  1  0.44297702  0.37204538  0.54892683  1
  Ba  Ba10  1  0.38058761  0.62266082  0.12376089  1
  Ba  Ba11  1  0.38382546  0.12722206  0.13205614  1
  Ba  Ba12  1  0.61617454  0.87277794  0.86794386  1
  Ba  Ba13  1  0.61941239  0.37733918  0.87623911  1
  Ba  Ba14  1  0.55702298  0.62795462  0.45107317  1
  Ba  Ba15  1  0.53763289  0.12713986  0.42907822  1
  Ba  Ba16  1  0.59027200  0.11869661  0.09983583  1
  Ba  Ba17  1  0.58380396  0.63176316  0.10301503  1
  Ba  Ba18  1  0.91619604  0.13176316  0.89698497  1
  Ba  Ba19  1  0.90972800  0.61869661  0.90016417  1
  Ba  Ba20  1  0.96236711  0.62713986  0.57092178  1
  Ba  Ba21  1  0.94297702  0.12795462  0.54892683  1
  Ba  Ba22  1  0.88058761  0.87733918  0.12376089  1
  Ba  Ba23  1  0.88382546  0.37277794  0.13205614  1
  Y  Y24  1  0.21958382  0.12737219  0.63248126  1
  Y  Y25  1  0.28041618  0.62737219  0.36751874  1
  Y  Y26  1  0.71958382  0.37262781  0.63248126  1
  Y  Y27  1  0.78041618  0.87262781  0.36751874  1
  Br  Br28  1  0.00003547  0.63157398  0.40574684  1
  Br  Br29  1  0.11580525  0.87520197  0.93383786  1
  Br  Br30  1  0.11417571  0.37436457  0.92374085  1
  Br  Br31  1  0.00679787  0.11417999  0.41770783  1
  Br  Br32  1  0.02779025  0.36897135  0.23160923  1
  Br  Br33  1  0.02329137  0.88273394  0.24058331  1
  Br  Br34  1  0.13025444  0.11667876  0.68506534  1
  Br  Br35  1  0.10424359  0.64129690  0.67181193  1
  Br  Br36  1  0.25289781  0.12689760  0.99310014  1
  Br  Br37  1  0.18564807  0.96959107  0.50301983  1
  Br  Br38  1  0.17307734  0.28394938  0.50468824  1
  Br  Br39  1  0.05539796  0.62540010  0.02717234  1
  Br  Br40  1  0.06380949  0.12453722  0.03505204  1
  Br  Br41  1  0.20398642  0.46910256  0.26225628  1
  Br  Br42  1  0.19708839  0.78166045  0.27179499  1
  Br  Br43  1  0.30291161  0.28166045  0.72820501  1
  Br  Br44  1  0.29601358  0.96910256  0.73774372  1
  Br  Br45  1  0.43619051  0.62453722  0.96494796  1
  Br  Br46  1  0.44460204  0.12540010  0.97282766  1
  Br  Br47  1  0.32692266  0.78394938  0.49531176  1
  Br  Br48  1  0.31435193  0.46959107  0.49698017  1
  Br  Br49  1  0.24710219  0.62689760  0.00689986  1
  Br  Br50  1  0.39575641  0.14129690  0.32818807  1
  Br  Br51  1  0.36974556  0.61667876  0.31493466  1
  Br  Br52  1  0.47670863  0.38273394  0.75941669  1
  Br  Br53  1  0.47220975  0.86897135  0.76839077  1
  Br  Br54  1  0.49320213  0.61417999  0.58229217  1
  Br  Br55  1  0.38582429  0.87436457  0.07625915  1
  Br  Br56  1  0.38419475  0.37520197  0.06616214  1
  Br  Br57  1  0.49996453  0.13157398  0.59425316  1
  Br  Br58  1  0.50003547  0.86842602  0.40574684  1
  Br  Br59  1  0.61580525  0.62479803  0.93383786  1
  Br  Br60  1  0.61417571  0.12563543  0.92374085  1
  Br  Br61  1  0.50679787  0.38582001  0.41770783  1
  Br  Br62  1  0.52779025  0.13102865  0.23160923  1
  Br  Br63  1  0.52329137  0.61726606  0.24058331  1
  Br  Br64  1  0.63025444  0.38332124  0.68506534  1
  Br  Br65  1  0.60424359  0.85870310  0.67181193  1
  Br  Br66  1  0.75289781  0.37310240  0.99310014  1
  Br  Br67  1  0.68564807  0.53040893  0.50301983  1
  Br  Br68  1  0.67307734  0.21605062  0.50468824  1
  Br  Br69  1  0.55539796  0.87459990  0.02717234  1
  Br  Br70  1  0.56380949  0.37546278  0.03505204  1
  Br  Br71  1  0.70398642  0.03089744  0.26225628  1
  Br  Br72  1  0.69708839  0.71833955  0.27179499  1
  Br  Br73  1  0.80291161  0.21833955  0.72820501  1
  Br  Br74  1  0.79601358  0.53089744  0.73774372  1
  Br  Br75  1  0.93619051  0.87546278  0.96494796  1
  Br  Br76  1  0.94460204  0.37459990  0.97282766  1
  Br  Br77  1  0.82692266  0.71605062  0.49531176  1
  Br  Br78  1  0.81435193  0.03040893  0.49698017  1
  Br  Br79  1  0.74710219  0.87310240  0.00689986  1
  Br  Br80  1  0.89575641  0.35870310  0.32818807  1
  Br  Br81  1  0.86974556  0.88332124  0.31493466  1
  Br  Br82  1  0.97670863  0.11726606  0.75941669  1
  Br  Br83  1  0.97220975  0.63102865  0.76839077  1
  Br  Br84  1  0.99320213  0.88582001  0.58229217  1
  Br  Br85  1  0.88582429  0.62563543  0.07625915  1
  Br  Br86  1  0.88419475  0.12479803  0.06616214  1
  Br  Br87  1  -0.00003547  0.36842602  0.59425316  1
