# generated using pymatgen
data_YbSn2Pd
_symmetry_space_group_name_H-M   'P 1'
_cell_length_a   4.44160674
_cell_length_b   5.98153219
_cell_length_c   7.55748308
_cell_angle_alpha   90.00000000
_cell_angle_beta   90.00000000
_cell_angle_gamma   111.79437457
_symmetry_Int_Tables_number   1
_chemical_formula_structural   YbSn2Pd
_chemical_formula_sum   'Yb2 Sn4 Pd2'
_cell_volume   186.43268839
_cell_formula_units_Z   2
loop_
 _symmetry_equiv_pos_site_id
 _symmetry_equiv_pos_as_xyz
  1  'x, y, z'
loop_
 _atom_site_type_symbol
 _atom_site_label
 _atom_site_symmetry_multiplicity
 _atom_site_fract_x
 _atom_site_fract_y
 _atom_site_fract_z
 _atom_site_occupancy
  Pd  Pd0  1  0.70253475  0.40506949  0.75000000  1
  Pd  Pd1  1  0.29746525  0.59493051  0.25000000  1
  Sn  Sn2  1  0.14002217  0.28004433  0.54361350  1
  Sn  Sn3  1  0.85997783  0.71995567  0.45638650  1
  Sn  Sn4  1  0.14002217  0.28004433  0.95638650  1
  Sn  Sn5  1  0.85997783  0.71995567  0.04361350  1
  Yb  Yb6  1  0.57111878  0.14223755  0.25000000  1
  Yb  Yb7  1  0.42888122  0.85776245  0.75000000  1
