# generated using pymatgen
data_Sr3Sc(BO3)3
_symmetry_space_group_name_H-M   'P 1'
_cell_length_a   7.73694598
_cell_length_b   7.73694598
_cell_length_c   7.73694598
_cell_angle_alpha   105.05803166
_cell_angle_beta   105.05803167
_cell_angle_gamma   105.05803167
_symmetry_Int_Tables_number   1
_chemical_formula_structural   Sr3Sc(BO3)3
_chemical_formula_sum   'Sr6 Sc2 B6 O18'
_cell_volume   404.40204038
_cell_formula_units_Z   2
loop_
 _symmetry_equiv_pos_site_id
 _symmetry_equiv_pos_as_xyz
  1  'x, y, z'
loop_
 _atom_site_type_symbol
 _atom_site_label
 _atom_site_symmetry_multiplicity
 _atom_site_fract_x
 _atom_site_fract_y
 _atom_site_fract_z
 _atom_site_occupancy
  B  B0  1  0.04131502  0.28820059  0.37258952  1
  B  B1  1  0.28820059  0.37258952  0.04131502  1
  B  B2  1  0.37258952  0.04131502  0.28820059  1
  B  B3  1  0.71179941  0.62741048  0.95868498  1
  B  B4  1  0.62741048  0.95868498  0.71179941  1
  B  B5  1  0.95868498  0.71179941  0.62741048  1
  O  O6  1  0.25621359  0.17683996  0.98182449  1
  O  O7  1  0.17683996  0.98182449  0.25621359  1
  O  O8  1  0.19057850  0.45075402  0.92674796  1
  O  O9  1  0.92674796  0.19057850  0.45075402  1
  O  O10  1  0.45075402  0.92674796  0.19057850  1
  O  O11  1  0.54924598  0.07325204  0.80942150  1
  O  O12  1  0.80942150  0.54924598  0.07325204  1
  O  O13  1  0.07325204  0.80942150  0.54924598  1
  O  O14  1  0.43166286  0.49187345  0.21624775  1
  O  O15  1  0.21624775  0.43166286  0.49187345  1
  O  O16  1  0.49187345  0.21624775  0.43166286  1
  O  O17  1  0.56833714  0.50812655  0.78375225  1
  O  O18  1  0.78375225  0.56833714  0.50812655  1
  O  O19  1  0.50812655  0.78375225  0.56833714  1
  O  O20  1  0.01817551  0.74378641  0.82316004  1
  O  O21  1  0.82316004  0.01817551  0.74378641  1
  O  O22  1  0.74378641  0.82316004  0.01817551  1
  O  O23  1  0.98182449  0.25621359  0.17683996  1
  Sc  Sc24  1  0.00000000  0.00000000  0.00000000  1
  Sc  Sc25  1  0.50000000  0.50000000  0.50000000  1
  Sr  Sr26  1  0.26250982  0.15984072  0.65052147  1
  Sr  Sr27  1  0.15984072  0.65052147  0.26250982  1
  Sr  Sr28  1  0.65052147  0.26250982  0.15984072  1
  Sr  Sr29  1  0.73749018  0.84015928  0.34947853  1
  Sr  Sr30  1  0.84015928  0.34947853  0.73749018  1
  Sr  Sr31  1  0.34947853  0.73749018  0.84015928  1
