# generated using pymatgen
data_Ba4LiTa3O12
_symmetry_space_group_name_H-M   'P 1'
_cell_length_a   5.86322590
_cell_length_b   5.86322590
_cell_length_c   19.35660838
_cell_angle_alpha   90.00000000
_cell_angle_beta   90.00000000
_cell_angle_gamma   119.99999999
_symmetry_Int_Tables_number   1
_chemical_formula_structural   Ba4LiTa3O12
_chemical_formula_sum   'Ba8 Li2 Ta6 O24'
_cell_volume   576.27947218
_cell_formula_units_Z   2
loop_
 _symmetry_equiv_pos_site_id
 _symmetry_equiv_pos_as_xyz
  1  'x, y, z'
loop_
 _atom_site_type_symbol
 _atom_site_label
 _atom_site_symmetry_multiplicity
 _atom_site_fract_x
 _atom_site_fract_y
 _atom_site_fract_z
 _atom_site_occupancy
  Li  Li0  1  0.00000000  0.00000000  0.16619427  1
  Li  Li1  1  0.00000000  0.00000000  0.66619427  1
  O  O2  1  0.84133743  0.68267486  0.75778923  1
  O  O3  1  0.15866257  0.31732514  0.25778923  1
  O  O4  1  0.68267486  0.84133743  0.25778923  1
  O  O5  1  0.84133743  0.15866257  0.75778923  1
  O  O6  1  0.16944338  0.83055662  0.87892607  1
  O  O7  1  0.33888676  0.16944338  0.37892607  1
  O  O8  1  0.83055662  0.66111324  0.37892607  1
  O  O9  1  0.16944338  0.33888676  0.87892607  1
  O  O10  1  0.66111324  0.83055662  0.87892607  1
  O  O11  1  0.83055662  0.16944338  0.37892607  1
  O  O12  1  0.17380843  0.82619157  0.61769115  1
  O  O13  1  0.34761686  0.17380843  0.11769115  1
  O  O14  1  0.15866257  0.84133743  0.25778923  1
  O  O15  1  0.31732514  0.15866257  0.75778923  1
  O  O16  1  0.49855814  0.50144186  0.99653197  1
  O  O17  1  0.99711628  0.49855814  0.49653197  1
  O  O18  1  0.50144186  0.00288372  0.49653197  1
  O  O19  1  0.49855814  0.99711628  0.99653197  1
  O  O20  1  0.00288372  0.50144186  0.99653197  1
  O  O21  1  0.50144186  0.49855814  0.49653197  1
  O  O22  1  0.82619157  0.17380843  0.11769115  1
  O  O23  1  0.65238314  0.82619157  0.61769115  1
  O  O24  1  0.17380843  0.34761686  0.61769115  1
  O  O25  1  0.82619157  0.65238314  0.11769115  1
  Ba  Ba26  1  0.00000000  0.00000000  0.00299661  1
  Ba  Ba27  1  0.00000000  0.00000000  0.50299661  1
  Ba  Ba28  1  0.33333333  0.66666667  0.14502277  1
  Ba  Ba29  1  0.66666667  0.33333333  0.64502277  1
  Ba  Ba30  1  0.33333333  0.66666667  0.36958669  1
  Ba  Ba31  1  0.66666667  0.33333333  0.86958669  1
  Ba  Ba32  1  0.66666667  0.33333333  0.24812647  1
  Ba  Ba33  1  0.33333333  0.66666667  0.74812647  1
  Ta  Ta34  1  0.00000000  0.00000000  0.30996214  1
  Ta  Ta35  1  0.00000000  0.00000000  0.80996214  1
  Ta  Ta36  1  0.33333333  0.66666667  0.56582269  1
  Ta  Ta37  1  0.66666667  0.33333333  0.06582269  1
  Ta  Ta38  1  0.33333333  0.66666667  0.93947309  1
  Ta  Ta39  1  0.66666667  0.33333333  0.43947309  1
