# generated using pymatgen
data_Tm2O3
_symmetry_space_group_name_H-M   'P 1'
_cell_length_a   9.07189654
_cell_length_b   9.07189653
_cell_length_c   9.07189654
_cell_angle_alpha   109.47122063
_cell_angle_beta   109.47122062
_cell_angle_gamma   109.47122066
_symmetry_Int_Tables_number   1
_chemical_formula_structural   Tm2O3
_chemical_formula_sum   'Tm16 O24'
_cell_volume   574.74125870
_cell_formula_units_Z   8
loop_
 _symmetry_equiv_pos_site_id
 _symmetry_equiv_pos_as_xyz
  1  'x, y, z'
loop_
 _atom_site_type_symbol
 _atom_site_label
 _atom_site_symmetry_multiplicity
 _atom_site_fract_x
 _atom_site_fract_y
 _atom_site_fract_z
 _atom_site_occupancy
  O  O0  1  0.53204305  0.77108809  0.54322074  1
  O  O1  1  0.98882232  0.95677926  0.72786736  1
  O  O2  1  0.26095496  0.77213264  0.72891191  1
  O  O3  1  0.51117768  0.23904504  0.96795695  1
  O  O4  1  0.95677926  0.72786736  0.98882232  1
  O  O5  1  0.72891191  0.26095496  0.77213264  1
  O  O6  1  0.23904504  0.96795695  0.51117768  1
  O  O7  1  0.54322074  0.53204305  0.77108809  1
  O  O8  1  0.77108809  0.54322074  0.53204305  1
  O  O9  1  0.72786736  0.98882232  0.95677926  1
  O  O10  1  0.77213264  0.72891191  0.26095496  1
  O  O11  1  0.96795695  0.51117768  0.23904504  1
  O  O12  1  0.46795695  0.22891191  0.45677926  1
  O  O13  1  0.01117768  0.04322074  0.27213264  1
  O  O14  1  0.73904504  0.22786736  0.27108809  1
  O  O15  1  0.48882232  0.76095496  0.03204305  1
  O  O16  1  0.04322074  0.27213264  0.01117768  1
  O  O17  1  0.27108809  0.73904504  0.22786736  1
  O  O18  1  0.76095496  0.03204305  0.48882232  1
  O  O19  1  0.45677926  0.46795695  0.22891191  1
  O  O20  1  0.22891191  0.45677926  0.46795695  1
  O  O21  1  0.27213264  0.01117768  0.04322074  1
  O  O22  1  0.22786736  0.27108809  0.73904504  1
  O  O23  1  0.03204305  0.48882232  0.76095496  1
  Tm  Tm24  1  0.50000000  0.50000000  0.50000000  1
  Tm  Tm25  1  0.00000000  0.00000000  0.50000000  1
  Tm  Tm26  1  0.50000000  0.00000000  0.00000000  1
  Tm  Tm27  1  0.00000000  0.50000000  0.00000000  1
  Tm  Tm28  1  0.25000000  0.21677753  0.96677753  1
  Tm  Tm29  1  0.28322247  0.53322247  0.75000000  1
  Tm  Tm30  1  0.53322247  0.75000000  0.28322247  1
  Tm  Tm31  1  0.21677753  0.96677753  0.25000000  1
  Tm  Tm32  1  0.96677753  0.25000000  0.21677753  1
  Tm  Tm33  1  0.75000000  0.28322247  0.53322247  1
  Tm  Tm34  1  0.75000000  0.78322247  0.03322247  1
  Tm  Tm35  1  0.71677753  0.46677753  0.25000000  1
  Tm  Tm36  1  0.46677753  0.25000000  0.71677753  1
  Tm  Tm37  1  0.78322247  0.03322247  0.75000000  1
  Tm  Tm38  1  0.03322247  0.75000000  0.78322247  1
  Tm  Tm39  1  0.25000000  0.71677753  0.46677753  1
