# generated using pymatgen
data_Pu3Pd4
_symmetry_space_group_name_H-M   'P 1'
_cell_length_a   7.97749157
_cell_length_b   7.97749157
_cell_length_c   7.97749157
_cell_angle_alpha   114.37986227
_cell_angle_beta   114.37986230
_cell_angle_gamma   114.37986224
_symmetry_Int_Tables_number   1
_chemical_formula_structural   Pu3Pd4
_chemical_formula_sum   'Pu6 Pd8'
_cell_volume   299.56232828
_cell_formula_units_Z   2
loop_
 _symmetry_equiv_pos_site_id
 _symmetry_equiv_pos_as_xyz
  1  'x, y, z'
loop_
 _atom_site_type_symbol
 _atom_site_label
 _atom_site_symmetry_multiplicity
 _atom_site_fract_x
 _atom_site_fract_y
 _atom_site_fract_z
 _atom_site_occupancy
  Pd  Pd0  1  0.00000000  0.00000000  0.00000000  1
  Pd  Pd1  1  0.50000000  0.50000000  0.50000000  1
  Pd  Pd2  1  0.54859882  0.21986088  0.05764975  1
  Pd  Pd3  1  0.05764975  0.54859882  0.21986088  1
  Pd  Pd4  1  0.21986088  0.05764975  0.54859882  1
  Pd  Pd5  1  0.45140118  0.78013912  0.94235025  1
  Pd  Pd6  1  0.94235025  0.45140118  0.78013912  1
  Pd  Pd7  1  0.78013912  0.94235025  0.45140118  1
  Pu  Pu8  1  0.28774228  0.40487939  0.02764500  1
  Pu  Pu9  1  0.02764500  0.28774228  0.40487939  1
  Pu  Pu10  1  0.40487939  0.02764500  0.28774228  1
  Pu  Pu11  1  0.71225772  0.59512061  0.97235500  1
  Pu  Pu12  1  0.97235500  0.71225772  0.59512061  1
  Pu  Pu13  1  0.59512061  0.97235500  0.71225772  1
