# generated using pymatgen
data_Ba5Sb4
_symmetry_space_group_name_H-M   'P 1'
_cell_length_a   9.15558212
_cell_length_b   9.19744124
_cell_length_c   18.02274993
_cell_angle_alpha   90.00000000
_cell_angle_beta   90.00000000
_cell_angle_gamma   90.00000000
_symmetry_Int_Tables_number   1
_chemical_formula_structural   Ba5Sb4
_chemical_formula_sum   'Ba20 Sb16'
_cell_volume   1517.65843868
_cell_formula_units_Z   4
loop_
 _symmetry_equiv_pos_site_id
 _symmetry_equiv_pos_as_xyz
  1  'x, y, z'
loop_
 _atom_site_type_symbol
 _atom_site_label
 _atom_site_symmetry_multiplicity
 _atom_site_fract_x
 _atom_site_fract_y
 _atom_site_fract_z
 _atom_site_occupancy
  Sb  Sb0  1  0.74744114  0.99608105  0.94806511  1
  Sb  Sb1  1  0.24744114  0.50391895  0.55193489  1
  Sb  Sb2  1  0.75255886  0.49608105  0.05193489  1
  Sb  Sb3  1  0.25255886  0.00391895  0.44806511  1
  Sb  Sb4  1  0.25255886  0.00391895  0.05193489  1
  Sb  Sb5  1  0.75255886  0.49608105  0.44806511  1
  Sb  Sb6  1  0.24744114  0.50391895  0.94806511  1
  Sb  Sb7  1  0.74744114  0.99608105  0.55193489  1
  Sb  Sb8  1  0.36725166  0.38976990  0.25000000  1
  Sb  Sb9  1  0.86725166  0.11023010  0.25000000  1
  Sb  Sb10  1  0.13274834  0.88976990  0.75000000  1
  Sb  Sb11  1  0.63274834  0.61023010  0.75000000  1
  Sb  Sb12  1  0.14092194  0.61567303  0.25000000  1
  Sb  Sb13  1  0.64092194  0.88432697  0.25000000  1
  Sb  Sb14  1  0.35907806  0.11567303  0.75000000  1
  Sb  Sb15  1  0.85907806  0.38432697  0.75000000  1
  Ba  Ba16  1  0.42350235  0.66609185  0.39676496  1
  Ba  Ba17  1  0.92350235  0.83390815  0.10323504  1
  Ba  Ba18  1  0.07649765  0.16609185  0.60323504  1
  Ba  Ba19  1  0.57649765  0.33390815  0.89676496  1
  Ba  Ba20  1  0.42350235  0.66609185  0.10323504  1
  Ba  Ba21  1  0.92350235  0.83390815  0.39676496  1
  Ba  Ba22  1  0.07649765  0.16609185  0.89676496  1
  Ba  Ba23  1  0.57649765  0.33390815  0.60323504  1
  Ba  Ba24  1  0.41344918  0.83785749  0.60459425  1
  Ba  Ba25  1  0.91344918  0.66214251  0.89540575  1
  Ba  Ba26  1  0.08655082  0.33785749  0.39540575  1
  Ba  Ba27  1  0.58655082  0.16214251  0.10459425  1
  Ba  Ba28  1  0.58655082  0.16214251  0.39540575  1
  Ba  Ba29  1  0.08655082  0.33785749  0.10459425  1
  Ba  Ba30  1  0.91344918  0.66214251  0.60459425  1
  Ba  Ba31  1  0.41344918  0.83785749  0.89540575  1
  Ba  Ba32  1  0.25381019  0.00145820  0.25000000  1
  Ba  Ba33  1  0.75381019  0.49854180  0.25000000  1
  Ba  Ba34  1  0.24618981  0.50145820  0.75000000  1
  Ba  Ba35  1  0.74618981  0.99854180  0.75000000  1
