# generated using pymatgen
data_ZrAu4
_symmetry_space_group_name_H-M   'P 1'
_cell_length_a   4.96424927
_cell_length_b   5.08360468
_cell_length_c   14.76259703
_cell_angle_alpha   90.00000000
_cell_angle_beta   90.00000000
_cell_angle_gamma   90.00000000
_symmetry_Int_Tables_number   1
_chemical_formula_structural   ZrAu4
_chemical_formula_sum   'Zr4 Au16'
_cell_volume   372.55304431
_cell_formula_units_Z   4
loop_
 _symmetry_equiv_pos_site_id
 _symmetry_equiv_pos_as_xyz
  1  'x, y, z'
loop_
 _atom_site_type_symbol
 _atom_site_label
 _atom_site_symmetry_multiplicity
 _atom_site_fract_x
 _atom_site_fract_y
 _atom_site_fract_z
 _atom_site_occupancy
  Zr  Zr0  1  0.25000000  0.16276263  0.40156423  1
  Zr  Zr1  1  0.25000000  0.66276263  0.09843577  1
  Zr  Zr2  1  0.75000000  0.33723737  0.90156423  1
  Zr  Zr3  1  0.75000000  0.83723737  0.59843577  1
  Au  Au4  1  0.25000000  0.66486079  0.50054415  1
  Au  Au5  1  0.25000000  0.67266375  0.69734987  1
  Au  Au6  1  0.25000000  0.65949419  0.90018276  1
  Au  Au7  1  0.75000000  0.82733625  0.19734987  1
  Au  Au8  1  0.75000000  0.83513921  0.00054415  1
  Au  Au9  1  0.25000000  0.16486079  0.99945585  1
  Au  Au10  1  0.75000000  0.34050581  0.09981724  1
  Au  Au11  1  0.25000000  0.15949419  0.59981724  1
  Au  Au12  1  0.75000000  0.33576671  0.70161166  1
  Au  Au13  1  0.25000000  0.66423329  0.29838834  1
  Au  Au14  1  0.75000000  0.32733625  0.30265013  1
  Au  Au15  1  0.75000000  0.84050581  0.40018276  1
  Au  Au16  1  0.25000000  0.17266375  0.80265013  1
  Au  Au17  1  0.25000000  0.16423329  0.20161166  1
  Au  Au18  1  0.75000000  0.33513921  0.49945585  1
  Au  Au19  1  0.75000000  0.83576671  0.79838834  1
