# generated using pymatgen
data_Ba3(AlN2)2
_symmetry_space_group_name_H-M   'P 1'
_cell_length_a   6.27119210
_cell_length_b   10.31969034
_cell_length_c   10.18969324
_cell_angle_alpha   90.00000000
_cell_angle_beta   90.00000000
_cell_angle_gamma   90.00000000
_symmetry_Int_Tables_number   1
_chemical_formula_structural   Ba3(AlN2)2
_chemical_formula_sum   'Ba12 Al8 N16'
_cell_volume   659.44393733
_cell_formula_units_Z   4
loop_
 _symmetry_equiv_pos_site_id
 _symmetry_equiv_pos_as_xyz
  1  'x, y, z'
loop_
 _atom_site_type_symbol
 _atom_site_label
 _atom_site_symmetry_multiplicity
 _atom_site_fract_x
 _atom_site_fract_y
 _atom_site_fract_z
 _atom_site_occupancy
  N  N0  1  0.85741792  0.14466327  0.63433889  1
  N  N1  1  0.85741792  0.35533673  0.86566111  1
  N  N2  1  0.64258208  0.64466327  0.86566111  1
  N  N3  1  0.64258208  0.85533673  0.63433889  1
  N  N4  1  0.14258208  0.85533673  0.36566111  1
  N  N5  1  0.14258208  0.64466327  0.13433889  1
  N  N6  1  0.35741792  0.35533673  0.13433889  1
  N  N7  1  0.35741792  0.14466327  0.36566111  1
  N  N8  1  0.53536083  0.09948506  0.82777346  1
  N  N9  1  0.53536083  0.40051494  0.67222654  1
  N  N10  1  0.96463917  0.59948506  0.67222654  1
  N  N11  1  0.96463917  0.90051494  0.82777346  1
  N  N12  1  0.46463917  0.59948506  0.32777346  1
  N  N13  1  0.03536083  0.40051494  0.32777346  1
  N  N14  1  0.03536083  0.09948506  0.17222654  1
  N  N15  1  0.46463917  0.90051494  0.17222654  1
  Al  Al16  1  0.25000000  0.00000000  0.26772583  1
  Al  Al17  1  0.25000000  0.50000000  0.23227417  1
  Al  Al18  1  0.75000000  0.00000000  0.73227417  1
  Al  Al19  1  0.75000000  0.50000000  0.76772583  1
  Al  Al20  1  0.82633975  0.75000000  0.75000000  1
  Al  Al21  1  0.32633975  0.75000000  0.25000000  1
  Al  Al22  1  0.17366025  0.25000000  0.25000000  1
  Al  Al23  1  0.67366025  0.25000000  0.75000000  1
  Ba  Ba24  1  0.25000000  0.50000000  0.90871532  1
  Ba  Ba25  1  0.25000000  0.00000000  0.59128468  1
  Ba  Ba26  1  0.75000000  0.50000000  0.09128468  1
  Ba  Ba27  1  0.75000000  0.00000000  0.40871532  1
  Ba  Ba28  1  0.11462854  0.15482990  0.91328091  1
  Ba  Ba29  1  0.11462854  0.34517010  0.58671909  1
  Ba  Ba30  1  0.38537146  0.65482990  0.58671909  1
  Ba  Ba31  1  0.38537146  0.84517010  0.91328091  1
  Ba  Ba32  1  0.88537146  0.84517010  0.08671909  1
  Ba  Ba33  1  0.88537146  0.65482990  0.41328091  1
  Ba  Ba34  1  0.61462854  0.34517010  0.41328091  1
  Ba  Ba35  1  0.61462854  0.15482990  0.08671909  1
