# generated using pymatgen
data_Li4NbFe3Cu2(PO4)6
_symmetry_space_group_name_H-M   'P 1'
_cell_length_a   8.73691769
_cell_length_b   8.77083751
_cell_length_c   8.77675074
_cell_angle_alpha   61.25785242
_cell_angle_beta   60.90277671
_cell_angle_gamma   61.51481867
_symmetry_Int_Tables_number   1
_chemical_formula_structural   Li4NbFe3Cu2(PO4)6
_chemical_formula_sum   'Li4 Nb1 Fe3 Cu2 P6 O24'
_cell_volume   488.65084090
_cell_formula_units_Z   1
loop_
 _symmetry_equiv_pos_site_id
 _symmetry_equiv_pos_as_xyz
  1  'x, y, z'
loop_
 _atom_site_type_symbol
 _atom_site_label
 _atom_site_symmetry_multiplicity
 _atom_site_fract_x
 _atom_site_fract_y
 _atom_site_fract_z
 _atom_site_occupancy
  Li  Li0  1  0.73416010  0.15946984  0.35645101  1
  Li  Li1  1  0.31179661  0.82934615  0.64506135  1
  Li  Li2  1  0.64306214  0.30914644  0.83488159  1
  Li  Li3  1  0.82900233  0.64152261  0.31366813  1
  Nb  Nb4  1  0.85417695  0.84859935  0.85429166  1
  Fe  Fe5  1  0.14593945  0.14806777  0.14348608  1
  Fe  Fe6  1  0.35423615  0.35831354  0.35422968  1
  Fe  Fe7  1  0.65169171  0.64965727  0.65822873  1
  Cu  Cu8  1  0.03574241  0.99748909  0.98986873  1
  Cu  Cu9  1  0.46478286  0.51911019  0.50225589  1
  P  P10  1  0.05134033  0.74949289  0.43966590  1
  P  P11  1  0.44597640  0.04484324  0.74973652  1
  P  P12  1  0.75193753  0.43874175  0.04858915  1
  P  P13  1  0.24896287  0.54046584  0.96116553  1
  P  P14  1  0.54535665  0.96116231  0.25331182  1
  P  P15  1  0.95183701  0.24878716  0.53675552  1
  O  O16  1  0.12622853  0.26796677  0.51000733  1
  O  O17  1  0.28620591  0.53024326  0.11630092  1
  O  O18  1  0.06656153  0.91803488  0.26248944  1
  O  O19  1  0.55661361  0.11148184  0.28501158  1
  O  O20  1  0.98554172  0.81291554  0.61161745  1
  O  O21  1  0.23355934  0.59393194  0.44354041  1
  O  O22  1  0.26096207  0.08236776  0.90648732  1
  O  O23  1  0.47514806  0.21431303  0.58075607  1
  O  O24  1  0.16887682  0.39502688  0.01018222  1
  O  O25  1  0.60046070  0.43697394  0.23675365  1
  O  O26  1  0.10159243  0.74345966  0.90287490  1
  O  O27  1  0.38395965  0.02562882  0.18885310  1
  O  O28  1  0.61174312  0.97391489  0.82258256  1
  O  O29  1  0.90934836  0.25287788  0.07607984  1
  O  O30  1  0.41685535  0.54113526  0.77675551  1
  O  O31  1  0.82023839  0.60640563  0.98195859  1
  O  O32  1  0.54247173  0.77976335  0.42029926  1
  O  O33  1  0.73968811  0.89686982  0.10067520  1
  O  O34  1  0.77467550  0.41998966  0.55132283  1
  O  O35  1  0.96738420  0.18734274  0.39056412  1
  O  O36  1  0.46225795  0.88790948  0.70449083  1
  O  O37  1  0.89963236  0.09800599  0.73850597  1
  O  O38  1  0.69245498  0.46252801  0.89958944  1
  O  O39  1  0.89753810  0.69369754  0.46365417  1
