# generated using pymatgen
data_Ca2VN3
_symmetry_space_group_name_H-M   'P 1'
_cell_length_a   5.63845431
_cell_length_b   5.94241111
_cell_length_c   11.64721764
_cell_angle_alpha   89.01747810
_cell_angle_beta   87.92867532
_cell_angle_gamma   61.67809515
_symmetry_Int_Tables_number   1
_chemical_formula_structural   Ca2VN3
_chemical_formula_sum   'Ca8 V4 N12'
_cell_volume   343.31267834
_cell_formula_units_Z   4
loop_
 _symmetry_equiv_pos_site_id
 _symmetry_equiv_pos_as_xyz
  1  'x, y, z'
loop_
 _atom_site_type_symbol
 _atom_site_label
 _atom_site_symmetry_multiplicity
 _atom_site_fract_x
 _atom_site_fract_y
 _atom_site_fract_z
 _atom_site_occupancy
  N  N0  1  0.91169421  0.17661157  0.75000000  1
  N  N1  1  0.08830579  0.82338843  0.25000000  1
  N  N2  1  0.49431948  0.01136104  0.75000000  1
  N  N3  1  0.50568052  0.98863896  0.25000000  1
  N  N4  1  0.01270707  0.32660003  0.12837071  1
  N  N5  1  0.66069289  0.32660003  0.37162929  1
  N  N6  1  0.98729293  0.67339997  0.87162929  1
  N  N7  1  0.33930711  0.67339997  0.62837071  1
  N  N8  1  0.62212482  0.18545722  0.96235229  1
  N  N9  1  0.80758203  0.81454278  0.46235229  1
  N  N10  1  0.37787518  0.81454278  0.03764771  1
  N  N11  1  0.19241797  0.18545722  0.53764771  1
  Ca  Ca12  1  0.83908593  0.77495542  0.07723596  1
  Ca  Ca13  1  0.05392485  0.40581465  0.35302577  1
  Ca  Ca14  1  0.45973950  0.59418535  0.85302577  1
  Ca  Ca15  1  0.94607515  0.59418535  0.64697423  1
  Ca  Ca16  1  0.16091407  0.22504458  0.92276404  1
  Ca  Ca17  1  0.61404135  0.22504458  0.57723596  1
  Ca  Ca18  1  0.38595865  0.77495542  0.42276404  1
  Ca  Ca19  1  0.54026050  0.40581465  0.14697423  1
  V  V20  1  0.76651594  0.00016827  0.83766683  1
  V  V21  1  0.23331578  0.00016827  0.66233317  1
  V  V22  1  0.23348406  0.99983173  0.16233317  1
  V  V23  1  0.76668422  0.99983173  0.33766683  1
