# generated using pymatgen
data_Lu4Ge6Rh7
_symmetry_space_group_name_H-M   'P 1'
_cell_length_a   7.20897234
_cell_length_b   7.20897233
_cell_length_c   7.20897233
_cell_angle_alpha   109.47122065
_cell_angle_beta   109.47122064
_cell_angle_gamma   109.47122064
_symmetry_Int_Tables_number   1
_chemical_formula_structural   Lu4Ge6Rh7
_chemical_formula_sum   'Lu4 Ge6 Rh7'
_cell_volume   288.40194534
_cell_formula_units_Z   1
loop_
 _symmetry_equiv_pos_site_id
 _symmetry_equiv_pos_as_xyz
  1  'x, y, z'
loop_
 _atom_site_type_symbol
 _atom_site_label
 _atom_site_symmetry_multiplicity
 _atom_site_fract_x
 _atom_site_fract_y
 _atom_site_fract_z
 _atom_site_occupancy
  Ge  Ge0  1  0.00000000  0.68212679  0.68212679  1
  Ge  Ge1  1  0.31787321  0.31787321  0.00000000  1
  Ge  Ge2  1  0.68212679  0.68212679  0.00000000  1
  Ge  Ge3  1  0.68212679  0.00000000  0.68212679  1
  Ge  Ge4  1  0.31787321  0.00000000  0.31787321  1
  Ge  Ge5  1  0.00000000  0.31787321  0.31787321  1
  Rh  Rh6  1  0.50000000  0.75000000  0.25000000  1
  Rh  Rh7  1  0.25000000  0.50000000  0.75000000  1
  Rh  Rh8  1  0.75000000  0.25000000  0.50000000  1
  Rh  Rh9  1  0.25000000  0.75000000  0.50000000  1
  Rh  Rh10  1  0.50000000  0.25000000  0.75000000  1
  Rh  Rh11  1  0.75000000  0.50000000  0.25000000  1
  Rh  Rh12  1  0.00000000  0.00000000  0.00000000  1
  Lu  Lu13  1  0.00000000  0.00000000  0.50000000  1
  Lu  Lu14  1  0.00000000  0.50000000  0.00000000  1
  Lu  Lu15  1  0.50000000  0.00000000  0.00000000  1
  Lu  Lu16  1  0.50000000  0.50000000  0.50000000  1
