# generated using pymatgen
data_Sr6Ga5N
_symmetry_space_group_name_H-M   'P 1'
_cell_length_a   7.60573757
_cell_length_b   7.60578199
_cell_length_c   40.64977340
_cell_angle_alpha   90.00027542
_cell_angle_beta   90.00005122
_cell_angle_gamma   120.00017537
_symmetry_Int_Tables_number   1
_chemical_formula_structural   Sr6Ga5N
_chemical_formula_sum   'Sr36 Ga30 N6'
_cell_volume   2036.44742507
_cell_formula_units_Z   6
loop_
 _symmetry_equiv_pos_site_id
 _symmetry_equiv_pos_as_xyz
  1  'x, y, z'
loop_
 _atom_site_type_symbol
 _atom_site_label
 _atom_site_symmetry_multiplicity
 _atom_site_fract_x
 _atom_site_fract_y
 _atom_site_fract_z
 _atom_site_occupancy
  Sr  Sr0  1  0.77795747  0.09861252  0.46398954  1
  Sr  Sr1  1  0.90138772  0.67934615  0.46398928  1
  Sr  Sr2  1  0.32065510  0.22204065  0.46398957  1
  Sr  Sr3  1  0.76530440  0.11128473  0.36933314  1
  Sr  Sr4  1  0.88871772  0.65401921  0.36933308  1
  Sr  Sr5  1  0.34598030  0.23469587  0.36933306  1
  Sr  Sr6  1  0.22200069  0.90133016  0.53601877  1
  Sr  Sr7  1  0.09866739  0.32066832  0.53601868  1
  Sr  Sr8  1  0.67933159  0.77800186  0.53601872  1
  Sr  Sr9  1  0.23467913  0.88866646  0.63064882  1
  Sr  Sr10  1  0.11133036  0.34601148  0.63064900  1
  Sr  Sr11  1  0.65399047  0.76532168  0.63064894  1
  Sr  Sr12  1  0.44464285  0.43200823  0.79733213  1
  Sr  Sr13  1  0.56799327  0.01263676  0.79733231  1
  Sr  Sr14  1  0.98736425  0.55535366  0.79733207  1
  Sr  Sr15  1  0.43196188  0.44465810  0.70267763  1
  Sr  Sr16  1  0.55534346  0.98730409  0.70267752  1
  Sr  Sr17  1  0.01269232  0.56803783  0.70267762  1
  Sr  Sr18  1  0.88873830  0.23473806  0.86934947  1
  Sr  Sr19  1  0.76526318  0.65399795  0.86934965  1
  Sr  Sr20  1  0.34600128  0.11126502  0.86934958  1
  Sr  Sr21  1  0.90138083  0.22208783  0.96399341  1
  Sr  Sr22  1  0.77790997  0.67929194  0.96399349  1
  Sr  Sr23  1  0.32070784  0.09861968  0.96399346  1
  Sr  Sr24  1  0.11126457  0.76529269  0.13065794  1
  Sr  Sr25  1  0.23470747  0.34597445  0.13065778  1
  Sr  Sr26  1  0.65402630  0.88873308  0.13065781  1
  Sr  Sr27  1  0.09864411  0.77792062  0.03600403  1
  Sr  Sr28  1  0.22208183  0.32072437  0.03600396  1
  Sr  Sr29  1  0.67927551  0.90135556  0.03600389  1
  Sr  Sr30  1  0.55539432  0.56802998  0.20267022  1
  Sr  Sr31  1  0.43196919  0.98736337  0.20267020  1
  Sr  Sr32  1  0.01263643  0.44460834  0.20267035  1
  Sr  Sr33  1  0.56804382  0.55538439  0.29732450  1
  Sr  Sr34  1  0.44461380  0.01265827  0.29732439  1
  Sr  Sr35  1  0.98734297  0.43195657  0.29732448  1
  Ga  Ga36  1  0.87540314  0.54207042  0.58333601  1
  Ga  Ga37  1  0.66666839  0.33333100  0.52770333  1
  Ga  Ga38  1  0.33333189  0.66666619  0.36101600  1
  Ga  Ga39  1  0.66666934  0.33333359  0.63896363  1
  Ga  Ga40  1  0.33333168  0.66666694  0.47231330  1
  Ga  Ga41  1  0.45793359  0.33333913  0.58333584  1
  Ga  Ga42  1  0.66665949  0.12459157  0.58333577  1
  Ga  Ga43  1  0.12467584  0.45801524  0.41666630  1
  Ga  Ga44  1  0.54198523  0.66666131  0.41666641  1
  Ga  Ga45  1  0.33333958  0.87532543  0.41666653  1
  Ga  Ga46  1  0.54206895  0.87539785  0.91666892  1
  Ga  Ga47  1  0.33333347  0.66666700  0.86099798  1
  Ga  Ga48  1  0.99999780  0.99999867  0.69436735  1
  Ga  Ga49  1  0.33333384  0.66666682  0.97234385  1
  Ga  Ga50  1  0.00000002  0.00000229  0.80563988  1
  Ga  Ga51  1  0.12460131  0.66667157  0.91666880  1
  Ga  Ga52  1  0.33332754  0.45793034  0.91666885  1
  Ga  Ga53  1  0.79135719  0.79134878  0.74999709  1
  Ga  Ga54  1  0.20865033  0.00000562  0.74999725  1
  Ga  Ga55  1  0.99999420  0.20864431  0.74999719  1
  Ga  Ga56  1  0.20868825  0.20869233  0.25000005  1
  Ga  Ga57  1  0.00000003  0.99999916  0.19434221  1
  Ga  Ga58  1  0.66666595  0.33333314  0.02766281  1
  Ga  Ga59  1  0.00000107  0.00000024  0.30565308  1
  Ga  Ga60  1  0.66666734  0.33333377  0.13899753  1
  Ga  Ga61  1  0.79130841  0.99999743  0.24999998  1
  Ga  Ga62  1  0.00000238  0.79131082  0.25000002  1
  Ga  Ga63  1  0.45794895  0.12462025  0.08333190  1
  Ga  Ga64  1  0.87538013  0.33332812  0.08333199  1
  Ga  Ga65  1  0.66667248  0.54205101  0.08333193  1
  N  N66  1  0.99999968  0.99999987  0.50000471  1
  N  N67  1  0.66666738  0.33333332  0.33332787  1
  N  N68  1  0.66666592  0.33333079  0.83333676  1
  N  N69  1  0.33333457  0.66666904  0.66666745  1
  N  N70  1  0.33333232  0.66666652  0.16666769  1
  N  N71  1  0.00000023  0.00000016  0.99999525  1
