# generated using pymatgen
data_Zr2Co4P3
_symmetry_space_group_name_H-M   'P 1'
_cell_length_a   12.11968760
_cell_length_b   12.11968759
_cell_length_c   3.66965531
_cell_angle_alpha   90.00000000
_cell_angle_beta   90.00000000
_cell_angle_gamma   120.00000002
_symmetry_Int_Tables_number   1
_chemical_formula_structural   Zr2Co4P3
_chemical_formula_sum   'Zr8 Co16 P12'
_cell_volume   466.80849994
_cell_formula_units_Z   4
loop_
 _symmetry_equiv_pos_site_id
 _symmetry_equiv_pos_as_xyz
  1  'x, y, z'
loop_
 _atom_site_type_symbol
 _atom_site_label
 _atom_site_symmetry_multiplicity
 _atom_site_fract_x
 _atom_site_fract_y
 _atom_site_fract_z
 _atom_site_occupancy
  P  P0  1  0.65422047  0.65422047  0.00000000  1
  P  P1  1  0.34577953  0.00000000  0.00000000  1
  P  P2  1  0.00000000  0.34577953  0.00000000  1
  P  P3  1  0.48133384  0.30759232  0.50000000  1
  P  P4  1  0.69240768  0.17374152  0.50000000  1
  P  P5  1  0.82625848  0.51866616  0.50000000  1
  P  P6  1  0.51866616  0.82625848  0.50000000  1
  P  P7  1  0.17374152  0.69240768  0.50000000  1
  P  P8  1  0.82435393  0.00000000  0.00000000  1
  P  P9  1  0.00000000  0.82435393  0.00000000  1
  P  P10  1  0.30759232  0.48133384  0.50000000  1
  P  P11  1  0.17564607  0.17564607  0.00000000  1
  Co  Co12  1  0.19291376  0.37213356  0.00000000  1
  Co  Co13  1  0.17921980  0.80708624  0.00000000  1
  Co  Co14  1  0.82078020  0.62786644  0.00000000  1
  Co  Co15  1  0.80708624  0.17921980  0.00000000  1
  Co  Co16  1  0.37213356  0.19291376  0.00000000  1
  Co  Co17  1  0.12582742  0.48061937  0.50000000  1
  Co  Co18  1  0.35479196  0.87417258  0.50000000  1
  Co  Co19  1  0.51938063  0.64520804  0.50000000  1
  Co  Co20  1  0.64520804  0.51938063  0.50000000  1
  Co  Co21  1  0.87417258  0.35479196  0.50000000  1
  Co  Co22  1  0.48061937  0.12582742  0.50000000  1
  Co  Co23  1  0.00000000  0.00000000  0.00000000  1
  Co  Co24  1  0.72285891  0.00000000  0.50000000  1
  Co  Co25  1  0.00000000  0.72285891  0.50000000  1
  Co  Co26  1  0.62786644  0.82078020  0.00000000  1
  Co  Co27  1  0.27714109  0.27714109  0.50000000  1
  Zr  Zr28  1  0.44354204  0.44354204  0.00000000  1
  Zr  Zr29  1  0.55645796  0.00000000  0.00000000  1
  Zr  Zr30  1  0.00000000  0.55645796  0.00000000  1
  Zr  Zr31  1  0.66666667  0.33333333  0.00000000  1
  Zr  Zr32  1  0.33333333  0.66666667  0.00000000  1
  Zr  Zr33  1  0.82315489  0.82315489  0.50000000  1
  Zr  Zr34  1  0.17684511  0.00000000  0.50000000  1
  Zr  Zr35  1  0.00000000  0.17684511  0.50000000  1
