# generated using pymatgen
data_BaCu2SnS4
_symmetry_space_group_name_H-M   'P 1'
_cell_length_a   6.43650082
_cell_length_b   6.43650082
_cell_length_c   15.83099522
_cell_angle_alpha   90.00000000
_cell_angle_beta   90.00000000
_cell_angle_gamma   120.00000005
_symmetry_Int_Tables_number   1
_chemical_formula_structural   BaCu2SnS4
_chemical_formula_sum   'Ba3 Cu6 Sn3 S12'
_cell_volume   567.98714571
_cell_formula_units_Z   3
loop_
 _symmetry_equiv_pos_site_id
 _symmetry_equiv_pos_as_xyz
  1  'x, y, z'
loop_
 _atom_site_type_symbol
 _atom_site_label
 _atom_site_symmetry_multiplicity
 _atom_site_fract_x
 _atom_site_fract_y
 _atom_site_fract_z
 _atom_site_occupancy
  S  S0  1  0.09820537  0.31841498  0.75173901  1
  S  S1  1  0.22020961  0.90179463  0.41840567  1
  S  S2  1  0.68158502  0.77979039  0.08507234  1
  S  S3  1  0.44654660  0.01508375  0.74687914  1
  S  S4  1  0.56853715  0.55345340  0.41354581  1
  S  S5  1  0.98491625  0.43146285  0.08021247  1
  S  S6  1  0.27259731  0.10695214  0.96232971  1
  S  S7  1  0.83435483  0.72740269  0.62899637  1
  S  S8  1  0.39389767  0.16757999  0.20287114  1
  S  S9  1  0.77368232  0.60610233  0.86953780  1
  S  S10  1  0.83242001  0.22631768  0.53620447  1
  S  S11  1  0.89304786  0.16564517  0.29566304  1
  Cu  Cu12  1  0.70279258  0.10034523  0.16111839  1
  Cu  Cu13  1  0.26914096  0.23277990  0.33748733  1
  Cu  Cu14  1  0.76722010  0.03636106  0.67082067  1
  Cu  Cu15  1  0.39755265  0.29720742  0.82778506  1
  Cu  Cu16  1  0.89965477  0.60244735  0.49445173  1
  Cu  Cu17  1  0.96363894  0.73085904  0.00415400  1
  Sn  Sn18  1  0.03812401  0.66674733  0.74925304  1
  Sn  Sn19  1  0.33325267  0.37137668  0.08258637  1
  Sn  Sn20  1  0.62862332  0.96187599  0.41591971  1
  Ba  Ba21  1  0.75945889  0.09286106  0.91595558  1
  Ba  Ba22  1  0.33340217  0.24054111  0.58262224  1
  Ba  Ba23  1  0.90713894  0.66659783  0.24928891  1
