# generated using pymatgen
data_Ta3S2
_symmetry_space_group_name_H-M   'P 1'
_cell_length_a   5.65207646
_cell_length_b   7.53161747
_cell_length_c   9.14769081
_cell_angle_alpha   90.00000000
_cell_angle_beta   107.99503643
_cell_angle_gamma   90.00000000
_symmetry_Int_Tables_number   1
_chemical_formula_structural   Ta3S2
_chemical_formula_sum   'Ta12 S8'
_cell_volume   370.36190391
_cell_formula_units_Z   4
loop_
 _symmetry_equiv_pos_site_id
 _symmetry_equiv_pos_as_xyz
  1  'x, y, z'
loop_
 _atom_site_type_symbol
 _atom_site_label
 _atom_site_symmetry_multiplicity
 _atom_site_fract_x
 _atom_site_fract_y
 _atom_site_fract_z
 _atom_site_occupancy
  S  S0  1  0.90951813  0.82829290  0.08128150  1
  S  S1  1  0.82823664  0.17170710  0.91871850  1
  S  S2  1  0.40951813  0.17170710  0.08128150  1
  S  S3  1  0.32823664  0.82829290  0.91871850  1
  S  S4  1  0.48749726  0.58411232  0.23384679  1
  S  S5  1  0.25365047  0.41588768  0.76615321  1
  S  S6  1  0.98749726  0.41588768  0.23384679  1
  S  S7  1  0.75365047  0.58411232  0.76615321  1
  Ta  Ta8  1  0.72933520  0.65627350  0.50000000  1
  Ta  Ta9  1  0.22933520  0.34372650  0.50000000  1
  Ta  Ta10  1  0.99511478  0.99464192  0.50000000  1
  Ta  Ta11  1  0.49511478  0.00535808  0.50000000  1
  Ta  Ta12  1  0.16680365  0.71937589  0.33353325  1
  Ta  Ta13  1  0.83327040  0.28062411  0.66646675  1
  Ta  Ta14  1  0.66680365  0.28062411  0.33353325  1
  Ta  Ta15  1  0.33327040  0.71937589  0.66646675  1
  Ta  Ta16  1  0.10150015  0.10481219  0.21582681  1
  Ta  Ta17  1  0.88567334  0.89518781  0.78417319  1
  Ta  Ta18  1  0.60150015  0.89518781  0.21582681  1
  Ta  Ta19  1  0.38567334  0.10481219  0.78417319  1
