# generated using pymatgen
data_Sm3Ti3(SeO4)2
_symmetry_space_group_name_H-M   'P 1'
_cell_length_a   3.90281005
_cell_length_b   9.87437402
_cell_length_c   13.53819469
_cell_angle_alpha   111.25365247
_cell_angle_beta   90.00000000
_cell_angle_gamma   90.00000000
_symmetry_Int_Tables_number   1
_chemical_formula_structural   Sm3Ti3(SeO4)2
_chemical_formula_sum   'Sm6 Ti6 Se4 O16'
_cell_volume   486.24657505
_cell_formula_units_Z   2
loop_
 _symmetry_equiv_pos_site_id
 _symmetry_equiv_pos_as_xyz
  1  'x, y, z'
loop_
 _atom_site_type_symbol
 _atom_site_label
 _atom_site_symmetry_multiplicity
 _atom_site_fract_x
 _atom_site_fract_y
 _atom_site_fract_z
 _atom_site_occupancy
  O  O0  1  0.25000000  0.60980541  0.52940855  1
  O  O1  1  0.75000000  0.39019459  0.47059145  1
  O  O2  1  0.75000000  0.82210414  0.57154099  1
  O  O3  1  0.25000000  0.17789586  0.42845901  1
  O  O4  1  0.25000000  0.74972807  0.39085100  1
  O  O5  1  0.75000000  0.25027193  0.60914900  1
  O  O6  1  0.25000000  0.87878319  0.25116027  1
  O  O7  1  0.75000000  0.12121681  0.74883973  1
  O  O8  1  0.25000000  0.55887776  0.08379723  1
  O  O9  1  0.75000000  0.44112224  0.91620277  1
  O  O10  1  0.25000000  0.35856101  0.76233671  1
  O  O11  1  0.25000000  0.99450280  0.57423674  1
  O  O12  1  0.25000000  0.87911023  0.74675255  1
  O  O13  1  0.75000000  0.12088977  0.25324745  1
  O  O14  1  0.75000000  0.64143899  0.23766329  1
  O  O15  1  0.75000000  0.00549720  0.42576326  1
  Ti  Ti16  1  0.25000000  0.80900356  0.60384156  1
  Ti  Ti17  1  0.75000000  0.31389748  0.76963553  1
  Ti  Ti18  1  0.25000000  0.95514300  0.41225157  1
  Ti  Ti19  1  0.75000000  0.04485700  0.58774843  1
  Ti  Ti20  1  0.75000000  0.19099644  0.39615844  1
  Ti  Ti21  1  0.25000000  0.68610252  0.23036447  1
  Se  Se22  1  0.25000000  0.39013996  0.25353620  1
  Se  Se23  1  0.75000000  0.60986004  0.74646380  1
  Se  Se24  1  0.25000000  0.16363748  0.98405044  1
  Se  Se25  1  0.75000000  0.83636252  0.01594956  1
  Sm  Sm26  1  0.25000000  0.58250271  0.91436772  1
  Sm  Sm27  1  0.75000000  0.41749729  0.08563228  1
  Sm  Sm28  1  0.75000000  0.59131437  0.41096744  1
  Sm  Sm29  1  0.25000000  0.40868563  0.58903256  1
  Sm  Sm30  1  0.25000000  0.04779702  0.16005508  1
  Sm  Sm31  1  0.75000000  0.95220298  0.83994492  1
