# generated using pymatgen
data_Ca5P12Ir19
_symmetry_space_group_name_H-M   'P 1'
_cell_length_a   12.68327481
_cell_length_b   12.68327480
_cell_length_c   4.00044224
_cell_angle_alpha   90.00000000
_cell_angle_beta   90.00000000
_cell_angle_gamma   120.00000000
_symmetry_Int_Tables_number   1
_chemical_formula_structural   Ca5P12Ir19
_chemical_formula_sum   'Ca5 P12 Ir19'
_cell_volume   557.31590908
_cell_formula_units_Z   1
loop_
 _symmetry_equiv_pos_site_id
 _symmetry_equiv_pos_as_xyz
  1  'x, y, z'
loop_
 _atom_site_type_symbol
 _atom_site_label
 _atom_site_symmetry_multiplicity
 _atom_site_fract_x
 _atom_site_fract_y
 _atom_site_fract_z
 _atom_site_occupancy
  P  P0  1  0.48434341  0.31127963  0.50000000  1
  P  P1  1  0.81952108  0.00000000  0.00000000  1
  P  P2  1  0.18047892  0.18047892  0.00000000  1
  P  P3  1  0.00000000  0.81952108  0.00000000  1
  P  P4  1  0.35797079  0.00000000  0.00000000  1
  P  P5  1  0.68872037  0.17306377  0.50000000  1
  P  P6  1  0.82693623  0.51565659  0.50000000  1
  P  P7  1  0.51565659  0.82693623  0.50000000  1
  P  P8  1  0.17306377  0.68872037  0.50000000  1
  P  P9  1  0.31127963  0.48434341  0.50000000  1
  P  P10  1  0.00000000  0.35797079  0.00000000  1
  P  P11  1  0.64202921  0.64202921  0.00000000  1
  Ca  Ca12  1  0.00000000  0.18244148  0.50000000  1
  Ca  Ca13  1  0.81755852  0.81755852  0.50000000  1
  Ca  Ca14  1  0.18244148  0.00000000  0.50000000  1
  Ca  Ca15  1  0.66666667  0.33333333  0.00000000  1
  Ca  Ca16  1  0.33333333  0.66666667  0.00000000  1
  Ir  Ir17  1  0.80248546  0.18063582  0.00000000  1
  Ir  Ir18  1  0.37815036  0.19751454  0.00000000  1
  Ir  Ir19  1  0.63871726  0.50819744  0.50000000  1
  Ir  Ir20  1  0.86948018  0.36128274  0.50000000  1
  Ir  Ir21  1  0.36128274  0.86948018  0.50000000  1
  Ir  Ir22  1  0.50819744  0.63871726  0.50000000  1
  Ir  Ir23  1  0.13051982  0.49180256  0.50000000  1
  Ir  Ir24  1  0.81936418  0.62184964  0.00000000  1
  Ir  Ir25  1  0.62184964  0.81936418  0.00000000  1
  Ir  Ir26  1  0.18063582  0.80248546  0.00000000  1
  Ir  Ir27  1  0.19751454  0.37815036  0.00000000  1
  Ir  Ir28  1  0.00000000  0.71272300  0.50000000  1
  Ir  Ir29  1  0.28727700  0.28727700  0.50000000  1
  Ir  Ir30  1  0.71272300  0.00000000  0.50000000  1
  Ir  Ir31  1  0.00000000  0.53848224  0.00000000  1
  Ir  Ir32  1  0.46151776  0.46151776  0.00000000  1
  Ir  Ir33  1  0.53848224  0.00000000  0.00000000  1
  Ir  Ir34  1  0.00000000  0.00000000  0.00000000  1
  Ir  Ir35  1  0.49180256  0.13051982  0.50000000  1
