# generated using pymatgen
data_Li3VF5
_symmetry_space_group_name_H-M   'P 1'
_cell_length_a   4.95730359
_cell_length_b   4.95730353
_cell_length_c   13.54810768
_cell_angle_alpha   90.00000000
_cell_angle_beta   90.00000000
_cell_angle_gamma   120.00000717
_symmetry_Int_Tables_number   1
_chemical_formula_structural   Li3VF5
_chemical_formula_sum   'Li9 V3 F15'
_cell_volume   288.33692852
_cell_formula_units_Z   3
loop_
 _symmetry_equiv_pos_site_id
 _symmetry_equiv_pos_as_xyz
  1  'x, y, z'
loop_
 _atom_site_type_symbol
 _atom_site_label
 _atom_site_symmetry_multiplicity
 _atom_site_fract_x
 _atom_site_fract_y
 _atom_site_fract_z
 _atom_site_occupancy
  Li  Li0  1  0.99137731  0.69238488  0.41673591  1
  Li  Li1  1  0.04848478  0.66858316  0.16910214  1
  Li  Li2  1  0.33141684  0.37990262  0.50243514  1
  Li  Li3  1  0.30761512  0.29899243  0.75006891  1
  Li  Li4  1  0.62009738  0.95151522  0.83576814  1
  Li  Li5  1  0.70100757  0.00862269  0.08340191  1
  Li  Li6  1  0.36292702  0.32408495  0.25709898  1
  Li  Li7  1  0.67591505  0.03884207  0.59043198  1
  Li  Li8  1  0.96115793  0.63707298  0.92376498  1
  V  V9  1  0.32985002  0.34400896  0.00411022  1
  V  V10  1  0.01415894  0.67014998  0.67077722  1
  V  V11  1  0.65599104  0.98584106  0.33744422  1
  F  F12  1  0.30659014  0.09779249  0.60821775  1
  F  F13  1  0.19596383  0.88944275  0.80662666  1
  F  F14  1  0.97687853  0.44780858  0.53551121  1
  F  F15  1  0.11516982  0.44254907  0.33869312  1
  F  F16  1  0.32737924  0.88483018  0.00536012  1
  F  F17  1  0.90220751  0.20879765  0.94155075  1
  F  F18  1  0.47093006  0.02312147  0.20217821  1
  F  F19  1  0.11055725  0.30652108  0.13996066  1
  F  F20  1  0.55219142  0.52906994  0.86884421  1
  F  F21  1  0.69347892  0.80403617  0.47329366  1
  F  F22  1  0.55745093  0.67262076  0.67202712  1
  F  F23  1  0.75477066  0.63566338  0.06763502  1
  F  F24  1  0.36433662  0.11910728  0.40096802  1
  F  F25  1  0.79120235  0.69340986  0.27488375  1
  F  F26  1  0.88089272  0.24522934  0.73430202  1
