# generated using pymatgen
data_Zr4Co7Ge6
_symmetry_space_group_name_H-M   'P 1'
_cell_length_a   6.84049664
_cell_length_b   6.84049664
_cell_length_c   6.84049664
_cell_angle_alpha   109.47122066
_cell_angle_beta   109.47122066
_cell_angle_gamma   109.47122060
_symmetry_Int_Tables_number   1
_chemical_formula_structural   Zr4Co7Ge6
_chemical_formula_sum   'Zr4 Co7 Ge6'
_cell_volume   246.40017448
_cell_formula_units_Z   1
loop_
 _symmetry_equiv_pos_site_id
 _symmetry_equiv_pos_as_xyz
  1  'x, y, z'
loop_
 _atom_site_type_symbol
 _atom_site_label
 _atom_site_symmetry_multiplicity
 _atom_site_fract_x
 _atom_site_fract_y
 _atom_site_fract_z
 _atom_site_occupancy
  Co  Co0  1  0.00000000  0.00000000  0.00000000  1
  Co  Co1  1  0.50000000  0.75000000  0.25000000  1
  Co  Co2  1  0.75000000  0.50000000  0.25000000  1
  Co  Co3  1  0.25000000  0.50000000  0.75000000  1
  Co  Co4  1  0.75000000  0.25000000  0.50000000  1
  Co  Co5  1  0.25000000  0.75000000  0.50000000  1
  Co  Co6  1  0.50000000  0.25000000  0.75000000  1
  Ge  Ge7  1  0.31928058  0.31928058  0.00000000  1
  Ge  Ge8  1  0.00000000  0.68071942  0.68071942  1
  Ge  Ge9  1  0.68071942  0.68071942  0.00000000  1
  Ge  Ge10  1  0.68071942  0.00000000  0.68071942  1
  Ge  Ge11  1  0.00000000  0.31928058  0.31928058  1
  Ge  Ge12  1  0.31928058  0.00000000  0.31928058  1
  Zr  Zr13  1  0.00000000  0.00000000  0.50000000  1
  Zr  Zr14  1  0.00000000  0.50000000  0.00000000  1
  Zr  Zr15  1  0.50000000  0.50000000  0.50000000  1
  Zr  Zr16  1  0.50000000  0.00000000  0.00000000  1
