# generated using pymatgen
data_CrNiO4
_symmetry_space_group_name_H-M   'P 1'
_cell_length_a   5.02065495
_cell_length_b   5.02065496
_cell_length_c   6.29715613
_cell_angle_alpha   90.00000000
_cell_angle_beta   90.00000000
_cell_angle_gamma   113.18558050
_symmetry_Int_Tables_number   1
_chemical_formula_structural   CrNiO4
_chemical_formula_sum   'Cr2 Ni2 O8'
_cell_volume   145.91216639
_cell_formula_units_Z   2
loop_
 _symmetry_equiv_pos_site_id
 _symmetry_equiv_pos_as_xyz
  1  'x, y, z'
loop_
 _atom_site_type_symbol
 _atom_site_label
 _atom_site_symmetry_multiplicity
 _atom_site_fract_x
 _atom_site_fract_y
 _atom_site_fract_z
 _atom_site_occupancy
  O  O0  1  0.21723316  0.27231701  0.75000000  1
  O  O1  1  0.78276684  0.72768299  0.25000000  1
  O  O2  1  0.27231701  0.21723316  0.25000000  1
  O  O3  1  0.72768299  0.78276684  0.75000000  1
  O  O4  1  0.24270218  0.75729782  0.96007756  1
  O  O5  1  0.75729782  0.24270218  0.46007756  1
  O  O6  1  0.75729782  0.24270218  0.03992244  1
  O  O7  1  0.24270218  0.75729782  0.53992244  1
  Cr  Cr8  1  0.64326003  0.35673997  0.25000000  1
  Cr  Cr9  1  0.35673997  0.64326003  0.75000000  1
  Ni  Ni10  1  0.00000000  0.00000000  0.50000000  1
  Ni  Ni11  1  0.00000000  0.00000000  0.00000000  1
