# generated using pymatgen
data_TbGe2Ir
_symmetry_space_group_name_H-M   'P 1'
_cell_length_a   4.29396041
_cell_length_b   8.93016413
_cell_length_c   9.48937635
_cell_angle_alpha   118.06901894
_cell_angle_beta   103.07644821
_cell_angle_gamma   89.99999994
_symmetry_Int_Tables_number   1
_chemical_formula_structural   TbGe2Ir
_chemical_formula_sum   'Tb4 Ge8 Ir4'
_cell_volume   310.34448595
_cell_formula_units_Z   4
loop_
 _symmetry_equiv_pos_site_id
 _symmetry_equiv_pos_as_xyz
  1  'x, y, z'
loop_
 _atom_site_type_symbol
 _atom_site_label
 _atom_site_symmetry_multiplicity
 _atom_site_fract_x
 _atom_site_fract_y
 _atom_site_fract_z
 _atom_site_occupancy
  Ge  Ge0  1  0.20084894  0.04769639  0.40169788  1
  Ge  Ge1  1  0.79915106  0.95230361  0.59830212  1
  Ge  Ge2  1  0.79915106  0.64599851  0.59830212  1
  Ge  Ge3  1  0.20084894  0.35400149  0.40169788  1
  Ge  Ge4  1  0.57692712  0.57692712  0.15385424  1
  Ge  Ge5  1  0.42198082  0.92198082  0.84396164  1
  Ge  Ge6  1  0.57801918  0.07801918  0.15603836  1
  Ge  Ge7  1  0.42307288  0.42307288  0.84614576  1
  Tb  Tb8  1  0.20537828  0.70537828  0.41075655  1
  Tb  Tb9  1  0.00000000  0.26239110  0.00000000  1
  Tb  Tb10  1  0.79462172  0.29462172  0.58924345  1
  Tb  Tb11  1  0.00000000  0.73760890  0.00000000  1
  Ir  Ir12  1  0.35457133  0.60549055  0.70914267  1
  Ir  Ir13  1  0.64542867  0.39450945  0.29085733  1
  Ir  Ir14  1  0.64542867  0.89634788  0.29085733  1
  Ir  Ir15  1  0.35457133  0.10365212  0.70914267  1
