# generated using pymatgen
data_ErGe2Ir
_symmetry_space_group_name_H-M   'P 1'
_cell_length_a   4.25134689
_cell_length_b   8.89572620
_cell_length_c   9.45570097
_cell_angle_alpha   118.05952647
_cell_angle_beta   102.99131594
_cell_angle_gamma   89.99999997
_symmetry_Int_Tables_number   1
_chemical_formula_structural   ErGe2Ir
_chemical_formula_sum   'Er4 Ge8 Ir4'
_cell_volume   305.15916229
_cell_formula_units_Z   4
loop_
 _symmetry_equiv_pos_site_id
 _symmetry_equiv_pos_as_xyz
  1  'x, y, z'
loop_
 _atom_site_type_symbol
 _atom_site_label
 _atom_site_symmetry_multiplicity
 _atom_site_fract_x
 _atom_site_fract_y
 _atom_site_fract_z
 _atom_site_occupancy
  Ge  Ge0  1  0.20154834  0.04927073  0.40309669  1
  Ge  Ge1  1  0.79845166  0.95072927  0.59690331  1
  Ge  Ge2  1  0.79845197  0.64617472  0.59690394  1
  Ge  Ge3  1  0.20154803  0.35382528  0.40309606  1
  Ge  Ge4  1  0.57672508  0.57672523  0.15345016  1
  Ge  Ge5  1  0.42233454  0.92233446  0.84466909  1
  Ge  Ge6  1  0.57766546  0.07766554  0.15533091  1
  Ge  Ge7  1  0.42327492  0.42327477  0.84654984  1
  Er  Er8  1  0.20478113  0.70478011  0.40956227  1
  Er  Er9  1  0.00000033  0.26387281  0.00000066  1
  Er  Er10  1  0.79521887  0.29521989  0.59043773  1
  Er  Er11  1  0.99999967  0.73612719  0.99999934  1
  Ir  Ir12  1  0.35495485  0.60531683  0.70990969  1
  Ir  Ir13  1  0.64504515  0.39468317  0.29009031  1
  Ir  Ir14  1  0.64504522  0.89540703  0.29009044  1
  Ir  Ir15  1  0.35495478  0.10459297  0.70990956  1
