# generated using pymatgen
data_BaV2(NiO4)2
_symmetry_space_group_name_H-M   'P 1'
_cell_length_a   8.24997355
_cell_length_b   8.24997354
_cell_length_c   8.24997355
_cell_angle_alpha   35.91454878
_cell_angle_beta   35.91454874
_cell_angle_gamma   35.91454875
_symmetry_Int_Tables_number   1
_chemical_formula_structural   BaV2(NiO4)2
_chemical_formula_sum   'Ba1 V2 Ni2 O8'
_cell_volume   172.77833203
_cell_formula_units_Z   1
loop_
 _symmetry_equiv_pos_site_id
 _symmetry_equiv_pos_as_xyz
  1  'x, y, z'
loop_
 _atom_site_type_symbol
 _atom_site_label
 _atom_site_symmetry_multiplicity
 _atom_site_fract_x
 _atom_site_fract_y
 _atom_site_fract_z
 _atom_site_occupancy
  O  O0  1  0.43669516  0.78592144  0.12196652  1
  O  O1  1  0.78592144  0.12196652  0.43669516  1
  O  O2  1  0.12196652  0.43669516  0.78592144  1
  O  O3  1  0.56330484  0.21407856  0.87803348  1
  O  O4  1  0.21407856  0.87803348  0.56330484  1
  O  O5  1  0.35241830  0.35241830  0.35241830  1
  O  O6  1  0.64758170  0.64758170  0.64758170  1
  O  O7  1  0.87803348  0.56330484  0.21407856  1
  V  V8  1  0.57415902  0.57415902  0.57415902  1
  V  V9  1  0.42584098  0.42584098  0.42584098  1
  Ni  Ni10  1  0.83057826  0.83057826  0.83057826  1
  Ni  Ni11  1  0.16942174  0.16942174  0.16942174  1
  Ba  Ba12  1  0.00000000  0.00000000  0.00000000  1
