# generated using pymatgen
data_Nd3Ti3(SeO4)2
_symmetry_space_group_name_H-M   'P 1'
_cell_length_a   3.94610844
_cell_length_b   9.93311780
_cell_length_c   13.61287836
_cell_angle_alpha   111.05437735
_cell_angle_beta   90.00000000
_cell_angle_gamma   90.00000000
_symmetry_Int_Tables_number   1
_chemical_formula_structural   Nd3Ti3(SeO4)2
_chemical_formula_sum   'Nd6 Ti6 Se4 O16'
_cell_volume   497.96390056
_cell_formula_units_Z   2
loop_
 _symmetry_equiv_pos_site_id
 _symmetry_equiv_pos_as_xyz
  1  'x, y, z'
loop_
 _atom_site_type_symbol
 _atom_site_label
 _atom_site_symmetry_multiplicity
 _atom_site_fract_x
 _atom_site_fract_y
 _atom_site_fract_z
 _atom_site_occupancy
  O  O0  1  0.75000000  0.87551420  0.75321462  1
  O  O1  1  0.25000000  0.12448580  0.24678538  1
  O  O2  1  0.25000000  0.63563581  0.75781178  1
  O  O3  1  0.75000000  0.36436419  0.24218822  1
  O  O4  1  0.25000000  0.58305980  0.96994736  1
  O  O5  1  0.75000000  0.41694020  0.03005264  1
  O  O6  1  0.75000000  0.02484136  0.58567265  1
  O  O7  1  0.25000000  0.97515864  0.41432735  1
  O  O8  1  0.75000000  0.75337934  0.92793099  1
  O  O9  1  0.25000000  0.24662066  0.07206901  1
  O  O10  1  0.75000000  0.90418898  0.26156667  1
  O  O11  1  0.75000000  0.07297470  0.07341820  1
  O  O12  1  0.75000000  0.14008844  0.89171617  1
  O  O13  1  0.25000000  0.85991156  0.10828383  1
  O  O14  1  0.25000000  0.09581102  0.73843333  1
  O  O15  1  0.25000000  0.92702530  0.92658180  1
  Ti  Ti16  1  0.25000000  0.04416660  0.08808855  1
  Ti  Ti17  1  0.25000000  0.95360352  0.26819067  1
  Ti  Ti18  1  0.75000000  0.28698152  0.10076168  1
  Ti  Ti19  1  0.25000000  0.71301848  0.89923832  1
  Ti  Ti20  1  0.75000000  0.95583340  0.91191145  1
  Ti  Ti21  1  0.75000000  0.04639648  0.73180933  1
  Se  Se22  1  0.75000000  0.32146970  0.48312071  1
  Se  Se23  1  0.75000000  0.36213155  0.75244193  1
  Se  Se24  1  0.25000000  0.63786845  0.24755807  1
  Se  Se25  1  0.25000000  0.67853030  0.51687929  1
  Nd  Nd26  1  0.25000000  0.16906877  0.58502404  1
  Nd  Nd27  1  0.75000000  0.83093123  0.41497596  1
  Nd  Nd28  1  0.25000000  0.32059534  0.91132816  1
  Nd  Nd29  1  0.75000000  0.67940466  0.08867184  1
  Nd  Nd30  1  0.75000000  0.61197340  0.66218896  1
  Nd  Nd31  1  0.25000000  0.38802660  0.33781104  1
