# generated using pymatgen
data_KLu(WO4)2
_symmetry_space_group_name_H-M   'P 1'
_cell_length_a   7.60414702
_cell_length_b   7.60414702
_cell_length_c   7.41870975
_cell_angle_alpha   61.77139462
_cell_angle_beta   61.77139462
_cell_angle_gamma   87.16348014
_symmetry_Int_Tables_number   1
_chemical_formula_structural   KLu(WO4)2
_chemical_formula_sum   'K2 Lu2 W4 O16'
_cell_volume   324.50649184
_cell_formula_units_Z   2
loop_
 _symmetry_equiv_pos_site_id
 _symmetry_equiv_pos_as_xyz
  1  'x, y, z'
loop_
 _atom_site_type_symbol
 _atom_site_label
 _atom_site_symmetry_multiplicity
 _atom_site_fract_x
 _atom_site_fract_y
 _atom_site_fract_z
 _atom_site_occupancy
  O  O0  1  0.76045667  0.96346650  0.19706475  1
  O  O1  1  0.03653350  0.23954333  0.30293525  1
  O  O2  1  0.23954333  0.03653350  0.80293525  1
  O  O3  1  0.96346650  0.76045667  0.69706475  1
  O  O4  1  0.62263111  0.75446931  0.05820537  1
  O  O5  1  0.24553069  0.37736889  0.44179463  1
  O  O6  1  0.37736889  0.24553069  0.94179463  1
  O  O7  1  0.75446931  0.62263111  0.55820537  1
  O  O8  1  0.62582251  0.40012180  0.04226324  1
  O  O9  1  0.59987820  0.37417749  0.45773676  1
  O  O10  1  0.37417749  0.59987820  0.95773676  1
  O  O11  1  0.40012180  0.62582251  0.54226324  1
  O  O12  1  0.65134814  0.95132355  0.61350026  1
  O  O13  1  0.04867645  0.34865186  0.88649974  1
  O  O14  1  0.34865186  0.04867645  0.38649974  1
  O  O15  1  0.95132355  0.65134814  0.11350026  1
  K  K16  1  0.20983408  0.79016592  0.25000000  1
  K  K17  1  0.79016592  0.20983408  0.75000000  1
  Lu  Lu18  1  0.77678022  0.22321978  0.25000000  1
  Lu  Lu19  1  0.22321978  0.77678022  0.75000000  1
  W  W20  1  0.70113664  0.69297620  0.28958516  1
  W  W21  1  0.30702380  0.29886336  0.21041484  1
  W  W22  1  0.29886336  0.30702380  0.71041484  1
  W  W23  1  0.69297620  0.70113664  0.78958516  1
