# generated using pymatgen
data_YCrO3
_symmetry_space_group_name_H-M   'P 1'
_cell_length_a   5.31912422
_cell_length_b   5.61783764
_cell_length_c   7.66869575
_cell_angle_alpha   90.00000000
_cell_angle_beta   90.00000000
_cell_angle_gamma   90.00000000
_symmetry_Int_Tables_number   1
_chemical_formula_structural   YCrO3
_chemical_formula_sum   'Y4 Cr4 O12'
_cell_volume   229.15578431
_cell_formula_units_Z   4
loop_
 _symmetry_equiv_pos_site_id
 _symmetry_equiv_pos_as_xyz
  1  'x, y, z'
loop_
 _atom_site_type_symbol
 _atom_site_label
 _atom_site_symmetry_multiplicity
 _atom_site_fract_x
 _atom_site_fract_y
 _atom_site_fract_z
 _atom_site_occupancy
  O  O0  1  0.69287490  0.30272593  0.44231936  1
  O  O1  1  0.19287490  0.19727407  0.55768064  1
  O  O2  1  0.80712510  0.80272593  0.05768064  1
  O  O3  1  0.30712510  0.69727407  0.94231936  1
  O  O4  1  0.30712510  0.69727407  0.55768064  1
  O  O5  1  0.80712510  0.80272593  0.44231936  1
  O  O6  1  0.19287490  0.19727407  0.94231936  1
  O  O7  1  0.69287490  0.30272593  0.05768064  1
  O  O8  1  0.11224484  0.45891881  0.25000000  1
  O  O9  1  0.61224484  0.04108119  0.75000000  1
  O  O10  1  0.38775516  0.95891881  0.25000000  1
  O  O11  1  0.88775516  0.54108119  0.75000000  1
  Cr  Cr12  1  0.00000000  0.50000000  0.50000000  1
  Cr  Cr13  1  0.50000000  0.00000000  0.50000000  1
  Cr  Cr14  1  0.50000000  0.00000000  0.00000000  1
  Cr  Cr15  1  0.00000000  0.50000000  0.00000000  1
  Y  Y16  1  0.01905420  0.93260298  0.75000000  1
  Y  Y17  1  0.51905420  0.56739702  0.25000000  1
  Y  Y18  1  0.48094580  0.43260298  0.75000000  1
  Y  Y19  1  0.98094580  0.06739702  0.25000000  1
