# generated using pymatgen
data_BaYF5
_symmetry_space_group_name_H-M   'P 1'
_cell_length_a   6.08254601
_cell_length_b   20.47084782
_cell_length_c   8.03145680
_cell_angle_alpha   90.00000000
_cell_angle_beta   96.17622122
_cell_angle_gamma   90.00000000
_symmetry_Int_Tables_number   1
_chemical_formula_structural   BaYF5
_chemical_formula_sum   'Ba8 Y8 F40'
_cell_volume   994.23132155
_cell_formula_units_Z   8
loop_
 _symmetry_equiv_pos_site_id
 _symmetry_equiv_pos_as_xyz
  1  'x, y, z'
loop_
 _atom_site_type_symbol
 _atom_site_label
 _atom_site_symmetry_multiplicity
 _atom_site_fract_x
 _atom_site_fract_y
 _atom_site_fract_z
 _atom_site_occupancy
  Ba  Ba0  1  0.14126066  0.54965768  0.76539065  1
  Ba  Ba1  1  0.27643782  0.27551625  0.46800501  1
  Ba  Ba2  1  0.35873934  0.04965768  0.73460935  1
  Ba  Ba3  1  0.22356218  0.77551625  0.03199499  1
  Ba  Ba4  1  0.77643782  0.22448375  0.96800501  1
  Ba  Ba5  1  0.64126066  0.95034232  0.26539065  1
  Ba  Ba6  1  0.72356218  0.72448375  0.53199499  1
  Ba  Ba7  1  0.85873934  0.45034232  0.23460935  1
  Y  Y8  1  0.27702573  0.36954594  0.97320948  1
  Y  Y9  1  0.22297427  0.86954594  0.52679052  1
  Y  Y10  1  0.20727727  0.09886867  0.15077647  1
  Y  Y11  1  0.29272273  0.59886867  0.34922353  1
  Y  Y12  1  0.70727727  0.40113133  0.65077647  1
  Y  Y13  1  0.79272273  0.90113133  0.84922353  1
  Y  Y14  1  0.77702573  0.13045406  0.47320948  1
  Y  Y15  1  0.72297427  0.63045406  0.02679052  1
  F  F16  1  0.03471107  0.11686226  0.90377790  1
  F  F17  1  0.98206288  0.36620466  0.51841516  1
  F  F18  1  0.11585473  0.15646221  0.55481600  1
  F  F19  1  0.11287495  0.92468787  0.74533237  1
  F  F20  1  0.05666623  0.58607441  0.12120480  1
  F  F21  1  0.10663537  0.34072862  0.18582833  1
  F  F22  1  0.14627309  0.28408722  0.83511727  1
  F  F23  1  0.11125750  0.19954141  0.20929527  1
  F  F24  1  0.21896374  0.96798398  0.42327327  1
  F  F25  1  0.20154174  0.50508947  0.43956815  1
  F  F26  1  0.35372691  0.78408722  0.66488273  1
  F  F27  1  0.29845826  0.00508947  0.06043185  1
  F  F28  1  0.28103626  0.46798398  0.07672673  1
  F  F29  1  0.38874250  0.69954141  0.29070473  1
  F  F30  1  0.38712505  0.42468787  0.75466763  1
  F  F31  1  0.38414527  0.65646221  0.94518400  1
  F  F32  1  0.39336463  0.84072862  0.31417167  1
  F  F33  1  0.44333377  0.08607441  0.37879520  1
  F  F34  1  0.51793712  0.86620466  0.98158484  1
  F  F35  1  0.46528893  0.61686226  0.59622210  1
  F  F36  1  0.53471107  0.38313774  0.40377790  1
  F  F37  1  0.48206288  0.13379534  0.01841516  1
  F  F38  1  0.55666623  0.91392559  0.62120480  1
  F  F39  1  0.60663537  0.15927138  0.68582833  1
  F  F40  1  0.61585473  0.34353779  0.05481600  1
  F  F41  1  0.61287495  0.57531213  0.24533237  1
  F  F42  1  0.61125750  0.30045859  0.70929527  1
  F  F43  1  0.71896374  0.53201602  0.92327327  1
  F  F44  1  0.70154174  0.99491053  0.93956815  1
  F  F45  1  0.64627309  0.21591278  0.33511727  1
  F  F46  1  0.79845826  0.49491053  0.56043185  1
  F  F47  1  0.78103626  0.03201602  0.57672673  1
  F  F48  1  0.88874250  0.80045859  0.79070473  1
  F  F49  1  0.85372691  0.71591278  0.16488273  1
  F  F50  1  0.89336463  0.65927138  0.81417167  1
  F  F51  1  0.94333377  0.41392559  0.87879520  1
  F  F52  1  0.88712505  0.07531213  0.25466763  1
  F  F53  1  0.88414527  0.84353779  0.44518400  1
  F  F54  1  0.01793712  0.63379534  0.48158484  1
  F  F55  1  0.96528893  0.88313774  0.09622210  1
