# generated using pymatgen
data_Mn2ZnO4
_symmetry_space_group_name_H-M   'P 1'
_cell_length_a   5.82884164
_cell_length_b   5.82884164
_cell_length_c   6.24251589
_cell_angle_alpha   117.83107822
_cell_angle_beta   117.83107826
_cell_angle_gamma   89.99999995
_symmetry_Int_Tables_number   1
_chemical_formula_structural   Mn2ZnO4
_chemical_formula_sum   'Mn4 Zn2 O8'
_cell_volume   159.29101161
_cell_formula_units_Z   2
loop_
 _symmetry_equiv_pos_site_id
 _symmetry_equiv_pos_as_xyz
  1  'x, y, z'
loop_
 _atom_site_type_symbol
 _atom_site_label
 _atom_site_symmetry_multiplicity
 _atom_site_fract_x
 _atom_site_fract_y
 _atom_site_fract_z
 _atom_site_occupancy
  O  O0  1  0.75564438  0.77917755  0.51128876  1
  O  O1  1  0.76788879  0.24435562  0.98871124  1
  O  O2  1  0.22082245  0.24435562  0.98871124  1
  O  O3  1  0.24435562  0.22082245  0.48871124  1
  O  O4  1  0.24435562  0.76788879  0.48871124  1
  O  O5  1  0.23211121  0.75564438  0.01128876  1
  O  O6  1  0.75564438  0.23211121  0.51128876  1
  O  O7  1  0.77917755  0.75564438  0.01128876  1
  Mn  Mn8  1  0.00000000  0.00000000  0.00000000  1
  Mn  Mn9  1  0.50000000  0.00000000  0.50000000  1
  Mn  Mn10  1  0.00000000  0.00000000  0.50000000  1
  Mn  Mn11  1  0.00000000  0.50000000  0.00000000  1
  Zn  Zn12  1  0.62500000  0.37500000  0.25000000  1
  Zn  Zn13  1  0.37500000  0.62500000  0.75000000  1
