# generated using pymatgen
data_Co3O4
_symmetry_space_group_name_H-M   'P 1'
_cell_length_a   5.76423011
_cell_length_b   5.76423010
_cell_length_c   5.76423011
_cell_angle_alpha   60.00000001
_cell_angle_beta   60.00000005
_cell_angle_gamma   60.00000002
_symmetry_Int_Tables_number   1
_chemical_formula_structural   Co3O4
_chemical_formula_sum   'Co6 O8'
_cell_volume   135.42814527
_cell_formula_units_Z   2
loop_
 _symmetry_equiv_pos_site_id
 _symmetry_equiv_pos_as_xyz
  1  'x, y, z'
loop_
 _atom_site_type_symbol
 _atom_site_label
 _atom_site_symmetry_multiplicity
 _atom_site_fract_x
 _atom_site_fract_y
 _atom_site_fract_z
 _atom_site_occupancy
  O  O0  1  0.73625563  0.73625563  0.73625563  1
  O  O1  1  0.26374437  0.26374437  0.70876689  1
  O  O2  1  0.26374437  0.70876689  0.26374437  1
  O  O3  1  0.70876689  0.26374437  0.26374437  1
  O  O4  1  0.73625563  0.29123311  0.73625563  1
  O  O5  1  0.29123311  0.73625563  0.73625563  1
  O  O6  1  0.26374437  0.26374437  0.26374437  1
  O  O7  1  0.73625563  0.73625563  0.29123311  1
  Co  Co8  1  0.50000000  0.00000000  0.50000000  1
  Co  Co9  1  0.00000000  0.50000000  0.50000000  1
  Co  Co10  1  0.50000000  0.50000000  0.00000000  1
  Co  Co11  1  0.50000000  0.50000000  0.50000000  1
  Co  Co12  1  0.12500000  0.12500000  0.12500000  1
  Co  Co13  1  0.87500000  0.87500000  0.87500000  1
