# generated using pymatgen
data_Ba2Y5F19
_symmetry_space_group_name_H-M   'P 1'
_cell_length_a   7.88915336
_cell_length_b   6.31772341
_cell_length_c   26.22109143
_cell_angle_alpha   90.00000000
_cell_angle_beta   95.84057414
_cell_angle_gamma   90.00000000
_symmetry_Int_Tables_number   1
_chemical_formula_structural   Ba2Y5F19
_chemical_formula_sum   'Ba4 Y10 F38'
_cell_volume   1300.11399233
_cell_formula_units_Z   2
loop_
 _symmetry_equiv_pos_site_id
 _symmetry_equiv_pos_as_xyz
  1  'x, y, z'
loop_
 _atom_site_type_symbol
 _atom_site_label
 _atom_site_symmetry_multiplicity
 _atom_site_fract_x
 _atom_site_fract_y
 _atom_site_fract_z
 _atom_site_occupancy
  Ba  Ba0  1  0.23631747  0.76443572  0.73808674  1
  Ba  Ba1  1  0.23391200  0.73258116  0.17071476  1
  Ba  Ba2  1  0.76608800  0.23258116  0.82928524  1
  Ba  Ba3  1  0.76368253  0.26443572  0.26191326  1
  Y  Y4  1  0.15892199  0.24104469  0.96963081  1
  Y  Y5  1  0.17033011  0.25383888  0.53570579  1
  Y  Y6  1  0.13856690  0.75881388  0.33253008  1
  Y  Y7  1  0.44200168  0.73583253  0.90054643  1
  Y  Y8  1  0.53075265  0.75360948  0.59668086  1
  Y  Y9  1  0.46924735  0.25360948  0.40331914  1
  Y  Y10  1  0.55799832  0.23583253  0.09945357  1
  Y  Y11  1  0.86143310  0.25881388  0.66746992  1
  Y  Y12  1  0.82966989  0.75383888  0.46429421  1
  Y  Y13  1  0.84107801  0.74104469  0.03036919  1
  F  F14  1  0.01135569  0.97482260  0.99792072  1
  F  F15  1  0.00964346  0.52181339  0.70323542  1
  F  F16  1  0.03305685  0.24654776  0.60488236  1
  F  F17  1  0.04079148  0.06696476  0.71859459  1
  F  F18  1  0.00491246  0.99746689  0.50059847  1
  F  F19  1  0.29157874  0.51934569  0.94300356  1
  F  F20  1  0.98679772  0.74130709  0.10489403  1
  F  F21  1  0.32399381  0.01060657  0.93508625  1
  F  F22  1  0.25160744  0.72831521  0.83379767  1
  F  F23  1  0.33980947  0.51295231  0.56704364  1
  F  F24  1  0.29069482  0.76431467  0.26706918  1
  F  F25  1  0.28270917  0.48868080  0.36854333  1
  F  F26  1  0.43479878  0.75006926  0.67120986  1
  F  F27  1  0.32244355  0.25606559  0.47023638  1
  F  F28  1  0.35043998  0.00835064  0.56912956  1
  F  F29  1  0.30606888  0.98610842  0.37560331  1
  F  F30  1  0.40579013  0.42198351  0.14972385  1
  F  F31  1  0.65326423  0.74830174  0.96255238  1
  F  F32  1  0.56646049  0.46370876  0.86915786  1
  F  F33  1  0.43353951  0.96370876  0.13084214  1
  F  F34  1  0.34673577  0.24830174  0.03744762  1
  F  F35  1  0.59420987  0.92198351  0.85027615  1
  F  F36  1  0.69393112  0.48610842  0.62439669  1
  F  F37  1  0.64956002  0.50835064  0.43087044  1
  F  F38  1  0.67755645  0.75606559  0.52976362  1
  F  F39  1  0.56520122  0.25006926  0.32879014  1
  F  F40  1  0.71729083  0.98868080  0.63145667  1
  F  F41  1  0.70930518  0.26431467  0.73293082  1
  F  F42  1  0.66019053  0.01295231  0.43295636  1
  F  F43  1  0.74839256  0.22831521  0.16620233  1
  F  F44  1  0.67600719  0.51060657  0.06491375  1
  F  F45  1  0.01320228  0.24130709  0.89510597  1
  F  F46  1  0.70842126  0.01934569  0.05699644  1
  F  F47  1  0.99508754  0.49746689  0.49940153  1
  F  F48  1  0.95920852  0.56696476  0.28140541  1
  F  F49  1  0.96694315  0.74654776  0.39511764  1
  F  F50  1  0.99035654  0.02181339  0.29676458  1
  F  F51  1  0.98864431  0.47482260  0.00207928  1
