# generated using pymatgen
data_V2Cd2O7
_symmetry_space_group_name_H-M   'P 1'
_cell_length_a   5.10125905
_cell_length_b   5.84026927
_cell_length_c   5.84026927
_cell_angle_alpha   104.53093006
_cell_angle_beta   98.20671221
_cell_angle_gamma   98.20671228
_symmetry_Int_Tables_number   1
_chemical_formula_structural   V2Cd2O7
_chemical_formula_sum   'V2 Cd2 O7'
_cell_volume   163.78621379
_cell_formula_units_Z   1
loop_
 _symmetry_equiv_pos_site_id
 _symmetry_equiv_pos_as_xyz
  1  'x, y, z'
loop_
 _atom_site_type_symbol
 _atom_site_label
 _atom_site_symmetry_multiplicity
 _atom_site_fract_x
 _atom_site_fract_y
 _atom_site_fract_z
 _atom_site_occupancy
  O  O0  1  0.28235290  0.92046555  0.61074590  1
  O  O1  1  0.71764710  0.38925410  0.07953445  1
  O  O2  1  0.71764710  0.07953445  0.38925410  1
  O  O3  1  0.28235290  0.61074590  0.92046555  1
  O  O4  1  0.00000000  0.00000000  0.00000000  1
  O  O5  1  0.78965796  0.60312640  0.60312640  1
  O  O6  1  0.21034204  0.39687360  0.39687360  1
  V  V7  1  0.90589494  0.22593685  0.22593685  1
  V  V8  1  0.09410506  0.77406315  0.77406315  1
  Cd  Cd9  1  0.50000000  0.30800275  0.69199725  1
  Cd  Cd10  1  0.50000000  0.69199725  0.30800275  1
