# generated using pymatgen
data_Sr2ErMoO6
_symmetry_space_group_name_H-M   'P 1'
_cell_length_a   5.80697969
_cell_length_b   5.88272351
_cell_length_c   8.33175478
_cell_angle_alpha   90.00000000
_cell_angle_beta   90.47086581
_cell_angle_gamma   90.00000000
_symmetry_Int_Tables_number   1
_chemical_formula_structural   Sr2ErMoO6
_chemical_formula_sum   'Sr4 Er2 Mo2 O12'
_cell_volume   284.61026362
_cell_formula_units_Z   2
loop_
 _symmetry_equiv_pos_site_id
 _symmetry_equiv_pos_as_xyz
  1  'x, y, z'
loop_
 _atom_site_type_symbol
 _atom_site_label
 _atom_site_symmetry_multiplicity
 _atom_site_fract_x
 _atom_site_fract_y
 _atom_site_fract_z
 _atom_site_occupancy
  O  O0  1  0.42572117  0.02225274  0.73880293  1
  O  O1  1  0.07427883  0.52225274  0.76119707  1
  O  O2  1  0.57427883  0.97774726  0.26119707  1
  O  O3  1  0.92572117  0.47774726  0.23880293  1
  O  O4  1  0.80332181  0.21810818  0.95901801  1
  O  O5  1  0.69667819  0.71810818  0.54098199  1
  O  O6  1  0.19667819  0.78189182  0.04098199  1
  O  O7  1  0.30332181  0.28189182  0.45901801  1
  O  O8  1  0.27175559  0.30827712  0.03535648  1
  O  O9  1  0.22824441  0.80827712  0.46464352  1
  O  O10  1  0.72824441  0.69172288  0.96464352  1
  O  O11  1  0.77175559  0.19172288  0.53535648  1
  Sr  Sr12  1  0.00428602  0.03674992  0.24806739  1
  Sr  Sr13  1  0.49571398  0.53674992  0.25193261  1
  Sr  Sr14  1  0.50428602  0.46325008  0.74806739  1
  Sr  Sr15  1  0.99571398  0.96325008  0.75193261  1
  Mo  Mo16  1  0.50000000  0.00000000  0.50000000  1
  Mo  Mo17  1  0.00000000  0.50000000  0.00000000  1
  Er  Er18  1  0.50000000  0.00000000  0.00000000  1
  Er  Er19  1  0.00000000  0.50000000  0.50000000  1
