# generated using pymatgen
data_NiSO4
_symmetry_space_group_name_H-M   'P 1'
_cell_length_a   4.75197842
_cell_length_b   4.75197842
_cell_length_c   6.44633297
_cell_angle_alpha   90.00000000
_cell_angle_beta   90.00000000
_cell_angle_gamma   113.67053669
_symmetry_Int_Tables_number   1
_chemical_formula_structural   NiSO4
_chemical_formula_sum   'Ni2 S2 O8'
_cell_volume   133.31993487
_cell_formula_units_Z   2
loop_
 _symmetry_equiv_pos_site_id
 _symmetry_equiv_pos_as_xyz
  1  'x, y, z'
loop_
 _atom_site_type_symbol
 _atom_site_label
 _atom_site_symmetry_multiplicity
 _atom_site_fract_x
 _atom_site_fract_y
 _atom_site_fract_z
 _atom_site_occupancy
  O  O0  1  0.22682033  0.30222673  0.75000000  1
  O  O1  1  0.77317967  0.69777327  0.25000000  1
  O  O2  1  0.30222673  0.22682033  0.25000000  1
  O  O3  1  0.69777327  0.77317967  0.75000000  1
  O  O4  1  0.25000067  0.74999933  0.94096466  1
  O  O5  1  0.74999933  0.25000067  0.44096466  1
  O  O6  1  0.74999933  0.25000067  0.05903534  1
  O  O7  1  0.25000067  0.74999933  0.55903534  1
  S  S8  1  0.65060778  0.34939222  0.25000000  1
  S  S9  1  0.34939222  0.65060778  0.75000000  1
  Ni  Ni10  1  0.00000000  0.00000000  0.50000000  1
  Ni  Ni11  1  0.00000000  0.00000000  0.00000000  1
