# generated using pymatgen
data_AlTl(MoO4)2
_symmetry_space_group_name_H-M   'P 1'
_cell_length_a   5.64307048
_cell_length_b   5.64307048
_cell_length_c   7.64753356
_cell_angle_alpha   90.00000000
_cell_angle_beta   90.00000000
_cell_angle_gamma   120.00000001
_symmetry_Int_Tables_number   1
_chemical_formula_structural   AlTl(MoO4)2
_chemical_formula_sum   'Al1 Tl1 Mo2 O8'
_cell_volume   210.90310424
_cell_formula_units_Z   1
loop_
 _symmetry_equiv_pos_site_id
 _symmetry_equiv_pos_as_xyz
  1  'x, y, z'
loop_
 _atom_site_type_symbol
 _atom_site_label
 _atom_site_symmetry_multiplicity
 _atom_site_fract_x
 _atom_site_fract_y
 _atom_site_fract_z
 _atom_site_occupancy
  O  O0  1  0.84262320  0.15737680  0.14704474  1
  O  O1  1  0.84262320  0.68524639  0.14704474  1
  O  O2  1  0.31475361  0.15737680  0.14704474  1
  O  O3  1  0.68524639  0.84262320  0.85295526  1
  O  O4  1  0.33333333  0.66666667  0.55103209  1
  O  O5  1  0.66666667  0.33333333  0.44896791  1
  O  O6  1  0.15737680  0.84262320  0.85295526  1
  O  O7  1  0.15737680  0.31475361  0.85295526  1
  Al  Al8  1  0.00000000  0.00000000  0.00000000  1
  Mo  Mo9  1  0.66666667  0.33333333  0.21960387  1
  Mo  Mo10  1  0.33333333  0.66666667  0.78039613  1
  Tl  Tl11  1  0.00000000  0.00000000  0.50000000  1
