# generated using pymatgen
data_DyCrO4
_symmetry_space_group_name_H-M   'P 1'
_cell_length_a   5.99431167
_cell_length_b   5.99431167
_cell_length_c   5.99431167
_cell_angle_alpha   105.97713673
_cell_angle_beta   105.97713678
_cell_angle_gamma   116.71112750
_symmetry_Int_Tables_number   1
_chemical_formula_structural   DyCrO4
_chemical_formula_sum   'Dy2 Cr2 O8'
_cell_volume   163.79496791
_cell_formula_units_Z   2
loop_
 _symmetry_equiv_pos_site_id
 _symmetry_equiv_pos_as_xyz
  1  'x, y, z'
loop_
 _atom_site_type_symbol
 _atom_site_label
 _atom_site_symmetry_multiplicity
 _atom_site_fract_x
 _atom_site_fract_y
 _atom_site_fract_z
 _atom_site_occupancy
  O  O0  1  0.29979741  0.23384494  0.43404765  1
  O  O1  1  0.86575035  0.29979779  0.56595209  1
  O  O2  1  0.23384461  0.29979785  0.93404704  1
  O  O3  1  0.29979712  0.86575075  0.06595265  1
  O  O4  1  0.13425064  0.70020236  0.43404815  1
  O  O5  1  0.70020182  0.76615521  0.56595210  1
  O  O6  1  0.76615463  0.70020231  0.06595271  1
  O  O7  1  0.70020211  0.13424941  0.93404710  1
  Cr  Cr8  1  0.87499871  0.12499896  0.74999899  1
  Cr  Cr9  1  0.12499933  0.87499909  0.24999984  1
  Dy  Dy10  1  0.37499867  0.62499906  0.74999901  1
  Dy  Dy11  1  0.62499937  0.37499898  0.24999982  1
