# generated using pymatgen
data_Li2VSiO5
_symmetry_space_group_name_H-M   'P 1'
_cell_length_a   4.54121518
_cell_length_b   6.42637429
_cell_length_c   6.42637429
_cell_angle_alpha   90.00000000
_cell_angle_beta   90.00000000
_cell_angle_gamma   90.00000000
_symmetry_Int_Tables_number   1
_chemical_formula_structural   Li2VSiO5
_chemical_formula_sum   'Li4 V2 Si2 O10'
_cell_volume   187.54440563
_cell_formula_units_Z   2
loop_
 _symmetry_equiv_pos_site_id
 _symmetry_equiv_pos_as_xyz
  1  'x, y, z'
loop_
 _atom_site_type_symbol
 _atom_site_label
 _atom_site_symmetry_multiplicity
 _atom_site_fract_x
 _atom_site_fract_y
 _atom_site_fract_z
 _atom_site_occupancy
  Li  Li0  1  0.00000000  0.00000000  0.50000000  1
  Li  Li1  1  0.00000000  0.00000000  0.00000000  1
  Li  Li2  1  0.00000000  0.50000000  0.50000000  1
  Li  Li3  1  0.00000000  0.50000000  0.00000000  1
  O  O4  1  0.21282069  0.25000000  0.25000000  1
  O  O5  1  0.78717931  0.75000000  0.75000000  1
  O  O6  1  0.71661622  0.25000000  0.54445645  1
  O  O7  1  0.71661622  0.95554355  0.25000000  1
  O  O8  1  0.71661622  0.54445645  0.25000000  1
  O  O9  1  0.71661622  0.25000000  0.95554355  1
  O  O10  1  0.28338378  0.75000000  0.45554355  1
  O  O11  1  0.28338378  0.75000000  0.04445645  1
  O  O12  1  0.28338378  0.04445645  0.75000000  1
  O  O13  1  0.28338378  0.45554355  0.75000000  1
  Si  Si14  1  0.50000000  0.75000000  0.25000000  1
  Si  Si15  1  0.50000000  0.25000000  0.75000000  1
  V  V16  1  0.41687464  0.75000000  0.75000000  1
  V  V17  1  0.58312536  0.25000000  0.25000000  1
