# generated using pymatgen
data_Ba2MnZn2(AsO)2
_symmetry_space_group_name_H-M   'P 1'
_cell_length_a   4.28931987
_cell_length_b   4.28931987
_cell_length_c   10.33562536
_cell_angle_alpha   101.97598606
_cell_angle_beta   101.97598608
_cell_angle_gamma   89.99999998
_symmetry_Int_Tables_number   1
_chemical_formula_structural   Ba2MnZn2(AsO)2
_chemical_formula_sum   'Ba2 Mn1 Zn2 As2 O2'
_cell_volume   181.78567549
_cell_formula_units_Z   1
loop_
 _symmetry_equiv_pos_site_id
 _symmetry_equiv_pos_as_xyz
  1  'x, y, z'
loop_
 _atom_site_type_symbol
 _atom_site_label
 _atom_site_symmetry_multiplicity
 _atom_site_fract_x
 _atom_site_fract_y
 _atom_site_fract_z
 _atom_site_occupancy
  O  O0  1  0.00000000  0.50000000  0.00000000  1
  O  O1  1  0.50000000  0.00000000  0.00000000  1
  Mn  Mn2  1  0.00000000  0.00000000  0.00000000  1
  Zn  Zn3  1  0.75000000  0.25000000  0.50000000  1
  Zn  Zn4  1  0.25000000  0.75000000  0.50000000  1
  As  As5  1  0.17465538  0.17465538  0.34931077  1
  As  As6  1  0.82534462  0.82534462  0.65068923  1
  Ba  Ba7  1  0.59066071  0.59066071  0.18132141  1
  Ba  Ba8  1  0.40933929  0.40933929  0.81867859  1
