# generated using pymatgen
data_Li2Mn(CoO3)2
_symmetry_space_group_name_H-M   'P 1'
_cell_length_a   6.72029182
_cell_length_b   5.73197067
_cell_length_c   5.95501687
_cell_angle_alpha   91.25672754
_cell_angle_beta   103.86417164
_cell_angle_gamma   78.16835955
_symmetry_Int_Tables_number   1
_chemical_formula_structural   Li2Mn(CoO3)2
_chemical_formula_sum   'Li4 Mn2 Co4 O12'
_cell_volume   217.88649852
_cell_formula_units_Z   2
loop_
 _symmetry_equiv_pos_site_id
 _symmetry_equiv_pos_as_xyz
  1  'x, y, z'
loop_
 _atom_site_type_symbol
 _atom_site_label
 _atom_site_symmetry_multiplicity
 _atom_site_fract_x
 _atom_site_fract_y
 _atom_site_fract_z
 _atom_site_occupancy
  Li  Li0  1  0.98248792  0.48242371  0.48942968  1
  Li  Li1  1  0.33333300  0.16666700  0.83333300  1
  Li  Li2  1  0.33333300  0.66666700  0.83333300  1
  Li  Li3  1  0.68417908  0.85091029  0.17723732  1
  Mn  Mn4  1  0.33333300  0.16666700  0.33333300  1
  Mn  Mn5  1  0.33333300  0.66666700  0.33333300  1
  Co  Co6  1  0.99834845  0.49802485  0.00327466  1
  Co  Co7  1  0.99095736  0.99772930  0.99199788  1
  Co  Co8  1  0.67570864  0.33560370  0.67466912  1
  Co  Co9  1  0.66831855  0.83530815  0.66339234  1
  O  O10  1  0.02970641  0.24540539  0.22507947  1
  O  O11  1  0.02420883  0.72779448  0.23602217  1
  O  O12  1  0.33363416  0.41937367  0.55578685  1
  O  O13  1  0.32938016  0.92101870  0.55004703  1
  O  O14  1  0.33728684  0.41231430  0.11661897  1
  O  O15  1  0.67616268  0.06925256  0.89485576  1
  O  O16  1  0.33303284  0.91395933  0.11087915  1
  O  O17  1  0.63696059  0.08792761  0.44158753  1
  O  O18  1  0.66059044  0.59560971  0.87833923  1
  O  O19  1  0.64245817  0.60553852  0.43064483  1
  O  O20  1  0.99050332  0.26408044  0.77181124  1
  O  O21  1  0.00607656  0.73772329  0.78832777  1
