# generated using pymatgen
data_Lu2Mn2O7
_symmetry_space_group_name_H-M   'P 1'
_cell_length_a   6.99905712
_cell_length_b   6.99905712
_cell_length_c   6.99905713
_cell_angle_alpha   60.00000001
_cell_angle_beta   60.00000001
_cell_angle_gamma   59.99999998
_symmetry_Int_Tables_number   1
_chemical_formula_structural   Lu2Mn2O7
_chemical_formula_sum   'Lu4 Mn4 O14'
_cell_volume   242.43963226
_cell_formula_units_Z   2
loop_
 _symmetry_equiv_pos_site_id
 _symmetry_equiv_pos_as_xyz
  1  'x, y, z'
loop_
 _atom_site_type_symbol
 _atom_site_label
 _atom_site_symmetry_multiplicity
 _atom_site_fract_x
 _atom_site_fract_y
 _atom_site_fract_z
 _atom_site_occupancy
  O  O0  1  0.62500007  0.62499939  0.62500062  1
  O  O1  1  0.37499926  0.37499998  0.37500030  1
  O  O2  1  0.33354085  0.91645912  0.91645925  1
  O  O3  1  0.08354228  0.66645796  0.66645869  1
  O  O4  1  0.91645871  0.33354140  0.91645918  1
  O  O5  1  0.91645878  0.91645912  0.33354139  1
  O  O6  1  0.33354078  0.33354140  0.91645926  1
  O  O7  1  0.33354085  0.91645912  0.33354147  1
  O  O8  1  0.91645871  0.33354140  0.33354140  1
  O  O9  1  0.66645856  0.66645796  0.08354166  1
  O  O10  1  0.08354163  0.08354200  0.66645811  1
  O  O11  1  0.08354228  0.66645796  0.08354091  1
  O  O12  1  0.66645790  0.08354200  0.66645886  1
  O  O13  1  0.66645790  0.08354200  0.08354108  1
  Mn  Mn14  1  0.00000012  0.50000056  0.99999916  1
  Mn  Mn15  1  0.49999926  0.00000000  0.99999987  1
  Mn  Mn16  1  0.00000000  0.00000000  0.50000043  1
  Mn  Mn17  1  0.00000000  0.00000000  0.00000000  1
  Lu  Lu18  1  0.49999926  0.00000000  0.50000029  1
  Lu  Lu19  1  0.00000012  0.50000056  0.49999958  1
  Lu  Lu20  1  0.49999937  0.50000056  0.00000046  1
  Lu  Lu21  1  0.49999937  0.50000056  0.49999945  1
