# generated using pymatgen
data_Mn3(BO3)2
_symmetry_space_group_name_H-M   'P 1'
_cell_length_a   4.69792438
_cell_length_b   5.76365521
_cell_length_c   8.83175317
_cell_angle_alpha   90.00000000
_cell_angle_beta   90.00000000
_cell_angle_gamma   90.00000000
_symmetry_Int_Tables_number   1
_chemical_formula_structural   Mn3(BO3)2
_chemical_formula_sum   'Mn6 B4 O12'
_cell_volume   239.13929115
_cell_formula_units_Z   2
loop_
 _symmetry_equiv_pos_site_id
 _symmetry_equiv_pos_as_xyz
  1  'x, y, z'
loop_
 _atom_site_type_symbol
 _atom_site_label
 _atom_site_symmetry_multiplicity
 _atom_site_fract_x
 _atom_site_fract_y
 _atom_site_fract_z
 _atom_site_occupancy
  B  B0  1  0.03839236  0.24313346  0.50000000  1
  B  B1  1  0.46160764  0.74313346  0.00000000  1
  B  B2  1  0.96160764  0.75686654  0.50000000  1
  B  B3  1  0.53839236  0.25686654  0.00000000  1
  O  O4  1  0.31177663  0.78764796  0.13434311  1
  O  O5  1  0.81177663  0.71235204  0.36565689  1
  O  O6  1  0.31177663  0.78764796  0.86565689  1
  O  O7  1  0.68822337  0.21235204  0.86565689  1
  O  O8  1  0.81177663  0.71235204  0.63434311  1
  O  O9  1  0.18822337  0.28764796  0.63434311  1
  O  O10  1  0.25331967  0.31809005  0.00000000  1
  O  O11  1  0.75331967  0.18190995  0.50000000  1
  O  O12  1  0.24668033  0.81809005  0.50000000  1
  O  O13  1  0.74668033  0.68190995  0.00000000  1
  O  O14  1  0.68822337  0.21235204  0.13434311  1
  O  O15  1  0.18822337  0.28764796  0.36565689  1
  Mn  Mn16  1  0.00000000  0.50000000  0.81196938  1
  Mn  Mn17  1  0.50000000  0.00000000  0.68803062  1
  Mn  Mn18  1  0.00000000  0.50000000  0.18803062  1
  Mn  Mn19  1  0.50000000  0.00000000  0.31196938  1
  Mn  Mn20  1  0.50000000  0.50000000  0.50000000  1
  Mn  Mn21  1  0.00000000  0.00000000  0.00000000  1
