# generated using pymatgen
data_Ba2V(SiO4)2
_symmetry_space_group_name_H-M   'P 1'
_cell_length_a   5.33279263
_cell_length_b   8.60498376
_cell_length_c   8.60498376
_cell_angle_alpha   90.00000000
_cell_angle_beta   90.00000000
_cell_angle_gamma   90.00000000
_symmetry_Int_Tables_number   1
_chemical_formula_structural   Ba2V(SiO4)2
_chemical_formula_sum   'Ba4 V2 Si4 O16'
_cell_volume   394.87060594
_cell_formula_units_Z   2
loop_
 _symmetry_equiv_pos_site_id
 _symmetry_equiv_pos_as_xyz
  1  'x, y, z'
loop_
 _atom_site_type_symbol
 _atom_site_label
 _atom_site_symmetry_multiplicity
 _atom_site_fract_x
 _atom_site_fract_y
 _atom_site_fract_z
 _atom_site_occupancy
  O  O0  1  0.22559185  0.50000000  0.50000000  1
  O  O1  1  0.22559185  0.00000000  0.00000000  1
  O  O2  1  0.65285100  0.07739896  0.79357381  1
  O  O3  1  0.65285100  0.92260104  0.20642619  1
  O  O4  1  0.65285100  0.79357381  0.92260104  1
  O  O5  1  0.65285100  0.20642619  0.07739896  1
  O  O6  1  0.65285100  0.70642619  0.42260104  1
  O  O7  1  0.65285100  0.57739896  0.70642619  1
  O  O8  1  0.65285100  0.42260104  0.29357381  1
  O  O9  1  0.65285100  0.29357381  0.57739896  1
  O  O10  1  0.63120812  0.00000000  0.50000000  1
  O  O11  1  0.63120812  0.50000000  0.00000000  1
  O  O12  1  0.21770613  0.12918467  0.62918467  1
  O  O13  1  0.21770613  0.37081533  0.12918467  1
  O  O14  1  0.21770613  0.62918467  0.87081533  1
  O  O15  1  0.21770613  0.87081533  0.37081533  1
  Si  Si16  1  0.51956082  0.87052717  0.37052717  1
  Si  Si17  1  0.51956082  0.62947283  0.87052717  1
  Si  Si18  1  0.51956082  0.37052717  0.12947283  1
  Si  Si19  1  0.51956082  0.12947283  0.62947283  1
  V  V20  1  0.53865374  0.50000000  0.50000000  1
  V  V21  1  0.53865374  0.00000000  0.00000000  1
  Ba  Ba22  1  0.99565421  0.67166529  0.17166529  1
  Ba  Ba23  1  0.99565421  0.82833471  0.67166529  1
  Ba  Ba24  1  0.99565421  0.17166529  0.32833471  1
  Ba  Ba25  1  0.99565421  0.32833471  0.82833471  1
