# generated using pymatgen
data_LaVO4
_symmetry_space_group_name_H-M   'P 1'
_cell_length_a   6.26770868
_cell_length_b   6.26770868
_cell_length_c   6.26770868
_cell_angle_alpha   106.09115321
_cell_angle_beta   106.09115319
_cell_angle_gamma   116.46604674
_symmetry_Int_Tables_number   1
_chemical_formula_structural   LaVO4
_chemical_formula_sum   'La2 V2 O8'
_cell_volume   187.39802389
_cell_formula_units_Z   2
loop_
 _symmetry_equiv_pos_site_id
 _symmetry_equiv_pos_as_xyz
  1  'x, y, z'
loop_
 _atom_site_type_symbol
 _atom_site_label
 _atom_site_symmetry_multiplicity
 _atom_site_fract_x
 _atom_site_fract_y
 _atom_site_fract_z
 _atom_site_occupancy
  O  O0  1  0.79401855  0.72202643  0.42800788  1
  O  O1  1  0.36601067  0.79401855  0.57199212  1
  O  O2  1  0.72202643  0.79401855  0.92800788  1
  O  O3  1  0.79401855  0.36601067  0.07199212  1
  O  O4  1  0.63398933  0.20598145  0.42800788  1
  O  O5  1  0.20598145  0.27797357  0.57199212  1
  O  O6  1  0.20598145  0.63398933  0.92800788  1
  O  O7  1  0.27797357  0.20598145  0.07199212  1
  V  V8  1  0.37500000  0.62500000  0.75000000  1
  V  V9  1  0.62500000  0.37500000  0.25000000  1
  La  La10  1  0.12500000  0.87500000  0.25000000  1
  La  La11  1  0.87500000  0.12500000  0.75000000  1
