# generated using pymatgen
data_Sr3NiPtO6
_symmetry_space_group_name_H-M   'P 1'
_cell_length_a   6.74710175
_cell_length_b   6.74710175
_cell_length_c   6.74710175
_cell_angle_alpha   91.69430261
_cell_angle_beta   91.69430260
_cell_angle_gamma   91.69430258
_symmetry_Int_Tables_number   1
_chemical_formula_structural   Sr3NiPtO6
_chemical_formula_sum   'Sr6 Ni2 Pt2 O12'
_cell_volume   306.73991017
_cell_formula_units_Z   2
loop_
 _symmetry_equiv_pos_site_id
 _symmetry_equiv_pos_as_xyz
  1  'x, y, z'
loop_
 _atom_site_type_symbol
 _atom_site_label
 _atom_site_symmetry_multiplicity
 _atom_site_fract_x
 _atom_site_fract_y
 _atom_site_fract_z
 _atom_site_occupancy
  O  O0  1  0.78947098  0.59027452  0.46558152  1
  O  O1  1  0.59027452  0.46558152  0.78947098  1
  O  O2  1  0.46558152  0.78947098  0.59027452  1
  O  O3  1  0.03441848  0.90972548  0.71052902  1
  O  O4  1  0.90972548  0.71052902  0.03441848  1
  O  O5  1  0.71052902  0.03441848  0.90972548  1
  O  O6  1  0.21052902  0.40972548  0.53441848  1
  O  O7  1  0.40972548  0.53441848  0.21052902  1
  O  O8  1  0.53441848  0.21052902  0.40972548  1
  O  O9  1  0.96558152  0.09027452  0.28947098  1
  O  O10  1  0.28947098  0.96558152  0.09027452  1
  O  O11  1  0.09027452  0.28947098  0.96558152  1
  Ni  Ni12  1  0.25000000  0.25000000  0.25000000  1
  Ni  Ni13  1  0.75000000  0.75000000  0.75000000  1
  Sr  Sr14  1  0.25000000  0.61412585  0.88587415  1
  Sr  Sr15  1  0.61412585  0.88587415  0.25000000  1
  Sr  Sr16  1  0.11412585  0.75000000  0.38587415  1
  Sr  Sr17  1  0.75000000  0.38587415  0.11412585  1
  Sr  Sr18  1  0.38587415  0.11412585  0.75000000  1
  Sr  Sr19  1  0.88587415  0.25000000  0.61412585  1
  Pt  Pt20  1  0.00000000  0.00000000  0.00000000  1
  Pt  Pt21  1  0.50000000  0.50000000  0.50000000  1
