# generated using pymatgen
data_PrVO4
_symmetry_space_group_name_H-M   'P 1'
_cell_length_a   6.22087063
_cell_length_b   6.22087063
_cell_length_c   6.22087063
_cell_angle_alpha   106.03427066
_cell_angle_beta   106.03427065
_cell_angle_gamma   116.58823383
_symmetry_Int_Tables_number   1
_chemical_formula_structural   PrVO4
_chemical_formula_sum   'Pr2 V2 O8'
_cell_volume   183.15391479
_cell_formula_units_Z   2
loop_
 _symmetry_equiv_pos_site_id
 _symmetry_equiv_pos_as_xyz
  1  'x, y, z'
loop_
 _atom_site_type_symbol
 _atom_site_label
 _atom_site_symmetry_multiplicity
 _atom_site_fract_x
 _atom_site_fract_y
 _atom_site_fract_z
 _atom_site_occupancy
  O  O0  1  0.79522341  0.36590215  0.07067875  1
  O  O1  1  0.79522341  0.72454466  0.42932125  1
  O  O2  1  0.63409785  0.20477659  0.42932125  1
  O  O3  1  0.20477659  0.27545534  0.57067875  1
  O  O4  1  0.20477659  0.63409785  0.92932125  1
  O  O5  1  0.27545534  0.20477659  0.07067875  1
  O  O6  1  0.72454466  0.79522341  0.92932125  1
  O  O7  1  0.36590215  0.79522341  0.57067875  1
  V  V8  1  0.62500000  0.37500000  0.25000000  1
  V  V9  1  0.37500000  0.62500000  0.75000000  1
  Pr  Pr10  1  0.87500000  0.12500000  0.75000000  1
  Pr  Pr11  1  0.12500000  0.87500000  0.25000000  1
