# generated using pymatgen
data_BaFe(Si2O5)2
_symmetry_space_group_name_H-M   'P 1'
_cell_length_a   7.63011274
_cell_length_b   7.63011274
_cell_length_c   16.43668390
_cell_angle_alpha   90.00000000
_cell_angle_beta   90.00000000
_cell_angle_gamma   90.00000000
_symmetry_Int_Tables_number   1
_chemical_formula_structural   BaFe(Si2O5)2
_chemical_formula_sum   'Ba4 Fe4 Si16 O40'
_cell_volume   956.92106102
_cell_formula_units_Z   4
loop_
 _symmetry_equiv_pos_site_id
 _symmetry_equiv_pos_as_xyz
  1  'x, y, z'
loop_
 _atom_site_type_symbol
 _atom_site_label
 _atom_site_symmetry_multiplicity
 _atom_site_fract_x
 _atom_site_fract_y
 _atom_site_fract_z
 _atom_site_occupancy
  O  O0  1  0.02200264  0.38566407  0.59132214  1
  O  O1  1  0.47799736  0.11433593  0.59132214  1
  O  O2  1  0.88566407  0.52200264  0.90867786  1
  O  O3  1  0.38566407  0.47799736  0.59132214  1
  O  O4  1  0.11433593  0.02200264  0.59132214  1
  O  O5  1  0.97799736  0.88566407  0.90867786  1
  O  O6  1  0.52200264  0.61433593  0.90867786  1
  O  O7  1  0.61433593  0.97799736  0.90867786  1
  O  O8  1  0.97799736  0.61433593  0.40867786  1
  O  O9  1  0.52200264  0.88566407  0.40867786  1
  O  O10  1  0.11433593  0.47799736  0.09132214  1
  O  O11  1  0.61433593  0.52200264  0.40867786  1
  O  O12  1  0.88566407  0.97799736  0.40867786  1
  O  O13  1  0.02200264  0.11433593  0.09132214  1
  O  O14  1  0.47799736  0.38566407  0.09132214  1
  O  O15  1  0.00382846  0.28042475  0.36230529  1
  O  O16  1  0.38566407  0.02200264  0.09132214  1
  O  O17  1  0.50382846  0.78042475  0.63769471  1
  O  O18  1  0.21957525  0.49617154  0.86230529  1
  O  O19  1  0.71957525  0.50382846  0.63769471  1
  O  O20  1  0.78042475  0.99617154  0.63769471  1
  O  O21  1  0.00382846  0.21957525  0.86230529  1
  O  O22  1  0.49617154  0.28042475  0.86230529  1
  O  O23  1  0.28042475  0.00382846  0.86230529  1
  O  O24  1  0.47034630  0.97034630  0.25000000  1
  O  O25  1  0.52965370  0.47034630  0.25000000  1
  O  O26  1  0.97034630  0.02965370  0.25000000  1
  O  O27  1  0.02965370  0.52965370  0.25000000  1
  O  O28  1  0.52965370  0.02965370  0.75000000  1
  O  O29  1  0.47034630  0.52965370  0.75000000  1
  O  O30  1  0.02965370  0.97034630  0.75000000  1
  O  O31  1  0.97034630  0.47034630  0.75000000  1
  O  O32  1  0.71957525  0.99617154  0.13769471  1
  O  O33  1  0.50382846  0.71957525  0.13769471  1
  O  O34  1  0.99617154  0.78042475  0.13769471  1
  O  O35  1  0.21957525  0.00382846  0.36230529  1
  O  O36  1  0.28042475  0.49617154  0.36230529  1
  O  O37  1  0.78042475  0.50382846  0.13769471  1
  O  O38  1  0.49617154  0.21957525  0.36230529  1
  O  O39  1  0.99617154  0.71957525  0.63769471  1
  Si  Si40  1  0.93236158  0.51687502  0.65514245  1
  Si  Si41  1  0.56763842  0.98312498  0.65514245  1
  Si  Si42  1  0.01687502  0.43236158  0.84485755  1
  Si  Si43  1  0.51687502  0.56763842  0.65514245  1
  Si  Si44  1  0.98312498  0.93236158  0.65514245  1
  Si  Si45  1  0.06763842  0.01687502  0.84485755  1
  Si  Si46  1  0.43236158  0.48312498  0.84485755  1
  Si  Si47  1  0.48312498  0.06763842  0.84485755  1
  Si  Si48  1  0.06763842  0.48312498  0.34485755  1
  Si  Si49  1  0.43236158  0.01687502  0.34485755  1
  Si  Si50  1  0.98312498  0.56763842  0.15514245  1
  Si  Si51  1  0.48312498  0.43236158  0.34485755  1
  Si  Si52  1  0.01687502  0.06763842  0.34485755  1
  Si  Si53  1  0.93236158  0.98312498  0.15514245  1
  Si  Si54  1  0.56763842  0.51687502  0.15514245  1
  Si  Si55  1  0.51687502  0.93236158  0.15514245  1
  Fe  Fe56  1  0.25000000  0.25000000  0.59426782  1
  Fe  Fe57  1  0.75000000  0.75000000  0.90573218  1
  Fe  Fe58  1  0.75000000  0.75000000  0.40573218  1
  Fe  Fe59  1  0.25000000  0.25000000  0.09426782  1
  Ba  Ba60  1  0.25000000  0.75000000  0.50000000  1
  Ba  Ba61  1  0.75000000  0.25000000  0.50000000  1
  Ba  Ba62  1  0.75000000  0.25000000  0.00000000  1
  Ba  Ba63  1  0.25000000  0.75000000  0.00000000  1
