# generated using pymatgen
data_Mn3WO6
_symmetry_space_group_name_H-M   'P 1'
_cell_length_a   6.31170666
_cell_length_b   6.31170665
_cell_length_c   6.31170665
_cell_angle_alpha   91.25053465
_cell_angle_beta   91.25053459
_cell_angle_gamma   91.25053469
_symmetry_Int_Tables_number   1
_chemical_formula_structural   Mn3WO6
_chemical_formula_sum   'Mn6 W2 O12'
_cell_volume   251.26118076
_cell_formula_units_Z   2
loop_
 _symmetry_equiv_pos_site_id
 _symmetry_equiv_pos_as_xyz
  1  'x, y, z'
loop_
 _atom_site_type_symbol
 _atom_site_label
 _atom_site_symmetry_multiplicity
 _atom_site_fract_x
 _atom_site_fract_y
 _atom_site_fract_z
 _atom_site_occupancy
  O  O0  1  0.06618856  0.92815559  0.70556028  1
  O  O1  1  0.92815559  0.70556028  0.06618856  1
  O  O2  1  0.70556028  0.06618856  0.92815559  1
  O  O3  1  0.93381144  0.07184441  0.29443972  1
  O  O4  1  0.07184441  0.29443972  0.93381144  1
  O  O5  1  0.29443972  0.93381144  0.07184441  1
  O  O6  1  0.79300363  0.44861701  0.58983479  1
  O  O7  1  0.44861701  0.58983479  0.79300363  1
  O  O8  1  0.41016521  0.20699637  0.55138299  1
  O  O9  1  0.55138299  0.41016521  0.20699637  1
  O  O10  1  0.20699637  0.55138299  0.41016521  1
  O  O11  1  0.58983479  0.79300363  0.44861701  1
  Mn  Mn12  1  0.55726710  0.06051019  0.24982982  1
  Mn  Mn13  1  0.24982982  0.55726710  0.06051019  1
  Mn  Mn14  1  0.93948981  0.75017018  0.44273290  1
  Mn  Mn15  1  0.75017018  0.44273290  0.93948981  1
  Mn  Mn16  1  0.44273290  0.93948981  0.75017018  1
  Mn  Mn17  1  0.06051019  0.24982982  0.55726710  1
  W  W18  1  0.00000000  0.00000000  0.00000000  1
  W  W19  1  0.50000000  0.50000000  0.50000000  1
