# generated using pymatgen
data_La2MnCoO6
_symmetry_space_group_name_H-M   'P 1'
_cell_length_a   5.55214970
_cell_length_b   5.58289146
_cell_length_c   7.88080399
_cell_angle_alpha   90.05175407
_cell_angle_beta   90.00000000
_cell_angle_gamma   90.00000000
_symmetry_Int_Tables_number   1
_chemical_formula_structural   La2MnCoO6
_chemical_formula_sum   'La4 Mn2 Co2 O12'
_cell_volume   244.28156904
_cell_formula_units_Z   2
loop_
 _symmetry_equiv_pos_site_id
 _symmetry_equiv_pos_as_xyz
  1  'x, y, z'
loop_
 _atom_site_type_symbol
 _atom_site_label
 _atom_site_symmetry_multiplicity
 _atom_site_fract_x
 _atom_site_fract_y
 _atom_site_fract_z
 _atom_site_occupancy
  La  La0  1  0.46830110  0.49326401  0.75091010  1
  La  La1  1  0.03169890  0.99326401  0.25091010  1
  La  La2  1  0.53169890  0.50673599  0.24908990  1
  La  La3  1  0.96830110  0.00673599  0.74908990  1
  Mn  Mn4  1  -0.00000000  0.50000000  0.50000000  1
  Mn  Mn5  1  0.50000000  -0.00000000  -0.00000000  1
  Co  Co6  1  0.50000000  -0.00000000  0.50000000  1
  Co  Co7  1  -0.00000000  0.50000000  -0.00000000  1
  O  O8  1  0.01069562  0.57516790  0.74223479  1
  O  O9  1  0.48930438  0.07516790  0.24223479  1
  O  O10  1  0.98930438  0.42483210  0.25776521  1
  O  O11  1  0.51069562  0.92483210  0.75776521  1
  O  O12  1  0.21049158  0.22587085  0.54021897  1
  O  O13  1  0.28950842  0.72587085  0.04021897  1
  O  O14  1  0.78950842  0.77412915  0.45978103  1
  O  O15  1  0.71049158  0.27412915  0.95978103  1
  O  O16  1  0.22246640  0.20924718  0.95972237  1
  O  O17  1  0.27753360  0.70924718  0.45972237  1
  O  O18  1  0.77753360  0.79075282  0.04027763  1
  O  O19  1  0.72246640  0.29075282  0.54027763  1
