# generated using pymatgen
data_Ba3Mn2O8
_symmetry_space_group_name_H-M   'P 1'
_cell_length_a   7.98857309
_cell_length_b   7.98857309
_cell_length_c   7.98857309
_cell_angle_alpha   42.63933375
_cell_angle_beta   42.63933380
_cell_angle_gamma   42.63933377
_symmetry_Int_Tables_number   1
_chemical_formula_structural   Ba3Mn2O8
_chemical_formula_sum   'Ba3 Mn2 O8'
_cell_volume   211.87306536
_cell_formula_units_Z   1
loop_
 _symmetry_equiv_pos_site_id
 _symmetry_equiv_pos_as_xyz
  1  'x, y, z'
loop_
 _atom_site_type_symbol
 _atom_site_label
 _atom_site_symmetry_multiplicity
 _atom_site_fract_x
 _atom_site_fract_y
 _atom_site_fract_z
 _atom_site_occupancy
  O  O0  1  0.67095609  0.67095609  0.67095609  1
  O  O1  1  0.32904391  0.32904391  0.32904391  1
  O  O2  1  0.27315980  0.75669745  0.27315980  1
  O  O3  1  0.75669745  0.27315980  0.27315980  1
  O  O4  1  0.27315980  0.27315980  0.75669745  1
  O  O5  1  0.72684020  0.72684020  0.24330255  1
  O  O6  1  0.24330255  0.72684020  0.72684020  1
  O  O7  1  0.72684020  0.24330255  0.72684020  1
  Mn  Mn8  1  0.59279194  0.59279194  0.59279194  1
  Mn  Mn9  1  0.40720806  0.40720806  0.40720806  1
  Ba  Ba10  1  0.79248338  0.79248338  0.79248338  1
  Ba  Ba11  1  0.20751662  0.20751662  0.20751662  1
  Ba  Ba12  1  0.00000000  0.00000000  0.00000000  1
