# generated using pymatgen
data_ErVO3
_symmetry_space_group_name_H-M   'P 1'
_cell_length_a   5.29323141
_cell_length_b   5.71851772
_cell_length_c   7.61187984
_cell_angle_alpha   90.00000000
_cell_angle_beta   90.00000000
_cell_angle_gamma   90.00000000
_symmetry_Int_Tables_number   1
_chemical_formula_structural   ErVO3
_chemical_formula_sum   'Er4 V4 O12'
_cell_volume   230.40732194
_cell_formula_units_Z   4
loop_
 _symmetry_equiv_pos_site_id
 _symmetry_equiv_pos_as_xyz
  1  'x, y, z'
loop_
 _atom_site_type_symbol
 _atom_site_label
 _atom_site_symmetry_multiplicity
 _atom_site_fract_x
 _atom_site_fract_y
 _atom_site_fract_z
 _atom_site_occupancy
  O  O0  1  0.69257175  0.31282458  0.43839319  1
  O  O1  1  0.19257175  0.18717542  0.56160681  1
  O  O2  1  0.80742825  0.81282458  0.06160681  1
  O  O3  1  0.30742825  0.68717542  0.93839319  1
  O  O4  1  0.30742825  0.68717542  0.56160681  1
  O  O5  1  0.80742825  0.81282458  0.43839319  1
  O  O6  1  0.19257175  0.18717542  0.93839319  1
  O  O7  1  0.69257175  0.31282458  0.06160681  1
  O  O8  1  0.12372644  0.44977137  0.25000000  1
  O  O9  1  0.62372644  0.05022863  0.75000000  1
  O  O10  1  0.37627356  0.94977137  0.25000000  1
  O  O11  1  0.87627356  0.55022863  0.75000000  1
  V  V12  1  0.00000000  0.50000000  0.50000000  1
  V  V13  1  0.50000000  0.00000000  0.50000000  1
  V  V14  1  0.50000000  0.00000000  0.00000000  1
  V  V15  1  0.00000000  0.50000000  0.00000000  1
  Er  Er16  1  0.47876134  0.42832003  0.75000000  1
  Er  Er17  1  0.97876134  0.07167997  0.25000000  1
  Er  Er18  1  0.02123866  0.92832003  0.75000000  1
  Er  Er19  1  0.52123866  0.57167997  0.25000000  1
