# generated using pymatgen
data_SrNi3(P2O7)2
_symmetry_space_group_name_H-M   'P 1'
_cell_length_a   7.50633615
_cell_length_b   7.76731515
_cell_length_c   9.54997483
_cell_angle_alpha   90.00000000
_cell_angle_beta   112.26142269
_cell_angle_gamma   90.00000000
_symmetry_Int_Tables_number   1
_chemical_formula_structural   SrNi3(P2O7)2
_chemical_formula_sum   'Sr2 Ni6 P8 O28'
_cell_volume   515.30120768
_cell_formula_units_Z   2
loop_
 _symmetry_equiv_pos_site_id
 _symmetry_equiv_pos_as_xyz
  1  'x, y, z'
loop_
 _atom_site_type_symbol
 _atom_site_label
 _atom_site_symmetry_multiplicity
 _atom_site_fract_x
 _atom_site_fract_y
 _atom_site_fract_z
 _atom_site_occupancy
  O  O0  1  0.84445298  0.62497614  0.61069283  1
  O  O1  1  0.15554702  0.12497614  0.88930717  1
  O  O2  1  0.15554702  0.37502386  0.38930717  1
  O  O3  1  0.84445298  0.87502386  0.11069283  1
  O  O4  1  0.26866643  0.61645456  0.63442240  1
  O  O5  1  0.73133357  0.11645456  0.86557760  1
  O  O6  1  0.73133357  0.38354544  0.36557760  1
  O  O7  1  0.26866643  0.88354544  0.13442240  1
  O  O8  1  0.62476889  0.18064353  0.58394358  1
  O  O9  1  0.37523111  0.68064353  0.91605642  1
  O  O10  1  0.37523111  0.81935647  0.41605642  1
  O  O11  1  0.62476889  0.31935647  0.08394358  1
  O  O12  1  0.68214626  0.87164181  0.67700670  1
  O  O13  1  0.31785374  0.37164181  0.82299330  1
  O  O14  1  0.31785374  0.12835819  0.32299330  1
  O  O15  1  0.68214626  0.62835819  0.17700670  1
  O  O16  1  0.40039031  0.48107999  0.19278138  1
  O  O17  1  0.59960969  0.98107999  0.30721862  1
  O  O18  1  0.59960969  0.51892001  0.80721862  1
  O  O19  1  0.40039031  0.01892001  0.69278138  1
  O  O20  1  0.00092853  0.20958082  0.13484594  1
  O  O21  1  0.99907147  0.70958082  0.36515406  1
  O  O22  1  0.99907147  0.79041918  0.86515406  1
  O  O23  1  0.00092853  0.29041918  0.63484594  1
  O  O24  1  0.97412853  0.57488216  0.11234852  1
  O  O25  1  0.02587147  0.07488216  0.38765148  1
  O  O26  1  0.02587147  0.42511784  0.88765148  1
  O  O27  1  0.97412853  0.92511784  0.61234852  1
  P  P28  1  0.60369298  0.05826341  0.70128435  1
  P  P29  1  0.39630702  0.55826341  0.79871565  1
  P  P30  1  0.39630702  0.94173659  0.29871565  1
  P  P31  1  0.60369298  0.44173659  0.20128435  1
  P  P32  1  0.88924699  0.79702468  0.69307080  1
  P  P33  1  0.11075301  0.29702468  0.80692920  1
  P  P34  1  0.11075301  0.20297532  0.30692920  1
  P  P35  1  0.88924699  0.70297532  0.19307080  1
  Ni  Ni36  1  0.00000000  0.50000000  0.50000000  1
  Ni  Ni37  1  0.00000000  0.00000000  0.00000000  1
  Ni  Ni38  1  0.18431802  0.87392985  0.52478047  1
  Ni  Ni39  1  0.81568198  0.37392985  0.97521953  1
  Ni  Ni40  1  0.81568198  0.12607015  0.47521953  1
  Ni  Ni41  1  0.18431802  0.62607015  0.02478047  1
  Sr  Sr42  1  0.50000000  0.50000000  0.50000000  1
  Sr  Sr43  1  0.50000000  0.00000000  0.00000000  1
