# generated using pymatgen
data_Li4V2Co3Sn3O16
_symmetry_space_group_name_H-M   'P 1'
_cell_length_a   6.17241263
_cell_length_b   6.08845176
_cell_length_c   9.67047621
_cell_angle_alpha   90.00000755
_cell_angle_beta   90.50433417
_cell_angle_gamma   119.71786072
_symmetry_Int_Tables_number   1
_chemical_formula_structural   Li4V2Co3Sn3O16
_chemical_formula_sum   'Li4 V2 Co3 Sn3 O16'
_cell_volume   315.60633210
_cell_formula_units_Z   1
loop_
 _symmetry_equiv_pos_site_id
 _symmetry_equiv_pos_as_xyz
  1  'x, y, z'
loop_
 _atom_site_type_symbol
 _atom_site_label
 _atom_site_symmetry_multiplicity
 _atom_site_fract_x
 _atom_site_fract_y
 _atom_site_fract_z
 _atom_site_occupancy
  Li  Li0  1  0.36975390  0.68486630  0.90148613  1
  Li  Li1  1  0.96365424  0.98144563  0.98167670  1
  Li  Li2  1  0.98177484  0.99111983  0.50153811  1
  Li  Li3  1  0.66110645  0.33046561  0.40219682  1
  V  V4  1  0.35298516  0.67739503  0.49876979  1
  V  V5  1  0.72497149  0.36071115  0.97302060  1
  Co  Co6  1  0.64678939  0.82302625  0.21647070  1
  Co  Co7  1  0.83963207  0.66143881  0.70932138  1
  Co  Co8  1  0.84459024  0.18451124  0.70976738  1
  Sn  Sn9  1  0.16179551  0.82803021  0.21534908  1
  Sn  Sn10  1  0.16248476  0.33406157  0.21567787  1
  Sn  Sn11  1  0.35440858  0.17724155  0.71498226  1
  O  O12  1  0.18480902  0.82659170  0.58898226  1
  O  O13  1  0.02113201  0.50989771  0.34202906  1
  O  O14  1  0.32734570  0.66444964  0.10169122  1
  O  O15  1  0.97907242  0.98878564  0.31362081  1
  O  O16  1  0.00559110  0.00462213  0.79210909  1
  O  O17  1  0.18744095  0.35831846  0.58738790  1
  O  O18  1  0.46265584  0.94750302  0.35450492  1
  O  O19  1  0.46441386  0.51584423  0.35347858  1
  O  O20  1  0.29313326  0.14720136  0.09323867  1
  O  O21  1  0.63805404  0.81962093  0.58711564  1
  O  O22  1  0.53967219  0.48406071  0.85426396  1
  O  O23  1  0.53508440  0.05645592  0.85651381  1
  O  O24  1  0.67742123  0.33710391  0.60588278  1
  O  O25  1  0.81978136  0.64163832  0.08727792  1
  O  O26  1  0.98170219  0.48823340  0.86121521  1
  O  O27  1  0.81874282  0.17566071  0.08826834  1
