# generated using pymatgen
data_K2MnV4O12
_symmetry_space_group_name_H-M   'P 1'
_cell_length_a   8.41777411
_cell_length_b   8.70022513
_cell_length_c   9.55658745
_cell_angle_alpha   90.00000000
_cell_angle_beta   90.00000000
_cell_angle_gamma   109.64424614
_symmetry_Int_Tables_number   1
_chemical_formula_structural   K2MnV4O12
_chemical_formula_sum   'K4 Mn2 V8 O24'
_cell_volume   659.15631398
_cell_formula_units_Z   2
loop_
 _symmetry_equiv_pos_site_id
 _symmetry_equiv_pos_as_xyz
  1  'x, y, z'
loop_
 _atom_site_type_symbol
 _atom_site_label
 _atom_site_symmetry_multiplicity
 _atom_site_fract_x
 _atom_site_fract_y
 _atom_site_fract_z
 _atom_site_occupancy
  O  O0  1  0.64101469  0.25142445  0.10557666  1
  O  O1  1  0.85898531  0.24857555  0.60557666  1
  O  O2  1  0.35898531  0.74857555  0.89442334  1
  O  O3  1  0.14101469  0.75142445  0.39442334  1
  O  O4  1  0.84439689  0.14670318  0.93076862  1
  O  O5  1  0.65560311  0.35329682  0.43076862  1
  O  O6  1  0.15560311  0.85329682  0.06923138  1
  O  O7  1  0.34439689  0.64670318  0.56923138  1
  O  O8  1  0.17402146  0.10023854  0.83275214  1
  O  O9  1  0.32597854  0.39976146  0.33275214  1
  O  O10  1  0.82597854  0.89976146  0.16724786  1
  O  O11  1  0.67402146  0.60023854  0.66724786  1
  O  O12  1  0.36084600  0.30471602  0.63597670  1
  O  O13  1  0.13915400  0.19528398  0.13597670  1
  O  O14  1  0.81926536  0.46642203  0.89577047  1
  O  O15  1  0.68073464  0.03357797  0.39577047  1
  O  O16  1  0.18073464  0.53357797  0.10422953  1
  O  O17  1  0.31926536  0.96642203  0.60422953  1
  O  O18  1  0.03019141  0.65765157  0.67396268  1
  O  O19  1  0.46980859  0.84234843  0.17396268  1
  O  O20  1  0.96980859  0.34234843  0.32603732  1
  O  O21  1  0.53019141  0.15765157  0.82603732  1
  O  O22  1  0.86084600  0.80471602  0.86402330  1
  O  O23  1  0.63915400  0.69528398  0.36402330  1
  K  K24  1  0.63144153  0.90450044  0.71087938  1
  K  K25  1  0.86855847  0.59549956  0.21087938  1
  K  K26  1  0.36855847  0.09549956  0.28912062  1
  K  K27  1  0.13144153  0.40450044  0.78912062  1
  V  V28  1  0.70785968  0.25208068  0.94244622  1
  V  V29  1  0.79214032  0.24791932  0.44244622  1
  V  V30  1  0.29214032  0.74791932  0.05755378  1
  V  V31  1  0.20785968  0.75208068  0.55755378  1
  V  V32  1  0.34111643  0.13225644  0.72600076  1
  V  V33  1  0.15888357  0.36774356  0.22600076  1
  V  V34  1  0.65888357  0.86774356  0.27399924  1
  V  V35  1  0.84111643  0.63225644  0.77399924  1
  Mn  Mn36  1  0.50000000  0.50000000  0.50000000  1
  Mn  Mn37  1  0.00000000  0.00000000  0.00000000  1
