# generated using pymatgen
data_Y2MnNiO6
_symmetry_space_group_name_H-M   'P 1'
_cell_length_a   5.28437501
_cell_length_b   5.60559642
_cell_length_c   7.58626267
_cell_angle_alpha   90.00000000
_cell_angle_beta   89.59701753
_cell_angle_gamma   90.00000000
_symmetry_Int_Tables_number   1
_chemical_formula_structural   Y2MnNiO6
_chemical_formula_sum   'Y4 Mn2 Ni2 O12'
_cell_volume   224.71527329
_cell_formula_units_Z   2
loop_
 _symmetry_equiv_pos_site_id
 _symmetry_equiv_pos_as_xyz
  1  'x, y, z'
loop_
 _atom_site_type_symbol
 _atom_site_label
 _atom_site_symmetry_multiplicity
 _atom_site_fract_x
 _atom_site_fract_y
 _atom_site_fract_z
 _atom_site_occupancy
  O  O0  1  0.20188893  0.18815618  0.94744222  1
  O  O1  1  0.29811107  0.68815618  0.55255778  1
  O  O2  1  0.79811107  0.81184382  0.05255778  1
  O  O3  1  0.70188893  0.31184382  0.44744222  1
  O  O4  1  0.18362618  0.20713957  0.55750971  1
  O  O5  1  0.31637382  0.70713957  0.94249029  1
  O  O6  1  0.81637382  0.79286043  0.44249029  1
  O  O7  1  0.68362618  0.29286043  0.05750971  1
  O  O8  1  0.10809436  0.46277420  0.25750074  1
  O  O9  1  0.39190564  0.96277420  0.24249926  1
  O  O10  1  0.89190564  0.53722580  0.74249926  1
  O  O11  1  0.60809436  0.03722580  0.75750074  1
  Mn  Mn12  1  0.50000000  0.00000000  0.00000000  1
  Mn  Mn13  1  0.00000000  0.50000000  0.50000000  1
  Ni  Ni14  1  0.50000000  0.00000000  0.50000000  1
  Ni  Ni15  1  0.00000000  0.50000000  0.00000000  1
  Y  Y16  1  0.48089764  0.42926541  0.74871966  1
  Y  Y17  1  0.01910236  0.92926541  0.75128034  1
  Y  Y18  1  0.51910236  0.57073459  0.25128034  1
  Y  Y19  1  0.98089764  0.07073459  0.24871966  1
