# generated using pymatgen
data_ErMnO3
_symmetry_space_group_name_H-M   'P 1'
_cell_length_a   6.17366027
_cell_length_b   6.17366027
_cell_length_c   11.51732923
_cell_angle_alpha   90.00000000
_cell_angle_beta   90.00000000
_cell_angle_gamma   119.99999995
_symmetry_Int_Tables_number   1
_chemical_formula_structural   ErMnO3
_chemical_formula_sum   'Er6 Mn6 O18'
_cell_volume   380.16126799
_cell_formula_units_Z   6
loop_
 _symmetry_equiv_pos_site_id
 _symmetry_equiv_pos_as_xyz
  1  'x, y, z'
loop_
 _atom_site_type_symbol
 _atom_site_label
 _atom_site_symmetry_multiplicity
 _atom_site_fract_x
 _atom_site_fract_y
 _atom_site_fract_z
 _atom_site_occupancy
  O  O0  1  0.66666667  0.33333333  0.01934462  1
  O  O1  1  0.33333333  0.66666667  0.51934462  1
  O  O2  1  0.66666667  0.33333333  0.51934462  1
  O  O3  1  0.33333333  0.66666667  0.01934462  1
  O  O4  1  0.00000000  0.00000000  0.97239688  1
  O  O5  1  0.00000000  0.00000000  0.47239688  1
  O  O6  1  0.35957307  0.00000000  0.83261679  1
  O  O7  1  0.35957307  0.35957307  0.33261679  1
  O  O8  1  0.00000000  0.64042693  0.33261679  1
  O  O9  1  0.00000000  0.35957307  0.83261679  1
  O  O10  1  0.64042693  0.64042693  0.83261679  1
  O  O11  1  0.64042693  0.00000000  0.33261679  1
  O  O12  1  0.30672620  0.00000000  0.16318753  1
  O  O13  1  0.30672620  0.30672620  0.66318753  1
  O  O14  1  0.00000000  0.69327380  0.66318753  1
  O  O15  1  0.00000000  0.30672620  0.16318753  1
  O  O16  1  0.69327380  0.69327380  0.16318753  1
  O  O17  1  0.69327380  0.00000000  0.66318753  1
  Mn  Mn18  1  0.66658730  0.00000000  0.49778123  1
  Mn  Mn19  1  0.66658730  0.66658730  0.99778123  1
  Mn  Mn20  1  0.00000000  0.33341270  0.99778123  1
  Mn  Mn21  1  0.00000000  0.66658730  0.49778123  1
  Mn  Mn22  1  0.33341270  0.33341270  0.49778123  1
  Mn  Mn23  1  0.33341270  0.00000000  0.99778123  1
  Er  Er24  1  0.66666667  0.33333333  0.22877147  1
  Er  Er25  1  0.33333333  0.66666667  0.72877147  1
  Er  Er26  1  0.66666667  0.33333333  0.72877147  1
  Er  Er27  1  0.33333333  0.66666667  0.22877147  1
  Er  Er28  1  0.00000000  0.00000000  0.77261431  1
  Er  Er29  1  0.00000000  0.00000000  0.27261431  1
