# generated using pymatgen
data_Sr6(CoO3)5
_symmetry_space_group_name_H-M   'P 1'
_cell_length_a   6.91635213
_cell_length_b   6.91635214
_cell_length_c   6.91635214
_cell_angle_alpha   87.87217228
_cell_angle_beta   87.87217224
_cell_angle_gamma   87.87217225
_symmetry_Int_Tables_number   1
_chemical_formula_structural   Sr6(CoO3)5
_chemical_formula_sum   'Sr6 Co5 O15'
_cell_volume   330.18222661
_cell_formula_units_Z   1
loop_
 _symmetry_equiv_pos_site_id
 _symmetry_equiv_pos_as_xyz
  1  'x, y, z'
loop_
 _atom_site_type_symbol
 _atom_site_label
 _atom_site_symmetry_multiplicity
 _atom_site_fract_x
 _atom_site_fract_y
 _atom_site_fract_z
 _atom_site_occupancy
  O  O0  1  0.55567924  0.36576763  0.26625252  1
  O  O1  1  0.36576848  0.26625217  0.55567860  1
  O  O2  1  0.26625167  0.55567834  0.36576751  1
  O  O3  1  0.73374755  0.63423205  0.44432118  1
  O  O4  1  0.63423155  0.44432133  0.73374728  1
  O  O5  1  0.44432123  0.73374750  0.63423233  1
  O  O6  1  0.03007306  0.20508965  0.34055154  1
  O  O7  1  0.20508963  0.34055176  0.03007320  1
  O  O8  1  0.34055134  0.03007283  0.20508921  1
  O  O9  1  0.65944881  0.79491147  0.96992652  1
  O  O10  1  0.79491145  0.96992684  0.65944821  1
  O  O11  1  0.84324416  0.15675670  0.00000010  1
  O  O12  1  0.00000068  0.84324359  0.15675662  1
  O  O13  1  0.96992683  0.65944791  0.79491063  1
  O  O14  1  0.15675651  0.99999938  0.84324447  1
  Co  Co15  1  0.70541184  0.70541101  0.70541198  1
  Co  Co16  1  0.29458807  0.29458866  0.29458783  1
  Co  Co17  1  0.90498905  0.90498940  0.90498979  1
  Co  Co18  1  0.09501086  0.09501027  0.09501001  1
  Co  Co19  1  0.50000065  0.50000056  0.50000057  1
  Sr  Sr20  1  0.86131962  0.50000056  0.13867994  1
  Sr  Sr21  1  0.50000067  0.13868069  0.86131979  1
  Sr  Sr22  1  0.13868022  0.86132043  0.50000059  1
  Sr  Sr23  1  0.67797762  0.99999938  0.32202229  1
  Sr  Sr24  1  0.99999970  0.32202268  0.67797738  1
  Sr  Sr25  1  0.32202259  0.67797761  0.00000013  1
