# generated using pymatgen
data_LiCrPO5
_symmetry_space_group_name_H-M   'P 1'
_cell_length_a   6.34294502
_cell_length_b   6.29237617
_cell_length_c   9.07672182
_cell_angle_alpha   89.99917020
_cell_angle_beta   90.00377864
_cell_angle_gamma   89.99994968
_symmetry_Int_Tables_number   1
_chemical_formula_structural   LiCrPO5
_chemical_formula_sum   'Li4 Cr4 P4 O20'
_cell_volume   362.27190034
_cell_formula_units_Z   4
loop_
 _symmetry_equiv_pos_site_id
 _symmetry_equiv_pos_as_xyz
  1  'x, y, z'
loop_
 _atom_site_type_symbol
 _atom_site_label
 _atom_site_symmetry_multiplicity
 _atom_site_fract_x
 _atom_site_fract_y
 _atom_site_fract_z
 _atom_site_occupancy
  Li  Li0  1  0.47984948  0.47993867  0.98649493  1
  Li  Li1  1  0.47986367  0.02004603  0.48649079  1
  Li  Li2  1  0.98009076  0.98018977  0.01349029  1
  Li  Li3  1  0.98006763  0.51983312  0.51349506  1
  Cr  Cr4  1  0.24864570  0.24711845  0.19950132  1
  Cr  Cr5  1  0.24864623  0.25290676  0.69944767  1
  Cr  Cr6  1  0.74865148  0.74710662  0.80049265  1
  Cr  Cr7  1  0.74860252  0.75290632  0.30047904  1
  P  P8  1  0.24787207  0.75172783  0.74982274  1
  P  P9  1  0.24786420  0.74827665  0.24983245  1
  P  P10  1  0.74787833  0.24828081  0.75019313  1
  P  P11  1  0.74787676  0.25172476  0.25019235  1
  O  O12  1  0.05217191  0.76165184  0.85139790  1
  O  O13  1  0.05215936  0.73835223  0.35137461  1
  O  O14  1  0.25792483  0.24036791  0.38527041  1
  O  O15  1  0.25790977  0.25961857  0.88520253  1
  O  O16  1  0.25972107  0.55022975  0.14893301  1
  O  O17  1  0.23482608  0.94495022  0.14709486  1
  O  O18  1  0.23483134  0.55505638  0.64710854  1
  O  O19  1  0.25971096  0.94976786  0.64894501  1
  O  O20  1  0.44491764  0.76341113  0.34950714  1
  O  O21  1  0.44491399  0.73657473  0.84952832  1
  O  O22  1  0.55215696  0.26163957  0.14863683  1
  O  O23  1  0.55217630  0.23836319  0.64863935  1
  O  O24  1  0.73481554  0.05502999  0.35291615  1
  O  O25  1  0.75973424  0.44979289  0.35107652  1
  O  O26  1  0.75788853  0.75960355  0.11473114  1
  O  O27  1  0.75791014  0.74037605  0.61462736  1
  O  O28  1  0.75973926  0.05021118  0.85110397  1
  O  O29  1  0.73480771  0.44495482  0.85293796  1
  O  O30  1  0.94487856  0.26339397  0.65051859  1
  O  O31  1  0.94489698  0.23659841  0.15051740  1
