# generated using pymatgen
data_YbNiO3
_symmetry_space_group_name_H-M   'P 1'
_cell_length_a   5.17365208
_cell_length_b   5.40644752
_cell_length_c   7.39484748
_cell_angle_alpha   90.00000000
_cell_angle_beta   90.00932417
_cell_angle_gamma   90.00000000
_symmetry_Int_Tables_number   1
_chemical_formula_structural   YbNiO3
_chemical_formula_sum   'Yb4 Ni4 O12'
_cell_volume   206.84185621
_cell_formula_units_Z   4
loop_
 _symmetry_equiv_pos_site_id
 _symmetry_equiv_pos_as_xyz
  1  'x, y, z'
loop_
 _atom_site_type_symbol
 _atom_site_label
 _atom_site_symmetry_multiplicity
 _atom_site_fract_x
 _atom_site_fract_y
 _atom_site_fract_z
 _atom_site_occupancy
  O  O0  1  0.69561258  0.29694141  0.45748673  1
  O  O1  1  0.80438757  0.79694262  0.04251371  1
  O  O2  1  0.30438619  0.70305727  0.54251396  1
  O  O3  1  0.19561314  0.20305793  0.95748562  1
  O  O4  1  0.19565324  0.20302775  0.54249937  1
  O  O5  1  0.30434609  0.70302709  0.95750157  1
  O  O6  1  0.80434553  0.79697280  0.45750132  1
  O  O7  1  0.69565268  0.29697346  0.04249912  1
  O  O8  1  0.08664231  0.48438724  0.25000344  1
  O  O9  1  0.41335707  0.98438845  0.24999555  1
  O  O10  1  0.58664364  0.01561210  0.75000379  1
  O  O11  1  0.91335646  0.51561144  0.74999589  1
  Ni  Ni12  1  0.00000000  0.49999934  0.00000000  1
  Ni  Ni13  1  0.49999939  0.00000000  0.50000035  1
  Ni  Ni14  1  0.00000094  0.49999934  0.50000030  1
  Ni  Ni15  1  0.50000038  0.00000000  0.00000005  1
  Yb  Yb16  1  0.48008397  0.43212596  0.75003457  1
  Yb  Yb17  1  0.01991730  0.93212530  0.74996501  1
  Yb  Yb18  1  0.51991674  0.56787459  0.24996476  1
  Yb  Yb19  1  0.98008341  0.06787337  0.25003432  1
