# generated using pymatgen
data_ErCrO4
_symmetry_space_group_name_H-M   'P 1'
_cell_length_a   5.95247641
_cell_length_b   5.95247641
_cell_length_c   5.95247641
_cell_angle_alpha   106.04032025
_cell_angle_beta   106.04032029
_cell_angle_gamma   116.57523118
_symmetry_Int_Tables_number   1
_chemical_formula_structural   ErCrO4
_chemical_formula_sum   'Er2 Cr2 O8'
_cell_volume   160.46289155
_cell_formula_units_Z   2
loop_
 _symmetry_equiv_pos_site_id
 _symmetry_equiv_pos_as_xyz
  1  'x, y, z'
loop_
 _atom_site_type_symbol
 _atom_site_label
 _atom_site_symmetry_multiplicity
 _atom_site_fract_x
 _atom_site_fract_y
 _atom_site_fract_z
 _atom_site_occupancy
  O  O0  1  0.80107846  0.73604774  0.43496806  1
  O  O1  1  0.36610980  0.80107872  0.56502996  1
  O  O2  1  0.73604858  0.80107872  0.93496848  1
  O  O3  1  0.80107942  0.36611040  0.06503021  1
  O  O4  1  0.63388891  0.19891970  0.43496805  1
  O  O5  1  0.19892026  0.26395067  0.56503164  1
  O  O6  1  0.26395188  0.19891969  0.06503171  1
  O  O7  1  0.19892049  0.63389014  0.93496873  1
  Cr  Cr8  1  0.37500052  0.62500009  0.74999963  1
  Cr  Cr9  1  0.62499939  0.37500045  0.24999931  1
  Er  Er10  1  0.12500010  0.87500039  0.24999949  1
  Er  Er11  1  0.87499982  0.12500015  0.74999945  1
