# generated using pymatgen
data_K2CrO4
_symmetry_space_group_name_H-M   'P 1'
_cell_length_a   6.04799849
_cell_length_b   7.77111895
_cell_length_c   10.59316045
_cell_angle_alpha   90.00010859
_cell_angle_beta   90.00046907
_cell_angle_gamma   89.99994396
_symmetry_Int_Tables_number   1
_chemical_formula_structural   K2CrO4
_chemical_formula_sum   'K8 Cr4 O16'
_cell_volume   497.87552924
_cell_formula_units_Z   4
loop_
 _symmetry_equiv_pos_site_id
 _symmetry_equiv_pos_as_xyz
  1  'x, y, z'
loop_
 _atom_site_type_symbol
 _atom_site_label
 _atom_site_symmetry_multiplicity
 _atom_site_fract_x
 _atom_site_fract_y
 _atom_site_fract_z
 _atom_site_occupancy
  O  O0  1  0.97534697  0.79418819  0.65612142  1
  O  O1  1  0.47534341  0.20581377  0.34388463  1
  O  O2  1  0.52465371  0.29418744  0.84388768  1
  O  O3  1  0.02465857  0.70581124  0.15610559  1
  O  O4  1  0.02464724  0.20581133  0.34388369  1
  O  O5  1  0.52465041  0.79418753  0.65612296  1
  O  O6  1  0.47535499  0.70580929  0.15610598  1
  O  O7  1  0.97534977  0.29418762  0.84388785  1
  O  O8  1  0.24999647  0.19144151  0.56552960  1
  O  O9  1  0.74999791  0.80855873  0.43447585  1
  O  O10  1  0.25000568  0.69144023  0.93446074  1
  O  O11  1  0.75000173  0.30855540  0.06553292  1
  O  O12  1  0.75000140  0.01249184  0.92637339  1
  O  O13  1  0.25000765  0.98750466  0.07361841  1
  O  O14  1  0.75000051  0.51249496  0.57363608  1
  O  O15  1  0.24999358  0.48750725  0.42637161  1
  K  K16  1  0.75000096  0.66691382  0.92191494  1
  K  K17  1  0.24999920  0.33307928  0.07808422  1
  K  K18  1  0.74999740  0.16691432  0.57808559  1
  K  K19  1  0.24999851  0.83308415  0.42191741  1
  K  K20  1  0.25000233  0.00439173  0.79969300  1
  K  K21  1  0.74999978  0.99561153  0.20030442  1
  K  K22  1  0.24999625  0.50439449  0.70030809  1
  K  K23  1  0.75000358  0.49561314  0.29969515  1
  Cr  Cr24  1  0.74999573  0.22576133  0.91957585  1
  Cr  Cr25  1  0.25000286  0.77424361  0.08041628  1
  Cr  Cr26  1  0.75000060  0.72576396  0.58043691  1
  Cr  Cr27  1  0.24999280  0.27423766  0.41956976  1
