# generated using pymatgen
data_FeSO4
_symmetry_space_group_name_H-M   'P 1'
_cell_length_a   4.88860255
_cell_length_b   6.90836774
_cell_length_c   8.81787661
_cell_angle_alpha   90.00000000
_cell_angle_beta   90.00000000
_cell_angle_gamma   90.00000000
_symmetry_Int_Tables_number   1
_chemical_formula_structural   FeSO4
_chemical_formula_sum   'Fe4 S4 O16'
_cell_volume   297.79965812
_cell_formula_units_Z   4
loop_
 _symmetry_equiv_pos_site_id
 _symmetry_equiv_pos_as_xyz
  1  'x, y, z'
loop_
 _atom_site_type_symbol
 _atom_site_label
 _atom_site_symmetry_multiplicity
 _atom_site_fract_x
 _atom_site_fract_y
 _atom_site_fract_z
 _atom_site_occupancy
  O  O0  1  0.23776759  0.75000000  0.11976492  1
  O  O1  1  0.73776759  0.25000000  0.38023508  1
  O  O2  1  0.76223241  0.25000000  0.88023508  1
  O  O3  1  0.26223241  0.75000000  0.61976492  1
  O  O4  1  0.53089106  0.75000000  0.34817116  1
  O  O5  1  0.03089106  0.25000000  0.15182884  1
  O  O6  1  0.46910894  0.25000000  0.65182884  1
  O  O7  1  0.96910894  0.75000000  0.84817116  1
  O  O8  1  0.83561371  0.92816981  0.62556818  1
  O  O9  1  0.33561371  0.07183019  0.87443182  1
  O  O10  1  0.16438629  0.42816981  0.37443182  1
  O  O11  1  0.66438629  0.57183019  0.12556818  1
  O  O12  1  0.16438629  0.07183019  0.37443182  1
  O  O13  1  0.66438629  0.92816981  0.12556818  1
  O  O14  1  0.83561371  0.57183019  0.62556818  1
  O  O15  1  0.33561371  0.42816981  0.87443182  1
  S  S16  1  0.52567231  0.75000000  0.17682102  1
  S  S17  1  0.02567231  0.25000000  0.32317898  1
  S  S18  1  0.47432769  0.25000000  0.82317898  1
  S  S19  1  0.97432769  0.75000000  0.67682102  1
  Fe  Fe20  1  0.50000000  0.50000000  0.50000000  1
  Fe  Fe21  1  0.00000000  0.50000000  0.00000000  1
  Fe  Fe22  1  0.50000000  0.00000000  0.50000000  1
  Fe  Fe23  1  0.00000000  0.00000000  0.00000000  1
