# generated using pymatgen
data_Mn(SbO2)2
_symmetry_space_group_name_H-M   'P 1'
_cell_length_a   6.17494865
_cell_length_b   8.86296436
_cell_length_c   8.86296436
_cell_angle_alpha   90.00000000
_cell_angle_beta   90.00000000
_cell_angle_gamma   90.00000000
_symmetry_Int_Tables_number   1
_chemical_formula_structural   Mn(SbO2)2
_chemical_formula_sum   'Mn4 Sb8 O16'
_cell_volume   485.05541385
_cell_formula_units_Z   4
loop_
 _symmetry_equiv_pos_site_id
 _symmetry_equiv_pos_as_xyz
  1  'x, y, z'
loop_
 _atom_site_type_symbol
 _atom_site_label
 _atom_site_symmetry_multiplicity
 _atom_site_fract_x
 _atom_site_fract_y
 _atom_site_fract_z
 _atom_site_occupancy
  O  O0  1  0.50000000  0.85914866  0.40025617  1
  O  O1  1  0.50000000  0.14085134  0.59974383  1
  O  O2  1  0.00000000  0.40025617  0.14085134  1
  O  O3  1  0.00000000  0.59974383  0.85914866  1
  O  O4  1  0.00000000  0.90025617  0.35914866  1
  O  O5  1  0.50000000  0.64085134  0.90025617  1
  O  O6  1  0.50000000  0.35914866  0.09974383  1
  O  O7  1  0.00000000  0.09974383  0.64085134  1
  O  O8  1  0.75000000  0.68058051  0.18058051  1
  O  O9  1  0.25000000  0.81941949  0.68058051  1
  O  O10  1  0.25000000  0.18058051  0.31941949  1
  O  O11  1  0.75000000  0.31941949  0.81941949  1
  O  O12  1  0.25000000  0.68058051  0.18058051  1
  O  O13  1  0.75000000  0.81941949  0.68058051  1
  O  O14  1  0.75000000  0.18058051  0.31941949  1
  O  O15  1  0.25000000  0.31941949  0.81941949  1
  Mn  Mn16  1  0.25000000  0.00000000  0.50000000  1
  Mn  Mn17  1  0.75000000  0.50000000  0.00000000  1
  Mn  Mn18  1  0.75000000  0.00000000  0.50000000  1
  Mn  Mn19  1  0.25000000  0.50000000  0.00000000  1
  Sb  Sb20  1  0.00000000  0.81913641  0.83088956  1
  Sb  Sb21  1  0.50000000  0.16911044  0.81913641  1
  Sb  Sb22  1  0.50000000  0.83088956  0.18086359  1
  Sb  Sb23  1  0.00000000  0.18086359  0.16911044  1
  Sb  Sb24  1  0.00000000  0.68086359  0.33088956  1
  Sb  Sb25  1  0.00000000  0.31913641  0.66911044  1
  Sb  Sb26  1  0.50000000  0.66911044  0.68086359  1
  Sb  Sb27  1  0.50000000  0.33088956  0.31913641  1
