# generated using pymatgen
data_TbCrO4
_symmetry_space_group_name_H-M   'P 1'
_cell_length_a   6.01800285
_cell_length_b   6.01800286
_cell_length_c   6.01800285
_cell_angle_alpha   105.94716759
_cell_angle_beta   105.94716763
_cell_angle_gamma   116.77565758
_symmetry_Int_Tables_number   1
_chemical_formula_structural   TbCrO4
_chemical_formula_sum   'Tb2 Cr2 O8'
_cell_volume   165.70816803
_cell_formula_units_Z   2
loop_
 _symmetry_equiv_pos_site_id
 _symmetry_equiv_pos_as_xyz
  1  'x, y, z'
loop_
 _atom_site_type_symbol
 _atom_site_label
 _atom_site_symmetry_multiplicity
 _atom_site_fract_x
 _atom_site_fract_y
 _atom_site_fract_z
 _atom_site_occupancy
  O  O0  1  0.79905006  0.73252353  0.43347430  1
  O  O1  1  0.36557625  0.79904954  0.56652542  1
  O  O2  1  0.73252272  0.79904953  0.93347340  1
  O  O3  1  0.79904951  0.36557511  0.06652563  1
  O  O4  1  0.63442445  0.20095057  0.43347462  1
  O  O5  1  0.20095064  0.26747657  0.56652573  1
  O  O6  1  0.26747624  0.20095057  0.06652615  1
  O  O7  1  0.20095118  0.63442499  0.93347440  1
  Cr  Cr8  1  0.37499933  0.62500016  0.74999950  1
  Cr  Cr9  1  0.62499963  0.37499994  0.25000005  1
  Tb  Tb10  1  0.12499996  0.87500012  0.25000019  1
  Tb  Tb11  1  0.87500073  0.12499998  0.74999984  1
