# generated using pymatgen
data_NaVPO5
_symmetry_space_group_name_H-M   'P 1'
_cell_length_a   6.65718584
_cell_length_b   7.08464711
_cell_length_c   8.57228133
_cell_angle_alpha   90.00000000
_cell_angle_beta   90.00000000
_cell_angle_gamma   114.81393887
_symmetry_Int_Tables_number   1
_chemical_formula_structural   NaVPO5
_chemical_formula_sum   'Na4 V4 P4 O20'
_cell_volume   366.97450039
_cell_formula_units_Z   4
loop_
 _symmetry_equiv_pos_site_id
 _symmetry_equiv_pos_as_xyz
  1  'x, y, z'
loop_
 _atom_site_type_symbol
 _atom_site_label
 _atom_site_symmetry_multiplicity
 _atom_site_fract_x
 _atom_site_fract_y
 _atom_site_fract_z
 _atom_site_occupancy
  O  O0  1  0.34161977  0.12370004  0.96521638  1
  O  O1  1  0.65838023  0.37629996  0.46521638  1
  O  O2  1  0.65838023  0.87629996  0.03478362  1
  O  O3  1  0.34161977  0.62370004  0.53478362  1
  O  O4  1  0.74859886  0.74846826  0.31414326  1
  O  O5  1  0.25140114  0.75153174  0.81414326  1
  O  O6  1  0.25140114  0.25153174  0.68585674  1
  O  O7  1  0.74859886  0.24846826  0.18585674  1
  O  O8  1  0.92894370  0.39632027  0.68236737  1
  O  O9  1  0.07105630  0.10367973  0.18236737  1
  O  O10  1  0.07105630  0.60367973  0.31763263  1
  O  O11  1  0.92894370  0.89632027  0.81763263  1
  O  O12  1  0.14952837  0.87161815  0.53390735  1
  O  O13  1  0.85047163  0.62838185  0.03390735  1
  O  O14  1  0.85047163  0.12838185  0.46609265  1
  O  O15  1  0.14952837  0.37161815  0.96609265  1
  O  O16  1  0.56427556  0.09601525  0.67522924  1
  O  O17  1  0.43572444  0.40398475  0.17522924  1
  O  O18  1  0.43572444  0.90398475  0.32477076  1
  O  O19  1  0.56427556  0.59601525  0.82477076  1
  Na  Na20  1  0.74617759  0.73051602  0.58122926  1
  Na  Na21  1  0.25382241  0.76948398  0.08122926  1
  Na  Na22  1  0.25382241  0.26948398  0.41877074  1
  Na  Na23  1  0.74617759  0.23051602  0.91877074  1
  P  P24  1  0.24998804  0.25103026  0.06910403  1
  P  P25  1  0.75001196  0.24896974  0.56910403  1
  P  P26  1  0.75001196  0.74896974  0.93089597  1
  P  P27  1  0.24998804  0.75103026  0.43089597  1
  V  V28  1  0.24707065  0.51479673  0.75722629  1
  V  V29  1  0.75292935  0.98520327  0.25722629  1
  V  V30  1  0.75292935  0.48520327  0.24277371  1
  V  V31  1  0.24707065  0.01479673  0.74277371  1
