# generated using pymatgen
data_Sr2FeWO6
_symmetry_space_group_name_H-M   'P 1'
_cell_length_a   5.66991159
_cell_length_b   5.73570028
_cell_length_c   8.13988441
_cell_angle_alpha   90.12299273
_cell_angle_beta   90.00000000
_cell_angle_gamma   90.00000000
_symmetry_Int_Tables_number   1
_chemical_formula_structural   Sr2FeWO6
_chemical_formula_sum   'Sr4 Fe2 W2 O12'
_cell_volume   264.71586653
_cell_formula_units_Z   2
loop_
 _symmetry_equiv_pos_site_id
 _symmetry_equiv_pos_as_xyz
  1  'x, y, z'
loop_
 _atom_site_type_symbol
 _atom_site_label
 _atom_site_symmetry_multiplicity
 _atom_site_fract_x
 _atom_site_fract_y
 _atom_site_fract_z
 _atom_site_occupancy
  O  O0  1  0.71241191  0.26667301  0.53286585  1
  O  O1  1  0.21241191  0.23332699  0.96713415  1
  O  O2  1  0.28758809  0.73332699  0.46713415  1
  O  O3  1  0.78758809  0.76667301  0.03286585  1
  O  O4  1  0.76991641  0.79381886  0.46593391  1
  O  O5  1  0.26991641  0.70618114  0.03406609  1
  O  O6  1  0.23008359  0.20618114  0.53406609  1
  O  O7  1  0.73008359  0.29381886  0.96593391  1
  O  O8  1  0.51084937  0.93609831  0.73548027  1
  O  O9  1  0.01084937  0.56390169  0.76451973  1
  O  O10  1  0.48915063  0.06390169  0.26451973  1
  O  O11  1  0.98915063  0.43609831  0.23548027  1
  Fe  Fe12  1  0.50000000  0.00000000  0.00000000  1
  Fe  Fe13  1  0.00000000  0.50000000  0.50000000  1
  Sr  Sr14  1  0.97432696  0.00404493  0.75205978  1
  Sr  Sr15  1  0.47432696  0.49595507  0.74794022  1
  Sr  Sr16  1  0.52567304  0.50404493  0.25205978  1
  Sr  Sr17  1  0.02567304  0.99595507  0.24794022  1
  W  W18  1  0.00000000  0.50000000  0.00000000  1
  W  W19  1  0.50000000  0.00000000  0.50000000  1
