# generated using pymatgen
data_DyNiO3
_symmetry_space_group_name_H-M   'P 1'
_cell_length_a   5.21642652
_cell_length_b   5.62117051
_cell_length_c   7.45932614
_cell_angle_alpha   90.00000000
_cell_angle_beta   90.00000000
_cell_angle_gamma   90.00000000
_symmetry_Int_Tables_number   1
_chemical_formula_structural   DyNiO3
_chemical_formula_sum   'Dy4 Ni4 O12'
_cell_volume   218.72551579
_cell_formula_units_Z   4
loop_
 _symmetry_equiv_pos_site_id
 _symmetry_equiv_pos_as_xyz
  1  'x, y, z'
loop_
 _atom_site_type_symbol
 _atom_site_label
 _atom_site_symmetry_multiplicity
 _atom_site_fract_x
 _atom_site_fract_y
 _atom_site_fract_z
 _atom_site_occupancy
  O  O0  1  0.69715396  0.30754518  0.44787112  1
  O  O1  1  0.19715487  0.19245480  0.55212864  1
  O  O2  1  0.80284523  0.80754516  0.05212943  1
  O  O3  1  0.30284614  0.69245478  0.94787168  1
  O  O4  1  0.30284614  0.69245478  0.55212864  1
  O  O5  1  0.80284523  0.80754516  0.44787112  1
  O  O6  1  0.19715487  0.19245480  0.94787168  1
  O  O7  1  0.69715396  0.30754518  0.05212943  1
  O  O8  1  0.10477368  0.46909857  0.24999960  1
  O  O9  1  0.60477277  0.03090141  0.75000016  1
  O  O10  1  0.89522642  0.53090139  0.75000016  1
  O  O11  1  0.39522733  0.96909855  0.24999960  1
  Ni  Ni12  1  0.49999909  0.00000000  0.50000055  1
  Ni  Ni13  1  0.00000000  0.49999998  0.50000055  1
  Ni  Ni14  1  0.00000000  0.49999998  0.00000000  1
  Ni  Ni15  1  0.49999909  0.00000000  0.00000000  1
  Dy  Dy16  1  0.02117741  0.92254777  0.75000016  1
  Dy  Dy17  1  0.52117842  0.57745396  0.24999960  1
  Dy  Dy18  1  0.47882168  0.42254779  0.75000016  1
  Dy  Dy19  1  0.97882268  0.07745219  0.24999960  1
