# generated using pymatgen
data_Li10Cr3Co2Ni3O16
_symmetry_space_group_name_H-M   'P 1'
_cell_length_a   5.87379691
_cell_length_b   5.92352021
_cell_length_c   9.62333215
_cell_angle_alpha   89.85921027
_cell_angle_beta   90.20626947
_cell_angle_gamma   59.83543240
_symmetry_Int_Tables_number   1
_chemical_formula_structural   Li10Cr3Co2Ni3O16
_chemical_formula_sum   'Li10 Cr3 Co2 Ni3 O16'
_cell_volume   289.48377553
_cell_formula_units_Z   1
loop_
 _symmetry_equiv_pos_site_id
 _symmetry_equiv_pos_as_xyz
  1  'x, y, z'
loop_
 _atom_site_type_symbol
 _atom_site_label
 _atom_site_symmetry_multiplicity
 _atom_site_fract_x
 _atom_site_fract_y
 _atom_site_fract_z
 _atom_site_occupancy
  Li  Li0  1  0.38009260  0.80872411  0.93898450  1
  Li  Li1  1  0.79863234  0.79399786  0.94495568  1
  Li  Li2  1  0.68127034  0.63596755  0.71630974  1
  Li  Li3  1  0.81287569  0.37922756  0.94716215  1
  Li  Li4  1  0.99174219  0.98738229  0.01283450  1
  Li  Li5  1  0.00666876  0.97773294  0.51908570  1
  Li  Li6  1  0.61345003  0.18679251  0.44506929  1
  Li  Li7  1  0.19136017  0.59748832  0.44605843  1
  Li  Li8  1  0.32321753  0.31575579  0.21701485  1
  Li  Li9  1  0.18325921  0.19112156  0.44809900  1
  Cr  Cr10  1  0.82469170  0.81577316  0.21462082  1
  Cr  Cr11  1  0.33410268  0.81599568  0.21384313  1
  Cr  Cr12  1  0.17939702  0.63775449  0.71438345  1
  Co  Co13  1  0.67029408  0.64539116  0.46929720  1
  Co  Co14  1  0.33607804  0.31694036  0.96809194  1
  Ni  Ni15  1  0.82538200  0.32409846  0.21295768  1
  Ni  Ni16  1  0.66867440  0.15209684  0.71340612  1
  Ni  Ni17  1  0.17632813  0.15290938  0.71248203  1
  O  O18  1  0.84502694  0.79976129  0.58981261  1
  O  O19  1  0.50728952  0.96052452  0.34046320  1
  O  O20  1  0.65719859  0.66197319  0.09638661  1
  O  O21  1  0.34887230  0.79961777  0.59090487  1
  O  O22  1  0.96991064  0.50392351  0.34099341  1
  O  O23  1  0.99884803  0.97655383  0.32490765  1
  O  O24  1  0.50676665  0.50668778  0.34242405  1
  O  O25  1  0.83861736  0.31914506  0.58374929  1
  O  O26  1  0.48766685  0.47661505  0.84564895  1
  O  O27  1  0.16105230  0.65187241  0.09504183  1
  O  O28  1  0.02920925  0.48012723  0.84306676  1
  O  O29  1  0.33607830  0.32197657  0.59658114  1
  O  O30  1  0.65760958  0.14655437  0.08981191  1
  O  O31  1  0.48603703  0.02466592  0.84314168  1
  O  O32  1  0.16890362  0.14767552  0.08600416  1
  O  O33  1  0.01458612  0.97372298  0.82017571  1
