# generated using pymatgen
data_CrBO3
_symmetry_space_group_name_H-M   'P 1'
_cell_length_a   5.55272052
_cell_length_b   5.55272052
_cell_length_c   5.55272052
_cell_angle_alpha   49.47973240
_cell_angle_beta   49.47973244
_cell_angle_gamma   49.47973242
_symmetry_Int_Tables_number   1
_chemical_formula_structural   CrBO3
_chemical_formula_sum   'Cr2 B2 O6'
_cell_volume   90.93833327
_cell_formula_units_Z   2
loop_
 _symmetry_equiv_pos_site_id
 _symmetry_equiv_pos_as_xyz
  1  'x, y, z'
loop_
 _atom_site_type_symbol
 _atom_site_label
 _atom_site_symmetry_multiplicity
 _atom_site_fract_x
 _atom_site_fract_y
 _atom_site_fract_z
 _atom_site_occupancy
  B  B0  1  0.75000000  0.75000000  0.75000000  1
  B  B1  1  0.25000000  0.25000000  0.25000000  1
  O  O2  1  0.45200888  0.04799112  0.75000000  1
  O  O3  1  0.75000000  0.45200888  0.04799112  1
  O  O4  1  0.95200888  0.25000000  0.54799112  1
  O  O5  1  0.54799112  0.95200888  0.25000000  1
  O  O6  1  0.25000000  0.54799112  0.95200888  1
  O  O7  1  0.04799112  0.75000000  0.45200888  1
  Cr  Cr8  1  0.50000000  0.50000000  0.50000000  1
  Cr  Cr9  1  0.00000000  0.00000000  0.00000000  1
