# generated using pymatgen
data_LaCrO3
_symmetry_space_group_name_H-M   'P 1'
_cell_length_a   5.61169205
_cell_length_b   5.56728006
_cell_length_c   7.88797239
_cell_angle_alpha   90.00000000
_cell_angle_beta   90.00000000
_cell_angle_gamma   90.00000000
_symmetry_Int_Tables_number   1
_chemical_formula_structural   LaCrO3
_chemical_formula_sum   'La4 Cr4 O12'
_cell_volume   246.43493897
_cell_formula_units_Z   4
loop_
 _symmetry_equiv_pos_site_id
 _symmetry_equiv_pos_as_xyz
  1  'x, y, z'
loop_
 _atom_site_type_symbol
 _atom_site_label
 _atom_site_symmetry_multiplicity
 _atom_site_fract_x
 _atom_site_fract_y
 _atom_site_fract_z
 _atom_site_occupancy
  O  O0  1  0.71179542  0.28832558  0.54317760  1
  O  O1  1  0.21179542  0.21167442  0.95682240  1
  O  O2  1  0.78820458  0.78832558  0.45682240  1
  O  O3  1  0.28820458  0.71167442  0.04317760  1
  O  O4  1  0.28820458  0.71167442  0.45682240  1
  O  O5  1  0.78820458  0.78832558  0.04317760  1
  O  O6  1  0.21179542  0.21167442  0.54317760  1
  O  O7  1  0.71179542  0.28832558  0.95682240  1
  O  O8  1  0.51904266  0.91928062  0.75000000  1
  O  O9  1  0.01904266  0.58071938  0.75000000  1
  O  O10  1  0.98095734  0.41928062  0.25000000  1
  O  O11  1  0.48095734  0.08071938  0.25000000  1
  Cr  Cr12  1  0.00000000  0.50000000  0.50000000  1
  Cr  Cr13  1  0.50000000  0.00000000  0.00000000  1
  Cr  Cr14  1  0.50000000  0.00000000  0.50000000  1
  Cr  Cr15  1  0.00000000  0.50000000  0.00000000  1
  La  La16  1  0.03737114  0.99190140  0.25000000  1
  La  La17  1  0.53737114  0.50809860  0.25000000  1
  La  La18  1  0.46262886  0.49190140  0.75000000  1
  La  La19  1  0.96262886  0.00809860  0.75000000  1
