# generated using pymatgen
data_Li2WO4
_symmetry_space_group_name_H-M   'P 1'
_cell_length_a   5.17026874
_cell_length_b   5.82723900
_cell_length_c   5.82723899
_cell_angle_alpha   61.67988564
_cell_angle_beta   88.67057640
_cell_angle_gamma   88.67057640
_symmetry_Int_Tables_number   1
_chemical_formula_structural   Li2WO4
_chemical_formula_sum   'Li4 W2 O8'
_cell_volume   154.49564062
_cell_formula_units_Z   2
loop_
 _symmetry_equiv_pos_site_id
 _symmetry_equiv_pos_as_xyz
  1  'x, y, z'
loop_
 _atom_site_type_symbol
 _atom_site_label
 _atom_site_symmetry_multiplicity
 _atom_site_fract_x
 _atom_site_fract_y
 _atom_site_fract_z
 _atom_site_occupancy
  Li  Li0  1  0.27141724  0.45746792  0.15733659  1
  Li  Li1  1  0.22858276  0.84266341  0.54253208  1
  Li  Li2  1  0.72858276  0.54253208  0.84266341  1
  Li  Li3  1  0.77141724  0.15733659  0.45746792  1
  O  O4  1  0.86385694  0.77707298  0.48283820  1
  O  O5  1  0.36385694  0.48283820  0.77707298  1
  O  O6  1  0.42842219  0.99844241  0.20717100  1
  O  O7  1  0.07157781  0.79282900  0.00155759  1
  O  O8  1  0.57157781  0.00155759  0.79282900  1
  O  O9  1  0.92842219  0.20717100  0.99844241  1
  O  O10  1  0.13614306  0.22292702  0.51716180  1
  O  O11  1  0.63614306  0.51716180  0.22292702  1
  W  W12  1  0.25000000  0.16272840  0.83727160  1
  W  W13  1  0.75000000  0.83727160  0.16272840  1
