# generated using pymatgen
data_Na3MnPCO7
_symmetry_space_group_name_H-M   'P 1'
_cell_length_a   5.23853956
_cell_length_b   6.84016486
_cell_length_c   9.05767174
_cell_angle_alpha   90.00000000
_cell_angle_beta   89.81133518
_cell_angle_gamma   90.00000000
_symmetry_Int_Tables_number   1
_chemical_formula_structural   Na3MnPCO7
_chemical_formula_sum   'Na6 Mn2 P2 C2 O14'
_cell_volume   324.55702979
_cell_formula_units_Z   2
loop_
 _symmetry_equiv_pos_site_id
 _symmetry_equiv_pos_as_xyz
  1  'x, y, z'
loop_
 _atom_site_type_symbol
 _atom_site_label
 _atom_site_symmetry_multiplicity
 _atom_site_fract_x
 _atom_site_fract_y
 _atom_site_fract_z
 _atom_site_occupancy
  C  C0  1  0.26460032  0.25000000  0.93887296  1
  C  C1  1  0.73539968  0.75000000  0.06112704  1
  O  O2  1  0.82810089  0.25000000  0.56783083  1
  O  O3  1  0.17189911  0.75000000  0.43216917  1
  O  O4  1  0.21373154  0.93254817  0.67996234  1
  O  O5  1  0.78626846  0.43254817  0.32003766  1
  O  O6  1  0.78626846  0.06745183  0.32003766  1
  O  O7  1  0.21373154  0.56745183  0.67996234  1
  O  O8  1  0.71085070  0.75000000  0.91876027  1
  O  O9  1  0.28914930  0.25000000  0.08123973  1
  O  O10  1  0.59144932  0.75000000  0.56919481  1
  O  O11  1  0.40855068  0.25000000  0.43080519  1
  O  O12  1  0.03902614  0.25000000  0.87862766  1
  O  O13  1  0.96097386  0.75000000  0.12137234  1
  O  O14  1  0.46622557  0.25000000  0.85358233  1
  O  O15  1  0.53377443  0.75000000  0.14641767  1
  Na  Na16  1  0.75850155  0.25000000  0.08311401  1
  Na  Na17  1  0.24149845  0.75000000  0.91688599  1
  Na  Na18  1  0.24777609  0.49666521  0.26078440  1
  Na  Na19  1  0.75222391  0.99666521  0.73921560  1
  Na  Na20  1  0.75222391  0.50333479  0.73921560  1
  Na  Na21  1  0.24777609  0.00333479  0.26078440  1
  P  P22  1  0.70568347  0.25000000  0.41187065  1
  P  P23  1  0.29431653  0.75000000  0.58812935  1
  Mn  Mn24  1  0.77812135  0.75000000  0.36099641  1
  Mn  Mn25  1  0.22187865  0.25000000  0.63900359  1
