# generated using pymatgen
data_Tl2WO4
_symmetry_space_group_name_H-M   'P 1'
_cell_length_a   6.44006319
_cell_length_b   6.44006320
_cell_length_c   8.46381750
_cell_angle_alpha   90.00000000
_cell_angle_beta   90.00000000
_cell_angle_gamma   120.00000001
_symmetry_Int_Tables_number   1
_chemical_formula_structural   Tl2WO4
_chemical_formula_sum   'Tl4 W2 O8'
_cell_volume   304.00251734
_cell_formula_units_Z   2
loop_
 _symmetry_equiv_pos_site_id
 _symmetry_equiv_pos_as_xyz
  1  'x, y, z'
loop_
 _atom_site_type_symbol
 _atom_site_label
 _atom_site_symmetry_multiplicity
 _atom_site_fract_x
 _atom_site_fract_y
 _atom_site_fract_z
 _atom_site_occupancy
  O  O0  1  0.81998268  0.18001732  0.76072247  1
  O  O1  1  0.81998268  0.63996537  0.76072247  1
  O  O2  1  0.36003463  0.18001732  0.76072247  1
  O  O3  1  0.63996537  0.81998268  0.23927753  1
  O  O4  1  0.18001732  0.36003463  0.23927753  1
  O  O5  1  0.18001732  0.81998268  0.23927753  1
  O  O6  1  0.66666667  0.33333333  0.47203520  1
  O  O7  1  0.33333333  0.66666667  0.52796480  1
  W  W8  1  0.33333333  0.66666667  0.31270995  1
  W  W9  1  0.66666667  0.33333333  0.68729005  1
  Tl  Tl10  1  0.33333333  0.66666667  0.81373728  1
  Tl  Tl11  1  0.66666667  0.33333333  0.18626272  1
  Tl  Tl12  1  0.00000000  0.00000000  0.50000000  1
  Tl  Tl13  1  0.00000000  0.00000000  0.00000000  1
