# generated using pymatgen
data_NaCaVO4
_symmetry_space_group_name_H-M   'P 1'
_cell_length_a   5.57766170
_cell_length_b   5.57766170
_cell_length_c   7.20486927
_cell_angle_alpha   90.00000000
_cell_angle_beta   90.00000000
_cell_angle_gamma   115.19746638
_symmetry_Int_Tables_number   1
_chemical_formula_structural   NaCaVO4
_chemical_formula_sum   'Na2 Ca2 V2 O8'
_cell_volume   202.81732843
_cell_formula_units_Z   2
loop_
 _symmetry_equiv_pos_site_id
 _symmetry_equiv_pos_as_xyz
  1  'x, y, z'
loop_
 _atom_site_type_symbol
 _atom_site_label
 _atom_site_symmetry_multiplicity
 _atom_site_fract_x
 _atom_site_fract_y
 _atom_site_fract_z
 _atom_site_occupancy
  O  O0  1  0.25484322  0.74515678  0.05658970  1
  O  O1  1  0.74515678  0.25484322  0.55658970  1
  O  O2  1  0.74515678  0.25484322  0.94341030  1
  O  O3  1  0.25484322  0.74515678  0.44341030  1
  O  O4  1  0.20309244  0.27767231  0.75000000  1
  O  O5  1  0.79690756  0.72232769  0.25000000  1
  O  O6  1  0.72232769  0.79690756  0.75000000  1
  O  O7  1  0.27767231  0.20309244  0.25000000  1
  Na  Na8  1  0.17861317  0.82138683  0.75000000  1
  Na  Na9  1  0.82138683  0.17861317  0.25000000  1
  Ca  Ca10  1  0.50000000  0.50000000  0.50000000  1
  Ca  Ca11  1  0.50000000  0.50000000  0.00000000  1
  V  V12  1  0.85199642  0.14800358  0.75000000  1
  V  V13  1  0.14800358  0.85199642  0.25000000  1
