# generated using pymatgen
data_WO3
_symmetry_space_group_name_H-M   'P 1'
_cell_length_a   7.68856255
_cell_length_b   7.70989973
_cell_length_c   7.77023359
_cell_angle_alpha   90.00000000
_cell_angle_beta   90.06000299
_cell_angle_gamma   90.00000000
_symmetry_Int_Tables_number   1
_chemical_formula_structural   WO3
_chemical_formula_sum   'W8 O24'
_cell_volume   460.60401393
_cell_formula_units_Z   8
loop_
 _symmetry_equiv_pos_site_id
 _symmetry_equiv_pos_as_xyz
  1  'x, y, z'
loop_
 _atom_site_type_symbol
 _atom_site_label
 _atom_site_symmetry_multiplicity
 _atom_site_fract_x
 _atom_site_fract_y
 _atom_site_fract_z
 _atom_site_occupancy
  O  O0  1  0.00113665  0.01572248  0.24236920  1
  O  O1  1  0.49886335  0.51572248  0.25763080  1
  O  O2  1  0.99886335  0.98427752  0.75763080  1
  O  O3  1  0.50113665  0.48427752  0.74236920  1
  O  O4  1  0.99887408  0.48406115  0.24240474  1
  O  O5  1  0.50112592  0.98406115  0.25759526  1
  O  O6  1  0.00112592  0.51593885  0.75759526  1
  O  O7  1  0.49887408  0.01593885  0.74240474  1
  O  O8  1  0.26605032  0.25302921  0.25538691  1
  O  O9  1  0.23394968  0.75302921  0.24461309  1
  O  O10  1  0.73394968  0.74697079  0.74461309  1
  O  O11  1  0.76605032  0.24697079  0.75538691  1
  O  O12  1  0.23372577  0.25306115  0.74677403  1
  O  O13  1  0.26627423  0.75306115  0.75322597  1
  O  O14  1  0.76627423  0.74693885  0.25322597  1
  O  O15  1  0.73372577  0.24693885  0.24677403  1
  O  O16  1  0.25724900  0.00684404  0.00329789  1
  O  O17  1  0.24275100  0.50684404  0.49670211  1
  O  O18  1  0.74275100  0.99315596  0.99670211  1
  O  O19  1  0.75724900  0.49315596  0.50329789  1
  O  O20  1  0.25724100  0.49814911  0.99671359  1
  O  O21  1  0.24275900  0.99814911  0.50328641  1
  O  O22  1  0.74275900  0.50185089  0.00328641  1
  O  O23  1  0.75724100  0.00185089  0.49671359  1
  W  W24  1  0.25561660  0.00991361  0.26560134  1
  W  W25  1  0.24438340  0.50991361  0.23439866  1
  W  W26  1  0.74438340  0.99008639  0.73439866  1
  W  W27  1  0.75561660  0.49008639  0.76560134  1
  W  W28  1  0.24440273  0.01020080  0.76535392  1
  W  W29  1  0.25559727  0.51020080  0.73464608  1
  W  W30  1  0.75559727  0.98979920  0.23464608  1
  W  W31  1  0.74440273  0.48979920  0.26535392  1
