# generated using pymatgen
data_Sr2MnWO6
_symmetry_space_group_name_H-M   'P 1'
_cell_length_a   5.79004104
_cell_length_b   5.74659980
_cell_length_c   8.12984572
_cell_angle_alpha   90.07632256
_cell_angle_beta   90.00000000
_cell_angle_gamma   90.00000000
_symmetry_Int_Tables_number   1
_chemical_formula_structural   Sr2MnWO6
_chemical_formula_sum   'Sr4 Mn2 W2 O12'
_cell_volume   270.50451228
_cell_formula_units_Z   2
loop_
 _symmetry_equiv_pos_site_id
 _symmetry_equiv_pos_as_xyz
  1  'x, y, z'
loop_
 _atom_site_type_symbol
 _atom_site_label
 _atom_site_symmetry_multiplicity
 _atom_site_fract_x
 _atom_site_fract_y
 _atom_site_fract_z
 _atom_site_occupancy
  O  O0  1  0.27015477  0.30094436  0.46204375  1
  O  O1  1  0.77015477  0.19905564  0.03795625  1
  O  O2  1  0.72984523  0.69905564  0.53795625  1
  O  O3  1  0.22984523  0.80094436  0.96204375  1
  O  O4  1  0.20184066  0.76936686  0.53443332  1
  O  O5  1  0.70184066  0.73063314  0.96556668  1
  O  O6  1  0.79815934  0.23063314  0.46556668  1
  O  O7  1  0.29815934  0.26936686  0.03443332  1
  O  O8  1  0.01715046  0.43103821  0.73550668  1
  O  O9  1  0.51715046  0.06896179  0.76449332  1
  O  O10  1  0.98284954  0.56896179  0.26449332  1
  O  O11  1  0.48284954  0.93103821  0.23550668  1
  Mn  Mn12  1  0.50000000  0.00000000  0.50000000  1
  Mn  Mn13  1  0.00000000  0.50000000  0.00000000  1
  Sr  Sr14  1  0.03216559  0.00603378  0.25074246  1
  Sr  Sr15  1  0.53216559  0.49396622  0.24925754  1
  Sr  Sr16  1  0.46783441  0.50603378  0.75074246  1
  Sr  Sr17  1  0.96783441  0.99396622  0.74925754  1
  W  W18  1  0.00000000  0.50000000  0.50000000  1
  W  W19  1  0.50000000  0.00000000  0.00000000  1
