# generated using pymatgen
data_Na4WO5
_symmetry_space_group_name_H-M   'P 1'
_cell_length_a   5.74220015
_cell_length_b   5.77678674
_cell_length_c   8.61041341
_cell_angle_alpha   109.21437965
_cell_angle_beta   101.32926927
_cell_angle_gamma   102.32052243
_symmetry_Int_Tables_number   1
_chemical_formula_structural   Na4WO5
_chemical_formula_sum   'Na8 W2 O10'
_cell_volume   252.24914113
_cell_formula_units_Z   2
loop_
 _symmetry_equiv_pos_site_id
 _symmetry_equiv_pos_as_xyz
  1  'x, y, z'
loop_
 _atom_site_type_symbol
 _atom_site_label
 _atom_site_symmetry_multiplicity
 _atom_site_fract_x
 _atom_site_fract_y
 _atom_site_fract_z
 _atom_site_occupancy
  O  O0  1  0.60413403  0.62928077  0.84416113  1
  O  O1  1  0.39586597  0.37071923  0.15583887  1
  O  O2  1  0.69232584  0.82157919  0.60066632  1
  O  O3  1  0.30767416  0.17842081  0.39933368  1
  O  O4  1  0.80527809  0.02000873  0.24176907  1
  O  O5  1  0.19472191  0.97999127  0.75823093  1
  O  O6  1  0.88614586  0.15416105  0.96342233  1
  O  O7  1  0.11385414  0.84583895  0.03657767  1
  O  O8  1  0.05512294  0.52346011  0.31448294  1
  O  O9  1  0.94487706  0.47653989  0.68551706  1
  Na  Na10  1  0.21050660  0.41466070  0.90223882  1
  Na  Na11  1  0.41230208  0.80021111  0.29284938  1
  Na  Na12  1  0.69997547  0.39503083  0.39791776  1
  Na  Na13  1  0.30002453  0.60496917  0.60208224  1
  Na  Na14  1  0.78949340  0.58533930  0.09776118  1
  Na  Na15  1  0.00000000  0.00000000  0.50000000  1
  Na  Na16  1  0.50000000  0.00000000  0.00000000  1
  Na  Na17  1  0.58769792  0.19978889  0.70715062  1
  W  W18  1  0.89656849  0.79819923  0.79509943  1
  W  W19  1  0.10343151  0.20180077  0.20490057  1
