# generated using pymatgen
data_K2FeO4
_symmetry_space_group_name_H-M   'P 1'
_cell_length_a   5.93957350
_cell_length_b   7.79707035
_cell_length_c   10.50771148
_cell_angle_alpha   90.00000000
_cell_angle_beta   90.00000000
_cell_angle_gamma   90.00000000
_symmetry_Int_Tables_number   1
_chemical_formula_structural   K2FeO4
_chemical_formula_sum   'K8 Fe4 O16'
_cell_volume   486.62548895
_cell_formula_units_Z   4
loop_
 _symmetry_equiv_pos_site_id
 _symmetry_equiv_pos_as_xyz
  1  'x, y, z'
loop_
 _atom_site_type_symbol
 _atom_site_label
 _atom_site_symmetry_multiplicity
 _atom_site_fract_x
 _atom_site_fract_y
 _atom_site_fract_z
 _atom_site_occupancy
  O  O0  1  0.97865148  0.80677989  0.85074069  1
  O  O1  1  0.47865074  0.19321998  0.14925963  1
  O  O2  1  0.52134904  0.30677995  0.64925932  1
  O  O3  1  0.02134831  0.69321991  0.35074101  1
  O  O4  1  0.02134831  0.19321998  0.14925963  1
  O  O5  1  0.52134904  0.80677989  0.85074069  1
  O  O6  1  0.47865074  0.69321991  0.35074101  1
  O  O7  1  0.97865148  0.30677995  0.64925932  1
  O  O8  1  0.24999953  0.20118157  0.92738595  1
  O  O9  1  0.75000026  0.79881830  0.07261342  1
  O  O10  1  0.24999953  0.70118150  0.57261406  1
  O  O11  1  0.75000026  0.29881836  0.42738627  1
  O  O12  1  0.75000026  0.01800983  0.58330236  1
  O  O13  1  0.24999953  0.98199003  0.41669797  1
  O  O14  1  0.24999953  0.48199010  0.08330172  1
  O  O15  1  0.75000026  0.51800976  0.91669765  1
  K  K16  1  0.24999953  0.51358053  0.80378101  1
  K  K17  1  0.75000026  0.48641933  0.19621932  1
  K  K18  1  0.24999953  0.01358060  0.69621900  1
  K  K19  1  0.75000026  0.98641926  0.30378037  1
  K  K20  1  0.24999953  0.83670599  0.08508207  1
  K  K21  1  0.75000026  0.16329388  0.91491826  1
  K  K22  1  0.75000026  0.66329381  0.58508175  1
  K  K23  1  0.24999953  0.33670605  0.41491762  1
  Fe  Fe24  1  0.24999953  0.26993982  0.07774176  1
  Fe  Fe25  1  0.75000026  0.73006004  0.92225856  1
  Fe  Fe26  1  0.24999953  0.76993975  0.42225888  1
  Fe  Fe27  1  0.75000026  0.23006011  0.57774145  1
