# generated using pymatgen
data_Ca2MgWO6
_symmetry_space_group_name_H-M   'P 1'
_cell_length_a   5.47486927
_cell_length_b   5.63732390
_cell_length_c   7.81867850
_cell_angle_alpha   90.00000000
_cell_angle_beta   90.17839416
_cell_angle_gamma   90.00000000
_symmetry_Int_Tables_number   1
_chemical_formula_structural   Ca2MgWO6
_chemical_formula_sum   'Ca4 Mg2 W2 O12'
_cell_volume   241.31148517
_cell_formula_units_Z   2
loop_
 _symmetry_equiv_pos_site_id
 _symmetry_equiv_pos_as_xyz
  1  'x, y, z'
loop_
 _atom_site_type_symbol
 _atom_site_label
 _atom_site_symmetry_multiplicity
 _atom_site_fract_x
 _atom_site_fract_y
 _atom_site_fract_z
 _atom_site_occupancy
  O  O0  1  0.71230844  0.69530539  0.54499960  1
  O  O1  1  0.78769156  0.19530539  0.95500040  1
  O  O2  1  0.28769156  0.30469461  0.45500040  1
  O  O3  1  0.21230844  0.80469461  0.04499960  1
  O  O4  1  0.19174907  0.78465289  0.44846995  1
  O  O5  1  0.30825093  0.28465289  0.05153005  1
  O  O6  1  0.80825093  0.21534711  0.55153005  1
  O  O7  1  0.69174907  0.71534711  0.94846995  1
  O  O8  1  0.09217709  0.53058300  0.74071948  1
  O  O9  1  0.40782291  0.03058300  0.75928052  1
  O  O10  1  0.90782291  0.46941700  0.25928052  1
  O  O11  1  0.59217709  0.96941700  0.24071948  1
  Mg  Mg12  1  0.00000000  0.50000000  0.00000000  1
  Mg  Mg13  1  0.50000000  0.00000000  0.50000000  1
  Ca  Ca14  1  0.98797662  0.94917455  0.75248825  1
  Ca  Ca15  1  0.51202338  0.44917455  0.74751175  1
  Ca  Ca16  1  0.48797662  0.55082545  0.25248825  1
  Ca  Ca17  1  0.01202338  0.05082545  0.24751175  1
  W  W18  1  0.50000000  0.00000000  0.00000000  1
  W  W19  1  0.00000000  0.50000000  0.50000000  1
