# generated using pymatgen
data_Ta2Zn4O9
_symmetry_space_group_name_H-M   'P 1'
_cell_length_a   9.46592935
_cell_length_b   5.26078806
_cell_length_c   13.32394222
_cell_angle_alpha   90.00000000
_cell_angle_beta   87.54723898
_cell_angle_gamma   90.00000000
_symmetry_Int_Tables_number   1
_chemical_formula_structural   Ta2Zn4O9
_chemical_formula_sum   'Ta8 Zn16 O36'
_cell_volume   662.90110377
_cell_formula_units_Z   4
loop_
 _symmetry_equiv_pos_site_id
 _symmetry_equiv_pos_as_xyz
  1  'x, y, z'
loop_
 _atom_site_type_symbol
 _atom_site_label
 _atom_site_symmetry_multiplicity
 _atom_site_fract_x
 _atom_site_fract_y
 _atom_site_fract_z
 _atom_site_occupancy
  Ta  Ta0  1  0.16075748  0.49365797  0.83990166  1
  Ta  Ta1  1  0.16623116  0.51043620  0.33891274  1
  Ta  Ta2  1  0.33924252  0.99365797  0.66009834  1
  Ta  Ta3  1  0.33376884  0.01043620  0.16108726  1
  Ta  Ta4  1  0.66623116  0.98956380  0.83891274  1
  Ta  Ta5  1  0.66075748  0.00634203  0.33990166  1
  Ta  Ta6  1  0.83376884  0.48956380  0.66108726  1
  Ta  Ta7  1  0.83924252  0.50634203  0.16009834  1
  Zn  Zn8  1  0.00000000  0.00000000  0.50000000  1
  Zn  Zn9  1  0.00000000  0.00000000  0.00000000  1
  Zn  Zn10  1  0.00782308  0.01071341  0.23730045  1
  Zn  Zn11  1  0.16124038  0.49986569  0.59373882  1
  Zn  Zn12  1  0.18808067  0.49884005  0.07381922  1
  Zn  Zn13  1  0.31191933  -0.00115995  0.42618078  1
  Zn  Zn14  1  0.33875962  0.99986569  0.90626118  1
  Zn  Zn15  1  0.49217692  0.51071341  0.26269955  1
  Zn  Zn16  1  0.50000000  0.50000000  0.50000000  1
  Zn  Zn17  1  0.50782308  0.48928659  0.73730045  1
  Zn  Zn18  1  0.50000000  0.50000000  0.00000000  1
  Zn  Zn19  1  0.66124038  0.00013431  0.09373882  1
  Zn  Zn20  1  0.68808067  0.00115995  0.57381922  1
  Zn  Zn21  1  0.81191933  0.50115995  0.92618078  1
  Zn  Zn22  1  0.83875962  0.50013431  0.40626118  1
  Zn  Zn23  1  0.99217692  0.98928659  0.76269955  1
  O  O24  1  0.02418499  0.61348662  0.72343359  1
  O  O25  1  0.00195819  0.33781335  0.90988038  1
  O  O26  1  0.06150923  0.82025201  0.36658960  1
  O  O27  1  0.11439964  0.33458039  0.46308341  1
  O  O28  1  0.14701458  0.81907282  0.90722481  1
  O  O29  1  0.14873416  0.12485087  0.11431165  1
  O  O30  1  0.20574577  0.87128510  0.56156871  1
  O  O31  1  0.18684070  0.17012761  0.75315852  1
  O  O32  1  0.23896221  0.67184315  0.20654266  1
  O  O33  1  0.26103779  0.17184315  0.29345734  1
  O  O34  1  0.31315930  0.67012761  0.74684148  1
  O  O35  1  0.29425423  0.37128510  0.93843129  1
  O  O36  1  0.35126584  0.62485087  0.38568835  1
  O  O37  1  0.35298542  0.31907282  0.59277519  1
  O  O38  1  0.38560036  0.83458039  0.03691659  1
  O  O39  1  0.43849077  0.32025201  0.13341040  1
  O  O40  1  0.49804181  0.83781335  0.59011962  1
  O  O41  1  0.47581501  0.11348662  0.77656641  1
  O  O42  1  0.52418499  0.88651338  0.22343359  1
  O  O43  1  0.50195819  0.16218665  0.40988038  1
  O  O44  1  0.56150923  0.67974799  0.86658960  1
  O  O45  1  0.61439964  0.16541961  0.96308341  1
  O  O46  1  0.64701458  0.68092718  0.40722481  1
  O  O47  1  0.64873416  0.37514913  0.61431165  1
  O  O48  1  0.70574577  0.62871490  0.06156871  1
  O  O49  1  0.68684070  0.32987239  0.25315852  1
  O  O50  1  0.73896221  0.82815685  0.70654266  1
  O  O51  1  0.76103779  0.32815685  0.79345734  1
  O  O52  1  0.81315930  0.82987239  0.24684148  1
  O  O53  1  0.79425423  0.12871490  0.43843129  1
  O  O54  1  0.85126584  0.87514913  0.88568835  1
  O  O55  1  0.85298542  0.18092718  0.09277519  1
  O  O56  1  0.88560036  0.66541961  0.53691659  1
  O  O57  1  0.93849077  0.17974799  0.63341040  1
  O  O58  1  0.99804181  0.66218665  0.09011962  1
  O  O59  1  0.97581501  0.38651338  0.27656641  1
