# generated using pymatgen
data_CaMoO4
_symmetry_space_group_name_H-M   'P 1'
_cell_length_a   5.30759540
_cell_length_b   5.30759540
_cell_length_c   6.90843797
_cell_angle_alpha   112.59027099
_cell_angle_beta   112.59027099
_cell_angle_gamma   90.00000000
_symmetry_Int_Tables_number   1
_chemical_formula_structural   CaMoO4
_chemical_formula_sum   'Ca2 Mo2 O8'
_cell_volume   163.39229714
_cell_formula_units_Z   2
loop_
 _symmetry_equiv_pos_site_id
 _symmetry_equiv_pos_as_xyz
  1  'x, y, z'
loop_
 _atom_site_type_symbol
 _atom_site_label
 _atom_site_symmetry_multiplicity
 _atom_site_fract_x
 _atom_site_fract_y
 _atom_site_fract_z
 _atom_site_occupancy
  Ca  Ca0  1  0.62500000  0.87500000  0.25000000  1
  Ca  Ca1  1  0.37500000  0.12500000  0.75000000  1
  Mo  Mo2  1  0.12500000  0.37500000  0.25000000  1
  Mo  Mo3  1  0.87500000  0.62500000  0.75000000  1
  O  O4  1  0.79531660  0.43849348  0.08140619  1
  O  O5  1  0.28608958  0.14291270  0.08140619  1
  O  O6  1  0.93849348  0.78608958  0.58140619  1
  O  O7  1  0.64291270  0.29531660  0.58140619  1
  O  O8  1  0.20468340  0.56150652  0.91859381  1
  O  O9  1  0.71391042  0.85708730  0.91859381  1
  O  O10  1  0.06150652  0.21391042  0.41859381  1
  O  O11  1  0.35708730  0.70468340  0.41859381  1
