# generated using pymatgen
data_La2MoO6
_symmetry_space_group_name_H-M   'P 1'
_cell_length_a   5.83385706
_cell_length_b   5.83385705
_cell_length_c   16.71375090
_cell_angle_alpha   100.05088199
_cell_angle_beta   100.05088200
_cell_angle_gamma   90.00000000
_symmetry_Int_Tables_number   1
_chemical_formula_structural   La2MoO6
_chemical_formula_sum   'La8 Mo4 O24'
_cell_volume   551.23608155
_cell_formula_units_Z   4
loop_
 _symmetry_equiv_pos_site_id
 _symmetry_equiv_pos_as_xyz
  1  'x, y, z'
loop_
 _atom_site_type_symbol
 _atom_site_label
 _atom_site_symmetry_multiplicity
 _atom_site_fract_x
 _atom_site_fract_y
 _atom_site_fract_z
 _atom_site_occupancy
  O  O0  1  0.75000000  0.99369246  0.50000000  1
  O  O1  1  0.00630754  0.25000000  0.00000000  1
  O  O2  1  0.49369246  0.75000000  0.00000000  1
  O  O3  1  0.25000000  0.50630754  0.50000000  1
  O  O4  1  0.25000000  0.00630754  0.50000000  1
  O  O5  1  0.99369246  0.75000000  0.00000000  1
  O  O6  1  0.50630754  0.25000000  0.00000000  1
  O  O7  1  0.75000000  0.49369246  0.50000000  1
  O  O8  1  0.32880752  0.24070618  0.82140964  1
  O  O9  1  0.41929654  0.00739787  0.67859036  1
  O  O10  1  0.75929382  0.67119248  0.67859036  1
  O  O11  1  0.50739787  0.25929382  0.17859036  1
  O  O12  1  0.00739787  0.41929654  0.17859036  1
  O  O13  1  0.25929382  0.50739787  0.67859036  1
  O  O14  1  0.91929654  0.17119248  0.67859036  1
  O  O15  1  0.82880752  0.08070346  0.82140964  1
  O  O16  1  0.49260213  0.74070618  0.82140964  1
  O  O17  1  0.24070618  0.32880752  0.32140964  1
  O  O18  1  0.58070346  0.99260213  0.32140964  1
  O  O19  1  0.67119248  0.75929382  0.17859036  1
  O  O20  1  0.99260213  0.58070346  0.82140964  1
  O  O21  1  0.74070618  0.49260213  0.32140964  1
  O  O22  1  0.08070346  0.82880752  0.32140964  1
  O  O23  1  0.17119248  0.91929654  0.17859036  1
  Mo  Mo24  1  0.37500000  0.12500000  0.25000000  1
  Mo  Mo25  1  0.62500000  0.87500000  0.75000000  1
  Mo  Mo26  1  0.12500000  0.37500000  0.75000000  1
  Mo  Mo27  1  0.87500000  0.62500000  0.25000000  1
  La  La28  1  0.21188466  0.96188466  0.92376932  1
  La  La29  1  0.46188466  0.71188466  0.42376932  1
  La  La30  1  0.28811534  0.53811534  0.07623068  1
  La  La31  1  0.03811534  0.78811534  0.57623068  1
  La  La32  1  0.78811534  0.03811534  0.07623068  1
  La  La33  1  0.53811534  0.28811534  0.57623068  1
  La  La34  1  0.71188466  0.46188466  0.92376932  1
  La  La35  1  0.96188466  0.21188466  0.42376932  1
