# generated using pymatgen
data_KCr3O8
_symmetry_space_group_name_H-M   'P 1'
_cell_length_a   5.22717394
_cell_length_b   5.22717395
_cell_length_c   7.85729904
_cell_angle_alpha   86.89253977
_cell_angle_beta   86.89253981
_cell_angle_gamma   63.86466520
_symmetry_Int_Tables_number   1
_chemical_formula_structural   KCr3O8
_chemical_formula_sum   'K1 Cr3 O8'
_cell_volume   192.34361612
_cell_formula_units_Z   1
loop_
 _symmetry_equiv_pos_site_id
 _symmetry_equiv_pos_as_xyz
  1  'x, y, z'
loop_
 _atom_site_type_symbol
 _atom_site_label
 _atom_site_symmetry_multiplicity
 _atom_site_fract_x
 _atom_site_fract_y
 _atom_site_fract_z
 _atom_site_occupancy
  O  O0  1  0.77881982  0.27642600  0.68003350  1
  O  O1  1  0.72357400  0.22118018  0.31996650  1
  O  O2  1  0.22118018  0.72357400  0.31996650  1
  O  O3  1  0.27642600  0.77881982  0.68003350  1
  O  O4  1  0.22039953  0.22039953  0.43771190  1
  O  O5  1  0.77960047  0.77960047  0.56228810  1
  O  O6  1  0.68816443  0.68816443  0.89798309  1
  O  O7  1  0.31183557  0.31183557  0.10201691  1
  K  K8  1  0.00000000  0.00000000  0.00000000  1
  Cr  Cr9  1  0.63326244  0.63326244  0.70484038  1
  Cr  Cr10  1  0.00000000  0.00000000  0.50000000  1
  Cr  Cr11  1  0.36673756  0.36673756  0.29515962  1
