# generated using pymatgen
data_H13Se2N3O8
_symmetry_space_group_name_H-M   'P 1'
_cell_length_a   6.09980696
_cell_length_b   8.84361307
_cell_length_c   10.67048834
_cell_angle_alpha   101.75977567
_cell_angle_beta   90.40432710
_cell_angle_gamma   110.04758767
_symmetry_Int_Tables_number   1
_chemical_formula_structural   H13Se2N3O8
_chemical_formula_sum   'H26 Se4 N6 O16'
_cell_volume   527.53042776
_cell_formula_units_Z   2
loop_
 _symmetry_equiv_pos_site_id
 _symmetry_equiv_pos_as_xyz
  1  'x, y, z'
loop_
 _atom_site_type_symbol
 _atom_site_label
 _atom_site_symmetry_multiplicity
 _atom_site_fract_x
 _atom_site_fract_y
 _atom_site_fract_z
 _atom_site_occupancy
  H  H0  1  0.04119455  0.48249684  0.32174171  1
  H  H1  1  0.96594150  0.52497471  0.68002941  1
  H  H2  1  0.37647864  0.36195380  0.22900785  1
  H  H3  1  0.62532037  0.64397483  0.77165554  1
  H  H4  1  0.86472667  0.05645206  0.20598832  1
  H  H5  1  0.13255247  0.91810985  0.78585862  1
  H  H6  1  0.54487610  0.53225513  0.18036487  1
  H  H7  1  0.46153257  0.47305861  0.82067346  1
  H  H8  1  0.92393509  0.63377200  0.36319770  1
  H  H9  1  0.07790722  0.37068972  0.63774349  1
  H  H10  1  0.68819216  0.07519090  0.32388200  1
  H  H11  1  0.32153866  0.91855046  0.67252616  1
  H  H12  1  0.15165333  0.65899233  0.26737085  1
  H  H13  1  0.85054021  0.34766427  0.73243862  1
  H  H14  1  0.35249764  0.37383518  0.07135238  1
  H  H15  1  0.65198311  0.63127539  0.93004779  1
  H  H16  1  0.59958899  0.35641928  0.13373056  1
  H  H17  1  0.40114993  0.64684617  0.86799179  1
  H  H18  1  0.78427623  0.91301163  0.29527245  1
  H  H19  1  0.19469073  0.06598227  0.70083319  1
  H  H20  1  0.19790421  0.66093830  0.42555856  1
  H  H21  1  0.80841729  0.34790270  0.57476301  1
  H  H22  1  0.58165131  0.91872224  0.19187281  1
  H  H23  1  0.40098465  0.07144900  0.80813283  1
  H  H24  1  0.03308555  0.99985436  0.48690927  1
  H  H25  1  0.97086942  0.00015069  0.98704146  1
  Se  Se26  1  0.11359671  0.78021514  0.03937147  1
  Se  Se27  1  0.88590034  0.22719168  0.95942825  1
  Se  Se28  1  0.33860817  0.22654796  0.45719674  1
  Se  Se29  1  0.67230788  0.78179637  0.54152225  1
  N  N30  1  0.07811928  0.60787777  0.34435372  1
  N  N31  1  0.92652359  0.39894218  0.65647110  1
  N  N32  1  0.46748587  0.40619159  0.15359896  1
  N  N33  1  0.53559119  0.59911668  0.84753035  1
  N  N34  1  0.73142419  0.99154978  0.25376072  1
  N  N35  1  0.26159231  0.99428095  0.74241814  1
  O  O36  1  0.83978934  0.67933660  0.06920941  1
  O  O37  1  0.16139110  0.31740846  0.92976179  1
  O  O38  1  0.15928636  0.71199971  0.88705497  1
  O  O39  1  0.83946290  0.28571478  0.11196473  1
  O  O40  1  0.21207783  0.29926174  0.35754335  1
  O  O41  1  0.78492808  0.70050332  0.64232076  1
  O  O42  1  0.61247478  0.24451626  0.42679355  1
  O  O43  1  0.39544864  0.76421018  0.56949807  1
  O  O44  1  0.30414816  0.76102937  0.14361550  1
  O  O45  1  0.69597744  0.24459062  0.85548150  1
  O  O46  1  0.15217445  0.98340033  0.05921474  1
  O  O47  1  0.83183827  0.01543496  0.93199937  1
  O  O48  1  0.18399646  0.01460810  0.43107323  1
  O  O49  1  0.83848427  0.98441956  0.56173410  1
  O  O50  1  0.31829031  0.30276333  0.61095936  1
  O  O51  1  0.68159350  0.69256986  0.38813918  1
