# generated using pymatgen
data_HgMoO4
_symmetry_space_group_name_H-M   'P 1'
_cell_length_a   5.27932499
_cell_length_b   6.33533999
_cell_length_c   6.53201732
_cell_angle_alpha   119.00887763
_cell_angle_beta   109.08611953
_cell_angle_gamma   89.99999998
_symmetry_Int_Tables_number   1
_chemical_formula_structural   HgMoO4
_chemical_formula_sum   'Hg2 Mo2 O8'
_cell_volume   177.20571307
_cell_formula_units_Z   2
loop_
 _symmetry_equiv_pos_site_id
 _symmetry_equiv_pos_as_xyz
  1  'x, y, z'
loop_
 _atom_site_type_symbol
 _atom_site_label
 _atom_site_symmetry_multiplicity
 _atom_site_fract_x
 _atom_site_fract_y
 _atom_site_fract_z
 _atom_site_occupancy
  O  O0  1  0.96783954  0.46933570  0.22697892  1
  O  O1  1  0.53216046  0.24235678  0.77302108  1
  O  O2  1  0.03216046  0.53066430  0.77302108  1
  O  O3  1  0.46783954  0.75764322  0.22697892  1
  O  O4  1  0.03111979  0.00800843  0.19577977  1
  O  O5  1  0.46888021  0.81222867  0.80422023  1
  O  O6  1  0.96888021  0.99199157  0.80422023  1
  O  O7  1  0.53111979  0.18777133  0.19577977  1
  Mo  Mo8  1  0.75000000  0.18444759  0.00000000  1
  Mo  Mo9  1  0.25000000  0.81555241  0.00000000  1
  Hg  Hg10  1  0.50000000  0.50000000  0.50000000  1
  Hg  Hg11  1  0.00000000  0.00000000  0.50000000  1
