# generated using pymatgen
data_LuCrO4
_symmetry_space_group_name_H-M   'P 1'
_cell_length_a   5.88612993
_cell_length_b   5.88612993
_cell_length_c   5.88612994
_cell_angle_alpha   106.15858797
_cell_angle_beta   106.15858800
_cell_angle_gamma   116.32140572
_symmetry_Int_Tables_number   1
_chemical_formula_structural   LuCrO4
_chemical_formula_sum   'Lu2 Cr2 O8'
_cell_volume   155.28599711
_cell_formula_units_Z   2
loop_
 _symmetry_equiv_pos_site_id
 _symmetry_equiv_pos_as_xyz
  1  'x, y, z'
loop_
 _atom_site_type_symbol
 _atom_site_label
 _atom_site_symmetry_multiplicity
 _atom_site_fract_x
 _atom_site_fract_y
 _atom_site_fract_z
 _atom_site_occupancy
  O  O0  1  0.30303858  0.23972351  0.43668493  1
  O  O1  1  0.86635365  0.30303858  0.56331507  1
  O  O2  1  0.23972351  0.30303858  0.93668493  1
  O  O3  1  0.30303858  0.86635365  0.06331507  1
  O  O4  1  0.13364635  0.69696142  0.43668493  1
  O  O5  1  0.69696142  0.76027649  0.56331507  1
  O  O6  1  0.69696142  0.13364635  0.93668493  1
  O  O7  1  0.76027649  0.69696142  0.06331507  1
  Cr  Cr8  1  0.87500000  0.12500000  0.75000000  1
  Cr  Cr9  1  0.12500000  0.87500000  0.25000000  1
  Lu  Lu10  1  0.37500000  0.62500000  0.75000000  1
  Lu  Lu11  1  0.62500000  0.37500000  0.25000000  1
