# generated using pymatgen
data_ErMn2O5
_symmetry_space_group_name_H-M   'P 1'
_cell_length_a   5.77864132
_cell_length_b   7.30190030
_cell_length_c   8.52602256
_cell_angle_alpha   90.00000000
_cell_angle_beta   90.00000000
_cell_angle_gamma   90.00000000
_symmetry_Int_Tables_number   1
_chemical_formula_structural   ErMn2O5
_chemical_formula_sum   'Er4 Mn8 O20'
_cell_volume   359.75605725
_cell_formula_units_Z   4
loop_
 _symmetry_equiv_pos_site_id
 _symmetry_equiv_pos_as_xyz
  1  'x, y, z'
loop_
 _atom_site_type_symbol
 _atom_site_label
 _atom_site_symmetry_multiplicity
 _atom_site_fract_x
 _atom_site_fract_y
 _atom_site_fract_z
 _atom_site_occupancy
  O  O0  1  0.23861428  0.89068416  0.29321721  1
  O  O1  1  0.23861428  0.10931584  0.70678279  1
  O  O2  1  0.76138572  0.39068416  0.20678279  1
  O  O3  1  0.76138572  0.60931584  0.79321721  1
  O  O4  1  0.76138572  0.10931584  0.70678279  1
  O  O5  1  0.76138572  0.89068416  0.29321721  1
  O  O6  1  0.23861428  0.60931584  0.79321721  1
  O  O7  1  0.23861428  0.39068416  0.20678279  1
  O  O8  1  0.50000000  0.34990055  0.92815585  1
  O  O9  1  0.50000000  0.65009945  0.07184415  1
  O  O10  1  0.50000000  0.84990055  0.57184415  1
  O  O11  1  0.50000000  0.15009945  0.42815585  1
  O  O12  1  0.26870184  0.00000000  0.00000000  1
  O  O13  1  0.73129816  0.50000000  0.50000000  1
  O  O14  1  0.73129816  0.00000000  0.00000000  1
  O  O15  1  0.26870184  0.50000000  0.50000000  1
  O  O16  1  0.00000000  0.16467236  0.44126477  1
  O  O17  1  0.00000000  0.83532764  0.55873523  1
  O  O18  1  0.00000000  0.66467236  0.05873523  1
  O  O19  1  0.00000000  0.33532764  0.94126477  1
  Mn  Mn20  1  0.50000000  0.08803591  0.84777308  1
  Mn  Mn21  1  0.50000000  0.91196409  0.15222692  1
  Mn  Mn22  1  0.50000000  0.58803591  0.65222692  1
  Mn  Mn23  1  0.50000000  0.41196409  0.34777308  1
  Mn  Mn24  1  0.25292074  0.50000000  0.00000000  1
  Mn  Mn25  1  0.74707926  0.00000000  0.50000000  1
  Mn  Mn26  1  0.74707926  0.50000000  0.00000000  1
  Mn  Mn27  1  0.25292074  0.00000000  0.50000000  1
  Er  Er28  1  0.00000000  0.36299510  0.67008835  1
  Er  Er29  1  0.00000000  0.63700490  0.32991165  1
  Er  Er30  1  0.00000000  0.86299510  0.82991165  1
  Er  Er31  1  0.00000000  0.13700490  0.17008835  1
