# generated using pymatgen
data_KFe(MoO4)2
_symmetry_space_group_name_H-M   'P 1'
_cell_length_a   5.77998322
_cell_length_b   5.77998322
_cell_length_c   7.42429211
_cell_angle_alpha   90.00000000
_cell_angle_beta   90.00000000
_cell_angle_gamma   120.00000001
_symmetry_Int_Tables_number   1
_chemical_formula_structural   KFe(MoO4)2
_chemical_formula_sum   'K1 Fe1 Mo2 O8'
_cell_volume   214.80225569
_cell_formula_units_Z   1
loop_
 _symmetry_equiv_pos_site_id
 _symmetry_equiv_pos_as_xyz
  1  'x, y, z'
loop_
 _atom_site_type_symbol
 _atom_site_label
 _atom_site_symmetry_multiplicity
 _atom_site_fract_x
 _atom_site_fract_y
 _atom_site_fract_z
 _atom_site_occupancy
  O  O0  1  0.33333328  0.66666655  0.97190878  1
  O  O1  1  0.66666671  0.33333328  0.02809062  1
  O  O2  1  0.67777367  0.83888668  0.66203243  1
  O  O3  1  0.16111301  0.83888668  0.66203243  1
  O  O4  1  0.83888787  0.67777558  0.33796697  1
  O  O5  1  0.32222632  0.16111315  0.33796697  1
  O  O6  1  0.16111315  0.32222629  0.66203243  1
  O  O7  1  0.83888698  0.16111315  0.33796697  1
  K  K8  1  0.00000000  0.00000000  0.00000000  1
  Fe  Fe9  1  0.00000000  0.00000000  0.49999970  1
  Mo  Mo10  1  0.33333328  0.66666655  0.73614425  1
  Mo  Mo11  1  0.66666671  0.33333328  0.26385653  1
