# generated using pymatgen
data_KAl(MoO4)2
_symmetry_space_group_name_H-M   'P 1'
_cell_length_a   5.63789570
_cell_length_b   5.63789570
_cell_length_c   7.31833434
_cell_angle_alpha   90.00000000
_cell_angle_beta   90.00000000
_cell_angle_gamma   120.00000000
_symmetry_Int_Tables_number   1
_chemical_formula_structural   KAl(MoO4)2
_chemical_formula_sum   'K1 Al1 Mo2 O8'
_cell_volume   201.45449060
_cell_formula_units_Z   1
loop_
 _symmetry_equiv_pos_site_id
 _symmetry_equiv_pos_as_xyz
  1  'x, y, z'
loop_
 _atom_site_type_symbol
 _atom_site_label
 _atom_site_symmetry_multiplicity
 _atom_site_fract_x
 _atom_site_fract_y
 _atom_site_fract_z
 _atom_site_occupancy
  O  O0  1  0.31414760  0.15707380  0.84567824  1
  O  O1  1  0.84292620  0.15707380  0.84567824  1
  O  O2  1  0.84292620  0.68585240  0.84567824  1
  O  O3  1  0.15707380  0.84292620  0.15432176  1
  O  O4  1  0.33333333  0.66666667  0.46893829  1
  O  O5  1  0.66666667  0.33333333  0.53106171  1
  O  O6  1  0.15707380  0.31414760  0.15432176  1
  O  O7  1  0.68585240  0.84292620  0.15432176  1
  Al  Al8  1  0.00000000  0.00000000  0.00000000  1
  K  K9  1  0.00000000  0.00000000  0.50000000  1
  Mo  Mo10  1  0.33333333  0.66666667  0.22970249  1
  Mo  Mo11  1  0.66666667  0.33333333  0.77029751  1
