# generated using pymatgen
data_Fe6O7F5
_symmetry_space_group_name_H-M   'P 1'
_cell_length_a   4.66097100
_cell_length_b   7.81052569
_cell_length_c   5.58790924
_cell_angle_alpha   93.77310662
_cell_angle_beta   90.63358907
_cell_angle_gamma   89.23264020
_symmetry_Int_Tables_number   1
_chemical_formula_structural   Fe6O7F5
_chemical_formula_sum   'Fe6 O7 F5'
_cell_volume   202.95609470
_cell_formula_units_Z   1
loop_
 _symmetry_equiv_pos_site_id
 _symmetry_equiv_pos_as_xyz
  1  'x, y, z'
loop_
 _atom_site_type_symbol
 _atom_site_label
 _atom_site_symmetry_multiplicity
 _atom_site_fract_x
 _atom_site_fract_y
 _atom_site_fract_z
 _atom_site_occupancy
  Fe  Fe0  1  0.53868584  0.65445429  0.15963453  1
  Fe  Fe1  1  0.49817121  0.00115306  0.50152164  1
  Fe  Fe2  1  0.47696670  0.35138058  0.83172696  1
  Fe  Fe3  1  0.00944713  0.68852721  0.66793907  1
  Fe  Fe4  1  0.98283098  0.31377397  0.33946350  1
  Fe  Fe5  1  0.98481775  0.98690527  0.00076183  1
  O  O6  1  0.80053149  0.77099262  0.95587613  1
  O  O7  1  0.80136471  0.09257316  0.29647792  1
  O  O8  1  0.69010437  0.77037364  0.45785193  1
  O  O9  1  0.69805263  0.42408604  0.13097319  1
  O  O10  1  0.30184507  0.57148277  0.87285920  1
  O  O11  1  0.30823937  0.23362025  0.53937671  1
  O  O12  1  0.19803980  0.91108548  0.70396660  1
  F  F13  1  0.80919932  0.43963134  0.63334376  1
  F  F14  1  0.70650785  0.11656518  0.79901432  1
  F  F15  1  0.30042724  0.89204402  0.20030643  1
  F  F16  1  0.20311789  0.22057395  0.03997201  1
  F  F17  1  0.19165365  0.56078018  0.36893531  1
