# generated using pymatgen
data_Fe3(PO4)2
_symmetry_space_group_name_H-M   'P 1'
_cell_length_a   4.86298625
_cell_length_b   6.12885487
_cell_length_c   10.57394100
_cell_angle_alpha   90.35609929
_cell_angle_beta   90.00000000
_cell_angle_gamma   90.00000000
_symmetry_Int_Tables_number   1
_chemical_formula_structural   Fe3(PO4)2
_chemical_formula_sum   'Fe6 P4 O16'
_cell_volume   315.14532841
_cell_formula_units_Z   2
loop_
 _symmetry_equiv_pos_site_id
 _symmetry_equiv_pos_as_xyz
  1  'x, y, z'
loop_
 _atom_site_type_symbol
 _atom_site_label
 _atom_site_symmetry_multiplicity
 _atom_site_fract_x
 _atom_site_fract_y
 _atom_site_fract_z
 _atom_site_occupancy
  O  O0  1  0.68045818  0.74529133  0.03605506  1
  O  O1  1  0.18045818  0.25470867  0.46394494  1
  O  O2  1  0.31954182  0.25470867  0.96394494  1
  O  O3  1  0.81954182  0.74529133  0.53605506  1
  O  O4  1  0.74979206  0.28051900  0.60483684  1
  O  O5  1  0.24979206  0.71948100  0.89516316  1
  O  O6  1  0.25020794  0.71948100  0.39516316  1
  O  O7  1  0.75020794  0.28051900  0.10483684  1
  O  O8  1  0.78606164  0.52997237  0.33779907  1
  O  O9  1  0.28606164  0.47002763  0.16220093  1
  O  O10  1  0.67377558  0.92829236  0.81711367  1
  O  O11  1  0.17377558  0.07170764  0.68288633  1
  O  O12  1  0.32622442  0.07170764  0.18288633  1
  O  O13  1  0.82622442  0.92829236  0.31711367  1
  O  O14  1  0.71393836  0.52997237  0.83779907  1
  O  O15  1  0.21393836  0.47002763  0.66220093  1
  P  P16  1  0.93318574  0.73746125  0.39907610  1
  P  P17  1  0.43318574  0.26253875  0.10092390  1
  P  P18  1  0.06681426  0.26253875  0.60092390  1
  P  P19  1  0.56681426  0.73746125  0.89907610  1
  Fe  Fe20  1  0.48475269  0.76392227  0.21742387  1
  Fe  Fe21  1  0.98475269  0.23607773  0.28257613  1
  Fe  Fe22  1  0.51524731  0.23607773  0.78257613  1
  Fe  Fe23  1  0.01524731  0.76392227  0.71742387  1
  Fe  Fe24  1  0.50000000  0.50000000  0.50000000  1
  Fe  Fe25  1  0.00000000  0.50000000  0.00000000  1
