# generated using pymatgen
data_Cr2(SO4)3
_symmetry_space_group_name_H-M   'P 1'
_cell_length_a   8.86986469
_cell_length_b   8.86986469
_cell_length_c   8.86986469
_cell_angle_alpha   55.68037487
_cell_angle_beta   55.68037488
_cell_angle_gamma   55.68037491
_symmetry_Int_Tables_number   1
_chemical_formula_structural   Cr2(SO4)3
_chemical_formula_sum   'Cr4 S6 O24'
_cell_volume   443.99137519
_cell_formula_units_Z   2
loop_
 _symmetry_equiv_pos_site_id
 _symmetry_equiv_pos_as_xyz
  1  'x, y, z'
loop_
 _atom_site_type_symbol
 _atom_site_label
 _atom_site_symmetry_multiplicity
 _atom_site_fract_x
 _atom_site_fract_y
 _atom_site_fract_z
 _atom_site_occupancy
  O  O0  1  0.51677423  0.45405911  0.82691837  1
  O  O1  1  0.45405911  0.82691837  0.51677423  1
  O  O2  1  0.82691837  0.51677423  0.45405911  1
  O  O3  1  0.48322577  0.54594089  0.17308163  1
  O  O4  1  0.54594089  0.17308163  0.48322577  1
  O  O5  1  0.17308163  0.48322577  0.54594089  1
  O  O6  1  0.73831232  0.11651293  0.87729116  1
  O  O7  1  0.11651293  0.87729116  0.73831232  1
  O  O8  1  0.87729116  0.73831232  0.11651293  1
  O  O9  1  0.26168768  0.88348707  0.12270884  1
  O  O10  1  0.01476382  0.60960144  0.79660427  1
  O  O11  1  0.79660427  0.01476382  0.60960144  1
  O  O12  1  0.60960144  0.79660427  0.01476382  1
  O  O13  1  0.98523618  0.39039856  0.20339573  1
  O  O14  1  0.20339573  0.98523618  0.39039856  1
  O  O15  1  0.39039856  0.20339573  0.98523618  1
  O  O16  1  0.84573046  0.47524788  0.78472774  1
  O  O17  1  0.78472774  0.84573046  0.47524788  1
  O  O18  1  0.47524788  0.78472774  0.84573046  1
  O  O19  1  0.15426954  0.52475212  0.21527226  1
  O  O20  1  0.21527226  0.15426954  0.52475212  1
  O  O21  1  0.52475212  0.21527226  0.15426954  1
  O  O22  1  0.12270884  0.26168768  0.88348707  1
  O  O23  1  0.88348707  0.12270884  0.26168768  1
  S  S24  1  0.75154914  0.03838910  0.45865690  1
  S  S25  1  0.03838910  0.45865690  0.75154914  1
  S  S26  1  0.45865690  0.75154914  0.03838910  1
  S  S27  1  0.24845086  0.96161090  0.54134310  1
  S  S28  1  0.96161090  0.54134310  0.24845086  1
  S  S29  1  0.54134310  0.24845086  0.96161090  1
  Cr  Cr30  1  0.65160425  0.65160425  0.65160425  1
  Cr  Cr31  1  0.34839575  0.34839575  0.34839575  1
  Cr  Cr32  1  0.85535912  0.85535912  0.85535912  1
  Cr  Cr33  1  0.14464088  0.14464088  0.14464088  1
