# generated using pymatgen
data_LaVO3
_symmetry_space_group_name_H-M   'P 1'
_cell_length_a   5.61323129
_cell_length_b   5.73308782
_cell_length_c   7.85174056
_cell_angle_alpha   90.17566462
_cell_angle_beta   90.00000000
_cell_angle_gamma   90.00000000
_symmetry_Int_Tables_number   1
_chemical_formula_structural   LaVO3
_chemical_formula_sum   'La4 V4 O12'
_cell_volume   252.67683699
_cell_formula_units_Z   4
loop_
 _symmetry_equiv_pos_site_id
 _symmetry_equiv_pos_as_xyz
  1  'x, y, z'
loop_
 _atom_site_type_symbol
 _atom_site_label
 _atom_site_symmetry_multiplicity
 _atom_site_fract_x
 _atom_site_fract_y
 _atom_site_fract_z
 _atom_site_occupancy
  O  O0  1  0.21146910  0.20124152  0.54469773  1
  O  O1  1  0.71146837  0.29875852  0.45530223  1
  O  O2  1  0.78853125  0.79875806  0.45530168  1
  O  O3  1  0.28853198  0.70124106  0.54469844  1
  O  O4  1  0.79686919  0.78657204  0.04552140  1
  O  O5  1  0.29686992  0.71342708  0.95447872  1
  O  O6  1  0.20313115  0.21342754  0.95447801  1
  O  O7  1  0.70313042  0.28657250  0.04552195  1
  O  O8  1  0.08439646  0.47877985  0.25009078  1
  O  O9  1  0.58439573  0.02122019  0.74990918  1
  O  O10  1  0.41560461  0.97878118  0.25009023  1
  O  O11  1  0.91560388  0.52121973  0.74990989  1
  V  V12  1  0.00000000  0.50000068  0.50000034  1
  V  V13  1  0.49999927  0.99999936  0.49999962  1
  V  V14  1  0.49999927  0.00000000  0.00000000  1
  V  V15  1  0.00000000  0.49999954  0.99999945  1
  La  La16  1  0.51124597  0.54498558  0.24991794  1
  La  La17  1  0.01124490  0.95501354  0.75008218  1
  La  La18  1  0.48875437  0.45501400  0.75008273  1
  La  La19  1  0.98875544  0.04498604  0.24991723  1
