# generated using pymatgen
data_NaCr(SiO3)2
_symmetry_space_group_name_H-M   'P 1'
_cell_length_a   5.35555203
_cell_length_b   6.58560779
_cell_length_c   6.58560779
_cell_angle_alpha   84.56109602
_cell_angle_beta   76.84472959
_cell_angle_gamma   76.84472946
_symmetry_Int_Tables_number   1
_chemical_formula_structural   NaCr(SiO3)2
_chemical_formula_sum   'Na2 Cr2 Si4 O12'
_cell_volume   220.01398537
_cell_formula_units_Z   2
loop_
 _symmetry_equiv_pos_site_id
 _symmetry_equiv_pos_as_xyz
  1  'x, y, z'
loop_
 _atom_site_type_symbol
 _atom_site_label
 _atom_site_symmetry_multiplicity
 _atom_site_fract_x
 _atom_site_fract_y
 _atom_site_fract_z
 _atom_site_occupancy
  O  O0  1  0.48633874  0.34609143  0.35866842  1
  O  O1  1  0.01366126  0.64133158  0.65390857  1
  O  O2  1  0.51366126  0.65390857  0.64133158  1
  O  O3  1  0.98633874  0.35866842  0.34609143  1
  O  O4  1  0.19813310  0.10315144  0.61716675  1
  O  O5  1  0.30186690  0.38283325  0.89684856  1
  O  O6  1  0.80186690  0.89684856  0.38283325  1
  O  O7  1  0.69813310  0.61716675  0.10315144  1
  O  O8  1  0.86159597  0.19359357  0.03505241  1
  O  O9  1  0.63840403  0.96494759  0.80640643  1
  O  O10  1  0.13840403  0.80640643  0.96494759  1
  O  O11  1  0.36159597  0.03505241  0.19359357  1
  Na  Na12  1  0.25000000  0.70301810  0.29698190  1
  Na  Na13  1  0.75000000  0.29698190  0.70301810  1
  Si  Si14  1  0.26486866  0.20186920  0.38332888  1
  Si  Si15  1  0.76486866  0.38332888  0.20186920  1
  Si  Si16  1  0.23513134  0.61667112  0.79813080  1
  Si  Si17  1  0.73513134  0.79813080  0.61667112  1
  Cr  Cr18  1  0.25000000  0.09361567  0.90638433  1
  Cr  Cr19  1  0.75000000  0.90638433  0.09361567  1
