# generated using pymatgen
data_Li4MnCr2Fe3(PO4)6
_symmetry_space_group_name_H-M   'P 1'
_cell_length_a   8.37551396
_cell_length_b   8.70176856
_cell_length_c   8.56800033
_cell_angle_alpha   62.79518938
_cell_angle_beta   63.90202055
_cell_angle_gamma   63.59354751
_symmetry_Int_Tables_number   1
_chemical_formula_structural   Li4MnCr2Fe3(PO4)6
_chemical_formula_sum   'Li4 Mn1 Cr2 Fe3 P6 O24'
_cell_volume   474.98097352
_cell_formula_units_Z   1
loop_
 _symmetry_equiv_pos_site_id
 _symmetry_equiv_pos_as_xyz
  1  'x, y, z'
loop_
 _atom_site_type_symbol
 _atom_site_label
 _atom_site_symmetry_multiplicity
 _atom_site_fract_x
 _atom_site_fract_y
 _atom_site_fract_z
 _atom_site_occupancy
  Li  Li0  1  0.74912222  0.14165173  0.35910536  1
  Li  Li1  1  0.25317020  0.83968018  0.65785623  1
  Li  Li2  1  0.64857147  0.25075833  0.84389209  1
  Li  Li3  1  0.85043654  0.65579335  0.25022878  1
  Mn  Mn4  1  0.84741885  0.83927696  0.84283904  1
  Cr  Cr5  1  0.00380064  -0.00013120  0.99463959  1
  Cr  Cr6  1  0.49685657  0.50593338  0.49832955  1
  Fe  Fe7  1  0.14769662  0.14840453  0.14239314  1
  Fe  Fe8  1  0.35109114  0.35605708  0.35360800  1
  Fe  Fe9  1  0.65102231  0.65599124  0.65754429  1
  P  P10  1  0.25059527  0.54127028  0.95513853  1
  P  P11  1  0.55585350  0.96181650  0.25264612  1
  P  P12  1  0.94524444  0.24843921  0.53946887  1
  P  P13  1  0.06663136  0.74806250  0.43984853  1
  P  P14  1  0.43207336  0.05753140  0.75260399  1
  P  P15  1  0.74933644  0.44081995  0.06246159  1
  O  O16  1  0.10593720  0.32369726  0.47578230  1
  O  O17  1  0.32712159  0.49602495  0.10962034  1
  O  O18  1  0.07042297  0.91125884  0.25384547  1
  O  O19  1  0.53432801  0.10851665  0.32074344  1
  O  O20  1  0.04576975  0.80764380  0.59320939  1
  O  O21  1  0.25798356  0.59322969  0.41801314  1
  O  O22  1  0.23936009  0.07999835  0.90774759  1
  O  O23  1  0.42384054  0.24008762  0.58926066  1
  O  O24  1  0.17882559  0.38756396  0.99829211  1
  O  O25  1  0.59786743  0.41188413  0.25777153  1
  O  O26  1  0.10044132  0.73194015  0.93613789  1
  O  O27  1  0.39198660  0.02133236  0.18069205  1
  O  O28  1  0.59100301  0.02907396  0.81706442  1
  O  O29  1  0.89978007  0.24776448  0.08971005  1
  O  O30  1  0.40204314  0.56239786  0.76122963  1
  O  O31  1  0.80964483  0.59376905  0.03964548  1
  O  O32  1  0.56635990  0.77115474  0.40254802  1
  O  O33  1  0.75147101  0.93527717  0.10071538  1
  O  O34  1  0.74959901  0.39921825  0.56348200  1
  O  O35  1  0.96810056  0.17504493  0.39519031  1
  O  O36  1  0.45869794  0.90058777  0.69668376  1
  O  O37  1  0.93574104  0.10234776  0.73492391  1
  O  O38  1  0.68981428  0.47052796  0.90288408  1
  O  O39  1  0.90494161  0.68530290  0.47520536  1
