# generated using pymatgen
data_CrPO4
_symmetry_space_group_name_H-M   'P 1'
_cell_length_a   6.40605882
_cell_length_b   9.03839307
_cell_length_c   9.03839307
_cell_angle_alpha   71.72605556
_cell_angle_beta   69.24452425
_cell_angle_gamma   69.24452430
_symmetry_Int_Tables_number   1
_chemical_formula_structural   CrPO4
_chemical_formula_sum   'Cr6 P6 O24'
_cell_volume   446.90620105
_cell_formula_units_Z   6
loop_
 _symmetry_equiv_pos_site_id
 _symmetry_equiv_pos_as_xyz
  1  'x, y, z'
loop_
 _atom_site_type_symbol
 _atom_site_label
 _atom_site_symmetry_multiplicity
 _atom_site_fract_x
 _atom_site_fract_y
 _atom_site_fract_z
 _atom_site_occupancy
  O  O0  1  0.11329243  0.34866273  0.34866273  1
  O  O1  1  0.31061790  0.15133727  0.15133727  1
  O  O2  1  0.88670757  0.65133727  0.65133727  1
  O  O3  1  0.68938210  0.84866273  0.84866273  1
  O  O4  1  0.07888736  0.63986058  0.08825778  1
  O  O5  1  0.30700573  0.86013942  0.41174222  1
  O  O6  1  0.92111264  0.91174222  0.36013942  1
  O  O7  1  0.69299427  0.58825778  0.13986058  1
  O  O8  1  0.92111264  0.36013942  0.91174222  1
  O  O9  1  0.69299427  0.13986058  0.58825778  1
  O  O10  1  0.07888736  0.08825778  0.63986058  1
  O  O11  1  0.30700573  0.41174222  0.86013942  1
  O  O12  1  0.52072867  0.87259465  0.62740535  1
  O  O13  1  0.52072867  0.62740535  0.87259465  1
  O  O14  1  0.47927133  0.37259465  0.12740535  1
  O  O15  1  0.47927133  0.12740535  0.37259465  1
  O  O16  1  0.29246575  0.13068882  0.85245757  1
  O  O17  1  0.77561214  0.36931118  0.64754243  1
  O  O18  1  0.70753425  0.14754243  0.86931118  1
  O  O19  1  0.22438786  0.35245757  0.63068882  1
  O  O20  1  0.70753425  0.86931118  0.14754243  1
  O  O21  1  0.22438786  0.63068882  0.35245757  1
  O  O22  1  0.29246575  0.85245757  0.13068882  1
  O  O23  1  0.77561214  0.64754243  0.36931118  1
  P  P24  1  0.17642598  0.82357402  0.32357402  1
  P  P25  1  0.82357402  0.67642598  0.17642598  1
  P  P26  1  0.82357402  0.17642598  0.67642598  1
  P  P27  1  0.17642598  0.32357402  0.82357402  1
  P  P28  1  0.33634260  0.25000000  0.25000000  1
  P  P29  1  0.66365740  0.75000000  0.75000000  1
  Cr  Cr30  1  0.38324431  0.61675569  0.11675569  1
  Cr  Cr31  1  0.61675569  0.88324431  0.38324431  1
  Cr  Cr32  1  0.61675569  0.38324431  0.88324431  1
  Cr  Cr33  1  0.38324431  0.11675569  0.61675569  1
  Cr  Cr34  1  0.00000000  0.50000000  0.50000000  1
  Cr  Cr35  1  0.50000000  0.00000000  0.00000000  1
