# generated using pymatgen
data_CrHgO4
_symmetry_space_group_name_H-M   'P 1'
_cell_length_a   5.41827740
_cell_length_b   5.41827740
_cell_length_c   7.24907043
_cell_angle_alpha   90.00000000
_cell_angle_beta   90.00000000
_cell_angle_gamma   115.31784995
_symmetry_Int_Tables_number   1
_chemical_formula_structural   CrHgO4
_chemical_formula_sum   'Cr2 Hg2 O8'
_cell_volume   192.37511651
_cell_formula_units_Z   2
loop_
 _symmetry_equiv_pos_site_id
 _symmetry_equiv_pos_as_xyz
  1  'x, y, z'
loop_
 _atom_site_type_symbol
 _atom_site_label
 _atom_site_symmetry_multiplicity
 _atom_site_fract_x
 _atom_site_fract_y
 _atom_site_fract_z
 _atom_site_occupancy
  O  O0  1  0.70614133  0.77797011  0.75000000  1
  O  O1  1  0.29385867  0.22202989  0.25000000  1
  O  O2  1  0.77797011  0.70614133  0.25000000  1
  O  O3  1  0.22202989  0.29385867  0.75000000  1
  O  O4  1  0.25460479  0.74539521  0.93507759  1
  O  O5  1  0.74539521  0.25460479  0.43507759  1
  O  O6  1  0.74539521  0.25460479  0.06492241  1
  O  O7  1  0.25460479  0.74539521  0.56492241  1
  Cr  Cr8  1  0.64290775  0.35709225  0.25000000  1
  Cr  Cr9  1  0.35709225  0.64290775  0.75000000  1
  Hg  Hg10  1  0.00000000  0.00000000  0.50000000  1
  Hg  Hg11  1  0.00000000  0.00000000  0.00000000  1
