# generated using pymatgen
data_NdMn2O5
_symmetry_space_group_name_H-M   'P 1'
_cell_length_a   5.82923507
_cell_length_b   7.59866693
_cell_length_c   8.73170681
_cell_angle_alpha   90.00000000
_cell_angle_beta   90.00000000
_cell_angle_gamma   90.00000000
_symmetry_Int_Tables_number   1
_chemical_formula_structural   NdMn2O5
_chemical_formula_sum   'Nd4 Mn8 O20'
_cell_volume   386.76585168
_cell_formula_units_Z   4
loop_
 _symmetry_equiv_pos_site_id
 _symmetry_equiv_pos_as_xyz
  1  'x, y, z'
loop_
 _atom_site_type_symbol
 _atom_site_label
 _atom_site_symmetry_multiplicity
 _atom_site_fract_x
 _atom_site_fract_y
 _atom_site_fract_z
 _atom_site_occupancy
  O  O0  1  0.24687831  0.90054773  0.29319107  1
  O  O1  1  0.24687831  0.09945227  0.70680893  1
  O  O2  1  0.75312169  0.40054773  0.20680893  1
  O  O3  1  0.75312169  0.59945227  0.79319107  1
  O  O4  1  0.75312169  0.09945227  0.70680893  1
  O  O5  1  0.75312169  0.90054773  0.29319107  1
  O  O6  1  0.24687831  0.59945227  0.79319107  1
  O  O7  1  0.24687831  0.40054773  0.20680893  1
  O  O8  1  0.50000000  0.34806434  0.93545442  1
  O  O9  1  0.50000000  0.65193566  0.06454558  1
  O  O10  1  0.50000000  0.84806434  0.56454558  1
  O  O11  1  0.50000000  0.15193566  0.43545442  1
  O  O12  1  0.27635656  0.00000000  0.00000000  1
  O  O13  1  0.72364344  0.50000000  0.50000000  1
  O  O14  1  0.72364344  0.00000000  0.00000000  1
  O  O15  1  0.27635656  0.50000000  0.50000000  1
  O  O16  1  0.00000000  0.15813830  0.44717391  1
  O  O17  1  0.00000000  0.84186170  0.55282609  1
  O  O18  1  0.00000000  0.65813830  0.05282609  1
  O  O19  1  0.00000000  0.34186170  0.94717391  1
  Mn  Mn20  1  0.50000000  0.09011019  0.85045356  1
  Mn  Mn21  1  0.50000000  0.90988981  0.14954644  1
  Mn  Mn22  1  0.50000000  0.59011019  0.64954644  1
  Mn  Mn23  1  0.50000000  0.40988981  0.35045356  1
  Mn  Mn24  1  0.25659059  0.50000000  0.00000000  1
  Mn  Mn25  1  0.74340941  0.00000000  0.50000000  1
  Mn  Mn26  1  0.74340941  0.50000000  0.00000000  1
  Mn  Mn27  1  0.25659059  0.00000000  0.50000000  1
  Nd  Nd28  1  0.00000000  0.35876228  0.67190354  1
  Nd  Nd29  1  0.00000000  0.64123772  0.32809646  1
  Nd  Nd30  1  0.00000000  0.85876228  0.82809646  1
  Nd  Nd31  1  0.00000000  0.14123772  0.17190354  1
