# generated using pymatgen
data_DyCrO3
_symmetry_space_group_name_H-M   'P 1'
_cell_length_a   5.30493130
_cell_length_b   5.61194774
_cell_length_c   7.65527984
_cell_angle_alpha   90.00000000
_cell_angle_beta   90.00000000
_cell_angle_gamma   90.00000000
_symmetry_Int_Tables_number   1
_chemical_formula_structural   DyCrO3
_chemical_formula_sum   'Dy4 Cr4 O12'
_cell_volume   227.90531483
_cell_formula_units_Z   4
loop_
 _symmetry_equiv_pos_site_id
 _symmetry_equiv_pos_as_xyz
  1  'x, y, z'
loop_
 _atom_site_type_symbol
 _atom_site_label
 _atom_site_symmetry_multiplicity
 _atom_site_fract_x
 _atom_site_fract_y
 _atom_site_fract_z
 _atom_site_occupancy
  O  O0  1  0.69235618  0.30317581  0.44191635  1
  O  O1  1  0.19235618  0.19682419  0.55808365  1
  O  O2  1  0.80764382  0.80317581  0.05808365  1
  O  O3  1  0.30764382  0.69682419  0.94191635  1
  O  O4  1  0.30764382  0.69682419  0.55808365  1
  O  O5  1  0.80764382  0.80317581  0.44191635  1
  O  O6  1  0.19235618  0.19682419  0.94191635  1
  O  O7  1  0.69235618  0.30317581  0.05808365  1
  O  O8  1  0.11343910  0.45887269  0.25000000  1
  O  O9  1  0.61343910  0.04112731  0.75000000  1
  O  O10  1  0.38656090  0.95887269  0.25000000  1
  O  O11  1  0.88656090  0.54112731  0.75000000  1
  Cr  Cr12  1  0.50000000  0.00000000  0.50000000  1
  Cr  Cr13  1  0.00000000  0.50000000  0.50000000  1
  Cr  Cr14  1  0.00000000  0.50000000  0.00000000  1
  Cr  Cr15  1  0.50000000  0.00000000  0.00000000  1
  Dy  Dy16  1  0.01949982  0.93189201  0.75000000  1
  Dy  Dy17  1  0.51949982  0.56810799  0.25000000  1
  Dy  Dy18  1  0.48050018  0.43189201  0.75000000  1
  Dy  Dy19  1  0.98050018  0.06810799  0.25000000  1
