# generated using pymatgen
data_BaNi2(AsO4)2
_symmetry_space_group_name_H-M   'P 1'
_cell_length_a   8.55675395
_cell_length_b   8.55675395
_cell_length_c   8.55675395
_cell_angle_alpha   34.14911908
_cell_angle_beta   34.14911908
_cell_angle_gamma   34.14911915
_symmetry_Int_Tables_number   1
_chemical_formula_structural   BaNi2(AsO4)2
_chemical_formula_sum   'Ba1 Ni2 As2 O8'
_cell_volume   176.01980436
_cell_formula_units_Z   1
loop_
 _symmetry_equiv_pos_site_id
 _symmetry_equiv_pos_as_xyz
  1  'x, y, z'
loop_
 _atom_site_type_symbol
 _atom_site_label
 _atom_site_symmetry_multiplicity
 _atom_site_fract_x
 _atom_site_fract_y
 _atom_site_fract_z
 _atom_site_occupancy
  O  O0  1  0.87652178  0.21529266  0.55960954  1
  O  O1  1  0.21529266  0.55960954  0.87652178  1
  O  O2  1  0.55960954  0.87652178  0.21529266  1
  O  O3  1  0.12347822  0.78470734  0.44039046  1
  O  O4  1  0.78470734  0.44039046  0.12347822  1
  O  O5  1  0.35755320  0.35755320  0.35755320  1
  O  O6  1  0.64244680  0.64244680  0.64244680  1
  O  O7  1  0.44039046  0.12347822  0.78470734  1
  Ni  Ni8  1  0.83117615  0.83117615  0.83117615  1
  Ni  Ni9  1  0.16882385  0.16882385  0.16882385  1
  As  As10  1  0.57229851  0.57229851  0.57229851  1
  As  As11  1  0.42770149  0.42770149  0.42770149  1
  Ba  Ba12  1  0.00000000  0.00000000  0.00000000  1
