# generated using pymatgen
data_FeAsO4
_symmetry_space_group_name_H-M   'P 1'
_cell_length_a   6.63167329
_cell_length_b   9.39862420
_cell_length_c   9.39862419
_cell_angle_alpha   71.49985789
_cell_angle_beta   69.34131521
_cell_angle_gamma   69.34131520
_symmetry_Int_Tables_number   1
_chemical_formula_structural   FeAsO4
_chemical_formula_sum   'Fe6 As6 O24'
_cell_volume   500.29419569
_cell_formula_units_Z   6
loop_
 _symmetry_equiv_pos_site_id
 _symmetry_equiv_pos_as_xyz
  1  'x, y, z'
loop_
 _atom_site_type_symbol
 _atom_site_label
 _atom_site_symmetry_multiplicity
 _atom_site_fract_x
 _atom_site_fract_y
 _atom_site_fract_z
 _atom_site_occupancy
  O  O0  1  0.97670441  0.37829357  0.62170643  1
  O  O1  1  0.97670441  0.12170643  0.87829357  1
  O  O2  1  0.02329559  0.87829357  0.12170643  1
  O  O3  1  0.02329559  0.62170643  0.37829357  1
  O  O4  1  0.58215046  0.35587285  0.85587285  1
  O  O5  1  0.79389616  0.14412715  0.64412715  1
  O  O6  1  0.41784954  0.64412715  0.14412715  1
  O  O7  1  0.20610384  0.85587285  0.35587285  1
  O  O8  1  0.40360849  0.35851192  0.42256263  1
  O  O9  1  0.18468304  0.14148808  0.07743737  1
  O  O10  1  0.59639151  0.07743737  0.14148808  1
  O  O11  1  0.81531696  0.42256263  0.35851192  1
  O  O12  1  0.80613232  0.84823141  0.61984760  1
  O  O13  1  0.27421133  0.65176859  0.88015240  1
  O  O14  1  0.19386768  0.88015240  0.65176859  1
  O  O15  1  0.72578867  0.61984760  0.84823141  1
  O  O16  1  0.19386768  0.15176859  0.38015240  1
  O  O17  1  0.72578867  0.34823141  0.11984760  1
  O  O18  1  0.80613232  0.11984760  0.34823141  1
  O  O19  1  0.27421133  0.38015240  0.15176859  1
  O  O20  1  0.18468304  0.57743737  0.64148808  1
  O  O21  1  0.40360849  0.92256263  0.85851192  1
  O  O22  1  0.81531696  0.85851192  0.92256263  1
  O  O23  1  0.59639151  0.64148808  0.57743737  1
  Fe  Fe24  1  0.50000000  0.50000000  0.00000000  1
  Fe  Fe25  1  0.00000000  0.00000000  0.50000000  1
  Fe  Fe26  1  0.88596054  0.61403946  0.61403946  1
  Fe  Fe27  1  0.11403946  0.88596054  0.88596054  1
  Fe  Fe28  1  0.11403946  0.38596054  0.38596054  1
  Fe  Fe29  1  0.88596054  0.11403946  0.11403946  1
  As  As30  1  0.82079241  0.25000000  0.75000000  1
  As  As31  1  0.17920759  0.75000000  0.25000000  1
  As  As32  1  0.32326219  0.67673781  0.67673781  1
  As  As33  1  0.67673781  0.82326219  0.82326219  1
  As  As34  1  0.67673781  0.32326219  0.32326219  1
  As  As35  1  0.32326219  0.17673781  0.17673781  1
