# generated using pymatgen
data_Ti4Mn(PO4)6
_symmetry_space_group_name_H-M   'P 1'
_cell_length_a   8.66220547
_cell_length_b   8.66220547
_cell_length_c   8.66220547
_cell_angle_alpha   59.93116114
_cell_angle_beta   59.93116119
_cell_angle_gamma   59.93116119
_symmetry_Int_Tables_number   1
_chemical_formula_structural   Ti4Mn(PO4)6
_chemical_formula_sum   'Ti4 Mn1 P6 O24'
_cell_volume   458.87225385
_cell_formula_units_Z   1
loop_
 _symmetry_equiv_pos_site_id
 _symmetry_equiv_pos_as_xyz
  1  'x, y, z'
loop_
 _atom_site_type_symbol
 _atom_site_label
 _atom_site_symmetry_multiplicity
 _atom_site_fract_x
 _atom_site_fract_y
 _atom_site_fract_z
 _atom_site_occupancy
  O  O0  1  0.91476417  0.28343857  0.05512022  1
  O  O1  1  0.28343857  0.05512022  0.91476417  1
  O  O2  1  0.05512022  0.91476417  0.28343857  1
  O  O3  1  0.08523583  0.71656143  0.94487978  1
  O  O4  1  0.71656143  0.94487978  0.08523583  1
  O  O5  1  0.94487978  0.08523583  0.71656143  1
  O  O6  1  0.68704021  0.50966566  0.88131502  1
  O  O7  1  0.50966566  0.88131502  0.68704021  1
  O  O8  1  0.88131502  0.68704021  0.50966566  1
  O  O9  1  0.31295979  0.49033434  0.11868498  1
  O  O10  1  0.49033434  0.11868498  0.31295979  1
  O  O11  1  0.99377619  0.20768975  0.36361443  1
  O  O12  1  0.36361443  0.99377619  0.20768975  1
  O  O13  1  0.20768975  0.36361443  0.99377619  1
  O  O14  1  0.00622381  0.79231025  0.63638557  1
  O  O15  1  0.63638557  0.00622381  0.79231025  1
  O  O16  1  0.79231025  0.63638557  0.00622381  1
  O  O17  1  0.23555176  0.58104447  0.44378586  1
  O  O18  1  0.44378586  0.23555176  0.58104447  1
  O  O19  1  0.58104447  0.44378586  0.23555176  1
  O  O20  1  0.76444824  0.41895553  0.55621414  1
  O  O21  1  0.55621414  0.76444824  0.41895553  1
  O  O22  1  0.41895553  0.55621414  0.76444824  1
  O  O23  1  0.11868498  0.31295979  0.49033434  1
  P  P24  1  0.53046240  0.95623626  0.25313249  1
  P  P25  1  0.74686751  0.46953760  0.04376374  1
  P  P26  1  0.46953760  0.04376374  0.74686751  1
  P  P27  1  0.04376374  0.74686751  0.46953760  1
  P  P28  1  0.95623626  0.25313249  0.53046240  1
  P  P29  1  0.25313249  0.53046240  0.95623626  1
  Ti  Ti30  1  0.64731095  0.64731095  0.64731095  1
  Ti  Ti31  1  0.13399598  0.13399598  0.13399598  1
  Ti  Ti32  1  0.35268905  0.35268905  0.35268905  1
  Ti  Ti33  1  0.86600402  0.86600402  0.86600402  1
  Mn  Mn34  1  0.50000000  0.50000000  0.50000000  1
