# generated using pymatgen
data_B5SbO10
_symmetry_space_group_name_H-M   'P 1'
_cell_length_a   7.29863322
_cell_length_b   15.05680316
_cell_length_c   7.28878351
_cell_angle_alpha   90.00000000
_cell_angle_beta   91.83551974
_cell_angle_gamma   90.00000000
_symmetry_Int_Tables_number   1
_chemical_formula_structural   B5SbO10
_chemical_formula_sum   'B20 Sb4 O40'
_cell_volume   800.58319127
_cell_formula_units_Z   4
loop_
 _symmetry_equiv_pos_site_id
 _symmetry_equiv_pos_as_xyz
  1  'x, y, z'
loop_
 _atom_site_type_symbol
 _atom_site_label
 _atom_site_symmetry_multiplicity
 _atom_site_fract_x
 _atom_site_fract_y
 _atom_site_fract_z
 _atom_site_occupancy
  B  B0  1  0.20131504  0.02768409  0.91111463  1
  B  B1  1  0.20131504  0.47231591  0.41111463  1
  B  B2  1  0.21958266  0.77813982  0.51926183  1
  B  B3  1  0.21958266  0.72186018  0.01926183  1
  B  B4  1  0.24499957  0.50399738  0.72554227  1
  B  B5  1  0.24499957  0.99600262  0.22554227  1
  B  B6  1  0.31396439  0.62015221  0.50290200  1
  B  B7  1  0.31396439  0.87984779  0.00290200  1
  B  B8  1  0.46760870  0.25805500  0.50216654  1
  B  B9  1  0.46760870  0.24194500  0.00216654  1
  B  B10  1  0.53239130  0.75805500  0.99783346  1
  B  B11  1  0.53239130  0.74194500  0.49783346  1
  B  B12  1  0.68603561  0.12015221  0.99709800  1
  B  B13  1  0.68603561  0.37984779  0.49709800  1
  B  B14  1  0.75500043  0.00399738  0.77445773  1
  B  B15  1  0.75500043  0.49600262  0.27445773  1
  B  B16  1  0.78041734  0.27813982  0.98073817  1
  B  B17  1  0.78041734  0.22186018  0.48073817  1
  B  B18  1  0.79868496  0.52768409  0.58888537  1
  B  B19  1  0.79868496  0.97231591  0.08888537  1
  Sb  Sb20  1  0.15432950  0.12499901  0.53249472  1
  Sb  Sb21  1  0.15432950  0.37500099  0.03249472  1
  Sb  Sb22  1  0.84567050  0.62499901  0.96750528  1
  Sb  Sb23  1  0.84567050  0.87500099  0.46750528  1
  O  O24  1  0.09161412  0.84811852  0.53677024  1
  O  O25  1  0.09161412  0.65188148  0.03677024  1
  O  O26  1  0.14219539  0.09356123  0.78359660  1
  O  O27  1  0.14219539  0.40643877  0.28359660  1
  O  O28  1  0.17386137  0.80721062  0.99263920  1
  O  O29  1  0.16974569  0.44829096  0.59283764  1
  O  O30  1  0.17386137  0.69278938  0.49263920  1
  O  O31  1  0.16974569  0.05170904  0.09283764  1
  O  O32  1  0.24019030  0.47888708  0.91352597  1
  O  O33  1  0.24019030  0.02111292  0.41352597  1
  O  O34  1  0.28007530  0.23498593  0.51420380  1
  O  O35  1  0.27263184  0.94928857  0.86543771  1
  O  O36  1  0.28007530  0.26501407  0.01420380  1
  O  O37  1  0.27263184  0.55071143  0.36543771  1
  O  O38  1  0.31821711  0.58330649  0.69243210  1
  O  O39  1  0.31821711  0.91669351  0.19243210  1
  O  O40  1  0.40275078  0.80575273  0.53492291  1
  O  O41  1  0.40275078  0.69424727  0.03492291  1
  O  O42  1  0.50204876  0.34420127  0.52891111  1
  O  O43  1  0.49795124  0.84420127  0.97108889  1
  O  O44  1  0.50204876  0.15579873  0.02891111  1
  O  O45  1  0.49795124  0.65579873  0.47108889  1
  O  O46  1  0.59724922  0.30575273  0.96507709  1
  O  O47  1  0.59724922  0.19424727  0.46507709  1
  O  O48  1  0.68178189  0.08330649  0.80756790  1
  O  O49  1  0.68178189  0.41669351  0.30756790  1
  O  O50  1  0.72736816  0.44928857  0.63456229  1
  O  O51  1  0.71992470  0.73498593  0.98579620  1
  O  O52  1  0.72736816  0.05071143  0.13456229  1
  O  O53  1  0.71992470  0.76501407  0.48579620  1
  O  O54  1  0.75980970  0.97888708  0.58647403  1
  O  O55  1  0.75980970  0.52111292  0.08647403  1
  O  O56  1  0.83025431  0.94829096  0.90716236  1
  O  O57  1  0.82613863  0.30721062  0.50736080  1
  O  O58  1  0.83025431  0.55170904  0.40716236  1
  O  O59  1  0.82613863  0.19278938  0.00736080  1
  O  O60  1  0.85780461  0.59356123  0.71640340  1
  O  O61  1  0.85780461  0.90643877  0.21640340  1
  O  O62  1  0.90838588  0.34811852  0.96322976  1
  O  O63  1  0.90838588  0.15188148  0.46322976  1
