# generated using pymatgen
data_Te2MoO7
_symmetry_space_group_name_H-M   'P 1'
_cell_length_a   4.38922143
_cell_length_b   9.19409052
_cell_length_c   16.05699974
_cell_angle_alpha   90.00000000
_cell_angle_beta   96.42136954
_cell_angle_gamma   90.00000000
_symmetry_Int_Tables_number   1
_chemical_formula_structural   Te2MoO7
_chemical_formula_sum   'Te8 Mo4 O28'
_cell_volume   643.91336595
_cell_formula_units_Z   4
loop_
 _symmetry_equiv_pos_site_id
 _symmetry_equiv_pos_as_xyz
  1  'x, y, z'
loop_
 _atom_site_type_symbol
 _atom_site_label
 _atom_site_symmetry_multiplicity
 _atom_site_fract_x
 _atom_site_fract_y
 _atom_site_fract_z
 _atom_site_occupancy
  O  O0  1  0.59098184  0.84087978  0.29806200  1
  O  O1  1  0.40901816  0.34087978  0.20193800  1
  O  O2  1  0.40901816  0.15912022  0.70193800  1
  O  O3  1  0.59098184  0.65912022  0.79806200  1
  O  O4  1  0.58262284  0.53262193  0.31226040  1
  O  O5  1  0.41737716  0.03262193  0.18773960  1
  O  O6  1  0.41737716  0.46737807  0.68773960  1
  O  O7  1  0.58262284  0.96737807  0.81226040  1
  O  O8  1  0.10560406  0.65242485  0.35856452  1
  O  O9  1  0.89439594  0.15242485  0.14143548  1
  O  O10  1  0.89439594  0.34757515  0.64143548  1
  O  O11  1  0.10560406  0.84757515  0.85856452  1
  O  O12  1  0.02326024  0.68388776  0.56251872  1
  O  O13  1  0.97673976  0.18388776  0.93748128  1
  O  O14  1  0.97673976  0.31611224  0.43748128  1
  O  O15  1  0.02326024  0.81611224  0.06251872  1
  O  O16  1  0.51499511  0.87450065  0.56857304  1
  O  O17  1  0.48500489  0.37450065  0.93142696  1
  O  O18  1  0.48500489  0.12549935  0.43142696  1
  O  O19  1  0.51499511  0.62549935  0.06857304  1
  O  O20  1  0.96931133  0.60059211  0.94862555  1
  O  O21  1  0.03068867  0.10059211  0.55137445  1
  O  O22  1  0.03068867  0.39940789  0.05137445  1
  O  O23  1  0.96931133  0.89940789  0.44862555  1
  O  O24  1  0.06294027  0.89890545  0.68625690  1
  O  O25  1  0.93705973  0.39890545  0.81374310  1
  O  O26  1  0.93705973  0.10109455  0.31374310  1
  O  O27  1  0.06294027  0.60109455  0.18625690  1
  Mo  Mo28  1  0.11862216  0.63113303  0.06857689  1
  Mo  Mo29  1  0.88137784  0.13113303  0.43142311  1
  Mo  Mo30  1  0.88137784  0.36886697  0.93142311  1
  Mo  Mo31  1  0.11862216  0.86886697  0.56857689  1
  Te  Te32  1  0.83410196  0.97192325  0.22064860  1
  Te  Te33  1  0.16589804  0.47192325  0.27935140  1
  Te  Te34  1  0.16589804  0.02807675  0.77935140  1
  Te  Te35  1  0.83410196  0.52807675  0.72064860  1
  Te  Te36  1  0.70850171  0.71183426  0.38756518  1
  Te  Te37  1  0.29149829  0.21183426  0.11243482  1
  Te  Te38  1  0.29149829  0.28816574  0.61243482  1
  Te  Te39  1  0.70850171  0.78816574  0.88756518  1
