# generated using pymatgen
data_Cs2SrV4O12
_symmetry_space_group_name_H-M   'P 1'
_cell_length_a   5.70798371
_cell_length_b   11.41231829
_cell_length_c   11.41231829
_cell_angle_alpha   90.00000000
_cell_angle_beta   90.00000000
_cell_angle_gamma   90.00000000
_symmetry_Int_Tables_number   1
_chemical_formula_structural   Cs2SrV4O12
_chemical_formula_sum   'Cs4 Sr2 V8 O24'
_cell_volume   743.41355633
_cell_formula_units_Z   2
loop_
 _symmetry_equiv_pos_site_id
 _symmetry_equiv_pos_as_xyz
  1  'x, y, z'
loop_
 _atom_site_type_symbol
 _atom_site_label
 _atom_site_symmetry_multiplicity
 _atom_site_fract_x
 _atom_site_fract_y
 _atom_site_fract_z
 _atom_site_occupancy
  O  O0  1  0.24158536  0.55606966  0.75002921  1
  O  O1  1  0.24158536  0.94392934  0.74997079  1
  O  O2  1  0.24158536  0.75002921  0.94392934  1
  O  O3  1  0.24158536  0.74997079  0.55606966  1
  O  O4  1  0.75841464  0.75002921  0.55606966  1
  O  O5  1  0.75841464  0.94392934  0.75002921  1
  O  O6  1  0.75841464  0.55606966  0.74997079  1
  O  O7  1  0.75841464  0.74997079  0.94392934  1
  O  O8  1  0.75841464  0.44392934  0.24997079  1
  O  O9  1  0.75841464  0.05607066  0.25002921  1
  O  O10  1  0.75841464  0.24997079  0.05607066  1
  O  O11  1  0.75841464  0.25002921  0.44392934  1
  O  O12  1  0.24158536  0.24997079  0.44392934  1
  O  O13  1  0.24158536  0.05607066  0.24997079  1
  O  O14  1  0.99993264  0.61899415  0.38100585  1
  O  O15  1  0.99993264  0.11899415  0.61899415  1
  O  O16  1  0.99993264  0.38100585  0.88100585  1
  O  O17  1  0.99993264  0.88100585  0.11899415  1
  O  O18  1  0.00006836  0.61899415  0.11899415  1
  O  O19  1  0.24158536  0.44392934  0.25002921  1
  O  O20  1  0.00006836  0.38100585  0.61899415  1
  O  O21  1  0.00006836  0.11899415  0.88100585  1
  O  O22  1  0.24158536  0.25002921  0.05607066  1
  O  O23  1  0.00006836  0.88100585  0.38100585  1
  V  V24  1  0.00000000  0.02759764  0.75000000  1
  V  V25  1  0.00000000  0.75000000  0.02759764  1
  V  V26  1  0.00000000  0.75000000  0.47240236  1
  V  V27  1  0.00000000  0.47240236  0.75000000  1
  V  V28  1  0.00000000  0.97240236  0.25000000  1
  V  V29  1  0.00000000  0.25000000  0.97240236  1
  V  V30  1  0.00000000  0.25000000  0.52759764  1
  V  V31  1  0.00000000  0.52759764  0.25000000  1
  Sr  Sr32  1  0.49999900  0.75000000  0.75000000  1
  Sr  Sr33  1  0.49999900  0.25000000  0.25000000  1
  Cs  Cs34  1  0.49999900  0.00000000  0.50000000  1
  Cs  Cs35  1  0.49999900  0.50000000  0.50000000  1
  Cs  Cs36  1  0.49999900  0.50000000  0.00000000  1
  Cs  Cs37  1  0.49999900  0.00000000  0.00000000  1
