# generated using pymatgen
data_NaVCdO4
_symmetry_space_group_name_H-M   'P 1'
_cell_length_a   5.52465713
_cell_length_b   5.52465713
_cell_length_c   7.13405347
_cell_angle_alpha   90.00000000
_cell_angle_beta   90.00000000
_cell_angle_gamma   114.84651249
_symmetry_Int_Tables_number   1
_chemical_formula_structural   NaVCdO4
_chemical_formula_sum   'Na2 V2 Cd2 O8'
_cell_volume   197.58926498
_cell_formula_units_Z   2
loop_
 _symmetry_equiv_pos_site_id
 _symmetry_equiv_pos_as_xyz
  1  'x, y, z'
loop_
 _atom_site_type_symbol
 _atom_site_label
 _atom_site_symmetry_multiplicity
 _atom_site_fract_x
 _atom_site_fract_y
 _atom_site_fract_z
 _atom_site_occupancy
  O  O0  1  0.77950523  0.70381645  0.25000000  1
  O  O1  1  0.22049477  0.29618355  0.75000000  1
  O  O2  1  0.70381645  0.77950523  0.75000000  1
  O  O3  1  0.29618355  0.22049477  0.25000000  1
  O  O4  1  0.24133792  0.75866208  0.55512497  1
  O  O5  1  0.75866208  0.24133792  0.05512497  1
  O  O6  1  0.24133792  0.75866208  0.94487503  1
  O  O7  1  0.75866208  0.24133792  0.44487503  1
  Na  Na8  1  0.31905116  0.68094884  0.25000000  1
  Na  Na9  1  0.68094884  0.31905116  0.75000000  1
  V  V10  1  0.34942968  0.65057032  0.75000000  1
  V  V11  1  0.65057032  0.34942968  0.25000000  1
  Cd  Cd12  1  0.00000000  0.00000000  0.50000000  1
  Cd  Cd13  1  0.00000000  0.00000000  0.00000000  1
