# generated using pymatgen
data_Cs2NaVO4
_symmetry_space_group_name_H-M   'P 1'
_cell_length_a   6.19135693
_cell_length_b   6.28297527
_cell_length_c   8.43564513
_cell_angle_alpha   90.00000000
_cell_angle_beta   93.12397489
_cell_angle_gamma   90.00000000
_symmetry_Int_Tables_number   1
_chemical_formula_structural   Cs2NaVO4
_chemical_formula_sum   'Cs4 Na2 V2 O8'
_cell_volume   327.66015456
_cell_formula_units_Z   2
loop_
 _symmetry_equiv_pos_site_id
 _symmetry_equiv_pos_as_xyz
  1  'x, y, z'
loop_
 _atom_site_type_symbol
 _atom_site_label
 _atom_site_symmetry_multiplicity
 _atom_site_fract_x
 _atom_site_fract_y
 _atom_site_fract_z
 _atom_site_occupancy
  O  O0  1  0.15804313  0.02507815  0.16550900  1
  O  O1  1  0.84195687  0.52507815  0.83449100  1
  O  O2  1  0.84195687  0.97492185  0.83449100  1
  O  O3  1  0.15804313  0.47492185  0.16550900  1
  O  O4  1  0.43744740  0.75000000  0.81931665  1
  O  O5  1  0.70186514  0.75000000  0.55136215  1
  O  O6  1  0.56255260  0.25000000  0.18068335  1
  O  O7  1  0.29813486  0.25000000  0.44863785  1
  Na  Na8  1  0.12787963  0.75000000  0.97262600  1
  Na  Na9  1  0.87212037  0.25000000  0.02737400  1
  V  V10  1  0.29571752  0.25000000  0.24166344  1
  V  V11  1  0.70428248  0.75000000  0.75833656  1
  Cs  Cs12  1  0.79801837  0.25000000  0.51369944  1
  Cs  Cs13  1  0.20198163  0.75000000  0.48630056  1
  Cs  Cs14  1  0.64872077  0.75000000  0.18099020  1
  Cs  Cs15  1  0.35127923  0.25000000  0.81900980  1
