# generated using pymatgen
data_LaCo(BO2)5
_symmetry_space_group_name_H-M   'P 1'
_cell_length_a   7.68352795
_cell_length_b   8.88776905
_cell_length_c   9.57125962
_cell_angle_alpha   92.44158244
_cell_angle_beta   90.00000000
_cell_angle_gamma   90.00000000
_symmetry_Int_Tables_number   1
_chemical_formula_structural   LaCo(BO2)5
_chemical_formula_sum   'La4 Co4 B20 O40'
_cell_volume   653.02241807
_cell_formula_units_Z   4
loop_
 _symmetry_equiv_pos_site_id
 _symmetry_equiv_pos_as_xyz
  1  'x, y, z'
loop_
 _atom_site_type_symbol
 _atom_site_label
 _atom_site_symmetry_multiplicity
 _atom_site_fract_x
 _atom_site_fract_y
 _atom_site_fract_z
 _atom_site_occupancy
  B  B0  1  0.81674257  0.57468038  0.08373866  1
  B  B1  1  0.31674291  0.92531969  0.41626160  1
  B  B2  1  0.18325675  0.42531934  0.91626224  1
  B  B3  1  0.68325772  0.07468003  0.58373825  1
  B  B4  1  0.09351217  0.65184618  0.49409044  1
  B  B5  1  0.59351184  0.84815388  0.00590982  1
  B  B6  1  0.90648845  0.34815353  0.50590941  1
  B  B7  1  0.40648749  0.15184584  0.99409003  1
  B  B8  1  0.03524880  0.78452615  0.05190465  1
  B  B9  1  0.53524846  0.71547391  0.44809457  1
  B  B10  1  0.96475183  0.21547356  0.94809520  1
  B  B11  1  0.46475086  0.28452581  0.55190528  1
  B  B12  1  0.82655057  0.01334942  0.10942199  1
  B  B13  1  0.32655091  0.48665100  0.39057796  1
  B  B14  1  0.17344876  0.98665142  0.89057790  1
  B  B15  1  0.67344842  0.51334872  0.60942294  1
  B  B16  1  0.08162171  0.59231460  0.23409690  1
  B  B17  1  0.58162137  0.90768547  0.26590336  1
  B  B18  1  0.91837892  0.40768625  0.76590299  1
  B  B19  1  0.41837926  0.09231425  0.73409649  1
  O  O20  1  0.96033691  0.27135426  0.38828304  1
  O  O21  1  0.46033725  0.22864616  0.11171690  1
  O  O22  1  0.03966241  0.72864658  0.61171685  1
  O  O23  1  0.53966337  0.77135355  0.88828295  1
  O  O24  1  0.15572755  0.99376798  0.43455057  1
  O  O25  1  0.65572721  0.50623208  0.06544865  1
  O  O26  1  0.84427177  0.00623173  0.56544928  1
  O  O27  1  0.34427211  0.49376876  0.93455124  1
  O  O28  1  0.87604409  0.69220207  0.00823293  1
  O  O29  1  0.37604443  0.80779799  0.49176733  1
  O  O30  1  0.12395524  0.30779764  0.99176692  1
  O  O31  1  0.62395620  0.19220173  0.50823357  1
  O  O32  1  0.71982122  0.95901367  0.99095261  1
  O  O33  1  0.21982026  0.54098535  0.50904820  1
  O  O34  1  0.28017940  0.04098605  0.00904724  1
  O  O35  1  0.78017907  0.45901438  0.49095270  1
  O  O36  1  0.89038052  0.16846438  0.08506170  1
  O  O37  1  0.39038086  0.33153604  0.41493825  1
  O  O38  1  0.10961880  0.83153534  0.91493920  1
  O  O39  1  0.60961977  0.66846480  0.58506164  1
  O  O40  1  0.97777404  0.91579688  0.14280093  1
  O  O41  1  0.47777308  0.58420319  0.35719933  1
  O  O42  1  0.02222658  0.08420284  0.85719892  1
  O  O43  1  0.52222625  0.41579765  0.64280056  1
  O  O44  1  0.15318084  0.69016797  0.12904925  1
  O  O45  1  0.65318050  0.80983209  0.37094997  1
  O  O46  1  0.84681979  0.30983175  0.87095060  1
  O  O47  1  0.34682013  0.19016762  0.62904989  1
  O  O48  1  0.91873317  0.51670966  0.18759532  1
  O  O49  1  0.41873351  0.98329041  0.31240494  1
  O  O50  1  0.08126615  0.48329006  0.81240453  1
  O  O51  1  0.58126712  0.01670931  0.68759491  1
  O  O52  1  0.03496546  0.68505601  0.36316773  1
  O  O53  1  0.53496512  0.81494406  0.13683253  1
  O  O54  1  0.96503517  0.31494371  0.63683212  1
  O  O55  1  0.46503551  0.18505566  0.86316732  1
  O  O56  1  0.22011016  0.47832490  0.25948475  1
  O  O57  1  0.72011113  0.02167439  0.24051516  1
  O  O58  1  0.77988916  0.52167481  0.74051510  1
  O  O59  1  0.27988950  0.97832532  0.75948470  1
  Co  Co60  1  0.90983547  0.89862438  0.37532635  1
  Co  Co61  1  0.40983451  0.60137569  0.12467391  1
  Co  Co62  1  0.09016515  0.10137534  0.62467350  1
  Co  Co63  1  0.59016481  0.39862516  0.87532703  1
  La  La64  1  0.68575967  0.31895099  0.26384238  1
  La  La65  1  0.18576001  0.18104943  0.23615757  1
  La  La66  1  0.31423965  0.68104872  0.73615747  1
  La  La67  1  0.81423931  0.81895142  0.76384232  1
