# generated using pymatgen
data_BaV10O15
_symmetry_space_group_name_H-M   'P 1'
_cell_length_a   7.85939531
_cell_length_b   7.85939532
_cell_length_c   9.72532800
_cell_angle_alpha   90.00000000
_cell_angle_beta   90.00000000
_cell_angle_gamma   97.50330067
_symmetry_Int_Tables_number   1
_chemical_formula_structural   BaV10O15
_chemical_formula_sum   'Ba2 V20 O30'
_cell_volume   595.59054762
_cell_formula_units_Z   2
loop_
 _symmetry_equiv_pos_site_id
 _symmetry_equiv_pos_as_xyz
  1  'x, y, z'
loop_
 _atom_site_type_symbol
 _atom_site_label
 _atom_site_symmetry_multiplicity
 _atom_site_fract_x
 _atom_site_fract_y
 _atom_site_fract_z
 _atom_site_occupancy
  O  O0  1  0.50000000  0.50000000  0.50000000  1
  O  O1  1  0.00000000  0.00000000  0.00000000  1
  O  O2  1  0.15825719  0.15825719  0.74622548  1
  O  O3  1  0.34174281  0.34174281  0.24622548  1
  O  O4  1  0.65825719  0.65825719  0.75377452  1
  O  O5  1  0.84174281  0.84174281  0.25377452  1
  O  O6  1  0.96053798  0.21061958  0.24090549  1
  O  O7  1  0.53946202  0.28938042  0.74090549  1
  O  O8  1  0.71061958  0.46053798  0.25909451  1
  O  O9  1  0.78938042  0.03946202  0.75909451  1
  O  O10  1  0.03946202  0.78938042  0.75909451  1
  O  O11  1  0.46053798  0.71061958  0.25909451  1
  O  O12  1  0.28938042  0.53946202  0.74090549  1
  O  O13  1  0.21061958  0.96053798  0.24090549  1
  O  O14  1  0.07418984  0.57418984  0.25000000  1
  O  O15  1  0.42581016  0.92581016  0.75000000  1
  O  O16  1  0.92581016  0.42581016  0.75000000  1
  O  O17  1  0.57418984  0.07418984  0.25000000  1
  O  O18  1  0.11374437  0.36282801  0.99770688  1
  O  O19  1  0.38625563  0.13717199  0.49770688  1
  O  O20  1  0.86282801  0.61374437  0.50229312  1
  O  O21  1  0.63717199  0.88625563  0.00229312  1
  O  O22  1  0.23894916  0.76105084  0.00000000  1
  O  O23  1  0.26105084  0.73894916  0.50000000  1
  O  O24  1  0.76105084  0.23894916  0.00000000  1
  O  O25  1  0.73894916  0.26105084  0.50000000  1
  O  O26  1  0.36282801  0.11374437  0.99770688  1
  O  O27  1  0.13717199  0.38625563  0.49770688  1
  O  O28  1  0.61374437  0.86282801  0.50229312  1
  O  O29  1  0.88625563  0.63717199  0.00229312  1
  V  V30  1  0.90826869  0.42009067  0.11986788  1
  V  V31  1  0.59173131  0.07990933  0.61986788  1
  V  V32  1  0.92009067  0.40826869  0.38013212  1
  V  V33  1  0.57990933  0.09173131  0.88013212  1
  V  V34  1  0.09173131  0.57990933  0.88013212  1
  V  V35  1  0.40826869  0.92009067  0.38013212  1
  V  V36  1  0.07990933  0.59173131  0.61986788  1
  V  V37  1  0.42009067  0.90826869  0.11986788  1
  V  V38  1  0.03992715  0.78528869  0.14106036  1
  V  V39  1  0.46007285  0.71471131  0.64106036  1
  V  V40  1  0.28528869  0.53992715  0.35893964  1
  V  V41  1  0.21471131  0.96007285  0.85893964  1
  V  V42  1  0.96007285  0.21471131  0.85893964  1
  V  V43  1  0.53992715  0.28528869  0.35893964  1
  V  V44  1  0.71471131  0.46007285  0.64106036  1
  V  V45  1  0.78528869  0.03992715  0.14106036  1
  V  V46  1  0.81984666  0.81984666  0.86504651  1
  V  V47  1  0.68015334  0.68015334  0.36504651  1
  V  V48  1  0.31984666  0.31984666  0.63495349  1
  V  V49  1  0.18015334  0.18015334  0.13495349  1
  Ba  Ba50  1  0.00000000  0.00000000  0.50000000  1
  Ba  Ba51  1  0.50000000  0.50000000  0.00000000  1
