# generated using pymatgen
data_Ba5Nd8Mn4O21
_symmetry_space_group_name_H-M   'P 1'
_cell_length_a   5.94772908
_cell_length_b   10.61288802
_cell_length_c   10.61288802
_cell_angle_alpha   85.49655255
_cell_angle_beta   73.72710854
_cell_angle_gamma   73.72710852
_symmetry_Int_Tables_number   1
_chemical_formula_structural   Ba5Nd8Mn4O21
_chemical_formula_sum   'Ba5 Nd8 Mn4 O21'
_cell_volume   617.31195736
_cell_formula_units_Z   1
loop_
 _symmetry_equiv_pos_site_id
 _symmetry_equiv_pos_as_xyz
  1  'x, y, z'
loop_
 _atom_site_type_symbol
 _atom_site_label
 _atom_site_symmetry_multiplicity
 _atom_site_fract_x
 _atom_site_fract_y
 _atom_site_fract_z
 _atom_site_occupancy
  O  O0  1  0.09842316  0.88859956  0.40679772  1
  O  O1  1  0.50522088  0.59320228  0.88859956  1
  O  O2  1  0.98702273  0.40679772  0.11140044  1
  O  O3  1  0.39382044  0.11140044  0.59320228  1
  O  O4  1  0.90157684  0.11140044  0.59320228  1
  O  O5  1  0.49477912  0.40679772  0.11140044  1
  O  O6  1  0.01297727  0.59320228  0.88859956  1
  O  O7  1  0.60617956  0.88859956  0.40679772  1
  O  O8  1  0.93150477  0.86710124  0.77482201  1
  O  O9  1  0.70632678  0.22517799  0.86710124  1
  O  O10  1  0.79860601  0.77482201  0.13289876  1
  O  O11  1  0.57342802  0.13289876  0.22517799  1
  O  O12  1  0.06849523  0.13289876  0.22517799  1
  O  O13  1  0.29367322  0.77482201  0.13289876  1
  O  O14  1  0.20139399  0.22517799  0.86710124  1
  O  O15  1  0.42657198  0.86710124  0.77482201  1
  O  O16  1  0.37708081  0.65503256  0.59080583  1
  O  O17  1  0.50000000  0.00000000  0.00000000  1
  O  O18  1  0.62291919  0.34496744  0.40919417  1
  O  O19  1  0.03211336  0.59080583  0.34496744  1
  O  O20  1  0.96788664  0.40919417  0.65503256  1
  Mn  Mn21  1  0.95965895  0.78825010  0.29243200  1
  Mn  Mn22  1  0.25209095  0.70756800  0.78825010  1
  Mn  Mn23  1  0.74790905  0.29243200  0.21174990  1
  Mn  Mn24  1  0.04034105  0.21174990  0.70756800  1
  Ba  Ba25  1  0.46925754  0.39507555  0.66640936  1
  Ba  Ba26  1  0.13566690  0.33359064  0.39507555  1
  Ba  Ba27  1  0.86433310  0.66640936  0.60492445  1
  Ba  Ba28  1  0.53074246  0.60492445  0.33359064  1
  Ba  Ba29  1  0.00000000  0.00000000  0.00000000  1
  Nd  Nd30  1  0.58906599  0.05388764  0.76798038  1
  Nd  Nd31  1  0.35704637  0.23201962  0.05388764  1
  Nd  Nd32  1  0.64295363  0.76798038  0.94611236  1
  Nd  Nd33  1  0.41093401  0.94611236  0.23201962  1
  Nd  Nd34  1  0.75284931  0.07858818  0.41571321  1
  Nd  Nd35  1  0.16856252  0.58428679  0.07858818  1
  Nd  Nd36  1  0.83143748  0.41571321  0.92141182  1
  Nd  Nd37  1  0.24715069  0.92141182  0.58428679  1
