# generated using pymatgen
data_K2MgV2O7
_symmetry_space_group_name_H-M   'P 1'
_cell_length_a   8.52608093
_cell_length_b   8.52608093
_cell_length_c   11.60697654
_cell_angle_alpha   90.00000000
_cell_angle_beta   90.00000000
_cell_angle_gamma   90.00000000
_symmetry_Int_Tables_number   1
_chemical_formula_structural   K2MgV2O7
_chemical_formula_sum   'K8 Mg4 V8 O28'
_cell_volume   843.75820288
_cell_formula_units_Z   4
loop_
 _symmetry_equiv_pos_site_id
 _symmetry_equiv_pos_as_xyz
  1  'x, y, z'
loop_
 _atom_site_type_symbol
 _atom_site_label
 _atom_site_symmetry_multiplicity
 _atom_site_fract_x
 _atom_site_fract_y
 _atom_site_fract_z
 _atom_site_occupancy
  O  O0  1  0.64112595  0.64112595  0.85780480  1
  O  O1  1  0.35887405  0.35887405  0.85780480  1
  O  O2  1  0.64112595  0.64112595  0.14219520  1
  O  O3  1  0.14112595  0.85887405  0.35780480  1
  O  O4  1  0.85887405  0.14112595  0.35780480  1
  O  O5  1  0.85887405  0.14112595  0.64219520  1
  O  O6  1  0.14112595  0.85887405  0.64219520  1
  O  O7  1  0.35887405  0.35887405  0.14219520  1
  O  O8  1  0.41102264  0.17559946  0.34134726  1
  O  O9  1  0.58897736  0.82440054  0.34134726  1
  O  O10  1  0.17559946  0.41102264  0.65865274  1
  O  O11  1  0.67559946  0.08897736  0.84134726  1
  O  O12  1  0.32440054  0.91102264  0.84134726  1
  O  O13  1  0.08897736  0.67559946  0.15865274  1
  O  O14  1  0.91102264  0.32440054  0.15865274  1
  O  O15  1  0.82440054  0.58897736  0.65865274  1
  O  O16  1  0.58897736  0.82440054  0.65865274  1
  O  O17  1  0.41102264  0.17559946  0.65865274  1
  O  O18  1  0.82440054  0.58897736  0.34134726  1
  O  O19  1  0.32440054  0.91102264  0.15865274  1
  O  O20  1  0.00000000  0.00000000  0.15581713  1
  O  O21  1  0.50000000  0.50000000  0.65581713  1
  O  O22  1  0.50000000  0.50000000  0.34418287  1
  O  O23  1  0.00000000  0.00000000  0.84418287  1
  O  O24  1  0.17559946  0.41102264  0.34134726  1
  O  O25  1  0.08897736  0.67559946  0.84134726  1
  O  O26  1  0.91102264  0.32440054  0.84134726  1
  O  O27  1  0.67559946  0.08897736  0.15865274  1
  Mg  Mg28  1  0.00000000  0.50000000  0.75000000  1
  Mg  Mg29  1  0.00000000  0.50000000  0.25000000  1
  Mg  Mg30  1  0.50000000  0.00000000  0.75000000  1
  Mg  Mg31  1  0.50000000  0.00000000  0.25000000  1
  K  K32  1  0.81845220  0.81845220  0.00000000  1
  K  K33  1  0.68154780  0.31845220  0.50000000  1
  K  K34  1  0.31845220  0.68154780  0.50000000  1
  K  K35  1  0.18154780  0.18154780  0.00000000  1
  K  K36  1  0.64813013  0.35186987  0.00000000  1
  K  K37  1  0.14813013  0.14813013  0.50000000  1
  K  K38  1  0.85186987  0.85186987  0.50000000  1
  K  K39  1  0.35186987  0.64813013  0.00000000  1
  V  V40  1  0.64193603  0.64193603  0.71290668  1
  V  V41  1  0.35806397  0.35806397  0.71290668  1
  V  V42  1  0.64193603  0.64193603  0.28709332  1
  V  V43  1  0.14193603  0.85806397  0.21290668  1
  V  V44  1  0.85806397  0.14193603  0.21290668  1
  V  V45  1  0.85806397  0.14193603  0.78709332  1
  V  V46  1  0.14193603  0.85806397  0.78709332  1
  V  V47  1  0.35806397  0.35806397  0.28709332  1
