# generated using pymatgen
data_VAg2(PO4)2
_symmetry_space_group_name_H-M   'P 1'
_cell_length_a   6.36037459
_cell_length_b   7.79557747
_cell_length_c   14.09545561
_cell_angle_alpha   90.00000000
_cell_angle_beta   90.00000000
_cell_angle_gamma   99.65350456
_symmetry_Int_Tables_number   1
_chemical_formula_structural   VAg2(PO4)2
_chemical_formula_sum   'V4 Ag8 P8 O32'
_cell_volume   688.99565603
_cell_formula_units_Z   4
loop_
 _symmetry_equiv_pos_site_id
 _symmetry_equiv_pos_as_xyz
  1  'x, y, z'
loop_
 _atom_site_type_symbol
 _atom_site_label
 _atom_site_symmetry_multiplicity
 _atom_site_fract_x
 _atom_site_fract_y
 _atom_site_fract_z
 _atom_site_occupancy
  O  O0  1  0.95786064  0.28462683  0.77845228  1
  O  O1  1  0.54213936  0.71537317  0.27845228  1
  O  O2  1  0.04213936  0.71537317  0.22154772  1
  O  O3  1  0.45786064  0.28462683  0.72154772  1
  O  O4  1  0.18622206  0.22609342  0.91466154  1
  O  O5  1  0.31377794  0.77390658  0.41466154  1
  O  O6  1  0.81377794  0.77390658  0.08533846  1
  O  O7  1  0.68622206  0.22609342  0.58533846  1
  O  O8  1  0.46843008  0.28358135  0.04250916  1
  O  O9  1  0.03156992  0.71641865  0.54250916  1
  O  O10  1  0.53156992  0.71641865  0.95749084  1
  O  O11  1  0.96843008  0.28358135  0.45749084  1
  O  O12  1  0.74063565  0.02084165  0.98160041  1
  O  O13  1  0.75936435  0.97915835  0.48160041  1
  O  O14  1  0.25936435  0.97915835  0.01839959  1
  O  O15  1  0.24063565  0.02084165  0.51839959  1
  O  O16  1  0.08149075  0.22172302  0.08916498  1
  O  O17  1  0.41850925  0.77827698  0.58916498  1
  O  O18  1  0.91850925  0.77827698  0.91083502  1
  O  O19  1  0.58149075  0.22172302  0.41083502  1
  O  O20  1  0.35440902  0.36456765  0.55411570  1
  O  O21  1  0.14559098  0.63543235  0.05411570  1
  O  O22  1  0.64559098  0.63543235  0.44588430  1
  O  O23  1  0.85440902  0.36456765  0.94588430  1
  O  O24  1  0.31446890  0.46330720  0.36268489  1
  O  O25  1  0.18553110  0.53669280  0.86268489  1
  O  O26  1  0.68553110  0.53669280  0.63731511  1
  O  O27  1  0.81446890  0.46330720  0.13731511  1
  O  O28  1  0.18023468  0.10444400  0.32851050  1
  O  O29  1  0.31976532  0.89555600  0.82851050  1
  O  O30  1  0.81976532  0.89555600  0.67148950  1
  O  O31  1  0.68023468  0.10444400  0.17148950  1
  P  P32  1  0.75111108  0.82683447  0.97939660  1
  P  P33  1  0.74888892  0.17316553  0.47939660  1
  P  P34  1  0.25111108  0.82683447  0.52060340  1
  P  P35  1  0.24888892  0.17316553  0.02060340  1
  P  P36  1  0.53622831  0.36114983  0.62516655  1
  P  P37  1  0.96377169  0.63885017  0.12516655  1
  P  P38  1  0.46377169  0.63885017  0.37483345  1
  P  P39  1  0.03622831  0.36114983  0.87483345  1
  V  V40  1  0.76555823  0.22442601  0.07505864  1
  V  V41  1  0.73444177  0.77557399  0.57505864  1
  V  V42  1  0.26555823  0.22442601  0.42494136  1
  V  V43  1  0.23444177  0.77557399  0.92494136  1
  Ag  Ag44  1  0.15113538  0.04522780  0.71355068  1
  Ag  Ag45  1  0.34886462  0.95477220  0.21355068  1
  Ag  Ag46  1  0.84886462  0.95477220  0.28644932  1
  Ag  Ag47  1  0.65113538  0.04522780  0.78644932  1
  Ag  Ag48  1  0.92452553  0.53081817  0.35301122  1
  Ag  Ag49  1  0.57547447  0.46918183  0.85301122  1
  Ag  Ag50  1  0.07547447  0.46918183  0.64698878  1
  Ag  Ag51  1  0.42452553  0.53081817  0.14698878  1
