# generated using pymatgen
data_Ba2V2O7
_symmetry_space_group_name_H-M   'P 1'
_cell_length_a   7.51992228
_cell_length_b   7.49826833
_cell_length_c   13.77056370
_cell_angle_alpha   88.05789950
_cell_angle_beta   81.34343650
_cell_angle_gamma   89.46243526
_symmetry_Int_Tables_number   1
_chemical_formula_structural   Ba2V2O7
_chemical_formula_sum   'Ba8 V8 O28'
_cell_volume   767.17894499
_cell_formula_units_Z   4
loop_
 _symmetry_equiv_pos_site_id
 _symmetry_equiv_pos_as_xyz
  1  'x, y, z'
loop_
 _atom_site_type_symbol
 _atom_site_label
 _atom_site_symmetry_multiplicity
 _atom_site_fract_x
 _atom_site_fract_y
 _atom_site_fract_z
 _atom_site_occupancy
  O  O0  1  0.33762681  0.20119790  0.16579419  1
  O  O1  1  0.66237319  0.79880210  0.83420581  1
  O  O2  1  0.08312074  0.20615831  0.02159162  1
  O  O3  1  0.91687926  0.79384169  0.97840838  1
  O  O4  1  0.04266614  0.43577257  0.84635606  1
  O  O5  1  0.95733386  0.56422743  0.15364394  1
  O  O6  1  0.01312558  0.81269846  0.44479043  1
  O  O7  1  0.98687442  0.18730154  0.55520957  1
  O  O8  1  0.43095966  0.59009163  0.70396329  1
  O  O9  1  0.56904034  0.40990837  0.29603671  1
  O  O10  1  0.40385002  0.19550914  0.45713473  1
  O  O11  1  0.59614998  0.80449086  0.54286527  1
  O  O12  1  0.35050339  0.79258405  0.33682110  1
  O  O13  1  0.64949661  0.20741595  0.66317890  1
  O  O14  1  0.33670075  0.20725119  0.83983951  1
  O  O15  1  0.66329925  0.79274881  0.16016049  1
  O  O16  1  0.96865187  0.00504504  0.80354721  1
  O  O17  1  0.03134813  0.99495496  0.19645279  1
  O  O18  1  0.87451013  0.49792787  0.65343475  1
  O  O19  1  0.12548987  0.50207213  0.34656525  1
  O  O20  1  0.73773582  0.09954104  0.34547320  1
  O  O21  1  0.26226418  0.90045896  0.65452680  1
  O  O22  1  0.72037398  0.40711569  0.47380987  1
  O  O23  1  0.27962602  0.59288431  0.52619013  1
  O  O24  1  0.67670537  0.49266333  0.04857329  1
  O  O25  1  0.32329463  0.50733667  0.95142671  1
  O  O26  1  0.68803365  0.10472202  0.94941665  1
  O  O27  1  0.31196635  0.89527798  0.05058335  1
  V  V28  1  0.80869307  0.65802825  0.08549876  1
  V  V29  1  0.19130693  0.34197175  0.91450124  1
  V  V30  1  0.80089479  0.92868612  0.89294963  1
  V  V31  1  0.19910521  0.07131388  0.10705037  1
  V  V32  1  0.19395230  0.67012335  0.41301627  1
  V  V33  1  0.80604770  0.32987665  0.58698373  1
  V  V34  1  0.39725272  0.72821761  0.60591062  1
  V  V35  1  0.60274728  0.27178239  0.39408938  1
  Ba  Ba36  1  0.66626717  0.41571066  0.84304508  1
  Ba  Ba37  1  0.33373283  0.58428934  0.15695492  1
  Ba  Ba38  1  0.28251829  0.83198752  0.86014018  1
  Ba  Ba39  1  0.71748171  0.16801248  0.13985982  1
  Ba  Ba40  1  0.73181548  0.73177949  0.34766057  1
  Ba  Ba41  1  0.26818452  0.26822051  0.65233943  1
  Ba  Ba42  1  0.12825628  0.13776293  0.36025557  1
  Ba  Ba43  1  0.87174372  0.86223707  0.63974443  1
