# generated using pymatgen
data_Na5Tb(MoO4)4
_symmetry_space_group_name_H-M   'P 1'
_cell_length_a   10.03091259
_cell_length_b   10.03091259
_cell_length_c   10.03091259
_cell_angle_alpha   109.60842072
_cell_angle_beta   109.40266417
_cell_angle_gamma   109.40266422
_symmetry_Int_Tables_number   1
_chemical_formula_structural   Na5Tb(MoO4)4
_chemical_formula_sum   'Na10 Tb2 Mo8 O32'
_cell_volume   776.95806418
_cell_formula_units_Z   2
loop_
 _symmetry_equiv_pos_site_id
 _symmetry_equiv_pos_as_xyz
  1  'x, y, z'
loop_
 _atom_site_type_symbol
 _atom_site_label
 _atom_site_symmetry_multiplicity
 _atom_site_fract_x
 _atom_site_fract_y
 _atom_site_fract_z
 _atom_site_occupancy
  O  O0  1  0.15354669  0.51878306  0.00615392  1
  O  O1  1  0.48737085  0.50615392  0.85260722  1
  O  O2  1  0.01262915  0.86523637  0.01878306  1
  O  O3  1  0.34645331  0.35260722  0.36523637  1
  O  O4  1  0.84645331  0.48121694  0.99384608  1
  O  O5  1  0.51262915  0.49384608  0.14739278  1
  O  O6  1  0.98737085  0.13476363  0.98121694  1
  O  O7  1  0.65354669  0.64739278  0.63476363  1
  O  O8  1  0.92153838  0.57083156  0.77164025  1
  O  O9  1  0.20080869  0.27164025  0.85010187  1
  O  O10  1  0.29919131  0.14929318  0.07083156  1
  O  O11  1  0.57846162  0.35010187  0.64929318  1
  O  O12  1  0.07846162  0.42916844  0.22835975  1
  O  O13  1  0.79919131  0.72835975  0.14989813  1
  O  O14  1  0.70080869  0.85070682  0.92916844  1
  O  O15  1  0.42153838  0.64989813  0.35070682  1
  O  O16  1  0.86885917  0.24355935  0.67119968  1
  O  O17  1  0.42764033  0.17119968  0.80234051  1
  O  O18  1  0.07235967  0.87470018  0.74355935  1
  O  O19  1  0.63114083  0.30234051  0.37470018  1
  O  O20  1  0.64409068  0.94672733  0.65759439  1
  O  O21  1  0.71086706  0.15759439  0.01350370  1
  O  O22  1  0.78913294  0.80263665  0.44672733  1
  O  O23  1  0.85590932  0.51350370  0.30263665  1
  O  O24  1  0.35590932  0.05327267  0.34240561  1
  O  O25  1  0.28913294  0.84240561  0.98649630  1
  O  O26  1  0.21086706  0.19736335  0.55327267  1
  O  O27  1  0.14409068  0.48649630  0.69736335  1
  O  O28  1  0.36885917  0.69765949  0.62529982  1
  O  O29  1  0.92764033  0.12529982  0.25644065  1
  O  O30  1  0.57235967  0.82880032  0.19765949  1
  O  O31  1  0.13114083  0.75644065  0.32880032  1
  Na  Na32  1  0.66724895  0.20338929  0.77807297  1
  Na  Na33  1  0.57468368  0.27807297  0.11082402  1
  Na  Na34  1  0.92531632  0.03614034  0.70338929  1
  Na  Na35  1  0.83275105  0.61082402  0.53614034  1
  Na  Na36  1  0.33275105  0.79661071  0.22192703  1
  Na  Na37  1  0.42531632  0.72192703  0.88917598  1
  Na  Na38  1  0.07468368  0.96385966  0.29661071  1
  Na  Na39  1  0.16724895  0.38917598  0.46385966  1
  Na  Na40  1  0.75000000  0.12500000  0.37500000  1
  Na  Na41  1  0.25000000  0.87500000  0.62500000  1
  Mo  Mo42  1  0.52488304  0.73233474  0.56979274  1
  Mo  Mo43  1  0.83745800  0.06979274  0.04490970  1
  Mo  Mo44  1  0.02488304  0.45509030  0.79254830  1
  Mo  Mo45  1  0.33745800  0.29254830  0.76766526  1
  Mo  Mo46  1  0.16254200  0.93020726  0.95509030  1
  Mo  Mo47  1  0.47511696  0.26766526  0.43020726  1
  Mo  Mo48  1  0.97511696  0.54490970  0.20745170  1
  Mo  Mo49  1  0.66254200  0.70745170  0.23233474  1
  Tb  Tb50  1  0.25000000  0.37500000  0.12500000  1
  Tb  Tb51  1  0.75000000  0.62500000  0.87500000  1
