# generated using pymatgen
data_Rb2MnV2O7
_symmetry_space_group_name_H-M   'P 1'
_cell_length_a   8.75817012
_cell_length_b   8.75817012
_cell_length_c   12.05909844
_cell_angle_alpha   90.00000000
_cell_angle_beta   90.00000000
_cell_angle_gamma   90.00000000
_symmetry_Int_Tables_number   1
_chemical_formula_structural   Rb2MnV2O7
_chemical_formula_sum   'Rb8 Mn4 V8 O28'
_cell_volume   924.99970419
_cell_formula_units_Z   4
loop_
 _symmetry_equiv_pos_site_id
 _symmetry_equiv_pos_as_xyz
  1  'x, y, z'
loop_
 _atom_site_type_symbol
 _atom_site_label
 _atom_site_symmetry_multiplicity
 _atom_site_fract_x
 _atom_site_fract_y
 _atom_site_fract_z
 _atom_site_occupancy
  O  O0  1  0.64022152  0.35977848  0.85553566  1
  O  O1  1  0.35977848  0.64022152  0.85553566  1
  O  O2  1  0.35977848  0.64022152  0.14446434  1
  O  O3  1  0.85977848  0.85977848  0.35553566  1
  O  O4  1  0.14022152  0.14022152  0.35553566  1
  O  O5  1  0.85977848  0.85977848  0.64446434  1
  O  O6  1  0.14022152  0.14022152  0.64446434  1
  O  O7  1  0.64022152  0.35977848  0.14446434  1
  O  O8  1  0.50000000  0.50000000  0.66362603  1
  O  O9  1  0.00000000  0.00000000  0.16362603  1
  O  O10  1  0.00000000  0.00000000  0.83637397  1
  O  O11  1  0.50000000  0.50000000  0.33637397  1
  O  O12  1  0.18349790  0.58669309  0.33747722  1
  O  O13  1  0.81650210  0.41330691  0.33747722  1
  O  O14  1  0.58669309  0.18349790  0.66252278  1
  O  O15  1  0.08669309  0.31650210  0.83747722  1
  O  O16  1  0.91330691  0.68349790  0.83747722  1
  O  O17  1  0.31650210  0.08669309  0.16252278  1
  O  O18  1  0.68349790  0.91330691  0.16252278  1
  O  O19  1  0.41330691  0.81650210  0.66252278  1
  O  O20  1  0.58669309  0.18349790  0.33747722  1
  O  O21  1  0.31650210  0.08669309  0.83747722  1
  O  O22  1  0.68349790  0.91330691  0.83747722  1
  O  O23  1  0.08669309  0.31650210  0.16252278  1
  O  O24  1  0.91330691  0.68349790  0.16252278  1
  O  O25  1  0.41330691  0.81650210  0.33747722  1
  O  O26  1  0.18349790  0.58669309  0.66252278  1
  O  O27  1  0.81650210  0.41330691  0.66252278  1
  V  V28  1  0.63914906  0.36085094  0.71607161  1
  V  V29  1  0.36085094  0.63914906  0.71607161  1
  V  V30  1  0.36085094  0.63914906  0.28392839  1
  V  V31  1  0.86085094  0.86085094  0.21607161  1
  V  V32  1  0.13914906  0.13914906  0.21607161  1
  V  V33  1  0.86085094  0.86085094  0.78392839  1
  V  V34  1  0.13914906  0.13914906  0.78392839  1
  V  V35  1  0.63914906  0.36085094  0.28392839  1
  Mn  Mn36  1  0.00000000  0.50000000  0.75000000  1
  Mn  Mn37  1  0.00000000  0.50000000  0.25000000  1
  Mn  Mn38  1  0.50000000  0.00000000  0.75000000  1
  Mn  Mn39  1  0.50000000  0.00000000  0.25000000  1
  Rb  Rb40  1  0.15061902  0.84938098  0.50000000  1
  Rb  Rb41  1  0.65061902  0.65061902  0.00000000  1
  Rb  Rb42  1  0.34938098  0.34938098  0.00000000  1
  Rb  Rb43  1  0.84938098  0.15061902  0.50000000  1
  Rb  Rb44  1  0.67962713  0.67962713  0.50000000  1
  Rb  Rb45  1  0.82037287  0.17962713  0.00000000  1
  Rb  Rb46  1  0.17962713  0.82037287  0.00000000  1
  Rb  Rb47  1  0.32037287  0.32037287  0.50000000  1
