# generated using pymatgen
data_Na5La(MoO4)4
_symmetry_space_group_name_H-M   'P 1'
_cell_length_a   10.17572975
_cell_length_b   10.17572975
_cell_length_c   10.17572975
_cell_angle_alpha   109.71701950
_cell_angle_beta   109.34846116
_cell_angle_gamma   109.34846121
_symmetry_Int_Tables_number   1
_chemical_formula_structural   Na5La(MoO4)4
_chemical_formula_sum   'Na10 La2 Mo8 O32'
_cell_volume   811.08954755
_cell_formula_units_Z   2
loop_
 _symmetry_equiv_pos_site_id
 _symmetry_equiv_pos_as_xyz
  1  'x, y, z'
loop_
 _atom_site_type_symbol
 _atom_site_label
 _atom_site_symmetry_multiplicity
 _atom_site_fract_x
 _atom_site_fract_y
 _atom_site_fract_z
 _atom_site_occupancy
  O  O0  1  0.15112789  0.52004043  0.99660089  1
  O  O1  1  0.47656046  0.49660089  0.84547301  1
  O  O2  1  0.02343954  0.86891255  0.02004043  1
  O  O3  1  0.34887211  0.34547301  0.36891255  1
  O  O4  1  0.84887211  0.47995957  0.00339911  1
  O  O5  1  0.52343954  0.50339911  0.15452699  1
  O  O6  1  0.97656046  0.13108745  0.97995957  1
  O  O7  1  0.65112789  0.65452699  0.63108745  1
  O  O8  1  0.92364655  0.56658957  0.76360578  1
  O  O9  1  0.19701622  0.26360578  0.83995924  1
  O  O10  1  0.30298378  0.14294302  0.06658957  1
  O  O11  1  0.57635345  0.33995924  0.64294302  1
  O  O12  1  0.07635345  0.43341043  0.23639422  1
  O  O13  1  0.80298378  0.73639422  0.16004076  1
  O  O14  1  0.69701622  0.85705698  0.93341043  1
  O  O15  1  0.42364655  0.66004076  0.35705698  1
  O  O16  1  0.87234291  0.24440122  0.66951166  1
  O  O17  1  0.42511043  0.16951166  0.79716875  1
  O  O18  1  0.07488957  0.87205831  0.74440122  1
  O  O19  1  0.62765709  0.29716875  0.37205831  1
  O  O20  1  0.64441050  0.95290693  0.66239499  1
  O  O21  1  0.70948806  0.16239499  0.01798449  1
  O  O22  1  0.79051194  0.80849643  0.45290693  1
  O  O23  1  0.85558950  0.51798449  0.30849643  1
  O  O24  1  0.35558950  0.04709307  0.33760501  1
  O  O25  1  0.29051194  0.83760501  0.98201551  1
  O  O26  1  0.20948806  0.19150357  0.54709307  1
  O  O27  1  0.14441050  0.48201551  0.69150357  1
  O  O28  1  0.37234291  0.70283125  0.62794169  1
  O  O29  1  0.92511043  0.12794169  0.25559878  1
  O  O30  1  0.57488957  0.83048834  0.20283125  1
  O  O31  1  0.12765709  0.75559878  0.33048834  1
  Na  Na32  1  0.66909067  0.20590268  0.78377718  1
  Na  Na33  1  0.57787450  0.28377718  0.11468651  1
  Na  Na34  1  0.92212550  0.03681201  0.70590268  1
  Na  Na35  1  0.83090933  0.61468651  0.53681201  1
  Na  Na36  1  0.33090933  0.79409732  0.21622282  1
  Na  Na37  1  0.42212550  0.71622282  0.88531349  1
  Na  Na38  1  0.07787450  0.96318799  0.29409732  1
  Na  Na39  1  0.16909067  0.38531349  0.46318799  1
  Na  Na40  1  0.75000000  0.12500000  0.37500000  1
  Na  Na41  1  0.25000000  0.87500000  0.62500000  1
  Mo  Mo42  1  0.52588518  0.74104611  0.57295618  1
  Mo  Mo43  1  0.83191007  0.07295618  0.04707100  1
  Mo  Mo44  1  0.02588518  0.45292900  0.78483907  1
  Mo  Mo45  1  0.33191007  0.28483907  0.75895389  1
  Mo  Mo46  1  0.16808993  0.92704382  0.95292900  1
  Mo  Mo47  1  0.47411482  0.25895389  0.42704382  1
  Mo  Mo48  1  0.97411482  0.54707100  0.21516093  1
  Mo  Mo49  1  0.66808993  0.71516093  0.24104611  1
  La  La50  1  0.25000000  0.37500000  0.12500000  1
  La  La51  1  0.75000000  0.62500000  0.87500000  1
