# generated using pymatgen
data_Tb2Zr2O7
_symmetry_space_group_name_H-M   'P 1'
_cell_length_a   10.48744804
_cell_length_b   10.48744804
_cell_length_c   5.45720105
_cell_angle_alpha   89.99988547
_cell_angle_beta   89.99988547
_cell_angle_gamma   89.99997694
_symmetry_Int_Tables_number   1
_chemical_formula_structural   Tb2Zr2O7
_chemical_formula_sum   'Tb8 Zr8 O28'
_cell_volume   600.21880560
_cell_formula_units_Z   4
loop_
 _symmetry_equiv_pos_site_id
 _symmetry_equiv_pos_as_xyz
  1  'x, y, z'
loop_
 _atom_site_type_symbol
 _atom_site_label
 _atom_site_symmetry_multiplicity
 _atom_site_fract_x
 _atom_site_fract_y
 _atom_site_fract_z
 _atom_site_occupancy
  Tb  Tb0  1  0.12472065  0.62472052  0.49999842  1
  Tb  Tb1  1  0.12472443  0.87528277  0.99999762  1
  Tb  Tb2  1  0.37527913  0.62472064  0.99999823  1
  Tb  Tb3  1  0.37527977  0.87527958  0.49999815  1
  Tb  Tb4  1  0.62472052  0.12472065  0.49999842  1
  Tb  Tb5  1  0.62472064  0.37527913  0.99999823  1
  Tb  Tb6  1  0.87527877  0.12472043  0.99999762  1
  Tb  Tb7  1  0.87527958  0.37527977  0.49999815  1
  Zr  Zr8  1  0.11131387  0.11131387  0.48023641  1
  Zr  Zr9  1  0.11131477  0.38868587  0.98023584  1
  Zr  Zr10  1  0.38868587  0.11131477  0.98023584  1
  Zr  Zr11  1  0.38868642  0.38868642  0.48023504  1
  Zr  Zr12  1  0.61131349  0.61131349  0.51976401  1
  Zr  Zr13  1  0.61131446  0.88868574  0.01976335  1
  Zr  Zr14  1  0.88868574  0.61131446  0.01976335  1
  Zr  Zr15  1  0.88868619  0.88868619  0.51976303  1
  O  O16  1  0.96108264  0.74436953  0.28381139  1
  O  O17  1  0.96108310  0.75563014  0.78381121  1
  O  O18  1  0.00458004  0.00458004  0.73244714  1
  O  O19  1  0.00458078  0.49541924  0.23244787  1
  O  O20  1  0.24436897  0.46108817  0.71619287  1
  O  O21  1  0.24436869  0.03891184  0.21619205  1
  O  O22  1  0.25000006  0.75000000  0.24999743  1
  O  O23  1  0.25000036  0.75000039  0.74999827  1
  O  O24  1  0.25563147  0.46108802  0.21619237  1
  O  O25  1  0.25563090  0.03891191  0.71619285  1
  O  O26  1  0.49541924  0.00458078  0.23244787  1
  O  O27  1  0.49541936  0.49541936  0.73244722  1
  O  O28  1  0.53891697  0.74436895  0.78381038  1
  O  O29  1  0.53891710  0.75563018  0.28381148  1
  O  O30  1  0.46108817  0.24436897  0.71619287  1
  O  O31  1  0.46108802  0.25563147  0.21619237  1
  O  O32  1  0.50458228  0.99541803  0.76755093  1
  O  O33  1  0.50458191  0.50458191  0.26754981  1
  O  O34  1  0.74436953  0.96108264  0.28381139  1
  O  O35  1  0.74436895  0.53891697  0.78381038  1
  O  O36  1  0.75000000  0.25000006  0.24999743  1
  O  O37  1  0.75000039  0.25000036  0.74999827  1
  O  O38  1  0.75563014  0.96108310  0.78381121  1
  O  O39  1  0.75563018  0.53891710  0.28381148  1
  O  O40  1  0.99541870  0.99541870  0.26755193  1
  O  O41  1  0.99541803  0.50458228  0.76755093  1
  O  O42  1  0.03891184  0.24436869  0.21619205  1
  O  O43  1  0.03891191  0.25563090  0.71619285  1
