# generated using pymatgen
data_Na5Lu(MoO4)4
_symmetry_space_group_name_H-M   'P 1'
_cell_length_a   9.95461006
_cell_length_b   9.95461006
_cell_length_c   9.95461006
_cell_angle_alpha   109.53271932
_cell_angle_beta   109.44048002
_cell_angle_gamma   109.44048009
_symmetry_Int_Tables_number   1
_chemical_formula_structural   Na5Lu(MoO4)4
_chemical_formula_sum   'Na10 Lu2 Mo8 O32'
_cell_volume   759.36485223
_cell_formula_units_Z   2
loop_
 _symmetry_equiv_pos_site_id
 _symmetry_equiv_pos_as_xyz
  1  'x, y, z'
loop_
 _atom_site_type_symbol
 _atom_site_label
 _atom_site_symmetry_multiplicity
 _atom_site_fract_x
 _atom_site_fract_y
 _atom_site_fract_z
 _atom_site_occupancy
  O  O0  1  0.15481803  0.51785300  0.01076160  1
  O  O1  1  0.49290860  0.51076160  0.85594357  1
  O  O2  1  0.00709140  0.86303497  0.01785300  1
  O  O3  1  0.34518197  0.35594357  0.36303497  1
  O  O4  1  0.84518197  0.48214700  0.98923840  1
  O  O5  1  0.50709140  0.48923840  0.14405643  1
  O  O6  1  0.99290860  0.13696503  0.98214700  1
  O  O7  1  0.65481803  0.64405643  0.63696503  1
  O  O8  1  0.92019636  0.57321734  0.77532944  1
  O  O9  1  0.20211210  0.27532944  0.85513308  1
  O  O10  1  0.29788790  0.15302098  0.07321734  1
  O  O11  1  0.57980364  0.35513308  0.65302098  1
  O  O12  1  0.07980364  0.42678266  0.22467056  1
  O  O13  1  0.79788790  0.72467056  0.14486692  1
  O  O14  1  0.70211210  0.84697902  0.92678266  1
  O  O15  1  0.42019636  0.64486692  0.34697902  1
  O  O16  1  0.86700807  0.24330943  0.67156129  1
  O  O17  1  0.42825187  0.17156129  0.80455322  1
  O  O18  1  0.07174813  0.87630136  0.74330943  1
  O  O19  1  0.63299193  0.30455322  0.37630136  1
  O  O20  1  0.64399057  0.94370231  0.65481208  1
  O  O21  1  0.71110976  0.15481208  0.01082151  1
  O  O22  1  0.78889024  0.79971174  0.44370231  1
  O  O23  1  0.85600943  0.51082151  0.29971174  1
  O  O24  1  0.35600943  0.05629769  0.34518792  1
  O  O25  1  0.28889024  0.84518792  0.98917849  1
  O  O26  1  0.21110976  0.20028826  0.55629769  1
  O  O27  1  0.14399057  0.48917849  0.70028826  1
  O  O28  1  0.36700807  0.69544678  0.62369864  1
  O  O29  1  0.92825187  0.12369864  0.25669057  1
  O  O30  1  0.57174813  0.82843871  0.19544678  1
  O  O31  1  0.13299193  0.75669057  0.32843871  1
  Na  Na32  1  0.66547290  0.20174389  0.77535626  1
  Na  Na33  1  0.57361237  0.27535626  0.10988335  1
  Na  Na34  1  0.92638763  0.03627098  0.70174389  1
  Na  Na35  1  0.83452710  0.60988335  0.53627098  1
  Na  Na36  1  0.33452710  0.79825611  0.22464374  1
  Na  Na37  1  0.42638763  0.72464374  0.89011665  1
  Na  Na38  1  0.07361237  0.96372902  0.29825611  1
  Na  Na39  1  0.16547290  0.39011665  0.46372902  1
  Na  Na40  1  0.75000000  0.12500000  0.37500000  1
  Na  Na41  1  0.25000000  0.87500000  0.62500000  1
  Mo  Mo42  1  0.52419999  0.72795513  0.56780908  1
  Mo  Mo43  1  0.83985394  0.06780908  0.04360909  1
  Mo  Mo44  1  0.02419999  0.45639091  0.79624486  1
  Mo  Mo45  1  0.33985394  0.29624486  0.77204487  1
  Mo  Mo46  1  0.16014606  0.93219092  0.95639091  1
  Mo  Mo47  1  0.47580001  0.27204487  0.43219092  1
  Mo  Mo48  1  0.97580001  0.54360909  0.20375514  1
  Mo  Mo49  1  0.66014606  0.70375514  0.22795513  1
  Lu  Lu50  1  0.25000000  0.37500000  0.12500000  1
  Lu  Lu51  1  0.75000000  0.62500000  0.87500000  1
