# generated using pymatgen
data_SrCr(Si2O5)2
_symmetry_space_group_name_H-M   'P 1'
_cell_length_a   7.55845885
_cell_length_b   7.55845885
_cell_length_c   15.85503444
_cell_angle_alpha   90.00000000
_cell_angle_beta   90.00000000
_cell_angle_gamma   90.00000000
_symmetry_Int_Tables_number   1
_chemical_formula_structural   SrCr(Si2O5)2
_chemical_formula_sum   'Sr4 Cr4 Si16 O40'
_cell_volume   905.80287703
_cell_formula_units_Z   4
loop_
 _symmetry_equiv_pos_site_id
 _symmetry_equiv_pos_as_xyz
  1  'x, y, z'
loop_
 _atom_site_type_symbol
 _atom_site_label
 _atom_site_symmetry_multiplicity
 _atom_site_fract_x
 _atom_site_fract_y
 _atom_site_fract_z
 _atom_site_occupancy
  O  O0  1  0.00768701  0.36812190  0.58661497  1
  O  O1  1  0.49231299  0.13187810  0.58661497  1
  O  O2  1  0.86812190  0.50768701  0.91338503  1
  O  O3  1  0.36812190  0.49231299  0.58661497  1
  O  O4  1  0.13187810  0.00768701  0.58661497  1
  O  O5  1  0.99231299  0.86812190  0.91338503  1
  O  O6  1  0.50768701  0.63187810  0.91338503  1
  O  O7  1  0.63187810  0.99231299  0.91338503  1
  O  O8  1  0.99231299  0.63187810  0.41338503  1
  O  O9  1  0.50768701  0.86812190  0.41338503  1
  O  O10  1  0.13187810  0.49231299  0.08661497  1
  O  O11  1  0.63187810  0.50768701  0.41338503  1
  O  O12  1  0.86812190  0.99231299  0.41338503  1
  O  O13  1  0.00768701  0.13187810  0.08661497  1
  O  O14  1  0.49231299  0.36812190  0.08661497  1
  O  O15  1  0.00275003  0.28965111  0.36757073  1
  O  O16  1  0.36812190  0.00768701  0.08661497  1
  O  O17  1  0.50275003  0.78965111  0.63242927  1
  O  O18  1  0.21034889  0.49724997  0.86757073  1
  O  O19  1  0.71034889  0.50275003  0.63242927  1
  O  O20  1  0.78965111  0.99724997  0.63242927  1
  O  O21  1  0.00275003  0.21034889  0.86757073  1
  O  O22  1  0.49724997  0.28965111  0.86757073  1
  O  O23  1  0.28965111  0.00275003  0.86757073  1
  O  O24  1  0.46272486  0.96272486  0.25000000  1
  O  O25  1  0.53727514  0.46272486  0.25000000  1
  O  O26  1  0.96272486  0.03727514  0.25000000  1
  O  O27  1  0.03727514  0.53727514  0.25000000  1
  O  O28  1  0.53727514  0.03727514  0.75000000  1
  O  O29  1  0.46272486  0.53727514  0.75000000  1
  O  O30  1  0.03727514  0.96272486  0.75000000  1
  O  O31  1  0.96272486  0.46272486  0.75000000  1
  O  O32  1  0.71034889  0.99724997  0.13242927  1
  O  O33  1  0.50275003  0.71034889  0.13242927  1
  O  O34  1  0.99724997  0.78965111  0.13242927  1
  O  O35  1  0.21034889  0.00275003  0.36757073  1
  O  O36  1  0.28965111  0.49724997  0.36757073  1
  O  O37  1  0.78965111  0.50275003  0.13242927  1
  O  O38  1  0.49724997  0.21034889  0.36757073  1
  O  O39  1  0.99724997  0.71034889  0.63242927  1
  Si  Si40  1  0.92531364  0.50859809  0.65142313  1
  Si  Si41  1  0.57468636  0.99140191  0.65142313  1
  Si  Si42  1  0.00859809  0.42531364  0.84857687  1
  Si  Si43  1  0.50859809  0.57468636  0.65142313  1
  Si  Si44  1  0.99140191  0.92531364  0.65142313  1
  Si  Si45  1  0.07468636  0.00859809  0.84857687  1
  Si  Si46  1  0.42531364  0.49140191  0.84857687  1
  Si  Si47  1  0.49140191  0.07468636  0.84857687  1
  Si  Si48  1  0.07468636  0.49140191  0.34857687  1
  Si  Si49  1  0.42531364  0.00859809  0.34857687  1
  Si  Si50  1  0.99140191  0.57468636  0.15142313  1
  Si  Si51  1  0.49140191  0.42531364  0.34857687  1
  Si  Si52  1  0.00859809  0.07468636  0.34857687  1
  Si  Si53  1  0.92531364  0.99140191  0.15142313  1
  Si  Si54  1  0.57468636  0.50859809  0.15142313  1
  Si  Si55  1  0.50859809  0.92531364  0.15142313  1
  Cr  Cr56  1  0.25000000  0.25000000  0.58738405  1
  Cr  Cr57  1  0.75000000  0.75000000  0.91261595  1
  Cr  Cr58  1  0.75000000  0.75000000  0.41261595  1
  Cr  Cr59  1  0.25000000  0.25000000  0.08738405  1
  Sr  Sr60  1  0.25000000  0.75000000  0.50000000  1
  Sr  Sr61  1  0.75000000  0.25000000  0.50000000  1
  Sr  Sr62  1  0.75000000  0.25000000  0.00000000  1
  Sr  Sr63  1  0.25000000  0.75000000  0.00000000  1
