# generated using pymatgen
data_BaMn2V2O8
_symmetry_space_group_name_H-M   'P 1'
_cell_length_a   8.85031655
_cell_length_b   10.08841019
_cell_length_c   10.08841019
_cell_angle_alpha   78.90693804
_cell_angle_beta   63.98299892
_cell_angle_gamma   63.98299892
_symmetry_Int_Tables_number   1
_chemical_formula_structural   BaMn2V2O8
_chemical_formula_sum   'Ba4 Mn8 V8 O32'
_cell_volume   727.44286891
_cell_formula_units_Z   4
loop_
 _symmetry_equiv_pos_site_id
 _symmetry_equiv_pos_as_xyz
  1  'x, y, z'
loop_
 _atom_site_type_symbol
 _atom_site_label
 _atom_site_symmetry_multiplicity
 _atom_site_fract_x
 _atom_site_fract_y
 _atom_site_fract_z
 _atom_site_occupancy
  O  O0  1  0.34087086  0.58782361  0.40946045  1
  O  O1  1  0.33815493  0.91217639  0.09053955  1
  O  O2  1  0.25033132  0.09053955  0.58782361  1
  O  O3  1  0.92869447  0.40946045  0.91217639  1
  O  O4  1  0.15912914  0.09053955  0.91217639  1
  O  O5  1  0.57130553  0.58782361  0.09053955  1
  O  O6  1  0.24966868  0.91217639  0.40946045  1
  O  O7  1  0.16184507  0.40946045  0.58782361  1
  O  O8  1  0.65912914  0.41217639  0.59053955  1
  O  O9  1  0.66184507  0.08782361  0.90946045  1
  O  O10  1  0.74966868  0.90946045  0.41217639  1
  O  O11  1  0.07130553  0.59053955  0.08782361  1
  O  O12  1  0.84087086  0.90946045  0.08782361  1
  O  O13  1  0.42869447  0.41217639  0.90946045  1
  O  O14  1  0.75033132  0.08782361  0.59053955  1
  O  O15  1  0.83815493  0.59053955  0.41217639  1
  O  O16  1  0.96255538  0.72662466  0.58469269  1
  O  O17  1  0.27387272  0.77337534  0.91530731  1
  O  O18  1  0.04724807  0.91530731  0.72662466  1
  O  O19  1  0.68918003  0.58469269  0.77337534  1
  O  O20  1  0.77387272  0.41530731  0.27337534  1
  O  O21  1  0.54724807  0.22662466  0.41530731  1
  O  O22  1  0.18918003  0.27337534  0.08469269  1
  O  O23  1  0.46255538  0.08469269  0.22662466  1
  O  O24  1  0.31081997  0.41530731  0.22662466  1
  O  O25  1  0.95275193  0.08469269  0.27337534  1
  O  O26  1  0.72612728  0.22662466  0.08469269  1
  O  O27  1  0.03744462  0.27337534  0.41530731  1
  O  O28  1  0.22612728  0.58469269  0.72662466  1
  O  O29  1  0.45275193  0.77337534  0.58469269  1
  O  O30  1  0.81081997  0.72662466  0.91530731  1
  O  O31  1  0.53744462  0.91530731  0.77337534  1
  V  V32  1  0.32979349  0.92020651  0.92020651  1
  V  V33  1  0.75000000  0.57979349  0.92020651  1
  V  V34  1  0.25000000  0.92020651  0.57979349  1
  V  V35  1  0.17020651  0.57979349  0.57979349  1
  V  V36  1  0.67020651  0.07979349  0.07979349  1
  V  V37  1  0.25000000  0.42020651  0.07979349  1
  V  V38  1  0.75000000  0.07979349  0.42020651  1
  V  V39  1  0.82979349  0.42020651  0.42020651  1
  Mn  Mn40  1  0.04272159  0.75000000  0.91455682  1
  Mn  Mn41  1  0.45727841  0.58544318  0.75000000  1
  Mn  Mn42  1  0.79272159  0.91455682  0.75000000  1
  Mn  Mn43  1  0.70727841  0.75000000  0.58544318  1
  Mn  Mn44  1  0.95727841  0.25000000  0.08544318  1
  Mn  Mn45  1  0.54272159  0.41455682  0.25000000  1
  Mn  Mn46  1  0.20727841  0.08544318  0.25000000  1
  Mn  Mn47  1  0.29272159  0.25000000  0.41455682  1
  Ba  Ba48  1  0.37500000  0.25000000  0.75000000  1
  Ba  Ba49  1  0.62500000  0.75000000  0.25000000  1
  Ba  Ba50  1  0.87500000  0.25000000  0.75000000  1
  Ba  Ba51  1  0.12500000  0.75000000  0.25000000  1
