# generated using pymatgen
data_BaV2(CoO4)2
_symmetry_space_group_name_H-M   'P 1'
_cell_length_a   8.51086739
_cell_length_b   9.91269410
_cell_length_c   9.91269410
_cell_angle_alpha   79.38019806
_cell_angle_beta   64.57740509
_cell_angle_gamma   64.57740507
_symmetry_Int_Tables_number   1
_chemical_formula_structural   BaV2(CoO4)2
_chemical_formula_sum   'Ba4 V8 Co8 O32'
_cell_volume   682.16975369
_cell_formula_units_Z   4
loop_
 _symmetry_equiv_pos_site_id
 _symmetry_equiv_pos_as_xyz
  1  'x, y, z'
loop_
 _atom_site_type_symbol
 _atom_site_label
 _atom_site_symmetry_multiplicity
 _atom_site_fract_x
 _atom_site_fract_y
 _atom_site_fract_z
 _atom_site_occupancy
  O  O0  1  0.34922557  0.58492316  0.40890886  1
  O  O1  1  0.34305759  0.91507684  0.09109114  1
  O  O2  1  0.25813443  0.09109114  0.58492316  1
  O  O3  1  0.93414873  0.40890886  0.91507684  1
  O  O4  1  0.15077443  0.09109114  0.91507684  1
  O  O5  1  0.56585127  0.58492316  0.09109114  1
  O  O6  1  0.24186557  0.91507684  0.40890886  1
  O  O7  1  0.15694241  0.40890886  0.58492316  1
  O  O8  1  0.65077443  0.41507684  0.59109114  1
  O  O9  1  0.65694241  0.08492316  0.90890886  1
  O  O10  1  0.74186557  0.90890886  0.41507684  1
  O  O11  1  0.06585127  0.59109114  0.08492316  1
  O  O12  1  0.84922557  0.90890886  0.08492316  1
  O  O13  1  0.43414873  0.41507684  0.90890886  1
  O  O14  1  0.75813443  0.08492316  0.59109114  1
  O  O15  1  0.84305759  0.59109114  0.41507684  1
  O  O16  1  0.72665461  0.23078061  0.08493315  1
  O  O17  1  0.04236837  0.26921939  0.41506685  1
  O  O18  1  0.31158776  0.41506685  0.23078061  1
  O  O19  1  0.95743522  0.08493315  0.26921939  1
  O  O20  1  0.54236837  0.91506685  0.76921939  1
  O  O21  1  0.81158776  0.73078061  0.91506685  1
  O  O22  1  0.45743522  0.76921939  0.58493315  1
  O  O23  1  0.22665461  0.58493315  0.73078061  1
  O  O24  1  0.04256478  0.91506685  0.73078061  1
  O  O25  1  0.68841224  0.58493315  0.76921939  1
  O  O26  1  0.95763163  0.73078061  0.58493315  1
  O  O27  1  0.27334539  0.76921939  0.91506685  1
  O  O28  1  0.45763163  0.08493315  0.23078061  1
  O  O29  1  0.18841224  0.26921939  0.08493315  1
  O  O30  1  0.54256478  0.23078061  0.41506685  1
  O  O31  1  0.77334539  0.41506685  0.26921939  1
  V  V32  1  0.25000000  0.42066242  0.07933758  1
  V  V33  1  0.32933758  0.92066242  0.92066242  1
  V  V34  1  0.75000000  0.57933758  0.92066242  1
  V  V35  1  0.25000000  0.92066242  0.57933758  1
  V  V36  1  0.17066242  0.57933758  0.57933758  1
  V  V37  1  0.67066242  0.07933758  0.07933758  1
  V  V38  1  0.75000000  0.07933758  0.42066242  1
  V  V39  1  0.82933758  0.42066242  0.42066242  1
  Co  Co40  1  0.04348811  0.75000000  0.91302378  1
  Co  Co41  1  0.20651189  0.08697622  0.25000000  1
  Co  Co42  1  0.79348811  0.91302378  0.75000000  1
  Co  Co43  1  0.54348811  0.41302378  0.25000000  1
  Co  Co44  1  0.95651189  0.25000000  0.08697622  1
  Co  Co45  1  0.70651189  0.75000000  0.58697622  1
  Co  Co46  1  0.45651189  0.58697622  0.75000000  1
  Co  Co47  1  0.29348811  0.25000000  0.41302378  1
  Ba  Ba48  1  0.12500000  0.75000000  0.25000000  1
  Ba  Ba49  1  0.87500000  0.25000000  0.75000000  1
  Ba  Ba50  1  0.62500000  0.75000000  0.25000000  1
  Ba  Ba51  1  0.37500000  0.25000000  0.75000000  1
