# generated using pymatgen
data_Gd2W4O15
_symmetry_space_group_name_H-M   'P 1'
_cell_length_a   9.05832636
_cell_length_b   12.68349607
_cell_length_c   10.55236671
_cell_angle_alpha   90.00000000
_cell_angle_beta   90.32169936
_cell_angle_gamma   90.00000000
_symmetry_Int_Tables_number   1
_chemical_formula_structural   Gd2W4O15
_chemical_formula_sum   'Gd8 W16 O60'
_cell_volume   1212.35545756
_cell_formula_units_Z   4
loop_
 _symmetry_equiv_pos_site_id
 _symmetry_equiv_pos_as_xyz
  1  'x, y, z'
loop_
 _atom_site_type_symbol
 _atom_site_label
 _atom_site_symmetry_multiplicity
 _atom_site_fract_x
 _atom_site_fract_y
 _atom_site_fract_z
 _atom_site_occupancy
  Gd  Gd0  1  0.07942491  0.35293219  0.77333621  1
  Gd  Gd1  1  0.15311774  0.12495957  0.25564384  1
  Gd  Gd2  1  0.34688226  0.62495957  0.24435616  1
  Gd  Gd3  1  0.42057509  0.85293219  0.72666379  1
  Gd  Gd4  1  0.57942491  0.14706781  0.27333621  1
  Gd  Gd5  1  0.65311774  0.37504043  0.75564384  1
  Gd  Gd6  1  0.84688226  0.87504043  0.74435616  1
  Gd  Gd7  1  0.92057509  0.64706781  0.22666379  1
  W  W8  1  0.07651189  0.40969278  0.39749688  1
  W  W9  1  0.12640455  0.84537969  0.44169659  1
  W  W10  1  0.13651921  0.66588214  0.90813361  1
  W  W11  1  0.19399316  0.05852614  0.87753139  1
  W  W12  1  0.30600684  0.55852614  0.62246861  1
  W  W13  1  0.36348079  0.16588214  0.59186639  1
  W  W14  1  0.37359545  0.34537969  0.05830341  1
  W  W15  1  0.42348811  0.90969278  0.10250312  1
  W  W16  1  0.57651189  0.09030722  0.89749688  1
  W  W17  1  0.62640455  0.65462031  0.94169659  1
  W  W18  1  0.63651921  0.83411786  0.40813361  1
  W  W19  1  0.69399316  0.44147386  0.37753139  1
  W  W20  1  0.80600684  0.94147386  0.12246861  1
  W  W21  1  0.86348079  0.33411786  0.09186639  1
  W  W22  1  0.87359545  0.15462031  0.55830341  1
  W  W23  1  0.92348811  0.59030722  0.60250312  1
  O  O24  1  0.02782798  0.27122472  0.15009298  1
  O  O25  1  0.03023289  0.14257078  0.45427500  1
  O  O26  1  0.08778485  0.16931002  0.82380525  1
  O  O27  1  0.11136078  0.65037114  0.60670014  1
  O  O28  1  0.11268098  0.51405495  0.28483705  1
  O  O29  1  0.10799591  0.94339101  0.80858989  1
  O  O30  1  0.11643962  0.45113583  0.56637947  1
  O  O31  1  0.12316082  0.72372138  0.34280274  1
  O  O32  1  0.12819149  0.95783670  0.33837912  1
  O  O33  1  0.12144691  0.63519636  0.07784617  1
  O  O34  1  0.15115988  0.05705078  0.04480408  1
  O  O35  1  0.17412941  0.54469721  0.81354569  1
  O  O36  1  0.19724001  0.30638981  0.35858179  1
  O  O37  1  0.21112551  0.35173553  0.95856132  1
  O  O38  1  0.21774486  0.25571557  0.62536178  1
  O  O39  1  0.28225514  0.75571557  0.87463822  1
  O  O40  1  0.28887449  0.85173553  0.54143868  1
  O  O41  1  0.30275999  0.80638981  0.14141821  1
  O  O42  1  0.32587059  0.04469721  0.68645431  1
  O  O43  1  0.34884012  0.55705078  0.45519592  1
  O  O44  1  0.37855309  0.13519636  0.42215383  1
  O  O45  1  0.37180851  0.45783670  0.16162088  1
  O  O46  1  0.37683918  0.22372138  0.15719726  1
  O  O47  1  0.38356038  0.95113583  0.93362053  1
  O  O48  1  0.39200409  0.44339101  0.69141011  1
  O  O49  1  0.38863922  0.15037114  0.89329986  1
  O  O50  1  0.38731902  0.01405495  0.21516295  1
  O  O51  1  0.41221515  0.66931002  0.67619475  1
  O  O52  1  0.46976711  0.64257078  0.04572500  1
  O  O53  1  0.47217202  0.77122472  0.34990702  1
  O  O54  1  0.52782798  0.22877528  0.65009298  1
  O  O55  1  0.53023289  0.35742922  0.95427500  1
  O  O56  1  0.58778485  0.33068998  0.32380525  1
  O  O57  1  0.61268098  0.98594505  0.78483705  1
  O  O58  1  0.61136078  0.84962886  0.10670014  1
  O  O59  1  0.60799591  0.55660899  0.30858989  1
  O  O60  1  0.61643962  0.04886417  0.06637947  1
  O  O61  1  0.62316082  0.77627862  0.84280274  1
  O  O62  1  0.62819149  0.54216330  0.83837912  1
  O  O63  1  0.62144691  0.86480364  0.57784617  1
  O  O64  1  0.65115988  0.44294922  0.54480408  1
  O  O65  1  0.67412941  0.95530279  0.31354569  1
  O  O66  1  0.69724001  0.19361019  0.85858179  1
  O  O67  1  0.71112551  0.14826447  0.45856132  1
  O  O68  1  0.71774486  0.24428443  0.12536178  1
  O  O69  1  0.78225514  0.74428443  0.37463822  1
  O  O70  1  0.78887449  0.64826447  0.04143868  1
  O  O71  1  0.80275999  0.69361019  0.64141821  1
  O  O72  1  0.82587059  0.45530279  0.18645431  1
  O  O73  1  0.84884012  0.94294922  0.95519592  1
  O  O74  1  0.87855309  0.36480364  0.92215383  1
  O  O75  1  0.87180851  0.04216330  0.66162088  1
  O  O76  1  0.87683918  0.27627862  0.65719726  1
  O  O77  1  0.88356038  0.54886417  0.43362053  1
  O  O78  1  0.89200409  0.05660899  0.19141011  1
  O  O79  1  0.88731902  0.48594505  0.71516295  1
  O  O80  1  0.88863922  0.34962886  0.39329986  1
  O  O81  1  0.91221515  0.83068998  0.17619475  1
  O  O82  1  0.96976711  0.85742922  0.54572500  1
  O  O83  1  0.97217202  0.72877528  0.84990702  1
