# generated using pymatgen
data_Li5FeO4
_symmetry_space_group_name_H-M   'P 1'
_cell_length_a   9.25785939
_cell_length_b   9.30098730
_cell_length_c   9.31027055
_cell_angle_alpha   90.00000000
_cell_angle_beta   90.00000000
_cell_angle_gamma   90.00000000
_symmetry_Int_Tables_number   1
_chemical_formula_structural   Li5FeO4
_chemical_formula_sum   'Li40 Fe8 O32'
_cell_volume   801.68163193
_cell_formula_units_Z   8
loop_
 _symmetry_equiv_pos_site_id
 _symmetry_equiv_pos_as_xyz
  1  'x, y, z'
loop_
 _atom_site_type_symbol
 _atom_site_label
 _atom_site_symmetry_multiplicity
 _atom_site_fract_x
 _atom_site_fract_y
 _atom_site_fract_z
 _atom_site_occupancy
  Li  Li0  1  0.10352286  0.61782605  0.84381231  1
  Li  Li1  1  0.60352286  0.38217395  0.65618769  1
  Li  Li2  1  0.39647714  0.11782605  0.15618769  1
  Li  Li3  1  0.89647714  0.88217395  0.34381231  1
  Li  Li4  1  0.89647714  0.38217395  0.15618769  1
  Li  Li5  1  0.39647714  0.61782605  0.34381231  1
  Li  Li6  1  0.60352286  0.88217395  0.84381231  1
  Li  Li7  1  0.10352286  0.11782605  0.65618769  1
  Li  Li8  1  0.16227589  0.39023250  0.61851282  1
  Li  Li9  1  0.66227589  0.60976750  0.88148718  1
  Li  Li10  1  0.33772411  0.89023250  0.38148718  1
  Li  Li11  1  0.83772411  0.10976750  0.11851282  1
  Li  Li12  1  0.83772411  0.60976750  0.38148718  1
  Li  Li13  1  0.33772411  0.39023250  0.11851282  1
  Li  Li14  1  0.66227589  0.10976750  0.61851282  1
  Li  Li15  1  0.16227589  0.89023250  0.88148718  1
  Li  Li16  1  0.89318261  0.62745264  0.64693176  1
  Li  Li17  1  0.39318261  0.37254736  0.85306824  1
  Li  Li18  1  0.60681739  0.12745264  0.35306824  1
  Li  Li19  1  0.87528394  0.64649617  0.12031587  1
  Li  Li20  1  0.10681739  0.37254736  0.35306824  1
  Li  Li21  1  0.60681739  0.62745264  0.14693176  1
  Li  Li22  1  0.39318261  0.87254736  0.64693176  1
  Li  Li23  1  0.89318261  0.12745264  0.85306824  1
  Li  Li24  1  0.85754378  0.38870994  0.89296428  1
  Li  Li25  1  0.35754378  0.61129006  0.60703572  1
  Li  Li26  1  0.64245622  0.88870994  0.10703572  1
  Li  Li27  1  0.14245622  0.11129006  0.39296428  1
  Li  Li28  1  0.14245622  0.61129006  0.10703572  1
  Li  Li29  1  0.64245622  0.38870994  0.39296428  1
  Li  Li30  1  0.35754378  0.11129006  0.89296428  1
  Li  Li31  1  0.85754378  0.88870994  0.60703572  1
  Li  Li32  1  0.87528394  0.14649617  0.37968413  1
  Li  Li33  1  0.37528394  0.85350383  0.12031587  1
  Li  Li34  1  0.62471606  0.64649617  0.62031587  1
  Li  Li35  1  0.12471606  0.35350383  0.87968413  1
  Li  Li36  1  0.12471606  0.85350383  0.62031587  1
  Li  Li37  1  0.62471606  0.14649617  0.87968413  1
  Li  Li38  1  0.37528394  0.35350383  0.37968413  1
  Li  Li39  1  0.10681739  0.87254736  0.14693176  1
  O  O40  1  0.75426269  0.49404750  0.53411410  1
  O  O41  1  0.25426269  0.50595250  0.96588590  1
  O  O42  1  0.74573731  0.99404750  0.46588590  1
  O  O43  1  0.24573731  0.00595250  0.03411410  1
  O  O44  1  0.24573731  0.50595250  0.46588590  1
  O  O45  1  0.74573731  0.49404750  0.03411410  1
  O  O46  1  0.25426269  0.00595250  0.53411410  1
  O  O47  1  0.75426269  0.99404750  0.96588590  1
  O  O48  1  0.99910748  0.46752809  0.74336997  1
  O  O49  1  0.49910748  0.53247191  0.75663003  1
  O  O50  1  0.50089252  0.96752809  0.25663003  1
  O  O51  1  0.00089252  0.03247191  0.24336997  1
  O  O52  1  0.00089252  0.53247191  0.25663003  1
  O  O53  1  0.50089252  0.46752809  0.24336997  1
  O  O54  1  0.49910748  0.03247191  0.74336997  1
  O  O55  1  0.99910748  0.96752809  0.75663003  1
  O  O56  1  0.75906430  0.25201824  0.74597256  1
  O  O57  1  0.25906430  0.74798176  0.75402744  1
  O  O58  1  0.74093570  0.75201824  0.25402744  1
  O  O59  1  0.24093570  0.24798176  0.24597256  1
  O  O60  1  0.01668263  0.74902127  0.99580695  1
  O  O61  1  0.74093570  0.25201824  0.24597256  1
  O  O62  1  0.25906430  0.24798176  0.74597256  1
  O  O63  1  0.75906430  0.75201824  0.75402744  1
  O  O64  1  0.01668263  0.24902127  0.50419305  1
  O  O65  1  0.51668263  0.75097873  0.99580695  1
  O  O66  1  0.48331737  0.74902127  0.49580695  1
  O  O67  1  0.98331737  0.25097873  0.00419305  1
  O  O68  1  0.98331737  0.75097873  0.49580695  1
  O  O69  1  0.48331737  0.24902127  0.00419305  1
  O  O70  1  0.51668263  0.25097873  0.50419305  1
  O  O71  1  0.24093570  0.74798176  0.25402744  1
  Fe  Fe72  1  0.88196469  0.35416748  0.61627281  1
  Fe  Fe73  1  0.38196469  0.64583252  0.88372719  1
  Fe  Fe74  1  0.61803531  0.85416748  0.38372719  1
  Fe  Fe75  1  0.11803531  0.14583252  0.11627281  1
  Fe  Fe76  1  0.11803531  0.64583252  0.38372719  1
  Fe  Fe77  1  0.61803531  0.35416748  0.11627281  1
  Fe  Fe78  1  0.38196469  0.14583252  0.61627281  1
  Fe  Fe79  1  0.88196469  0.85416748  0.88372719  1
