# generated using pymatgen
data_TmFeGe2O7
_symmetry_space_group_name_H-M   'P 1'
_cell_length_a   6.63327484
_cell_length_b   8.72284319
_cell_length_c   9.85437174
_cell_angle_alpha   90.00000000
_cell_angle_beta   100.81923817
_cell_angle_gamma   90.00000000
_symmetry_Int_Tables_number   1
_chemical_formula_structural   TmFeGe2O7
_chemical_formula_sum   'Tm4 Fe4 Ge8 O28'
_cell_volume   560.04853218
_cell_formula_units_Z   4
loop_
 _symmetry_equiv_pos_site_id
 _symmetry_equiv_pos_as_xyz
  1  'x, y, z'
loop_
 _atom_site_type_symbol
 _atom_site_label
 _atom_site_symmetry_multiplicity
 _atom_site_fract_x
 _atom_site_fract_y
 _atom_site_fract_z
 _atom_site_occupancy
  O  O0  1  0.96236972  0.08609945  0.35966595  1
  O  O1  1  0.03763028  0.58609945  0.64033405  1
  O  O2  1  0.03763028  0.91390055  0.64033405  1
  O  O3  1  0.96236972  0.41390055  0.35966595  1
  O  O4  1  0.16234076  0.25000000  0.61375781  1
  O  O5  1  0.83765924  0.75000000  0.38624219  1
  O  O6  1  0.34911976  0.25000000  0.38157818  1
  O  O7  1  0.65088024  0.75000000  0.61842182  1
  O  O8  1  0.46237095  0.58609910  0.85966469  1
  O  O9  1  0.53762905  0.08609910  0.14033531  1
  O  O10  1  0.53762905  0.41390090  0.14033531  1
  O  O11  1  0.46237095  0.91390090  0.85966469  1
  O  O12  1  0.15088126  0.25000000  0.11842327  1
  O  O13  1  0.84911874  0.75000000  0.88157673  1
  O  O14  1  0.97676766  0.57340179  0.14406922  1
  O  O15  1  0.02323234  0.07340179  0.85593078  1
  O  O16  1  0.52323321  0.57340139  0.35592986  1
  O  O17  1  0.47676679  0.07340139  0.64407014  1
  O  O18  1  0.47676679  0.42659861  0.64407014  1
  O  O19  1  0.52323321  0.92659861  0.35592986  1
  O  O20  1  0.66234130  0.75000000  0.11375592  1
  O  O21  1  0.33765870  0.25000000  0.88624408  1
  O  O22  1  0.25295785  0.75000000  0.06095943  1
  O  O23  1  0.74704215  0.25000000  0.93904057  1
  O  O24  1  0.24704039  0.75000000  0.43903642  1
  O  O25  1  0.75295961  0.25000000  0.56096358  1
  O  O26  1  0.97676766  0.92659821  0.14406922  1
  O  O27  1  0.02323234  0.42659821  0.85593078  1
  Fe  Fe28  1  0.75000014  0.94639962  0.24999925  1
  Fe  Fe29  1  0.24999986  0.44639962  0.75000075  1
  Fe  Fe30  1  0.24999986  0.05360038  0.75000075  1
  Fe  Fe31  1  0.75000014  0.55360038  0.24999925  1
  Ge  Ge32  1  0.54538612  0.25000000  0.03362640  1
  Ge  Ge33  1  0.45461388  0.75000000  0.96637360  1
  Ge  Ge34  1  0.02372938  0.25000000  0.94536394  1
  Ge  Ge35  1  0.97627062  0.75000000  0.05463606  1
  Ge  Ge36  1  0.47627082  0.25000000  0.55463870  1
  Ge  Ge37  1  0.52372918  0.75000000  0.44536130  1
  Ge  Ge38  1  0.04538723  0.75000000  0.53362388  1
  Ge  Ge39  1  0.95461277  0.25000000  0.46637612  1
  Tm  Tm40  1  0.24999982  0.04907804  0.25000142  1
  Tm  Tm41  1  0.75000018  0.54907804  0.74999858  1
  Tm  Tm42  1  0.75000018  0.95092196  0.74999858  1
  Tm  Tm43  1  0.24999982  0.45092196  0.25000142  1
