# generated using pymatgen
data_PrTl(MoO4)2
_symmetry_space_group_name_H-M   'P 1'
_cell_length_a   5.25958442
_cell_length_b   8.41995989
_cell_length_c   19.30954536
_cell_angle_alpha   90.00000000
_cell_angle_beta   90.00000000
_cell_angle_gamma   90.00000000
_symmetry_Int_Tables_number   1
_chemical_formula_structural   PrTl(MoO4)2
_chemical_formula_sum   'Pr4 Tl4 Mo8 O32'
_cell_volume   855.13267513
_cell_formula_units_Z   4
loop_
 _symmetry_equiv_pos_site_id
 _symmetry_equiv_pos_as_xyz
  1  'x, y, z'
loop_
 _atom_site_type_symbol
 _atom_site_label
 _atom_site_symmetry_multiplicity
 _atom_site_fract_x
 _atom_site_fract_y
 _atom_site_fract_z
 _atom_site_occupancy
  O  O0  1  0.60206359  0.51986366  0.18650531  1
  O  O1  1  0.10206359  0.48013634  0.31349469  1
  O  O2  1  0.89793641  0.01986366  0.31349469  1
  O  O3  1  0.39793641  0.98013634  0.18650531  1
  O  O4  1  0.39793641  0.48013634  0.81349469  1
  O  O5  1  0.89793641  0.51986366  0.68650531  1
  O  O6  1  0.10206359  0.98013634  0.68650531  1
  O  O7  1  0.60206359  0.01986366  0.81349469  1
  O  O8  1  0.74761129  0.49886094  0.03854448  1
  O  O9  1  0.24761129  0.50113906  0.46145552  1
  O  O10  1  0.75238871  0.99886094  0.46145552  1
  O  O11  1  0.25238871  0.00113906  0.03854448  1
  O  O12  1  0.25238871  0.50113906  0.96145552  1
  O  O13  1  0.75238871  0.49886094  0.53854448  1
  O  O14  1  0.24761129  0.00113906  0.53854448  1
  O  O15  1  0.74761129  0.99886094  0.96145552  1
  O  O16  1  0.27910334  0.84166273  0.90265096  1
  O  O17  1  0.77910334  0.15833727  0.59734904  1
  O  O18  1  0.22089666  0.34166273  0.59734904  1
  O  O19  1  0.72089666  0.65833727  0.90265096  1
  O  O20  1  0.72089666  0.15833727  0.09734904  1
  O  O21  1  0.22089666  0.84166273  0.40265096  1
  O  O22  1  0.77910334  0.65833727  0.40265096  1
  O  O23  1  0.27910334  0.34166273  0.09734904  1
  O  O24  1  0.26521774  0.18034389  0.90834311  1
  O  O25  1  0.76521774  0.81965611  0.59165689  1
  O  O26  1  0.23478226  0.68034389  0.59165689  1
  O  O27  1  0.73478226  0.31965611  0.90834311  1
  O  O28  1  0.73478226  0.81965611  0.09165689  1
  O  O29  1  0.23478226  0.18034389  0.40834311  1
  O  O30  1  0.76521774  0.31965611  0.40834311  1
  O  O31  1  0.26521774  0.68034389  0.09165689  1
  Mo  Mo32  1  0.48077985  0.51317675  0.10158114  1
  Mo  Mo33  1  0.98077985  0.48682325  0.39841886  1
  Mo  Mo34  1  0.01922015  0.01317675  0.39841886  1
  Mo  Mo35  1  0.51922015  0.98682325  0.10158114  1
  Mo  Mo36  1  0.51922015  0.48682325  0.89841886  1
  Mo  Mo37  1  0.01922015  0.51317675  0.60158114  1
  Mo  Mo38  1  0.98077985  0.98682325  0.60158114  1
  Mo  Mo39  1  0.48077985  0.01317675  0.89841886  1
  Pr  Pr40  1  0.50000000  0.75000000  0.49437102  1
  Pr  Pr41  1  0.00000000  0.25000000  0.00562898  1
  Pr  Pr42  1  0.50000000  0.25000000  0.50562898  1
  Pr  Pr43  1  0.00000000  0.75000000  0.99437102  1
  Tl  Tl44  1  0.00000000  0.75000000  0.22843335  1
  Tl  Tl45  1  0.50000000  0.25000000  0.27156665  1
  Tl  Tl46  1  0.00000000  0.25000000  0.77156665  1
  Tl  Tl47  1  0.50000000  0.75000000  0.72843335  1
