# generated using pymatgen
data_Ba6Na2V2Ru2O17
_symmetry_space_group_name_H-M   'P 1'
_cell_length_a   5.94350484
_cell_length_b   5.94350484
_cell_length_c   30.21098451
_cell_angle_alpha   90.00000000
_cell_angle_beta   90.00000000
_cell_angle_gamma   119.99999999
_symmetry_Int_Tables_number   1
_chemical_formula_structural   Ba6Na2V2Ru2O17
_chemical_formula_sum   'Ba12 Na4 V4 Ru4 O34'
_cell_volume   924.23146847
_cell_formula_units_Z   2
loop_
 _symmetry_equiv_pos_site_id
 _symmetry_equiv_pos_as_xyz
  1  'x, y, z'
loop_
 _atom_site_type_symbol
 _atom_site_label
 _atom_site_symmetry_multiplicity
 _atom_site_fract_x
 _atom_site_fract_y
 _atom_site_fract_z
 _atom_site_occupancy
  O  O0  1  0.33333333  0.66666667  0.99482722  1
  O  O1  1  0.66666667  0.33333333  0.49482722  1
  O  O2  1  0.66666667  0.33333333  0.00517278  1
  O  O3  1  0.33333333  0.66666667  0.50517278  1
  O  O4  1  0.48603016  0.97206032  0.75000000  1
  O  O5  1  0.51396984  0.48603016  0.25000000  1
  O  O6  1  0.97206032  0.48603016  0.25000000  1
  O  O7  1  0.02793968  0.51396984  0.75000000  1
  O  O8  1  0.48603016  0.51396984  0.75000000  1
  O  O9  1  0.51396984  0.02793968  0.25000000  1
  O  O10  1  0.17702614  0.82297386  0.67021800  1
  O  O11  1  0.17702614  0.35405228  0.67021800  1
  O  O12  1  0.64594772  0.82297386  0.67021800  1
  O  O13  1  0.35405228  0.17702614  0.17021800  1
  O  O14  1  0.82297386  0.64594772  0.32978200  1
  O  O15  1  0.82297386  0.17702614  0.17021800  1
  O  O16  1  0.82297386  0.64594772  0.17021800  1
  O  O17  1  0.17702614  0.82297386  0.82978200  1
  O  O18  1  0.64594772  0.82297386  0.82978200  1
  O  O19  1  0.35405228  0.17702614  0.32978200  1
  O  O20  1  0.82297386  0.17702614  0.32978200  1
  O  O21  1  0.17702614  0.35405228  0.82978200  1
  O  O22  1  0.17472663  0.82527337  0.07264151  1
  O  O23  1  0.17472663  0.34945327  0.07264151  1
  O  O24  1  0.17472663  0.34945327  0.42735849  1
  O  O25  1  0.82527337  0.17472663  0.92735849  1
  O  O26  1  0.34945327  0.17472663  0.92735849  1
  O  O27  1  0.65054673  0.82527337  0.42735849  1
  O  O28  1  0.17472663  0.82527337  0.42735849  1
  O  O29  1  0.82527337  0.65054673  0.57264151  1
  O  O30  1  0.82527337  0.17472663  0.57264151  1
  O  O31  1  0.82527337  0.65054673  0.92735849  1
  O  O32  1  0.34945327  0.17472663  0.57264151  1
  O  O33  1  0.65054673  0.82527337  0.07264151  1
  Na  Na34  1  0.00000000  0.00000000  0.37594695  1
  Na  Na35  1  0.00000000  0.00000000  0.87594695  1
  Na  Na36  1  0.00000000  0.00000000  0.62405305  1
  Na  Na37  1  0.00000000  0.00000000  0.12405305  1
  V  V38  1  0.33333333  0.66666667  0.44802554  1
  V  V39  1  0.66666667  0.33333333  0.94802554  1
  V  V40  1  0.66666667  0.33333333  0.55197446  1
  V  V41  1  0.33333333  0.66666667  0.05197446  1
  Ru  Ru42  1  0.33333333  0.66666667  0.79616122  1
  Ru  Ru43  1  0.66666667  0.33333333  0.29616122  1
  Ru  Ru44  1  0.66666667  0.33333333  0.20383878  1
  Ru  Ru45  1  0.33333333  0.66666667  0.70383878  1
  Ba  Ba46  1  0.00000000  0.00000000  0.75000000  1
  Ba  Ba47  1  0.00000000  0.00000000  0.25000000  1
  Ba  Ba48  1  0.00000000  0.00000000  0.50000000  1
  Ba  Ba49  1  0.00000000  0.00000000  0.00000000  1
  Ba  Ba50  1  0.33333333  0.66666667  0.90736045  1
  Ba  Ba51  1  0.66666667  0.33333333  0.40736045  1
  Ba  Ba52  1  0.66666667  0.33333333  0.09263955  1
  Ba  Ba53  1  0.33333333  0.66666667  0.59263955  1
  Ba  Ba54  1  0.33333333  0.66666667  0.31913643  1
  Ba  Ba55  1  0.66666667  0.33333333  0.81913643  1
  Ba  Ba56  1  0.66666667  0.33333333  0.68086357  1
  Ba  Ba57  1  0.33333333  0.66666667  0.18086357  1
