# generated using pymatgen
data_SmTl(MoO4)2
_symmetry_space_group_name_H-M   'P 1'
_cell_length_a   5.20319695
_cell_length_b   8.26256523
_cell_length_c   19.41994696
_cell_angle_alpha   90.00000000
_cell_angle_beta   90.00000000
_cell_angle_gamma   90.00000000
_symmetry_Int_Tables_number   1
_chemical_formula_structural   SmTl(MoO4)2
_chemical_formula_sum   'Sm4 Tl4 Mo8 O32'
_cell_volume   834.89758636
_cell_formula_units_Z   4
loop_
 _symmetry_equiv_pos_site_id
 _symmetry_equiv_pos_as_xyz
  1  'x, y, z'
loop_
 _atom_site_type_symbol
 _atom_site_label
 _atom_site_symmetry_multiplicity
 _atom_site_fract_x
 _atom_site_fract_y
 _atom_site_fract_z
 _atom_site_occupancy
  O  O0  1  0.59947775  0.51565159  0.18409621  1
  O  O1  1  0.09947775  0.48434841  0.31590379  1
  O  O2  1  0.90052225  0.01565159  0.31590379  1
  O  O3  1  0.40052225  0.98434841  0.18409621  1
  O  O4  1  0.40052225  0.48434841  0.81590379  1
  O  O5  1  0.90052225  0.51565159  0.68409621  1
  O  O6  1  0.09947775  0.98434841  0.68409621  1
  O  O7  1  0.59947775  0.01565159  0.81590379  1
  O  O8  1  0.75031069  0.49787495  0.03679400  1
  O  O9  1  0.25031069  0.50212505  0.46320600  1
  O  O10  1  0.74968931  0.99787495  0.46320600  1
  O  O11  1  0.24968931  0.00212505  0.03679400  1
  O  O12  1  0.24968931  0.50212505  0.96320600  1
  O  O13  1  0.74968931  0.49787495  0.53679400  1
  O  O14  1  0.25031069  0.00212505  0.53679400  1
  O  O15  1  0.75031069  0.99787495  0.96320600  1
  O  O16  1  0.27276856  0.83678254  0.90548776  1
  O  O17  1  0.77276856  0.16321746  0.59451224  1
  O  O18  1  0.22723144  0.33678254  0.59451224  1
  O  O19  1  0.72723144  0.66321746  0.90548776  1
  O  O20  1  0.72723144  0.16321746  0.09451224  1
  O  O21  1  0.22723144  0.83678254  0.40548776  1
  O  O22  1  0.77276856  0.66321746  0.40548776  1
  O  O23  1  0.27276856  0.33678254  0.09451224  1
  O  O24  1  0.26229290  0.18134696  0.90957234  1
  O  O25  1  0.76229290  0.81865304  0.59042766  1
  O  O26  1  0.23770710  0.68134696  0.59042766  1
  O  O27  1  0.73770710  0.31865304  0.90957234  1
  O  O28  1  0.73770710  0.81865304  0.09042766  1
  O  O29  1  0.23770710  0.18134696  0.40957234  1
  O  O30  1  0.76229290  0.31865304  0.40957234  1
  O  O31  1  0.26229290  0.68134696  0.09042766  1
  Mo  Mo32  1  0.47925030  0.51028829  0.09938632  1
  Mo  Mo33  1  0.97925030  0.48971171  0.40061368  1
  Mo  Mo34  1  0.02074970  0.01028829  0.40061368  1
  Mo  Mo35  1  0.52074970  0.98971171  0.09938632  1
  Mo  Mo36  1  0.52074970  0.48971171  0.90061368  1
  Mo  Mo37  1  0.02074970  0.51028829  0.59938632  1
  Mo  Mo38  1  0.97925030  0.98971171  0.59938632  1
  Mo  Mo39  1  0.47925030  0.01028829  0.90061368  1
  Sm  Sm40  1  0.50000000  0.75000000  0.49575420  1
  Sm  Sm41  1  0.00000000  0.25000000  0.00424580  1
  Sm  Sm42  1  0.50000000  0.25000000  0.50424580  1
  Sm  Sm43  1  0.00000000  0.75000000  0.99575420  1
  Tl  Tl44  1  0.00000000  0.75000000  0.22651719  1
  Tl  Tl45  1  0.50000000  0.25000000  0.27348281  1
  Tl  Tl46  1  0.00000000  0.25000000  0.77348281  1
  Tl  Tl47  1  0.50000000  0.75000000  0.72651719  1
