# generated using pymatgen
data_Ba5Gd8Mn4O21
_symmetry_space_group_name_H-M   'P 1'
_cell_length_a   5.85037573
_cell_length_b   10.43108527
_cell_length_c   10.43108527
_cell_angle_alpha   85.48955046
_cell_angle_beta   73.71413776
_cell_angle_gamma   73.71413774
_symmetry_Int_Tables_number   1
_chemical_formula_structural   Ba5Gd8Mn4O21
_chemical_formula_sum   'Ba5 Gd8 Mn4 O21'
_cell_volume   586.50494004
_cell_formula_units_Z   1
loop_
 _symmetry_equiv_pos_site_id
 _symmetry_equiv_pos_as_xyz
  1  'x, y, z'
loop_
 _atom_site_type_symbol
 _atom_site_label
 _atom_site_symmetry_multiplicity
 _atom_site_fract_x
 _atom_site_fract_y
 _atom_site_fract_z
 _atom_site_occupancy
  O  O0  1  0.10047251  0.89111921  0.40641254  1
  O  O1  1  0.50688505  0.59358746  0.89111921  1
  O  O2  1  0.99159172  0.40641254  0.10888079  1
  O  O3  1  0.39800426  0.10888079  0.59358746  1
  O  O4  1  0.89952749  0.10888079  0.59358746  1
  O  O5  1  0.49311495  0.40641254  0.10888079  1
  O  O6  1  0.00840828  0.59358746  0.89111921  1
  O  O7  1  0.60199574  0.89111921  0.40641254  1
  O  O8  1  0.92822490  0.86969982  0.77423870  1
  O  O9  1  0.70246360  0.22576130  0.86969982  1
  O  O10  1  0.79792472  0.77423870  0.13030018  1
  O  O11  1  0.57216342  0.13030018  0.22576130  1
  O  O12  1  0.07177510  0.13030018  0.22576130  1
  O  O13  1  0.29753640  0.77423870  0.13030018  1
  O  O14  1  0.20207528  0.22576130  0.86969982  1
  O  O15  1  0.42783658  0.86969982  0.77423870  1
  O  O16  1  0.37470948  0.66062784  0.58995320  1
  O  O17  1  0.50000000  0.00000000  0.00000000  1
  O  O18  1  0.62529052  0.33937216  0.41004680  1
  O  O19  1  0.03533732  0.58995320  0.33937216  1
  O  O20  1  0.96466268  0.41004680  0.66062784  1
  Mn  Mn21  1  0.95977272  0.79070922  0.28974535  1
  Mn  Mn22  1  0.75048193  0.28974535  0.20929078  1
  Mn  Mn23  1  0.04022728  0.20929078  0.71025465  1
  Mn  Mn24  1  0.24951807  0.71025465  0.79070922  1
  Ba  Ba25  1  0.13796211  0.32928718  0.39478861  1
  Ba  Ba26  1  0.86203789  0.67071282  0.60521139  1
  Ba  Ba27  1  0.53275071  0.60521139  0.32928718  1
  Ba  Ba28  1  0.46724929  0.39478861  0.67071282  1
  Ba  Ba29  1  0.00000000  0.00000000  0.00000000  1
  Gd  Gd30  1  0.24805502  0.92134827  0.58254169  1
  Gd  Gd31  1  0.83059671  0.41745831  0.92134827  1
  Gd  Gd32  1  0.16940329  0.58254169  0.07865173  1
  Gd  Gd33  1  0.75194498  0.07865173  0.41745831  1
  Gd  Gd34  1  0.41044516  0.94790751  0.23120216  1
  Gd  Gd35  1  0.64164733  0.76879784  0.94790751  1
  Gd  Gd36  1  0.35835267  0.23120216  0.05209249  1
  Gd  Gd37  1  0.58955484  0.05209249  0.76879784  1
