# generated using pymatgen
data_KCrPO4F
_symmetry_space_group_name_H-M   'P 1'
_cell_length_a   6.43128324
_cell_length_b   10.71823098
_cell_length_c   12.95030382
_cell_angle_alpha   90.00000000
_cell_angle_beta   90.00000000
_cell_angle_gamma   90.00000000
_symmetry_Int_Tables_number   1
_chemical_formula_structural   KCrPO4F
_chemical_formula_sum   'K8 Cr8 P8 O32 F8'
_cell_volume   892.69007438
_cell_formula_units_Z   8
loop_
 _symmetry_equiv_pos_site_id
 _symmetry_equiv_pos_as_xyz
  1  'x, y, z'
loop_
 _atom_site_type_symbol
 _atom_site_label
 _atom_site_symmetry_multiplicity
 _atom_site_fract_x
 _atom_site_fract_y
 _atom_site_fract_z
 _atom_site_occupancy
  O  O0  1  0.03260054  0.87862725  0.01024302  1
  O  O1  1  0.30834386  0.27445374  0.88848832  1
  O  O2  1  0.80834386  0.77445374  0.61151168  1
  O  O3  1  0.19165614  0.27445374  0.38848832  1
  O  O4  1  0.31087796  0.71898989  0.11222238  1
  O  O5  1  0.68912204  0.21898989  0.88777762  1
  O  O6  1  0.18912204  0.71898989  0.61222238  1
  O  O7  1  0.81087796  0.21898989  0.38777762  1
  O  O8  1  0.51500287  0.60779438  0.51572255  1
  O  O9  1  0.48499713  0.10779438  0.48427745  1
  O  O10  1  0.98499713  0.60779438  0.01572255  1
  O  O11  1  0.01500287  0.10779438  0.98427745  1
  O  O12  1  0.53260054  0.37862725  0.48975698  1
  O  O13  1  0.46739946  0.87862725  0.51024302  1
  O  O14  1  0.96739946  0.37862725  0.98975698  1
  O  O15  1  0.69165614  0.77445374  0.11151168  1
  O  O16  1  0.81073317  0.51903292  0.40573100  1
  O  O17  1  0.18926683  0.01903292  0.59426900  1
  O  O18  1  0.68926683  0.51903292  0.90573100  1
  O  O19  1  0.45645353  0.86059131  0.25441000  1
  O  O20  1  0.80766289  0.48042364  0.59864432  1
  O  O21  1  0.19233711  0.98042364  0.40135568  1
  O  O22  1  0.69233711  0.48042364  0.09864432  1
  O  O23  1  0.30766289  0.98042364  0.90135568  1
  O  O24  1  0.04013888  0.13498559  0.24480289  1
  O  O25  1  0.95986112  0.63498559  0.75519711  1
  O  O26  1  0.45986112  0.13498559  0.74480289  1
  O  O27  1  0.54013888  0.63498559  0.25519711  1
  O  O28  1  0.95645353  0.36059131  0.24559000  1
  O  O29  1  0.04354647  0.86059131  0.75441000  1
  O  O30  1  0.54354647  0.36059131  0.74559000  1
  O  O31  1  0.31073317  0.01903292  0.09426900  1
  F  F32  1  0.02779754  0.87448479  0.22774089  1
  F  F33  1  0.97220246  0.37448479  0.77225911  1
  F  F34  1  0.47220246  0.87448479  0.72774089  1
  F  F35  1  0.52779754  0.37448479  0.27225911  1
  F  F36  1  0.47944912  0.12116295  0.27113362  1
  F  F37  1  0.52055088  0.62116295  0.72886638  1
  F  F38  1  0.02055088  0.12116295  0.77113362  1
  F  F39  1  0.97944912  0.62116295  0.22886638  1
  P  P40  1  0.67035953  0.49762677  0.50090017  1
  P  P41  1  0.32964047  0.99762677  0.49909983  1
  P  P42  1  0.82964047  0.49762677  0.00090017  1
  P  P43  1  0.17035953  0.99762677  0.99909983  1
  P  P44  1  0.50248337  0.74810407  0.18164995  1
  P  P45  1  0.49751663  0.24810407  0.81835005  1
  P  P46  1  0.99751663  0.74810407  0.68164995  1
  P  P47  1  0.00248337  0.24810407  0.31835005  1
  K  K48  1  0.20240208  0.69172305  0.39584115  1
  K  K49  1  0.79759792  0.19172305  0.60415885  1
  K  K50  1  0.29759792  0.69172305  0.89584115  1
  K  K51  1  0.70240208  0.19172305  0.10415885  1
  K  K52  1  0.77628306  0.94722314  0.38082198  1
  K  K53  1  0.22371694  0.44722314  0.61917802  1
  K  K54  1  0.72371694  0.94722314  0.88082198  1
  K  K55  1  0.27628306  0.44722314  0.11917802  1
  Cr  Cr56  1  0.99898516  0.74818011  0.11512811  1
  Cr  Cr57  1  0.00101484  0.24818011  0.88487189  1
  Cr  Cr58  1  0.50101484  0.74818011  0.61512811  1
  Cr  Cr59  1  0.49898516  0.24818011  0.38487189  1
  Cr  Cr60  1  0.75214663  0.50009640  0.25319793  1
  Cr  Cr61  1  0.24785337  0.00009640  0.74680207  1
  Cr  Cr62  1  0.74785337  0.50009640  0.75319793  1
  Cr  Cr63  1  0.25214663  0.00009640  0.24680207  1
