# generated using pymatgen
data_Rb2TeMo2(PO7)2
_symmetry_space_group_name_H-M   'P 1'
_cell_length_a   9.24481455
_cell_length_b   11.52427407
_cell_length_c   12.68304434
_cell_angle_alpha   90.00000000
_cell_angle_beta   90.00000000
_cell_angle_gamma   90.00000000
_symmetry_Int_Tables_number   1
_chemical_formula_structural   Rb2TeMo2(PO7)2
_chemical_formula_sum   'Rb8 Te4 Mo8 P8 O56'
_cell_volume   1351.24871060
_cell_formula_units_Z   4
loop_
 _symmetry_equiv_pos_site_id
 _symmetry_equiv_pos_as_xyz
  1  'x, y, z'
loop_
 _atom_site_type_symbol
 _atom_site_label
 _atom_site_symmetry_multiplicity
 _atom_site_fract_x
 _atom_site_fract_y
 _atom_site_fract_z
 _atom_site_occupancy
  O  O0  1  0.64253691  0.13236611  0.36821677  1
  O  O1  1  0.64253691  0.36763389  0.63178323  1
  O  O2  1  0.85746309  0.63236611  0.13178323  1
  O  O3  1  0.85746309  0.86763389  0.86821677  1
  O  O4  1  0.35746309  0.86763389  0.63178323  1
  O  O5  1  0.35746309  0.63236611  0.36821677  1
  O  O6  1  0.14253691  0.36763389  0.86821677  1
  O  O7  1  0.14253691  0.13236611  0.13178323  1
  O  O8  1  0.52085185  0.45153254  0.36236229  1
  O  O9  1  0.52085185  0.04846746  0.63763771  1
  O  O10  1  0.97914815  0.95153254  0.13763771  1
  O  O11  1  0.97914815  0.54846746  0.86236229  1
  O  O12  1  0.47914815  0.54846746  0.63763771  1
  O  O13  1  0.47914815  0.95153254  0.36236229  1
  O  O14  1  0.02085185  0.04846746  0.86236229  1
  O  O15  1  0.02085185  0.45153254  0.13763771  1
  O  O16  1  0.70906004  0.55331903  0.53258383  1
  O  O17  1  0.70906004  0.94668097  0.46741617  1
  O  O18  1  0.79093996  0.05331903  0.96741617  1
  O  O19  1  0.79093996  0.44668097  0.03258383  1
  O  O20  1  0.31224675  0.34660042  0.66174898  1
  O  O21  1  0.29093996  0.44668097  0.46741617  1
  O  O22  1  0.20906004  0.94668097  0.03258383  1
  O  O23  1  0.20906004  0.55331903  0.96741617  1
  O  O24  1  0.68775325  0.65339958  0.33825102  1
  O  O25  1  0.68775325  0.84660042  0.66174898  1
  O  O26  1  0.81224675  0.15339958  0.16174898  1
  O  O27  1  0.81224675  0.34660042  0.83825102  1
  O  O28  1  0.26383110  0.34290066  0.07254287  1
  O  O29  1  0.26383110  0.15709934  0.92745713  1
  O  O30  1  0.23616890  0.84290066  0.42745713  1
  O  O31  1  0.23616890  0.65709934  0.57254287  1
  O  O32  1  0.73616890  0.65709934  0.92745713  1
  O  O33  1  0.73616890  0.84290066  0.07254287  1
  O  O34  1  0.76383110  0.15709934  0.57254287  1
  O  O35  1  0.76383110  0.34290066  0.42745713  1
  O  O36  1  0.27586678  0.45191022  0.27127189  1
  O  O37  1  0.27586678  0.04808978  0.72872811  1
  O  O38  1  0.22413322  0.95191022  0.22872811  1
  O  O39  1  0.22413322  0.54808978  0.77127189  1
  O  O40  1  0.72413322  0.54808978  0.72872811  1
  O  O41  1  0.72413322  0.95191022  0.27127189  1
  O  O42  1  0.77586678  0.04808978  0.77127189  1
  O  O43  1  0.77586678  0.45191022  0.22872811  1
  O  O44  1  0.43687017  0.54280281  0.11060614  1
  O  O45  1  0.43687017  0.95719719  0.88939386  1
  O  O46  1  0.06312983  0.04280281  0.38939386  1
  O  O47  1  0.06312983  0.45719719  0.61060614  1
  O  O48  1  0.56312983  0.45719719  0.88939386  1
  O  O49  1  0.56312983  0.04280281  0.11060614  1
  O  O50  1  0.93687017  0.95719719  0.61060614  1
  O  O51  1  0.93687017  0.54280281  0.38939386  1
  O  O52  1  0.18775325  0.65339958  0.16174898  1
  O  O53  1  0.18775325  0.84660042  0.83825102  1
  O  O54  1  0.31224675  0.15339958  0.33825102  1
  O  O55  1  0.29093996  0.05331903  0.53258383  1
  P  P56  1  0.63495181  0.99763929  0.36769077  1
  P  P57  1  0.63495181  0.50236071  0.63230923  1
  P  P58  1  0.86504819  0.49763929  0.13230923  1
  P  P59  1  0.86504819  0.00236071  0.86769077  1
  P  P60  1  0.36504819  0.00236071  0.63230923  1
  P  P61  1  0.36504819  0.49763929  0.36769077  1
  P  P62  1  0.13495181  0.50236071  0.86769077  1
  P  P63  1  0.13495181  0.99763929  0.13230923  1
  Rb  Rb64  1  0.03134703  0.21748388  0.68317475  1
  Rb  Rb65  1  0.46865297  0.78251612  0.18317475  1
  Rb  Rb66  1  0.46865297  0.71748388  0.81682525  1
  Rb  Rb67  1  0.96865297  0.71748388  0.68317475  1
  Rb  Rb68  1  0.96865297  0.78251612  0.31682525  1
  Rb  Rb69  1  0.53134703  0.21748388  0.81682525  1
  Rb  Rb70  1  0.53134703  0.28251612  0.18317475  1
  Rb  Rb71  1  0.03134703  0.28251612  0.31682525  1
  Mo  Mo72  1  0.25208052  0.98156129  0.87902588  1
  Mo  Mo73  1  0.75208052  0.51843871  0.37902588  1
  Mo  Mo74  1  0.75208052  0.98156129  0.62097412  1
  Mo  Mo75  1  0.74791948  0.01843871  0.12097412  1
  Mo  Mo76  1  0.25208052  0.51843871  0.12097412  1
  Mo  Mo77  1  0.24791948  0.01843871  0.37902588  1
  Mo  Mo78  1  0.74791948  0.48156129  0.87902588  1
  Mo  Mo79  1  0.24791948  0.48156129  0.62097412  1
  Te  Te80  1  0.12797273  0.25000000  0.00000000  1
  Te  Te81  1  0.37202727  0.75000000  0.50000000  1
  Te  Te82  1  0.87202727  0.75000000  0.00000000  1
  Te  Te83  1  0.62797273  0.25000000  0.50000000  1
