# generated using pymatgen
data_KVPO5
_symmetry_space_group_name_H-M   'P 1'
_cell_length_a   6.45810432
_cell_length_b   10.61532725
_cell_length_c   12.96809881
_cell_angle_alpha   90.00000000
_cell_angle_beta   90.00000000
_cell_angle_gamma   90.00000000
_symmetry_Int_Tables_number   1
_chemical_formula_structural   KVPO5
_chemical_formula_sum   'K8 V8 P8 O40'
_cell_volume   889.02659743
_cell_formula_units_Z   8
loop_
 _symmetry_equiv_pos_site_id
 _symmetry_equiv_pos_as_xyz
  1  'x, y, z'
loop_
 _atom_site_type_symbol
 _atom_site_label
 _atom_site_symmetry_multiplicity
 _atom_site_fract_x
 _atom_site_fract_y
 _atom_site_fract_z
 _atom_site_occupancy
  O  O0  1  0.54373870  0.89104072  0.28086365  1
  O  O1  1  0.45626130  0.39104072  0.71913635  1
  O  O2  1  0.95626130  0.89104072  0.78086365  1
  O  O3  1  0.04373870  0.39104072  0.21913635  1
  O  O4  1  0.95456243  0.64392051  0.22700072  1
  O  O5  1  0.04543757  0.14392051  0.77299928  1
  O  O6  1  0.54543757  0.64392051  0.72700072  1
  O  O7  1  0.45456243  0.14392051  0.27299928  1
  O  O8  1  0.95540157  0.90427325  0.24622346  1
  O  O9  1  0.04459843  0.40427325  0.75377654  1
  O  O10  1  0.54459843  0.90427325  0.74622346  1
  O  O11  1  0.45540157  0.40427325  0.25377654  1
  O  O12  1  0.03278710  0.13227943  0.24696336  1
  O  O13  1  0.96721290  0.63227943  0.75303664  1
  O  O14  1  0.46721290  0.13227943  0.74696336  1
  O  O15  1  0.69204200  0.74439901  0.90832713  1
  O  O16  1  0.53278710  0.63227943  0.25303664  1
  O  O17  1  0.81195144  0.48796366  0.61158580  1
  O  O18  1  0.31195144  0.98796366  0.88841420  1
  O  O19  1  0.68804856  0.48796366  0.11158580  1
  O  O20  1  0.80804891  0.04437604  0.38940699  1
  O  O21  1  0.19195109  0.54437604  0.61059301  1
  O  O22  1  0.69195109  0.04437604  0.88940699  1
  O  O23  1  0.30804891  0.54437604  0.11059301  1
  O  O24  1  0.47893516  0.14812110  0.48062754  1
  O  O25  1  0.52106484  0.64812110  0.51937246  1
  O  O26  1  0.02106484  0.14812110  0.98062754  1
  O  O27  1  0.97893516  0.64812110  0.01937246  1
  O  O28  1  0.47529170  0.38142742  0.51000935  1
  O  O29  1  0.52470830  0.88142742  0.48999065  1
  O  O30  1  0.02470830  0.38142742  0.01000935  1
  O  O31  1  0.97529170  0.88142742  0.98999065  1
  O  O32  1  0.19695280  0.28501036  0.39969170  1
  O  O33  1  0.80304720  0.78501036  0.60030830  1
  O  O34  1  0.30304720  0.28501036  0.89969170  1
  O  O35  1  0.69695280  0.78501036  0.10030830  1
  O  O36  1  0.19204200  0.24439901  0.59167287  1
  O  O37  1  0.80795800  0.74439901  0.40832713  1
  O  O38  1  0.30795800  0.24439901  0.09167287  1
  O  O39  1  0.18804856  0.98796366  0.38841420  1
  P  P40  1  0.99780194  0.01713728  0.31973701  1
  P  P41  1  0.00219806  0.51713728  0.68026299  1
  P  P42  1  0.50219806  0.01713728  0.81973701  1
  P  P43  1  0.49780194  0.51713728  0.18026299  1
  P  P44  1  0.83396220  0.76326056  0.00315680  1
  P  P45  1  0.16603780  0.26326056  0.99684320  1
  P  P46  1  0.66603780  0.76326056  0.50315680  1
  P  P47  1  0.33396220  0.26326056  0.49684320  1
  K  K48  1  0.22076326  0.81501716  0.62526432  1
  K  K49  1  0.72076326  0.31501716  0.87473568  1
  K  K50  1  0.27923674  0.81501716  0.12526432  1
  K  K51  1  0.70332603  0.07115997  0.10458713  1
  K  K52  1  0.20332603  0.57115997  0.39541287  1
  K  K53  1  0.29667397  0.57115997  0.89541287  1
  K  K54  1  0.79667397  0.07115997  0.60458713  1
  K  K55  1  0.77923674  0.31501716  0.37473568  1
  V  V56  1  0.49417147  0.00405317  0.37446355  1
  V  V57  1  0.50582853  0.50405317  0.62553645  1
  V  V58  1  0.00582853  0.00405317  0.87446355  1
  V  V59  1  0.26649136  0.25626036  0.24629884  1
  V  V60  1  0.73350864  0.75626036  0.75370116  1
  V  V61  1  0.23350864  0.25626036  0.74629884  1
  V  V62  1  0.76649136  0.75626036  0.25370116  1
  V  V63  1  0.99417147  0.50405317  0.12553645  1
