# generated using pymatgen
data_MnCu2SnS4
_symmetry_space_group_name_H-M   'P 1'
_cell_length_a   5.50625603
_cell_length_b   5.50625603
_cell_length_c   6.67157959
_cell_angle_alpha   114.37236217
_cell_angle_beta   114.37236217
_cell_angle_gamma   90.00000000
_symmetry_Int_Tables_number   1
_chemical_formula_structural   MnCu2SnS4
_chemical_formula_sum   'Mn1 Cu2 Sn1 S4'
_cell_volume   164.25586979
_cell_formula_units_Z   1
loop_
 _symmetry_equiv_pos_site_id
 _symmetry_equiv_pos_as_xyz
  1  'x, y, z'
loop_
 _atom_site_type_symbol
 _atom_site_label
 _atom_site_symmetry_multiplicity
 _atom_site_fract_x
 _atom_site_fract_y
 _atom_site_fract_z
 _atom_site_occupancy
  Mn  Mn0  1  -0.00000000  0.00000000  0.00000000  1
  Cu  Cu1  1  0.75000000  0.25000000  0.50000000  1
  Cu  Cu2  1  0.25000000  0.75000000  0.50000000  1
  Sn  Sn3  1  0.50000000  0.50000000  0.00000000  1
  S  S4  1  0.88997992  0.88997992  0.26917789  1
  S  S5  1  0.37919797  0.37919797  0.26917789  1
  S  S6  1  0.11002008  0.62080203  0.73082211  1
  S  S7  1  0.62080203  0.11002008  0.73082211  1
