# generated using pymatgen
data_Sr2CrO4
_symmetry_space_group_name_H-M   'P 1'
_cell_length_a   5.90983461
_cell_length_b   10.12194225
_cell_length_c   14.38378597
_cell_angle_alpha   90.00000000
_cell_angle_beta   90.00000000
_cell_angle_gamma   90.00000000
_symmetry_Int_Tables_number   1
_chemical_formula_structural   Sr2CrO4
_chemical_formula_sum   'Sr16 Cr8 O32'
_cell_volume   860.42375953
_cell_formula_units_Z   8
loop_
 _symmetry_equiv_pos_site_id
 _symmetry_equiv_pos_as_xyz
  1  'x, y, z'
loop_
 _atom_site_type_symbol
 _atom_site_label
 _atom_site_symmetry_multiplicity
 _atom_site_fract_x
 _atom_site_fract_y
 _atom_site_fract_z
 _atom_site_occupancy
  O  O0  1  0.05381634  0.50833921  0.48690454  1
  O  O1  1  0.94618366  0.00833921  0.51309546  1
  O  O2  1  0.44618366  0.50833921  0.98690454  1
  O  O3  1  0.55381634  0.00833921  0.01309546  1
  O  O4  1  0.52990456  0.55831442  0.52867248  1
  O  O5  1  0.47009544  0.05831442  0.47132752  1
  O  O6  1  0.97009544  0.55831442  0.02867248  1
  O  O7  1  0.02990456  0.05831442  0.97132752  1
  O  O8  1  0.94561519  0.84652926  0.20219224  1
  O  O9  1  0.05438481  0.34652926  0.79780776  1
  O  O10  1  0.55438481  0.84652926  0.70219224  1
  O  O11  1  0.44561519  0.34652926  0.29780776  1
  O  O12  1  0.28323985  0.77146905  0.04517996  1
  O  O13  1  0.71676015  0.27146905  0.95482004  1
  O  O14  1  0.21676015  0.77146905  0.54517996  1
  O  O15  1  0.78323985  0.27146905  0.45482004  1
  O  O16  1  0.63309728  0.64326755  0.19841454  1
  O  O17  1  0.36690272  0.14326755  0.80158546  1
  O  O18  1  0.86690272  0.64326755  0.69841454  1
  O  O19  1  0.13309728  0.14326755  0.30158546  1
  O  O20  1  0.35807954  0.67846645  0.36099639  1
  O  O21  1  0.64192046  0.17846645  0.63900361  1
  O  O22  1  0.14192046  0.67846645  0.86099639  1
  O  O23  1  0.85807954  0.17846645  0.13900361  1
  O  O24  1  0.34084264  0.25318415  0.12393279  1
  O  O25  1  0.65915736  0.75318415  0.87606721  1
  O  O26  1  0.15915736  0.25318415  0.62393279  1
  O  O27  1  0.84084264  0.75318415  0.37606721  1
  O  O28  1  0.99921271  0.42332333  0.24339027  1
  O  O29  1  0.00078729  0.92332333  0.75660973  1
  O  O30  1  0.50078729  0.42332333  0.74339027  1
  O  O31  1  0.49921271  0.92332333  0.25660973  1
  Cr  Cr32  1  0.19684924  0.28829469  0.23068652  1
  Cr  Cr33  1  0.80315076  0.78829469  0.76931348  1
  Cr  Cr34  1  0.30315076  0.28829469  0.73068652  1
  Cr  Cr35  1  0.69684924  0.78829469  0.26931348  1
  Cr  Cr36  1  0.27620803  0.62624795  0.47549986  1
  Cr  Cr37  1  0.72379197  0.12624795  0.52450014  1
  Cr  Cr38  1  0.22379197  0.62624795  0.97549986  1
  Cr  Cr39  1  0.77620803  0.12624795  0.02450014  1
  Sr  Sr40  1  0.72371578  0.77567476  0.04627841  1
  Sr  Sr41  1  0.27628422  0.27567476  0.95372159  1
  Sr  Sr42  1  0.77628422  0.77567476  0.54627841  1
  Sr  Sr43  1  0.22371578  0.27567476  0.45372159  1
  Sr  Sr44  1  0.69351787  0.41402757  0.11878028  1
  Sr  Sr45  1  0.30648213  0.91402757  0.88121972  1
  Sr  Sr46  1  0.80648213  0.41402757  0.61878028  1
  Sr  Sr47  1  0.19351787  0.91402757  0.38121972  1
  Sr  Sr48  1  0.69235940  0.14042158  0.29519598  1
  Sr  Sr49  1  0.30764060  0.64042158  0.70480402  1
  Sr  Sr50  1  0.80764060  0.14042158  0.79519598  1
  Sr  Sr51  1  0.19235940  0.64042158  0.20480402  1
  Sr  Sr52  1  0.72278343  0.50274003  0.36955356  1
  Sr  Sr53  1  0.27721657  0.00274003  0.63044644  1
  Sr  Sr54  1  0.77721657  0.50274003  0.86955356  1
  Sr  Sr55  1  0.22278343  0.00274003  0.13044644  1
