# generated using pymatgen
data_Ni3(AsO4)2
_symmetry_space_group_name_H-M   'P 1'
_cell_length_a   5.83946682
_cell_length_b   9.69530658
_cell_length_c   10.33905481
_cell_angle_alpha   90.00000000
_cell_angle_beta   92.96398557
_cell_angle_gamma   90.00000000
_symmetry_Int_Tables_number   1
_chemical_formula_structural   Ni3(AsO4)2
_chemical_formula_sum   'Ni12 As8 O32'
_cell_volume   584.56688050
_cell_formula_units_Z   4
loop_
 _symmetry_equiv_pos_site_id
 _symmetry_equiv_pos_as_xyz
  1  'x, y, z'
loop_
 _atom_site_type_symbol
 _atom_site_label
 _atom_site_symmetry_multiplicity
 _atom_site_fract_x
 _atom_site_fract_y
 _atom_site_fract_z
 _atom_site_occupancy
  O  O0  1  0.11673479  0.99192679  0.63449596  1
  O  O1  1  0.88326389  0.49192741  0.86550395  1
  O  O2  1  0.88326411  0.00807301  0.36550325  1
  O  O3  1  0.11673500  0.50807239  0.13449623  1
  O  O4  1  0.11660920  0.50401576  0.63227164  1
  O  O5  1  0.88339121  0.00401534  0.86772832  1
  O  O6  1  0.88339142  0.49598404  0.36772859  1
  O  O7  1  0.11660941  0.99598446  0.13227094  1
  O  O8  1  0.86954751  0.26521707  0.69488086  1
  O  O9  1  0.13045289  0.76521645  0.80512007  1
  O  O10  1  0.13045310  0.73478273  0.30511937  1
  O  O11  1  0.86954773  0.23478335  0.19488016  1
  O  O12  1  0.37306500  0.01123816  0.87768982  1
  O  O13  1  0.62693540  0.51123858  0.62231111  1
  O  O14  1  0.62693561  0.98876164  0.12231041  1
  O  O15  1  0.37306521  0.48876122  0.37768912  1
  O  O16  1  0.63092805  0.47878336  0.11804276  1
  O  O17  1  0.36907106  0.97878274  0.38195770  1
  O  O18  1  0.36907085  0.52121644  0.88195743  1
  O  O19  1  0.63092784  0.02121706  0.61804248  1
  O  O20  1  0.38704138  0.22478624  0.22927838  1
  O  O21  1  0.61295773  0.72478562  0.27072110  1
  O  O22  1  0.61295923  0.77521356  0.77072185  1
  O  O23  1  0.38704117  0.27521418  0.72927811  1
  O  O24  1  0.60549261  0.24575502  0.45382297  1
  O  O25  1  0.39450822  0.74575544  0.04617754  1
  O  O26  1  0.15725309  0.26774329  0.96709218  1
  O  O27  1  0.60549240  0.25424436  0.95382269  1
  O  O28  1  0.15725331  0.23225713  0.46709148  1
  O  O29  1  0.84274752  0.73225651  0.03290805  1
  O  O30  1  0.84274731  0.76774267  0.53290778  1
  O  O31  1  0.39450801  0.75424478  0.54617727  1
  Ni  Ni32  1  0.88496365  0.13535853  0.53463564  1
  Ni  Ni33  1  0.11503504  0.63535895  0.96536427  1
  Ni  Ni34  1  0.11503525  0.86464127  0.46536454  1
  Ni  Ni35  1  0.88496386  0.36464189  0.03463591  1
  Ni  Ni36  1  0.64202465  0.13656364  0.78423217  1
  Ni  Ni37  1  0.35797575  0.63656302  0.71576779  1
  Ni  Ni38  1  0.35797596  0.86343719  0.21576806  1
  Ni  Ni39  1  0.64202487  0.36343678  0.28423147  1
  Ni  Ni40  1  0.36296099  0.37659729  0.55821420  1
  Ni  Ni41  1  0.63703769  0.87659771  0.94178572  1
  Ni  Ni42  1  0.36296121  0.12340209  0.05821349  1
  Ni  Ni43  1  0.63703790  0.62340251  0.44178599  1
  As  As44  1  0.36815572  0.15541272  0.38192251  1
  As  As45  1  0.63184339  0.65541211  0.11807698  1
  As  As46  1  0.63184318  0.84458707  0.61807768  1
  As  As47  1  0.36815550  0.34458769  0.88192321  1
  As  As48  1  0.87590586  0.05698003  0.20492161  1
  As  As49  1  0.12409325  0.55698045  0.29507787  1
  As  As50  1  0.12409303  0.94301976  0.79507857  1
  As  As51  1  0.87590737  0.44301935  0.70492139  1
