# generated using pymatgen
data_LiCu5(PO4)2
_symmetry_space_group_name_H-M   'P 1'
_cell_length_a   6.23277203
_cell_length_b   5.62092717
_cell_length_c   10.30148613
_cell_angle_alpha   91.72700683
_cell_angle_beta   90.51501077
_cell_angle_gamma   88.19528326
_symmetry_Int_Tables_number   1
_chemical_formula_structural   LiCu5(PO4)2
_chemical_formula_sum   'Li2 Cu10 P4 O16'
_cell_volume   360.54728419
_cell_formula_units_Z   2
loop_
 _symmetry_equiv_pos_site_id
 _symmetry_equiv_pos_as_xyz
  1  'x, y, z'
loop_
 _atom_site_type_symbol
 _atom_site_label
 _atom_site_symmetry_multiplicity
 _atom_site_fract_x
 _atom_site_fract_y
 _atom_site_fract_z
 _atom_site_occupancy
  Li  Li0  1  0.00406122  0.13867207  0.74663120  1
  Li  Li1  1  0.24430892  0.68916774  0.24274739  1
  Cu  Cu2  1  0.99553704  0.25511658  0.22928559  1
  Cu  Cu3  1  0.27385974  0.37752298  0.51106521  1
  Cu  Cu4  1  0.21712636  0.33248452  0.00971305  1
  Cu  Cu5  1  0.28751281  0.64881890  0.72266161  1
  Cu  Cu6  1  0.51314850  0.74339943  0.98377588  1
  Cu  Cu7  1  0.49800796  0.74589653  0.49661071  1
  Cu  Cu8  1  0.69870257  0.63425948  0.72227088  1
  Cu  Cu9  1  0.75517475  0.64833003  0.22689783  1
  Cu  Cu10  1  0.73425728  0.37217266  0.49931557  1
  Cu  Cu11  1  0.76349171  0.36561469  0.01277131  1
  P  P12  1  0.00743103  0.83261008  0.99662701  1
  P  P13  1  0.00110259  0.85350023  0.49734390  1
  P  P14  1  0.48840746  0.15722971  0.26020705  1
  P  P15  1  0.50495099  0.17419133  0.76339610  1
  O  O16  1  0.00873715  0.83165611  0.64721902  1
  O  O17  1  0.99734554  0.11666828  0.45811174  1
  O  O18  1  0.99742565  0.84429151  0.14684761  1
  O  O19  1  0.00716374  0.08209455  0.93664756  1
  O  O20  1  0.19697356  0.71499490  0.43204192  1
  O  O21  1  0.21221078  0.68546323  0.95041815  1
  O  O22  1  0.29471434  0.32153060  0.21369284  1
  O  O23  1  0.29006155  0.29213328  0.71180811  1
  O  O24  1  0.50643737  0.17704691  0.91309177  1
  O  O25  1  0.50722333  0.91809470  0.70377170  1
  O  O26  1  0.49737341  0.15776944  0.41057303  1
  O  O27  1  0.47902467  0.90102809  0.20333076  1
  O  O28  1  0.71377309  0.28788387  0.71206839  1
  O  O29  1  0.68921596  0.28286980  0.20689038  1
  O  O30  1  0.80204721  0.72084944  0.43911244  1
  O  O31  1  0.81318972  0.69663831  0.93564828  1
