# generated using pymatgen
data_Tb2(MoO4)3
_symmetry_space_group_name_H-M   'P 1'
_cell_length_a   10.55818750
_cell_length_b   10.56751892
_cell_length_c   10.75003486
_cell_angle_alpha   90.00000000
_cell_angle_beta   90.00000000
_cell_angle_gamma   90.00000000
_symmetry_Int_Tables_number   1
_chemical_formula_structural   Tb2(MoO4)3
_chemical_formula_sum   'Tb8 Mo12 O48'
_cell_volume   1199.42273576
_cell_formula_units_Z   4
loop_
 _symmetry_equiv_pos_site_id
 _symmetry_equiv_pos_as_xyz
  1  'x, y, z'
loop_
 _atom_site_type_symbol
 _atom_site_label
 _atom_site_symmetry_multiplicity
 _atom_site_fract_x
 _atom_site_fract_y
 _atom_site_fract_z
 _atom_site_occupancy
  O  O0  1  0.67491379  0.13682573  0.90139257  1
  O  O1  1  0.32508621  0.86317427  0.90139257  1
  O  O2  1  0.82508621  0.63682573  0.90139257  1
  O  O3  1  0.17491379  0.36317427  0.90139257  1
  O  O4  1  0.86111257  0.18161855  0.09969574  1
  O  O5  1  0.13888743  0.81838145  0.09969574  1
  O  O6  1  0.63888743  0.68161855  0.09969574  1
  O  O7  1  0.36111257  0.31838145  0.09969574  1
  O  O8  1  0.81777091  0.37208460  0.90462221  1
  O  O9  1  0.18222909  0.62791540  0.90462221  1
  O  O10  1  0.68222909  0.87208460  0.90462221  1
  O  O11  1  0.31777091  0.12791540  0.90462221  1
  O  O12  1  0.62564543  0.32442104  0.09528876  1
  O  O13  1  0.37435457  0.67557896  0.09528876  1
  O  O14  1  0.87435457  0.82442104  0.09528876  1
  O  O15  1  0.12564543  0.17557896  0.09528876  1
  O  O16  1  0.87149562  0.12482328  0.71321726  1
  O  O17  1  0.87631894  0.37387501  0.29435330  1
  O  O18  1  0.62368106  0.87387501  0.29435330  1
  O  O19  1  0.37631894  0.12612499  0.29435330  1
  O  O20  1  0.19535356  0.49395706  0.52187363  1
  O  O21  1  0.80464644  0.50604294  0.52187363  1
  O  O22  1  0.30464644  0.99395706  0.52187363  1
  O  O23  1  0.69535356  0.00604294  0.52187363  1
  O  O24  1  0.48770385  0.30415134  0.47927313  1
  O  O25  1  0.51229615  0.69584866  0.47927313  1
  O  O26  1  0.01229615  0.80415134  0.47927313  1
  O  O27  1  0.98770385  0.19584866  0.47927313  1
  O  O28  1  0.12650145  0.00272576  0.30875491  1
  O  O29  1  0.87349855  0.99727424  0.30875491  1
  O  O30  1  0.37349855  0.50272576  0.30875491  1
  O  O31  1  0.62650145  0.49727424  0.30875491  1
  O  O32  1  0.49654064  0.12635114  0.69240200  1
  O  O33  1  0.50345936  0.87364886  0.69240200  1
  O  O34  1  0.00345936  0.62635114  0.69240200  1
  O  O35  1  0.99654064  0.37364886  0.69240200  1
  O  O36  1  0.15028296  0.14415126  0.69189529  1
  O  O37  1  0.84971704  0.85584874  0.69189529  1
  O  O38  1  0.34971704  0.64415126  0.69189529  1
  O  O39  1  0.65028296  0.35584874  0.69189529  1
  O  O40  1  0.14505097  0.34671721  0.30139170  1
  O  O41  1  0.85494903  0.65328279  0.30139170  1
  O  O42  1  0.35494903  0.84671721  0.30139170  1
  O  O43  1  0.64505097  0.15328279  0.30139170  1
  O  O44  1  0.37149562  0.37517672  0.71321726  1
  O  O45  1  0.62850438  0.62482328  0.71321726  1
  O  O46  1  0.12850438  0.87517672  0.71321726  1
  O  O47  1  0.12368106  0.62612499  0.29435330  1
  Mo  Mo48  1  0.74547757  0.25352639  0.00028011  1
  Mo  Mo49  1  0.25452243  0.74647361  0.00028011  1
  Mo  Mo50  1  0.75452243  0.75352639  0.00028011  1
  Mo  Mo51  1  0.24547757  0.24647361  0.00028011  1
  Mo  Mo52  1  0.50129368  0.29294353  0.64425500  1
  Mo  Mo53  1  0.49870632  0.70705647  0.64425500  1
  Mo  Mo54  1  0.99870632  0.79294353  0.64425500  1
  Mo  Mo55  1  0.00129368  0.20705647  0.64425500  1
  Mo  Mo56  1  0.70679247  0.00648681  0.35647341  1
  Mo  Mo57  1  0.29320753  0.99351319  0.35647341  1
  Mo  Mo58  1  0.79320753  0.50648681  0.35647341  1
  Mo  Mo59  1  0.20679247  0.49351319  0.35647341  1
  Tb  Tb60  1  0.99644223  0.18764289  0.26276531  1
  Tb  Tb61  1  0.00355777  0.81235711  0.26276531  1
  Tb  Tb62  1  0.50355777  0.68764289  0.26276531  1
  Tb  Tb63  1  0.49644223  0.31235711  0.26276531  1
  Tb  Tb64  1  0.68772405  0.00192694  0.73807567  1
  Tb  Tb65  1  0.31227595  0.99807306  0.73807567  1
  Tb  Tb66  1  0.81227595  0.50192694  0.73807567  1
  Tb  Tb67  1  0.18772405  0.49807306  0.73807567  1
