# generated using pymatgen
data_BaCr(Si2O5)2
_symmetry_space_group_name_H-M   'P 1'
_cell_length_a   7.64082816
_cell_length_b   7.64082816
_cell_length_c   16.43155814
_cell_angle_alpha   90.00000000
_cell_angle_beta   90.00000000
_cell_angle_gamma   90.00000000
_symmetry_Int_Tables_number   1
_chemical_formula_structural   BaCr(Si2O5)2
_chemical_formula_sum   'Ba4 Cr4 Si16 O40'
_cell_volume   959.31141689
_cell_formula_units_Z   4
loop_
 _symmetry_equiv_pos_site_id
 _symmetry_equiv_pos_as_xyz
  1  'x, y, z'
loop_
 _atom_site_type_symbol
 _atom_site_label
 _atom_site_symmetry_multiplicity
 _atom_site_fract_x
 _atom_site_fract_y
 _atom_site_fract_z
 _atom_site_occupancy
  O  O0  1  0.02087403  0.38602182  0.59118887  1
  O  O1  1  0.47912597  0.11397818  0.59118887  1
  O  O2  1  0.88602182  0.52087403  0.90881113  1
  O  O3  1  0.38602182  0.47912597  0.59118887  1
  O  O4  1  0.11397818  0.02087403  0.59118887  1
  O  O5  1  0.97912597  0.88602182  0.90881113  1
  O  O6  1  0.52087403  0.61397818  0.90881113  1
  O  O7  1  0.61397818  0.97912597  0.90881113  1
  O  O8  1  0.97912597  0.61397818  0.40881113  1
  O  O9  1  0.52087403  0.88602182  0.40881113  1
  O  O10  1  0.11397818  0.47912597  0.09118887  1
  O  O11  1  0.61397818  0.52087403  0.40881113  1
  O  O12  1  0.88602182  0.97912597  0.40881113  1
  O  O13  1  0.02087403  0.11397818  0.09118887  1
  O  O14  1  0.47912597  0.38602182  0.09118887  1
  O  O15  1  0.00434078  0.28029553  0.36224985  1
  O  O16  1  0.38602182  0.02087403  0.09118887  1
  O  O17  1  0.50434078  0.78029553  0.63775015  1
  O  O18  1  0.21970447  0.49565922  0.86224985  1
  O  O19  1  0.71970447  0.50434078  0.63775015  1
  O  O20  1  0.78029553  0.99565922  0.63775015  1
  O  O21  1  0.00434078  0.21970447  0.86224985  1
  O  O22  1  0.49565922  0.28029553  0.86224985  1
  O  O23  1  0.28029553  0.00434078  0.86224985  1
  O  O24  1  0.47084714  0.97084714  0.25000000  1
  O  O25  1  0.52915286  0.47084714  0.25000000  1
  O  O26  1  0.97084714  0.02915286  0.25000000  1
  O  O27  1  0.02915286  0.52915286  0.25000000  1
  O  O28  1  0.52915286  0.02915286  0.75000000  1
  O  O29  1  0.47084714  0.52915286  0.75000000  1
  O  O30  1  0.02915286  0.97084714  0.75000000  1
  O  O31  1  0.97084714  0.47084714  0.75000000  1
  O  O32  1  0.71970447  0.99565922  0.13775015  1
  O  O33  1  0.50434078  0.71970447  0.13775015  1
  O  O34  1  0.99565922  0.78029553  0.13775015  1
  O  O35  1  0.21970447  0.00434078  0.36224985  1
  O  O36  1  0.28029553  0.49565922  0.36224985  1
  O  O37  1  0.78029553  0.50434078  0.13775015  1
  O  O38  1  0.49565922  0.21970447  0.36224985  1
  O  O39  1  0.99565922  0.71970447  0.63775015  1
  Si  Si40  1  0.93218069  0.51718422  0.65512989  1
  Si  Si41  1  0.56781931  0.98281578  0.65512989  1
  Si  Si42  1  0.01718422  0.43218069  0.84487011  1
  Si  Si43  1  0.51718422  0.56781931  0.65512989  1
  Si  Si44  1  0.98281578  0.93218069  0.65512989  1
  Si  Si45  1  0.06781931  0.01718422  0.84487011  1
  Si  Si46  1  0.43218069  0.48281578  0.84487011  1
  Si  Si47  1  0.48281578  0.06781931  0.84487011  1
  Si  Si48  1  0.06781931  0.48281578  0.34487011  1
  Si  Si49  1  0.43218069  0.01718422  0.34487011  1
  Si  Si50  1  0.98281578  0.56781931  0.15512989  1
  Si  Si51  1  0.48281578  0.43218069  0.34487011  1
  Si  Si52  1  0.01718422  0.06781931  0.34487011  1
  Si  Si53  1  0.93218069  0.98281578  0.15512989  1
  Si  Si54  1  0.56781931  0.51718422  0.15512989  1
  Si  Si55  1  0.51718422  0.93218069  0.15512989  1
  Cr  Cr56  1  0.25000000  0.25000000  0.59433069  1
  Cr  Cr57  1  0.75000000  0.75000000  0.90566931  1
  Cr  Cr58  1  0.75000000  0.75000000  0.40566931  1
  Cr  Cr59  1  0.25000000  0.25000000  0.09433069  1
  Ba  Ba60  1  0.25000000  0.75000000  0.50000000  1
  Ba  Ba61  1  0.75000000  0.25000000  0.50000000  1
  Ba  Ba62  1  0.75000000  0.25000000  0.00000000  1
  Ba  Ba63  1  0.25000000  0.75000000  0.00000000  1
