# generated using pymatgen
data_PbSeO3
_symmetry_space_group_name_H-M   'P 1'
_cell_length_a   4.59801691
_cell_length_b   5.61486651
_cell_length_c   6.75887154
_cell_angle_alpha   90.00000000
_cell_angle_beta   106.85881173
_cell_angle_gamma   90.00000000
_symmetry_Int_Tables_number   1
_chemical_formula_structural   PbSeO3
_chemical_formula_sum   'Pb2 Se2 O6'
_cell_volume   166.99607190
_cell_formula_units_Z   2
loop_
 _symmetry_equiv_pos_site_id
 _symmetry_equiv_pos_as_xyz
  1  'x, y, z'
loop_
 _atom_site_type_symbol
 _atom_site_label
 _atom_site_symmetry_multiplicity
 _atom_site_fract_x
 _atom_site_fract_y
 _atom_site_fract_z
 _atom_site_occupancy
  O  O0  1  0.20030805  0.98631342  0.33680145  1
  O  O1  1  0.79969195  0.48631342  0.66319855  1
  O  O2  1  0.79969195  0.01368658  0.66319855  1
  O  O3  1  0.20030805  0.51368658  0.33680145  1
  O  O4  1  0.70026528  0.75000000  0.11950751  1
  O  O5  1  0.29973472  0.25000000  0.88049249  1
  Se  Se6  1  0.91340113  0.25000000  0.83613068  1
  Se  Se7  1  0.08659887  0.75000000  0.16386932  1
  Pb  Pb8  1  0.36583063  0.75000000  0.69502292  1
  Pb  Pb9  1  0.63416937  0.25000000  0.30497708  1
