# generated using pymatgen
data_Pr2MgGe2
_symmetry_space_group_name_H-M   'P 1'
_cell_length_a   4.43967450
_cell_length_b   7.53225970
_cell_length_c   7.53225970
_cell_angle_alpha   90.00000000
_cell_angle_beta   90.00000000
_cell_angle_gamma   90.00000000
_symmetry_Int_Tables_number   1
_chemical_formula_structural   Pr2MgGe2
_chemical_formula_sum   'Pr4 Mg2 Ge4'
_cell_volume   251.88464945
_cell_formula_units_Z   2
loop_
 _symmetry_equiv_pos_site_id
 _symmetry_equiv_pos_as_xyz
  1  'x, y, z'
loop_
 _atom_site_type_symbol
 _atom_site_label
 _atom_site_symmetry_multiplicity
 _atom_site_fract_x
 _atom_site_fract_y
 _atom_site_fract_z
 _atom_site_occupancy
  Mg  Mg0  1  0.00000000  0.50000000  0.50000000  1
  Mg  Mg1  1  0.00000000  0.00000000  0.00000000  1
  Ge  Ge2  1  0.00000000  0.62052977  0.12052977  1
  Ge  Ge3  1  0.00000000  0.87947023  0.62052977  1
  Ge  Ge4  1  0.00000000  0.37947023  0.87947023  1
  Ge  Ge5  1  0.00000000  0.12052977  0.37947023  1
  Pr  Pr6  1  0.50000000  0.82120298  0.32120298  1
  Pr  Pr7  1  0.50000000  0.67879702  0.82120298  1
  Pr  Pr8  1  0.50000000  0.32120298  0.17879702  1
  Pr  Pr9  1  0.50000000  0.17879702  0.67879702  1
