# generated using pymatgen
data_Nd2ScSi2
_symmetry_space_group_name_H-M   'P 1'
_cell_length_a   7.39103496
_cell_length_b   7.39107096
_cell_length_c   4.41918883
_cell_angle_alpha   90.00020157
_cell_angle_beta   89.99990298
_cell_angle_gamma   90.00017155
_symmetry_Int_Tables_number   1
_chemical_formula_structural   Nd2ScSi2
_chemical_formula_sum   'Nd4 Sc2 Si4'
_cell_volume   241.40996193
_cell_formula_units_Z   2
loop_
 _symmetry_equiv_pos_site_id
 _symmetry_equiv_pos_as_xyz
  1  'x, y, z'
loop_
 _atom_site_type_symbol
 _atom_site_label
 _atom_site_symmetry_multiplicity
 _atom_site_fract_x
 _atom_site_fract_y
 _atom_site_fract_z
 _atom_site_occupancy
  Nd  Nd0  1  0.67768487  0.17768411  0.50000038  1
  Nd  Nd1  1  0.17768371  0.32231727  0.50000034  1
  Nd  Nd2  1  0.82231742  0.67768355  0.50000008  1
  Nd  Nd3  1  0.32231701  0.82231719  0.49999991  1
  Sc  Sc4  1  0.99999744  0.00000126  0.99999999  1
  Sc  Sc5  1  0.50000044  0.49999828  0.99999923  1
  Si  Si6  1  0.38192885  0.11807055  0.00000002  1
  Si  Si7  1  0.88192996  0.38192886  0.99999994  1
  Si  Si8  1  0.11807079  0.61807220  0.99999999  1
  Si  Si9  1  0.61807251  0.88192973  0.00000012  1
