# generated using pymatgen
data_CeZrF7
_symmetry_space_group_name_H-M   'P 1'
_cell_length_a   5.91083582
_cell_length_b   6.36407747
_cell_length_c   8.56427856
_cell_angle_alpha   102.36499832
_cell_angle_beta   90.00000000
_cell_angle_gamma   90.00000000
_symmetry_Int_Tables_number   1
_chemical_formula_structural   CeZrF7
_chemical_formula_sum   'Ce2 Zr2 F14'
_cell_volume   314.68949555
_cell_formula_units_Z   2
loop_
 _symmetry_equiv_pos_site_id
 _symmetry_equiv_pos_as_xyz
  1  'x, y, z'
loop_
 _atom_site_type_symbol
 _atom_site_label
 _atom_site_symmetry_multiplicity
 _atom_site_fract_x
 _atom_site_fract_y
 _atom_site_fract_z
 _atom_site_occupancy
  Ce  Ce0  1  0.24138552  0.15771940  0.18681337  1
  Ce  Ce1  1  0.74138552  0.84228060  0.81318663  1
  Zr  Zr2  1  0.75198053  0.68894993  0.27636629  1
  Zr  Zr3  1  0.25198053  0.31105007  0.72363371  1
  F  F4  1  0.47389665  0.56032175  0.73081998  1
  F  F5  1  0.03712971  0.05758488  0.71280237  1
  F  F6  1  -0.00001315  0.53754084  0.74144622  1
  F  F7  1  0.03183380  0.88131358  0.28342295  1
  F  F8  1  0.97389665  0.43967825  0.26918002  1
  F  F9  1  0.42377063  0.94773715  0.97565534  1
  F  F10  1  0.92377063  0.05226285  0.02434466  1
  F  F11  1  0.24738445  0.25721191  0.48129895  1
  F  F12  1  0.53183380  0.11868642  0.71657705  1
  F  F13  1  0.53712971  0.94241512  0.28719763  1
  F  F14  1  0.49998685  0.46245916  0.25855378  1
  F  F15  1  0.74738445  0.74278809  0.51870105  1
  F  F16  1  0.75243186  0.64310013  0.03267305  1
  F  F17  1  0.25243186  0.35689987  0.96732695  1
