# generated using pymatgen
data_Ni3P
_symmetry_space_group_name_H-M   'P 1'
_cell_length_a   4.37563335
_cell_length_b   6.68465177
_cell_length_c   6.68465177
_cell_angle_alpha   83.85076666
_cell_angle_beta   70.89565538
_cell_angle_gamma   70.89565538
_symmetry_Int_Tables_number   1
_chemical_formula_structural   Ni3P
_chemical_formula_sum   'Ni12 P4'
_cell_volume   174.57913963
_cell_formula_units_Z   4
loop_
 _symmetry_equiv_pos_site_id
 _symmetry_equiv_pos_as_xyz
  1  'x, y, z'
loop_
 _atom_site_type_symbol
 _atom_site_label
 _atom_site_symmetry_multiplicity
 _atom_site_fract_x
 _atom_site_fract_y
 _atom_site_fract_z
 _atom_site_occupancy
  Ni  Ni0  1  0.64710063  0.19063036  0.03356254  1
  Ni  Ni1  1  0.87129353  0.80936964  0.96643746  1
  Ni  Ni2  1  0.16226901  0.96643746  0.19063036  1
  Ni  Ni3  1  0.31933683  0.03356254  0.80936964  1
  Ni  Ni4  1  0.99288592  0.39464774  0.66469788  1
  Ni  Ni5  1  0.05223155  0.60535226  0.33530212  1
  Ni  Ni6  1  0.61246633  0.33530212  0.39464774  1
  Ni  Ni7  1  0.34241619  0.66469788  0.60535226  1
  Ni  Ni8  1  0.02875823  0.39157622  0.05068183  1
  Ni  Ni9  1  0.47101629  0.60842378  0.94931817  1
  Ni  Ni10  1  0.57966554  0.94931817  0.39157622  1
  Ni  Ni11  1  0.92055994  0.05068183  0.60842378  1
  P  P12  1  0.47248672  0.33077425  0.76038181  1
  P  P13  1  0.56364278  0.66922575  0.23961819  1
  P  P14  1  0.19673903  0.23961819  0.33077425  1
  P  P15  1  0.76713147  0.76038181  0.66922575  1
