# generated using pymatgen
data_CsBrF
_symmetry_space_group_name_H-M   'P 1'
_cell_length_a   4.39929327
_cell_length_b   4.39929327
_cell_length_c   10.54838835
_cell_angle_alpha   102.03617164
_cell_angle_beta   102.03617162
_cell_angle_gamma   90.00000003
_symmetry_Int_Tables_number   1
_chemical_formula_structural   CsBrF
_chemical_formula_sum   'Cs2 Br2 F2'
_cell_volume   195.07191207
_cell_formula_units_Z   2
loop_
 _symmetry_equiv_pos_site_id
 _symmetry_equiv_pos_as_xyz
  1  'x, y, z'
loop_
 _atom_site_type_symbol
 _atom_site_label
 _atom_site_symmetry_multiplicity
 _atom_site_fract_x
 _atom_site_fract_y
 _atom_site_fract_z
 _atom_site_occupancy
  F  F0  1  0.81673285  0.81673285  0.63346570  1
  F  F1  1  0.18326715  0.18326715  0.36653430  1
  Br  Br2  1  0.05986931  0.05986931  0.11973863  1
  Br  Br3  1  0.94013069  0.94013069  0.88026137  1
  Cs  Cs4  1  0.66924885  0.66924885  0.33849769  1
  Cs  Cs5  1  0.33075115  0.33075115  0.66150231  1
