# generated using pymatgen
data_LaNi5
_symmetry_space_group_name_H-M   'P 1'
_cell_length_a   3.95574510
_cell_length_b   4.99929218
_cell_length_c   5.00029037
_cell_angle_alpha   120.02582428
_cell_angle_beta   90.00019542
_cell_angle_gamma   89.99971746
_symmetry_Int_Tables_number   1
_chemical_formula_structural   LaNi5
_chemical_formula_sum   'La1 Ni5'
_cell_volume   85.61494904
_cell_formula_units_Z   1
loop_
 _symmetry_equiv_pos_site_id
 _symmetry_equiv_pos_as_xyz
  1  'x, y, z'
loop_
 _atom_site_type_symbol
 _atom_site_label
 _atom_site_symmetry_multiplicity
 _atom_site_fract_x
 _atom_site_fract_y
 _atom_site_fract_z
 _atom_site_occupancy
  La  La0  1  0.00000004  0.99998951  0.00000026  1
  Ni  Ni1  1  0.99999977  0.33326683  0.66669618  1
  Ni  Ni2  1  0.00000030  0.66666226  0.33330466  1
  Ni  Ni3  1  0.49999964  0.50000023  0.00000702  1
  Ni  Ni4  1  0.50000026  0.49999761  0.49999842  1
  Ni  Ni5  1  0.50000000  0.99998356  0.49999346  1
