# generated using pymatgen
data_Ba4Y2O7
_symmetry_space_group_name_H-M   'P 1'
_cell_length_a   18.97922613
_cell_length_b   11.26686389
_cell_length_c   7.58007657
_cell_angle_alpha   90.00000000
_cell_angle_beta   92.82475583
_cell_angle_gamma   90.00000000
_symmetry_Int_Tables_number   1
_chemical_formula_structural   Ba4Y2O7
_chemical_formula_sum   'Ba24 Y12 O42'
_cell_volume   1618.92647494
_cell_formula_units_Z   6
loop_
 _symmetry_equiv_pos_site_id
 _symmetry_equiv_pos_as_xyz
  1  'x, y, z'
loop_
 _atom_site_type_symbol
 _atom_site_label
 _atom_site_symmetry_multiplicity
 _atom_site_fract_x
 _atom_site_fract_y
 _atom_site_fract_z
 _atom_site_occupancy
  Ba  Ba0  1  0.09268322  0.39549258  0.84842202  1
  Ba  Ba1  1  0.08758808  0.75042240  0.91683951  1
  Ba  Ba2  1  0.09268322  0.10450742  0.34842202  1
  Ba  Ba3  1  0.08758808  0.74957760  0.41683951  1
  Ba  Ba4  1  0.24990026  0.93057727  0.67189995  1
  Ba  Ba5  1  0.25802577  0.27580580  0.53038683  1
  Ba  Ba6  1  0.24990026  0.56942273  0.17189995  1
  Ba  Ba7  1  0.25802577  0.22419420  0.03038683  1
  Ba  Ba8  1  0.41545233  0.78270808  0.01019242  1
  Ba  Ba9  1  0.41989188  0.43135273  0.82516968  1
  Ba  Ba10  1  0.41545233  0.71729192  0.51019242  1
  Ba  Ba11  1  0.41989188  0.06864727  0.32516968  1
  Ba  Ba12  1  0.58010812  0.93135273  0.67483032  1
  Ba  Ba13  1  0.58454767  0.28270808  0.48980758  1
  Ba  Ba14  1  0.58010812  0.56864727  0.17483032  1
  Ba  Ba15  1  0.58454767  0.21729192  0.98980758  1
  Ba  Ba16  1  0.74197423  0.77580580  0.96961317  1
  Ba  Ba17  1  0.75009974  0.43057727  0.82810005  1
  Ba  Ba18  1  0.74197423  0.72419420  0.46961317  1
  Ba  Ba19  1  0.75009974  0.06942273  0.32810005  1
  Ba  Ba20  1  0.91241192  0.25042240  0.58316049  1
  Ba  Ba21  1  0.90731678  0.89549258  0.65157798  1
  Ba  Ba22  1  0.91241192  0.24957760  0.08316049  1
  Ba  Ba23  1  0.90731678  0.60450742  0.15157798  1
  Y  Y24  1  0.08670510  0.07052480  0.82754053  1
  Y  Y25  1  0.08670510  0.42947520  0.32754053  1
  Y  Y26  1  0.24065607  0.57474458  0.68184389  1
  Y  Y27  1  0.24065607  0.92525542  0.18184389  1
  Y  Y28  1  0.41716311  0.07699806  0.81855241  1
  Y  Y29  1  0.41716311  0.42300194  0.31855241  1
  Y  Y30  1  0.58283689  0.57699806  0.68144759  1
  Y  Y31  1  0.58283689  0.92300194  0.18144759  1
  Y  Y32  1  0.75934393  0.07474458  0.81815611  1
  Y  Y33  1  0.75934393  0.42525542  0.31815611  1
  Y  Y34  1  0.91329490  0.57052480  0.67245947  1
  Y  Y35  1  0.91329490  0.92947520  0.17245947  1
  O  O36  1  0.99901498  0.18816433  0.84957715  1
  O  O37  1  0.99901498  0.31183567  0.34957715  1
  O  O38  1  0.08285289  0.94088192  0.62000608  1
  O  O39  1  0.08285289  0.55911808  0.12000608  1
  O  O40  1  0.15806463  0.19546561  0.73542141  1
  O  O41  1  0.14048520  0.51935591  0.55390862  1
  O  O42  1  0.15806463  0.30453439  0.23542141  1
  O  O43  1  0.14048520  0.98064409  0.05390862  1
  O  O44  1  0.23440913  0.72913811  0.85633389  1
  O  O45  1  0.23363439  0.44585116  0.88263627  1
  O  O46  1  0.23440913  0.77086189  0.35633389  1
  O  O47  1  0.23363439  0.05414884  0.38263627  1
  O  O48  1  0.33228206  0.50912909  0.53630771  1
  O  O49  1  0.35104050  0.23211537  0.78816909  1
  O  O50  1  0.33228206  0.99087091  0.03630771  1
  O  O51  1  0.35104050  0.26788463  0.28816909  1
  O  O52  1  0.38881571  0.93833879  0.62907981  1
  O  O53  1  0.38881571  0.56166121  0.12907981  1
  O  O54  1  0.49199038  0.66719818  0.80397235  1
  O  O55  1  0.50800962  0.16719818  0.69602765  1
  O  O56  1  0.50000000  0.50000000  0.50000000  1
  O  O57  1  0.49199038  0.83280182  0.30397235  1
  O  O58  1  0.50800962  0.33280182  0.19602765  1
  O  O59  1  0.50000000  0.00000000  0.00000000  1
  O  O60  1  0.61118429  0.43833879  0.87092019  1
  O  O61  1  0.61118429  0.06166121  0.37092019  1
  O  O62  1  0.64895950  0.73211537  0.71183091  1
  O  O63  1  0.66771794  0.00912909  0.96369229  1
  O  O64  1  0.64895950  0.76788463  0.21183091  1
  O  O65  1  0.66771794  0.49087091  0.46369229  1
  O  O66  1  0.76636561  0.94585116  0.61736373  1
  O  O67  1  0.76559087  0.22913811  0.64366611  1
  O  O68  1  0.76636561  0.55414884  0.11736373  1
  O  O69  1  0.76559087  0.27086189  0.14366611  1
  O  O70  1  0.85951480  0.01935591  0.94609138  1
  O  O71  1  0.84193537  0.69546561  0.76457859  1
  O  O72  1  0.85951480  0.48064409  0.44609138  1
  O  O73  1  0.84193537  0.80453439  0.26457859  1
  O  O74  1  0.91714711  0.44088192  0.87999392  1
  O  O75  1  0.91714711  0.05911808  0.37999392  1
  O  O76  1  0.00098502  0.68816433  0.65042285  1
  O  O77  1  0.00098502  0.81183567  0.15042285  1
