# generated using pymatgen
data_Eu(BO2)3
_symmetry_space_group_name_H-M   'P 1'
_cell_length_a   6.45811833
_cell_length_b   6.43237898
_cell_length_c   6.43237897
_cell_angle_alpha   79.19566763
_cell_angle_beta   62.23768202
_cell_angle_gamma   62.23768203
_symmetry_Int_Tables_number   1
_chemical_formula_structural   Eu(BO2)3
_chemical_formula_sum   'Eu2 B6 O12'
_cell_volume   209.08196121
_cell_formula_units_Z   2
loop_
 _symmetry_equiv_pos_site_id
 _symmetry_equiv_pos_as_xyz
  1  'x, y, z'
loop_
 _atom_site_type_symbol
 _atom_site_label
 _atom_site_symmetry_multiplicity
 _atom_site_fract_x
 _atom_site_fract_y
 _atom_site_fract_z
 _atom_site_occupancy
  B  B0  1  0.75000000  0.22236598  0.77763402  1
  B  B1  1  0.25000000  0.77763402  0.22236598  1
  B  B2  1  0.41529500  0.65964932  0.79464636  1
  B  B3  1  0.08470500  0.20535364  0.34035068  1
  B  B4  1  0.58470500  0.34035068  0.20535364  1
  B  B5  1  0.91529500  0.79464636  0.65964932  1
  O  O6  1  0.78734190  0.21973232  0.99017905  1
  O  O7  1  0.49658838  0.79058013  0.61605860  1
  O  O8  1  0.00341162  0.38394140  0.20941987  1
  O  O9  1  0.50341162  0.20941987  0.38394140  1
  O  O10  1  0.00896540  0.78575523  0.41671013  1
  O  O11  1  0.49103460  0.58328987  0.21424477  1
  O  O12  1  0.99103460  0.21424477  0.58328987  1
  O  O13  1  0.50896540  0.41671013  0.78575523  1
  O  O14  1  0.21265810  0.78026768  0.00982095  1
  O  O15  1  0.28734190  0.99017905  0.21973232  1
  O  O16  1  0.99658838  0.61605860  0.79058013  1
  O  O17  1  0.71265810  0.00982095  0.78026768  1
  Eu  Eu18  1  0.25000000  0.20516210  0.79483790  1
  Eu  Eu19  1  0.75000000  0.79483790  0.20516210  1
