# generated using pymatgen
data_LaFe3(BO3)4
_symmetry_space_group_name_H-M   'P 1'
_cell_length_a   6.17919012
_cell_length_b   6.17919012
_cell_length_c   6.17919012
_cell_angle_alpha   103.67164288
_cell_angle_beta   103.67164282
_cell_angle_gamma   103.67164291
_symmetry_Int_Tables_number   1
_chemical_formula_structural   LaFe3(BO3)4
_chemical_formula_sum   'La1 Fe3 B4 O12'
_cell_volume   211.81736275
_cell_formula_units_Z   1
loop_
 _symmetry_equiv_pos_site_id
 _symmetry_equiv_pos_as_xyz
  1  'x, y, z'
loop_
 _atom_site_type_symbol
 _atom_site_label
 _atom_site_symmetry_multiplicity
 _atom_site_fract_x
 _atom_site_fract_y
 _atom_site_fract_z
 _atom_site_occupancy
  B  B0  1  0.05469954  0.50000000  0.94530046  1
  B  B1  1  0.50000000  0.94530046  0.05469954  1
  B  B2  1  0.94530046  0.05469954  0.50000000  1
  B  B3  1  0.50000000  0.50000000  0.50000000  1
  O  O4  1  0.21323315  0.37706445  0.97098883  1
  O  O5  1  0.78676685  0.02901117  0.62293555  1
  O  O6  1  0.62293555  0.78676685  0.02901117  1
  O  O7  1  0.02901117  0.62293555  0.78676685  1
  O  O8  1  0.35674187  0.64325813  0.50000000  1
  O  O9  1  0.50000000  0.35674187  0.64325813  1
  O  O10  1  0.64325813  0.50000000  0.35674187  1
  O  O11  1  0.08866820  0.91133180  0.50000000  1
  O  O12  1  0.50000000  0.08866820  0.91133180  1
  O  O13  1  0.91133180  0.50000000  0.08866820  1
  O  O14  1  0.97098883  0.21323315  0.37706445  1
  O  O15  1  0.37706445  0.97098883  0.21323315  1
  Fe  Fe16  1  0.44850110  0.00000000  0.55149890  1
  Fe  Fe17  1  0.00000000  0.55149890  0.44850110  1
  Fe  Fe18  1  0.55149890  0.44850110  0.00000000  1
  La  La19  1  0.00000000  0.00000000  0.00000000  1
