# generated using pymatgen
data_Ba4Br6O
_symmetry_space_group_name_H-M   'P 1'
_cell_length_a   22.23240458
_cell_length_b   12.68487821
_cell_length_c   6.30046779
_cell_angle_alpha   90.00000000
_cell_angle_beta   90.00000000
_cell_angle_gamma   90.00000000
_symmetry_Int_Tables_number   1
_chemical_formula_structural   Ba4Br6O
_chemical_formula_sum   'Ba16 Br24 O4'
_cell_volume   1776.82859376
_cell_formula_units_Z   4
loop_
 _symmetry_equiv_pos_site_id
 _symmetry_equiv_pos_as_xyz
  1  'x, y, z'
loop_
 _atom_site_type_symbol
 _atom_site_label
 _atom_site_symmetry_multiplicity
 _atom_site_fract_x
 _atom_site_fract_y
 _atom_site_fract_z
 _atom_site_occupancy
  Ba  Ba0  1  0.05969890  0.22742829  0.67920072  1
  Ba  Ba1  1  0.04747946  0.97160814  0.27930422  1
  Ba  Ba2  1  0.17568663  0.58494445  0.29833421  1
  Ba  Ba3  1  0.20460787  0.16113764  0.30015910  1
  Ba  Ba4  1  0.29539213  0.83886236  0.80015910  1
  Ba  Ba5  1  0.32431337  0.41505555  0.79833421  1
  Ba  Ba6  1  0.45252054  0.02839186  0.77930422  1
  Ba  Ba7  1  0.44030110  0.77257171  0.17920072  1
  Ba  Ba8  1  0.55969890  0.27257171  0.32079928  1
  Ba  Ba9  1  0.54747946  0.52839186  0.72069578  1
  Ba  Ba10  1  0.67568663  0.91505555  0.70166579  1
  Ba  Ba11  1  0.70460787  0.33886236  0.69984090  1
  Ba  Ba12  1  0.79539213  0.66113764  0.19984090  1
  Ba  Ba13  1  0.82431337  0.08494445  0.20166579  1
  Ba  Ba14  1  0.95252054  0.47160814  0.22069578  1
  Ba  Ba15  1  0.94030110  0.72742829  0.82079928  1
  Br  Br16  1  0.04695643  0.70107074  0.26954591  1
  Br  Br17  1  0.99776675  0.98458847  0.77709586  1
  Br  Br18  1  0.10007921  0.37380634  0.24637090  1
  Br  Br19  1  0.20590222  0.26142868  0.79994797  1
  Br  Br20  1  0.17646272  0.94569992  0.02634146  1
  Br  Br21  1  0.21310750  0.59731283  0.79904154  1
  Br  Br22  1  0.28689250  0.40268717  0.29904154  1
  Br  Br23  1  0.32353728  0.05430008  0.52634146  1
  Br  Br24  1  0.29409778  0.73857132  0.29994797  1
  Br  Br25  1  0.39992079  0.62619366  0.74637090  1
  Br  Br26  1  0.50223325  0.01541153  0.27709586  1
  Br  Br27  1  0.45304357  0.29892926  0.76954591  1
  Br  Br28  1  0.54695643  0.79892926  0.73045409  1
  Br  Br29  1  0.49776675  0.51541153  0.22290414  1
  Br  Br30  1  0.60007921  0.12619366  0.75362910  1
  Br  Br31  1  0.70590222  0.23857132  0.20005203  1
  Br  Br32  1  0.67646272  0.55430008  0.97365854  1
  Br  Br33  1  0.71310750  0.90268717  0.20095846  1
  Br  Br34  1  0.78689250  0.09731283  0.70095846  1
  Br  Br35  1  0.82353728  0.44569992  0.47365854  1
  Br  Br36  1  0.79409778  0.76142868  0.70005203  1
  Br  Br37  1  0.89992079  0.87380634  0.25362910  1
  Br  Br38  1  0.00223325  0.48458847  0.72290414  1
  Br  Br39  1  0.95304357  0.20107074  0.23045409  1
  O  O40  1  0.10580304  0.11465900  0.42616589  1
  O  O41  1  0.39419696  0.88534100  0.92616589  1
  O  O42  1  0.60580304  0.38534100  0.57383411  1
  O  O43  1  0.89419696  0.61465900  0.07383411  1
