# generated using pymatgen
data_Cr2TeO6
_symmetry_space_group_name_H-M   'P 1'
_cell_length_a   4.63131618
_cell_length_b   4.63129669
_cell_length_c   9.17252125
_cell_angle_alpha   90.00006340
_cell_angle_beta   89.99993144
_cell_angle_gamma   90.00003736
_symmetry_Int_Tables_number   1
_chemical_formula_structural   Cr2TeO6
_chemical_formula_sum   'Cr4 Te2 O12'
_cell_volume   196.74140182
_cell_formula_units_Z   2
loop_
 _symmetry_equiv_pos_site_id
 _symmetry_equiv_pos_as_xyz
  1  'x, y, z'
loop_
 _atom_site_type_symbol
 _atom_site_label
 _atom_site_symmetry_multiplicity
 _atom_site_fract_x
 _atom_site_fract_y
 _atom_site_fract_z
 _atom_site_occupancy
  Cr  Cr0  1  0.00000467  0.99998549  0.33479175  1
  Cr  Cr1  1  0.50000792  0.50001070  0.16521136  1
  Cr  Cr2  1  0.50000415  0.49999359  0.83477000  1
  Cr  Cr3  1  0.99999342  0.99999646  0.66522966  1
  Te  Te4  1  -0.00000089  0.00000566  -0.00001298  1
  Te  Te5  1  0.49999845  0.49999505  0.50001339  1
  O  O6  1  0.29949281  0.29950074  -0.00001639  1
  O  O7  1  0.20051279  0.79949143  0.50001779  1
  O  O8  1  0.79949391  0.20050606  0.50001761  1
  O  O9  1  0.70050390  0.70050646  -0.00001842  1
  O  O10  1  0.69147867  0.69147826  0.66292939  1
  O  O11  1  0.30851612  0.30851456  0.66293033  1
  O  O12  1  0.69147907  0.69148398  0.33706662  1
  O  O13  1  0.19147930  0.80852687  0.16294497  1
  O  O14  1  0.80852153  0.19147873  0.16294838  1
  O  O15  1  0.80851813  0.19147659  0.83705482  1
  O  O16  1  0.30851929  0.30852112  0.33706500  1
  O  O17  1  0.19147675  0.80852825  0.83705673  1
