# generated using pymatgen
data_Ce(IO3)4
_symmetry_space_group_name_H-M   'P 1'
_cell_length_a   5.40181309
_cell_length_b   10.25060219
_cell_length_c   10.25060219
_cell_angle_alpha   90.00000000
_cell_angle_beta   90.00000000
_cell_angle_gamma   90.00000000
_symmetry_Int_Tables_number   1
_chemical_formula_structural   Ce(IO3)4
_chemical_formula_sum   'Ce2 I8 O24'
_cell_volume   567.59467454
_cell_formula_units_Z   2
loop_
 _symmetry_equiv_pos_site_id
 _symmetry_equiv_pos_as_xyz
  1  'x, y, z'
loop_
 _atom_site_type_symbol
 _atom_site_label
 _atom_site_symmetry_multiplicity
 _atom_site_fract_x
 _atom_site_fract_y
 _atom_site_fract_z
 _atom_site_occupancy
  O  O0  1  0.56254451  0.40116908  0.32177802  1
  O  O1  1  0.06254451  0.67822198  0.90116908  1
  O  O2  1  0.06254451  0.82177802  0.59883092  1
  O  O3  1  0.56254451  0.09883092  0.17822198  1
  O  O4  1  0.43745549  0.59883092  0.67822198  1
  O  O5  1  0.93745549  0.32177802  0.09883092  1
  O  O6  1  0.93745549  0.17822198  0.40116908  1
  O  O7  1  0.43745549  0.90116908  0.82177802  1
  O  O8  1  0.05909257  0.44199290  0.32710575  1
  O  O9  1  0.55909257  0.67289425  0.94199290  1
  O  O10  1  0.25117598  0.15131807  0.87001486  1
  O  O11  1  0.75117598  0.12998514  0.65131807  1
  O  O12  1  0.75117598  0.37001486  0.84868193  1
  O  O13  1  0.25117598  0.34868193  0.62998514  1
  O  O14  1  0.74882402  0.84868193  0.12998514  1
  O  O15  1  0.24882402  0.87001486  0.34868193  1
  O  O16  1  0.24882402  0.62998514  0.15131807  1
  O  O17  1  0.74882402  0.65131807  0.37001486  1
  O  O18  1  0.94090743  0.94199290  0.82710575  1
  O  O19  1  0.44090743  0.17289425  0.44199290  1
  O  O20  1  0.44090743  0.32710575  0.05800710  1
  O  O21  1  0.94090743  0.55800710  0.67289425  1
  O  O22  1  0.05909257  0.05800710  0.17289425  1
  O  O23  1  0.55909257  0.82710575  0.55800710  1
  I  I24  1  0.78622284  0.52093726  0.25301274  1
  I  I25  1  0.28622284  0.74698726  0.02093726  1
  I  I26  1  0.28622284  0.75301274  0.47906274  1
  I  I27  1  0.78622284  0.97906274  0.24698726  1
  I  I28  1  0.21377716  0.47906274  0.74698726  1
  I  I29  1  0.71377716  0.25301274  0.97906274  1
  I  I30  1  0.71377716  0.24698726  0.52093726  1
  I  I31  1  0.21377716  0.02093726  0.75301274  1
  Ce  Ce32  1  0.25000000  0.25000000  0.25000000  1
  Ce  Ce33  1  0.75000000  0.75000000  0.75000000  1
