# generated using pymatgen
data_CuH2SeO5
_symmetry_space_group_name_H-M   'P 1'
_cell_length_a   5.18170039
_cell_length_b   5.68607927
_cell_length_c   7.66367374
_cell_angle_alpha   101.45685369
_cell_angle_beta   106.57626920
_cell_angle_gamma   98.72382074
_symmetry_Int_Tables_number   1
_chemical_formula_structural   CuH2SeO5
_chemical_formula_sum   'Cu2 H4 Se2 O10'
_cell_volume   206.82026108
_cell_formula_units_Z   2
loop_
 _symmetry_equiv_pos_site_id
 _symmetry_equiv_pos_as_xyz
  1  'x, y, z'
loop_
 _atom_site_type_symbol
 _atom_site_label
 _atom_site_symmetry_multiplicity
 _atom_site_fract_x
 _atom_site_fract_y
 _atom_site_fract_z
 _atom_site_occupancy
  H  H0  1  0.90626578  0.46614936  0.75806322  1
  H  H1  1  0.09373422  0.53385064  0.24193678  1
  H  H2  1  0.02707188  0.67077168  0.66425614  1
  H  H3  1  0.97292812  0.32922832  0.33574386  1
  O  O4  1  0.67871406  0.82279360  0.04115436  1
  O  O5  1  0.32128594  0.17720640  0.95884564  1
  O  O6  1  0.22116861  0.81361913  0.15549147  1
  O  O7  1  0.77883139  0.18638087  0.84450853  1
  O  O8  1  0.70322871  0.16144951  0.36986129  1
  O  O9  1  0.29677129  0.83855049  0.63013871  1
  O  O10  1  0.66865530  0.66583163  0.34668582  1
  O  O11  1  0.33134470  0.33416837  0.65331418  1
  O  O12  1  0.13278660  0.39364147  0.29577340  1
  O  O13  1  0.86721340  0.60635853  0.70422660  1
  Cu  Cu14  1  0.00000000  0.00000000  0.00000000  1
  Cu  Cu15  1  0.50000000  0.50000000  0.50000000  1
  Se  Se16  1  0.57280827  0.87790764  0.23156160  1
  Se  Se17  1  0.42719173  0.12209236  0.76843840  1
