# generated using pymatgen
data_PrFeO3
_symmetry_space_group_name_H-M   'P 1'
_cell_length_a   5.54042976
_cell_length_b   5.69652949
_cell_length_c   7.90162189
_cell_angle_alpha   90.00000000
_cell_angle_beta   90.00000000
_cell_angle_gamma   90.00000000
_symmetry_Int_Tables_number   1
_chemical_formula_structural   PrFeO3
_chemical_formula_sum   'Pr4 Fe4 O12'
_cell_volume   249.38483880
_cell_formula_units_Z   4
loop_
 _symmetry_equiv_pos_site_id
 _symmetry_equiv_pos_as_xyz
  1  'x, y, z'
loop_
 _atom_site_type_symbol
 _atom_site_label
 _atom_site_symmetry_multiplicity
 _atom_site_fract_x
 _atom_site_fract_y
 _atom_site_fract_z
 _atom_site_occupancy
  O  O0  1  0.70652339  0.29373622  0.45179593  1
  O  O1  1  0.20652368  0.20626342  0.54820471  1
  O  O2  1  0.79347755  0.79373587  0.04820503  1
  O  O3  1  0.29347784  0.70626307  0.95179561  1
  O  O4  1  0.29347784  0.70626307  0.54820471  1
  O  O5  1  0.79347755  0.79373587  0.45179593  1
  O  O6  1  0.20652368  0.20626342  0.95179561  1
  O  O7  1  0.70652339  0.29373622  0.04820503  1
  O  O8  1  0.09032061  0.47395389  0.24999984  1
  O  O9  1  0.59032032  0.02604575  0.74999951  1
  O  O10  1  0.90967879  0.52604540  0.74999951  1
  O  O11  1  0.40967909  0.97395354  0.24999984  1
  Fe  Fe12  1  0.00000000  0.49999964  0.49999968  1
  Fe  Fe13  1  0.49999970  0.00000000  0.49999968  1
  Fe  Fe14  1  0.49999970  0.00000000  0.00000000  1
  Fe  Fe15  1  0.00000000  0.49999964  0.00000000  1
  Pr  Pr16  1  0.01284598  0.94816460  0.74999951  1
  Pr  Pr17  1  0.51284568  0.55183612  0.24999984  1
  Pr  Pr18  1  0.48715372  0.44816495  0.74999951  1
  Pr  Pr19  1  0.98715343  0.05183647  0.24999984  1
