# generated using pymatgen
data_Fe2P4PbO14
_symmetry_space_group_name_H-M   'P 1'
_cell_length_a   4.87612038
_cell_length_b   7.20441068
_cell_length_c   8.01715667
_cell_angle_alpha   89.48247945
_cell_angle_beta   87.37717145
_cell_angle_gamma   73.30763547
_symmetry_Int_Tables_number   1
_chemical_formula_structural   Fe2P4PbO14
_chemical_formula_sum   'Fe2 P4 Pb1 O14'
_cell_volume   269.48614053
_cell_formula_units_Z   1
loop_
 _symmetry_equiv_pos_site_id
 _symmetry_equiv_pos_as_xyz
  1  'x, y, z'
loop_
 _atom_site_type_symbol
 _atom_site_label
 _atom_site_symmetry_multiplicity
 _atom_site_fract_x
 _atom_site_fract_y
 _atom_site_fract_z
 _atom_site_occupancy
  O  O0  1  0.48593702  0.24250048  0.88346576  1
  O  O1  1  0.51406298  0.75749952  0.11653424  1
  O  O2  1  0.18587211  0.09582969  0.70691955  1
  O  O3  1  0.81412789  0.90417031  0.29308045  1
  O  O4  1  0.62406136  0.17838241  0.57090798  1
  O  O5  1  0.30254967  0.43642496  0.20419085  1
  O  O6  1  0.69745033  0.56357504  0.79580915  1
  O  O7  1  0.87797544  0.35120181  0.08671771  1
  O  O8  1  0.12202456  0.64879819  0.91328229  1
  O  O9  1  0.08520677  0.20030562  0.35200538  1
  O  O10  1  0.91479323  0.79969438  0.64799462  1
  O  O11  1  0.80605719  0.55585125  0.34842897  1
  O  O12  1  0.19394281  0.44414875  0.65157103  1
  O  O13  1  0.37593864  0.82161759  0.42909202  1
  P  P14  1  0.38471972  0.22901595  0.70339291  1
  P  P15  1  0.61528028  0.77098405  0.29660709  1
  P  P16  1  0.97068652  0.61825945  0.75315591  1
  P  P17  1  0.02931348  0.38174055  0.24684409  1
  Fe  Fe18  1  0.00000000  0.00000000  0.50000000  1
  Fe  Fe19  1  0.50000000  0.50000000  0.00000000  1
  Pb  Pb20  1  0.00000000  0.00000000  0.00000000  1
