# generated using pymatgen
data_MnSO4
_symmetry_space_group_name_H-M   'P 1'
_cell_length_a   4.88998609
_cell_length_b   4.88998610
_cell_length_c   6.94293964
_cell_angle_alpha   90.00000000
_cell_angle_beta   90.00000000
_cell_angle_gamma   114.05347186
_symmetry_Int_Tables_number   1
_chemical_formula_structural   MnSO4
_chemical_formula_sum   'Mn2 S2 O8'
_cell_volume   151.60311263
_cell_formula_units_Z   2
loop_
 _symmetry_equiv_pos_site_id
 _symmetry_equiv_pos_as_xyz
  1  'x, y, z'
loop_
 _atom_site_type_symbol
 _atom_site_label
 _atom_site_symmetry_multiplicity
 _atom_site_fract_x
 _atom_site_fract_y
 _atom_site_fract_z
 _atom_site_occupancy
  O  O0  1  0.22857433  0.31101905  0.75000000  1
  O  O1  1  0.77142567  0.68898095  0.25000000  1
  O  O2  1  0.31101905  0.22857433  0.25000000  1
  O  O3  1  0.68898095  0.77142567  0.75000000  1
  O  O4  1  0.25267399  0.74732601  0.92710442  1
  O  O5  1  0.74732601  0.25267399  0.42710442  1
  O  O6  1  0.74732601  0.25267399  0.07289558  1
  O  O7  1  0.25267399  0.74732601  0.57289558  1
  S  S8  1  0.64914822  0.35085178  0.25000000  1
  S  S9  1  0.35085178  0.64914822  0.75000000  1
  Mn  Mn10  1  0.00000000  0.00000000  0.50000000  1
  Mn  Mn11  1  0.00000000  0.00000000  0.00000000  1
