# generated using pymatgen
data_K2Li3FeO4
_symmetry_space_group_name_H-M   'P 1'
_cell_length_a   5.64118582
_cell_length_b   8.89607697
_cell_length_c   10.53884792
_cell_angle_alpha   90.00000000
_cell_angle_beta   98.94580317
_cell_angle_gamma   90.00000000
_symmetry_Int_Tables_number   1
_chemical_formula_structural   K2Li3FeO4
_chemical_formula_sum   'K8 Li12 Fe4 O16'
_cell_volume   522.45256764
_cell_formula_units_Z   4
loop_
 _symmetry_equiv_pos_site_id
 _symmetry_equiv_pos_as_xyz
  1  'x, y, z'
loop_
 _atom_site_type_symbol
 _atom_site_label
 _atom_site_symmetry_multiplicity
 _atom_site_fract_x
 _atom_site_fract_y
 _atom_site_fract_z
 _atom_site_occupancy
  Li  Li0  1  0.80231177  0.00818180  0.42901198  1
  Li  Li1  1  0.69768823  0.50818180  0.07098802  1
  Li  Li2  1  0.19768823  0.99181820  0.57098802  1
  Li  Li3  1  0.30231177  0.49181820  0.92901198  1
  Li  Li4  1  0.10654396  0.46593090  0.20293774  1
  Li  Li5  1  0.39345604  0.96593090  0.29706226  1
  Li  Li6  1  0.89345604  0.53406910  0.79706226  1
  Li  Li7  1  0.60654396  0.03406910  0.70293774  1
  Li  Li8  1  0.91718429  0.23896274  0.29935675  1
  Li  Li9  1  0.58281571  0.73896274  0.20064325  1
  Li  Li10  1  0.08281571  0.76103726  0.70064325  1
  Li  Li11  1  0.41718429  0.26103726  0.79935675  1
  O  O12  1  0.11083089  0.32278459  0.85622413  1
  O  O13  1  0.38916911  0.82278459  0.64377587  1
  O  O14  1  0.88916911  0.67721541  0.14377587  1
  O  O15  1  0.61083089  0.17721541  0.35622413  1
  O  O16  1  0.38498315  0.19016468  0.61980640  1
  O  O17  1  0.11501685  0.69016468  0.88019360  1
  O  O18  1  0.61501685  0.80983532  0.38019360  1
  O  O19  1  0.88498315  0.30983532  0.11980640  1
  O  O20  1  0.66591125  0.10687078  0.88391308  1
  O  O21  1  0.83408875  0.60687078  0.61608692  1
  O  O22  1  0.33408875  0.89312922  0.11608692  1
  O  O23  1  0.16591125  0.39312922  0.38391308  1
  O  O24  1  0.11916264  0.04961549  0.37730619  1
  O  O25  1  0.38083736  0.54961549  0.12269381  1
  O  O26  1  0.88083736  0.95038451  0.62269381  1
  O  O27  1  0.61916264  0.45038451  0.87730619  1
  K  K28  1  0.84488845  0.99311880  0.13843673  1
  K  K29  1  0.65511155  0.49311880  0.36156327  1
  K  K30  1  0.15511155  0.00688120  0.86156327  1
  K  K31  1  0.34488845  0.50688120  0.63843673  1
  K  K32  1  0.61031295  0.77195665  0.88994421  1
  K  K33  1  0.88968705  0.27195665  0.61005579  1
  K  K34  1  0.38968705  0.22804335  0.11005579  1
  K  K35  1  0.11031295  0.72804335  0.38994421  1
  Fe  Fe36  1  0.83516728  0.28815092  0.93685224  1
  Fe  Fe37  1  0.66483272  0.78815092  0.56314776  1
  Fe  Fe38  1  0.16483272  0.71184908  0.06314776  1
  Fe  Fe39  1  0.33516728  0.21184908  0.43685224  1
