# generated using pymatgen
data_LiCu2PO4
_symmetry_space_group_name_H-M   'P 1'
_cell_length_a   6.26308135
_cell_length_b   5.56749893
_cell_length_c   10.24669763
_cell_angle_alpha   90.67266020
_cell_angle_beta   90.95767608
_cell_angle_gamma   88.81915550
_symmetry_Int_Tables_number   1
_chemical_formula_structural   LiCu2PO4
_chemical_formula_sum   'Li4 Cu8 P4 O16'
_cell_volume   357.15027253
_cell_formula_units_Z   4
loop_
 _symmetry_equiv_pos_site_id
 _symmetry_equiv_pos_as_xyz
  1  'x, y, z'
loop_
 _atom_site_type_symbol
 _atom_site_label
 _atom_site_symmetry_multiplicity
 _atom_site_fract_x
 _atom_site_fract_y
 _atom_site_fract_z
 _atom_site_occupancy
  Li  Li0  1  0.00776199  0.14685602  0.74923093  1
  Li  Li1  1  0.99829829  0.15377707  0.25031315  1
  Li  Li2  1  0.24736885  0.32733944  0.49507701  1
  Li  Li3  1  0.24813983  0.68415404  0.24643538  1
  Cu  Cu4  1  0.27474028  0.34118338  0.01101102  1
  Cu  Cu5  1  0.28231318  0.65433225  0.74435265  1
  Cu  Cu6  1  0.51090478  0.75008032  0.98775304  1
  Cu  Cu7  1  0.50772954  0.75086223  0.48951712  1
  Cu  Cu8  1  0.70201377  0.64612244  0.72810818  1
  Cu  Cu9  1  0.70743151  0.65528764  0.22375284  1
  Cu  Cu10  1  0.73279438  0.36979449  0.50179906  1
  Cu  Cu11  1  0.71853036  0.36744843  0.01042458  1
  P  P12  1  0.00507888  0.84991924  0.00039386  1
  P  P13  1  0.01285188  0.84215851  0.49748460  1
  P  P14  1  0.49135517  0.17751931  0.25987990  1
  P  P15  1  0.50164964  0.17837115  0.74921539  1
  O  O16  1  0.01156215  0.83918520  0.64917511  1
  O  O17  1  0.01404181  0.10317057  0.44536341  1
  O  O18  1  0.00187242  0.84348822  0.15171388  1
  O  O19  1  0.00100384  0.11025287  0.94692027  1
  O  O20  1  0.20723465  0.68954726  0.44376687  1
  O  O21  1  0.20742852  0.70792147  0.95036022  1
  O  O22  1  0.28815265  0.32220682  0.21199424  1
  O  O23  1  0.29627472  0.30373471  0.69178437  1
  O  O24  1  0.49885889  0.17016097  0.90011374  1
  O  O25  1  0.50375332  0.91722600  0.69325252  1
  O  O26  1  0.49603391  0.17957598  0.41131818  1
  O  O27  1  0.47999869  0.91455709  0.20661019  1
  O  O28  1  0.71618948  0.29406012  0.70557422  1
  O  O29  1  0.70366771  0.29239128  0.21072632  1
  O  O30  1  0.81240072  0.70954628  0.43933916  1
  O  O31  1  0.81256617  0.70776819  0.93982860  1
