# generated using pymatgen
data_Fe(IO3)3
_symmetry_space_group_name_H-M   'P 1'
_cell_length_a   9.34759742
_cell_length_b   9.34759742
_cell_length_c   5.42366910
_cell_angle_alpha   90.00000000
_cell_angle_beta   90.00000000
_cell_angle_gamma   120.00000002
_symmetry_Int_Tables_number   1
_chemical_formula_structural   Fe(IO3)3
_chemical_formula_sum   'Fe2 I6 O18'
_cell_volume   410.41555928
_cell_formula_units_Z   2
loop_
 _symmetry_equiv_pos_site_id
 _symmetry_equiv_pos_as_xyz
  1  'x, y, z'
loop_
 _atom_site_type_symbol
 _atom_site_label
 _atom_site_symmetry_multiplicity
 _atom_site_fract_x
 _atom_site_fract_y
 _atom_site_fract_z
 _atom_site_occupancy
  O  O0  1  0.80971051  0.28506628  0.90295765  1
  O  O1  1  0.52464408  0.80971065  0.40295775  1
  O  O2  1  0.28506673  0.47535616  0.40295775  1
  O  O3  1  0.71493359  0.52464429  0.90295765  1
  O  O4  1  0.47535624  0.19028981  0.90295765  1
  O  O5  1  0.19028917  0.71493290  0.40295775  1
  O  O6  1  0.42237905  0.87453187  0.84288826  1
  O  O7  1  0.54784679  0.42237932  0.34288836  1
  O  O8  1  0.83200567  0.05453552  0.25417818  1
  O  O9  1  0.77746988  0.83200584  0.75417808  1
  O  O10  1  0.05453545  0.22252893  0.75417808  1
  O  O11  1  0.94546423  0.77747024  0.25417818  1
  O  O12  1  0.22252979  0.16799333  0.25417818  1
  O  O13  1  0.87453181  0.45215375  0.34288836  1
  O  O14  1  0.57762127  0.12546858  0.34288836  1
  O  O15  1  0.45215353  0.57762114  0.84288826  1
  O  O16  1  0.12546851  0.54784670  0.84288826  1
  O  O17  1  0.16799354  0.94546493  0.75417808  1
  Fe  Fe18  1  0.33333311  0.66666614  0.63213911  1
  Fe  Fe19  1  0.66666656  0.33333303  0.13213921  1
  I  I20  1  0.33820878  0.31588849  0.49159543  1
  I  I21  1  0.97767934  0.66179132  0.49159543  1
  I  I22  1  0.02232098  0.33820914  0.99159533  1
  I  I23  1  0.31588811  0.97767989  0.99159533  1
  I  I24  1  0.66179153  0.68411197  0.99159533  1
  I  I25  1  0.68411221  0.02232057  0.49159543  1
