# generated using pymatgen
data_NaFe(GeO3)2
_symmetry_space_group_name_H-M   'P 1'
_cell_length_a   5.59431607
_cell_length_b   6.81122341
_cell_length_c   6.81122341
_cell_angle_alpha   83.08996001
_cell_angle_beta   76.76729711
_cell_angle_gamma   76.76729711
_symmetry_Int_Tables_number   1
_chemical_formula_structural   NaFe(GeO3)2
_chemical_formula_sum   'Na2 Fe2 Ge4 O12'
_cell_volume   245.30416689
_cell_formula_units_Z   2
loop_
 _symmetry_equiv_pos_site_id
 _symmetry_equiv_pos_as_xyz
  1  'x, y, z'
loop_
 _atom_site_type_symbol
 _atom_site_label
 _atom_site_symmetry_multiplicity
 _atom_site_fract_x
 _atom_site_fract_y
 _atom_site_fract_z
 _atom_site_occupancy
  Na  Na0  1  0.75000000  0.70002242  0.29997758  1
  Na  Na1  1  0.25000000  0.29997758  0.70002242  1
  Fe  Fe2  1  0.75000000  0.09715049  0.90284951  1
  Fe  Fe3  1  0.25000000  0.90284951  0.09715049  1
  Ge  Ge4  1  0.72622320  0.62005301  0.80613978  1
  Ge  Ge5  1  0.77377680  0.19386022  0.37994699  1
  Ge  Ge6  1  0.27377680  0.37994699  0.19386022  1
  Ge  Ge7  1  0.22622320  0.80613978  0.62005301  1
  O  O8  1  0.79789332  0.37203306  0.91043543  1
  O  O9  1  0.70210668  0.08956457  0.62796694  1
  O  O10  1  0.20210668  0.62796694  0.08956457  1
  O  O11  1  0.29789332  0.91043543  0.37203306  1
  O  O12  1  0.62903318  0.81503777  0.97476161  1
  O  O13  1  0.87096682  0.02523839  0.18496223  1
  O  O14  1  0.37096682  0.18496223  0.02523839  1
  O  O15  1  0.12903318  0.97476161  0.81503777  1
  O  O16  1  0.51456380  0.63433931  0.64429054  1
  O  O17  1  0.98543620  0.35570946  0.36566069  1
  O  O18  1  0.48543620  0.36566069  0.35570946  1
  O  O19  1  0.01456380  0.64429054  0.63433931  1
