# generated using pymatgen
data_RbFeP2O7
_symmetry_space_group_name_H-M   'P 1'
_cell_length_a   7.62999487
_cell_length_b   8.41297248
_cell_length_c   10.15806978
_cell_angle_alpha   90.00000000
_cell_angle_beta   90.00000000
_cell_angle_gamma   105.90862132
_symmetry_Int_Tables_number   1
_chemical_formula_structural   RbFeP2O7
_chemical_formula_sum   'Rb4 Fe4 P8 O28'
_cell_volume   627.08232047
_cell_formula_units_Z   4
loop_
 _symmetry_equiv_pos_site_id
 _symmetry_equiv_pos_as_xyz
  1  'x, y, z'
loop_
 _atom_site_type_symbol
 _atom_site_label
 _atom_site_symmetry_multiplicity
 _atom_site_fract_x
 _atom_site_fract_y
 _atom_site_fract_z
 _atom_site_occupancy
  O  O0  1  0.55783424  0.26235152  0.27708550  1
  O  O1  1  0.44216576  0.23764848  0.77708550  1
  O  O2  1  0.44216576  0.73764848  0.72291450  1
  O  O3  1  0.55783424  0.76235152  0.22291450  1
  O  O4  1  0.00866023  0.27219909  0.99825350  1
  O  O5  1  0.99133977  0.22780091  0.49825350  1
  O  O6  1  0.99133977  0.72780091  0.00174650  1
  O  O7  1  0.00866023  0.77219909  0.50174650  1
  O  O8  1  0.67829390  0.49101038  0.10398810  1
  O  O9  1  0.32170610  0.00898962  0.60398810  1
  O  O10  1  0.32170610  0.50898962  0.89601190  1
  O  O11  1  0.67829390  0.99101038  0.39601190  1
  O  O12  1  0.84891098  0.98572633  0.08750806  1
  O  O13  1  0.15108902  0.51427367  0.58750806  1
  O  O14  1  0.15108902  0.01427367  0.91249194  1
  O  O15  1  0.84891098  0.48572633  0.41249194  1
  O  O16  1  0.67441059  0.19725557  0.05327518  1
  O  O17  1  0.32558941  0.30274443  0.55327518  1
  O  O18  1  0.32558941  0.80274443  0.94672482  1
  O  O19  1  0.67441059  0.69725557  0.44672482  1
  O  O20  1  0.91483353  0.73994333  0.26476239  1
  O  O21  1  0.08516647  0.76005667  0.76476239  1
  O  O22  1  0.08516647  0.26005667  0.73523761  1
  O  O23  1  0.91483353  0.23994333  0.23523761  1
  O  O24  1  0.37615736  0.76770148  0.42716419  1
  O  O25  1  0.62384264  0.73229852  0.92716419  1
  O  O26  1  0.62384264  0.23229852  0.57283581  1
  O  O27  1  0.37615736  0.26770148  0.07283581  1
  P  P28  1  0.86969826  0.66919810  0.40420060  1
  P  P29  1  0.13030174  0.83080190  0.90420060  1
  P  P30  1  0.13030174  0.33080190  0.59579940  1
  P  P31  1  0.86969826  0.16919810  0.09579940  1
  P  P32  1  0.56828257  0.31375701  0.13134415  1
  P  P33  1  0.43171743  0.18624299  0.63134415  1
  P  P34  1  0.43171743  0.68624299  0.86865585  1
  P  P35  1  0.56828257  0.81375701  0.36865585  1
  Fe  Fe36  1  0.76148181  0.24146443  0.39954658  1
  Fe  Fe37  1  0.23851819  0.25853557  0.89954658  1
  Fe  Fe38  1  0.23851819  0.75853557  0.60045342  1
  Fe  Fe39  1  0.76148181  0.74146443  0.10045342  1
  Rb  Rb40  1  0.81310969  0.94821674  0.68667070  1
  Rb  Rb41  1  0.18689031  0.55178326  0.18667070  1
  Rb  Rb42  1  0.18689031  0.05178326  0.31332930  1
  Rb  Rb43  1  0.81310969  0.44821674  0.81332930  1
