# generated using pymatgen
data_SmFeO3
_symmetry_space_group_name_H-M   'P 1'
_cell_length_a   5.43551567
_cell_length_b   5.69637679
_cell_length_c   7.80588161
_cell_angle_alpha   90.00000000
_cell_angle_beta   90.00000000
_cell_angle_gamma   90.00000000
_symmetry_Int_Tables_number   1
_chemical_formula_structural   SmFeO3
_chemical_formula_sum   'Sm4 Fe4 O12'
_cell_volume   241.69152417
_cell_formula_units_Z   4
loop_
 _symmetry_equiv_pos_site_id
 _symmetry_equiv_pos_as_xyz
  1  'x, y, z'
loop_
 _atom_site_type_symbol
 _atom_site_label
 _atom_site_symmetry_multiplicity
 _atom_site_fract_x
 _atom_site_fract_y
 _atom_site_fract_z
 _atom_site_occupancy
  O  O0  1  0.69741616  0.30143998  0.44657376  1
  O  O1  1  0.19741776  0.19856016  0.55342640  1
  O  O2  1  0.80258279  0.80144012  0.05342698  1
  O  O3  1  0.30258252  0.69856029  0.94657319  1
  O  O4  1  0.30258252  0.69856029  0.55342640  1
  O  O5  1  0.80258279  0.80144012  0.44657376  1
  O  O6  1  0.19741776  0.19856016  0.94657319  1
  O  O7  1  0.69741616  0.30143998  0.05342698  1
  O  O8  1  0.10242750  0.46616790  0.24999971  1
  O  O9  1  0.60242590  0.03383223  0.75000045  1
  O  O10  1  0.89757305  0.53383237  0.75000045  1
  O  O11  1  0.39757278  0.96616804  0.24999971  1
  Fe  Fe12  1  0.00000000  0.50000014  0.49999943  1
  Fe  Fe13  1  0.50000027  0.00000000  0.49999943  1
  Fe  Fe14  1  0.50000027  0.00000000  0.00000000  1
  Fe  Fe15  1  0.00000000  0.50000014  0.00000000  1
  Sm  Sm16  1  0.48388928  0.43717739  0.75000045  1
  Sm  Sm17  1  0.98388955  0.06282275  0.24999971  1
  Sm  Sm18  1  0.01611100  0.93717752  0.75000045  1
  Sm  Sm19  1  0.51611127  0.56282289  0.24999971  1
