# generated using pymatgen
data_Fe3Ag(SnS4)2
_symmetry_space_group_name_H-M   'P 1'
_cell_length_a   7.24627958
_cell_length_b   7.24627958
_cell_length_c   7.24627958
_cell_angle_alpha   90.24434050
_cell_angle_beta   58.44627023
_cell_angle_gamma   118.74855289
_symmetry_Int_Tables_number   1
_chemical_formula_structural   Fe3Ag(SnS4)2
_chemical_formula_sum   'Fe3 Ag1 Sn2 S8'
_cell_volume   268.22885120
_cell_formula_units_Z   1
loop_
 _symmetry_equiv_pos_site_id
 _symmetry_equiv_pos_as_xyz
  1  'x, y, z'
loop_
 _atom_site_type_symbol
 _atom_site_label
 _atom_site_symmetry_multiplicity
 _atom_site_fract_x
 _atom_site_fract_y
 _atom_site_fract_z
 _atom_site_occupancy
  Fe  Fe0  1  -0.00000000  0.99393931  0.00606069  1
  Fe  Fe1  1  0.75346159  0.37510610  0.87143230  1
  Fe  Fe2  1  0.24653841  0.37510610  0.37835549  1
  Ag  Ag3  1  0.50000000  0.77062004  0.72937996  1
  Sn  Sn4  1  0.24555048  0.87076602  0.37478447  1
  Sn  Sn5  1  0.75444952  0.37966505  0.37478447  1
  S  S6  1  0.24042680  0.14582647  0.61374673  1
  S  S7  1  0.75957320  0.14582647  0.09460032  1
  S  S8  1  0.71918282  0.59520748  0.12397534  1
  S  S9  1  0.28081718  0.15684183  0.12397534  1
  S  S10  1  0.25331185  0.59375265  0.15293550  1
  S  S11  1  0.74668815  0.59375265  0.65955921  1
  S  S12  1  0.80089690  0.17769181  0.62320509  1
  S  S13  1  0.19910310  0.57589801  0.62320509  1
