# generated using pymatgen
data_TbMn2O5
_symmetry_space_group_name_H-M   'P 1'
_cell_length_a   5.79328048
_cell_length_b   7.38493114
_cell_length_c   8.59228551
_cell_angle_alpha   90.00000000
_cell_angle_beta   90.00000000
_cell_angle_gamma   90.00000000
_symmetry_Int_Tables_number   1
_chemical_formula_structural   TbMn2O5
_chemical_formula_sum   'Tb4 Mn8 O20'
_cell_volume   367.60355696
_cell_formula_units_Z   4
loop_
 _symmetry_equiv_pos_site_id
 _symmetry_equiv_pos_as_xyz
  1  'x, y, z'
loop_
 _atom_site_type_symbol
 _atom_site_label
 _atom_site_symmetry_multiplicity
 _atom_site_fract_x
 _atom_site_fract_y
 _atom_site_fract_z
 _atom_site_occupancy
  O  O0  1  0.24110227  0.89414404  0.29307163  1
  O  O1  1  0.24110227  0.10585596  0.70692837  1
  O  O2  1  0.75889773  0.39414404  0.20692837  1
  O  O3  1  0.75889773  0.60585596  0.79307163  1
  O  O4  1  0.75889773  0.10585596  0.70692837  1
  O  O5  1  0.75889773  0.89414404  0.29307163  1
  O  O6  1  0.24110227  0.60585596  0.79307163  1
  O  O7  1  0.24110227  0.39414404  0.20692837  1
  O  O8  1  0.50000000  0.34891149  0.93098843  1
  O  O9  1  0.50000000  0.65108851  0.06901157  1
  O  O10  1  0.50000000  0.84891149  0.56901157  1
  O  O11  1  0.50000000  0.15108851  0.43098843  1
  O  O12  1  0.27105797  0.00000000  0.00000000  1
  O  O13  1  0.72894203  0.50000000  0.50000000  1
  O  O14  1  0.72894203  0.00000000  0.00000000  1
  O  O15  1  0.27105797  0.50000000  0.50000000  1
  O  O16  1  0.00000000  0.16306957  0.44331434  1
  O  O17  1  0.00000000  0.83693043  0.55668566  1
  O  O18  1  0.00000000  0.66306957  0.05668566  1
  O  O19  1  0.00000000  0.33693043  0.94331434  1
  Mn  Mn20  1  0.50000000  0.08877839  0.84878244  1
  Mn  Mn21  1  0.50000000  0.91122161  0.15121756  1
  Mn  Mn22  1  0.50000000  0.58877839  0.65121756  1
  Mn  Mn23  1  0.50000000  0.41122161  0.34878244  1
  Mn  Mn24  1  0.25399829  0.50000000  0.00000000  1
  Mn  Mn25  1  0.74600171  0.00000000  0.50000000  1
  Mn  Mn26  1  0.74600171  0.50000000  0.00000000  1
  Mn  Mn27  1  0.25399829  0.00000000  0.50000000  1
  Tb  Tb28  1  0.00000000  0.36197117  0.67080838  1
  Tb  Tb29  1  0.00000000  0.63802883  0.32919162  1
  Tb  Tb30  1  0.00000000  0.86197117  0.82919162  1
  Tb  Tb31  1  0.00000000  0.13802883  0.17080838  1
