# generated using pymatgen
data_TbMnO3
_symmetry_space_group_name_H-M   'P 1'
_cell_length_a   5.33684939
_cell_length_b   5.88754552
_cell_length_c   7.51291664
_cell_angle_alpha   90.00000000
_cell_angle_beta   90.00000000
_cell_angle_gamma   90.00000000
_symmetry_Int_Tables_number   1
_chemical_formula_structural   TbMnO3
_chemical_formula_sum   'Tb4 Mn4 O12'
_cell_volume   236.06293090
_cell_formula_units_Z   4
loop_
 _symmetry_equiv_pos_site_id
 _symmetry_equiv_pos_as_xyz
  1  'x, y, z'
loop_
 _atom_site_type_symbol
 _atom_site_label
 _atom_site_symmetry_multiplicity
 _atom_site_fract_x
 _atom_site_fract_y
 _atom_site_fract_z
 _atom_site_occupancy
  Tb  Tb0  1  0.51882172  0.58212482  0.25000000  1
  Tb  Tb1  1  0.98117828  0.08212482  0.25000000  1
  Tb  Tb2  1  0.48117828  0.41787518  0.75000000  1
  Tb  Tb3  1  0.01882172  0.91787518  0.75000000  1
  Mn  Mn4  1  0.00000000  0.50000000  -0.00000000  1
  Mn  Mn5  1  0.50000000  -0.00000000  0.50000000  1
  Mn  Mn6  1  -0.00000000  0.50000000  0.50000000  1
  Mn  Mn7  1  0.50000000  0.00000000  0.00000000  1
  O  O8  1  0.38449095  0.95974858  0.25000000  1
  O  O9  1  0.11550905  0.45974858  0.25000000  1
  O  O10  1  0.61550905  0.04025142  0.75000000  1
  O  O11  1  0.88449095  0.54025142  0.75000000  1
  O  O12  1  0.79891163  0.82585074  0.05541677  1
  O  O13  1  0.70108837  0.32585074  0.44458323  1
  O  O14  1  0.20108837  0.17414926  0.55541677  1
  O  O15  1  0.29891163  0.67414926  0.94458323  1
  O  O16  1  0.20108837  0.17414926  0.94458323  1
  O  O17  1  0.29891163  0.67414926  0.55541677  1
  O  O18  1  0.79891163  0.82585074  0.44458323  1
  O  O19  1  0.70108837  0.32585074  0.05541677  1
