# generated using pymatgen
data_DyMn2O5
_symmetry_space_group_name_H-M   'P 1'
_cell_length_a   5.78798914
_cell_length_b   7.35505684
_cell_length_c   8.56931826
_cell_angle_alpha   90.00000000
_cell_angle_beta   90.00000000
_cell_angle_gamma   90.00000000
_symmetry_Int_Tables_number   1
_chemical_formula_structural   DyMn2O5
_chemical_formula_sum   'Dy4 Mn8 O20'
_cell_volume   364.80435436
_cell_formula_units_Z   4
loop_
 _symmetry_equiv_pos_site_id
 _symmetry_equiv_pos_as_xyz
  1  'x, y, z'
loop_
 _atom_site_type_symbol
 _atom_site_label
 _atom_site_symmetry_multiplicity
 _atom_site_fract_x
 _atom_site_fract_y
 _atom_site_fract_z
 _atom_site_occupancy
  O  O0  1  0.24023973  0.89297613  0.29310185  1
  O  O1  1  0.24023973  0.10702387  0.70689815  1
  O  O2  1  0.75976027  0.39297613  0.20689815  1
  O  O3  1  0.75976027  0.60702387  0.79310185  1
  O  O4  1  0.75976027  0.10702387  0.70689815  1
  O  O5  1  0.75976027  0.89297613  0.29310185  1
  O  O6  1  0.24023973  0.60702387  0.79310185  1
  O  O7  1  0.24023973  0.39297613  0.20689815  1
  O  O8  1  0.50000000  0.34915989  0.93015601  1
  O  O9  1  0.50000000  0.65084011  0.06984399  1
  O  O10  1  0.50000000  0.84915989  0.56984399  1
  O  O11  1  0.50000000  0.15084011  0.43015601  1
  O  O12  1  0.27022614  0.00000000  0.00000000  1
  O  O13  1  0.72977386  0.50000000  0.50000000  1
  O  O14  1  0.72977386  0.00000000  0.00000000  1
  O  O15  1  0.27022614  0.50000000  0.50000000  1
  O  O16  1  0.00000000  0.16366817  0.44261169  1
  O  O17  1  0.00000000  0.83633183  0.55738831  1
  O  O18  1  0.00000000  0.66366817  0.05738831  1
  O  O19  1  0.00000000  0.33633183  0.94261169  1
  Mn  Mn20  1  0.50000000  0.08854453  0.84846202  1
  Mn  Mn21  1  0.50000000  0.91145547  0.15153798  1
  Mn  Mn22  1  0.50000000  0.58854453  0.65153798  1
  Mn  Mn23  1  0.50000000  0.41145547  0.34846202  1
  Mn  Mn24  1  0.25359803  0.50000000  0.00000000  1
  Mn  Mn25  1  0.74640197  0.00000000  0.50000000  1
  Mn  Mn26  1  0.74640197  0.50000000  0.00000000  1
  Mn  Mn27  1  0.25359803  0.00000000  0.50000000  1
  Dy  Dy28  1  0.00000000  0.36233842  0.67056229  1
  Dy  Dy29  1  0.00000000  0.63766158  0.32943771  1
  Dy  Dy30  1  0.00000000  0.86233842  0.82943771  1
  Dy  Dy31  1  0.00000000  0.13766158  0.17056229  1
