# generated using pymatgen
data_YbMnO3
_symmetry_space_group_name_H-M   'P 1'
_cell_length_a   5.24392017
_cell_length_b   5.36995634
_cell_length_c   7.46957837
_cell_angle_alpha   90.00000000
_cell_angle_beta   90.00000000
_cell_angle_gamma   90.00000000
_symmetry_Int_Tables_number   1
_chemical_formula_structural   YbMnO3
_chemical_formula_sum   'Yb4 Mn4 O12'
_cell_volume   210.34050611
_cell_formula_units_Z   4
loop_
 _symmetry_equiv_pos_site_id
 _symmetry_equiv_pos_as_xyz
  1  'x, y, z'
loop_
 _atom_site_type_symbol
 _atom_site_label
 _atom_site_symmetry_multiplicity
 _atom_site_fract_x
 _atom_site_fract_y
 _atom_site_fract_z
 _atom_site_occupancy
  O  O0  1  0.70263410  0.29508587  0.45656750  1
  O  O1  1  0.20263410  0.20491413  0.54343250  1
  O  O2  1  0.79736590  0.79508587  0.04343250  1
  O  O3  1  0.29736590  0.70491413  0.95656750  1
  O  O4  1  0.29736590  0.70491413  0.54343250  1
  O  O5  1  0.79736590  0.79508587  0.45656750  1
  O  O6  1  0.20263410  0.20491413  0.95656750  1
  O  O7  1  0.70263410  0.29508587  0.04343250  1
  O  O8  1  0.08411888  0.48007435  0.25000000  1
  O  O9  1  0.58411888  0.01992565  0.75000000  1
  O  O10  1  0.41588112  0.98007435  0.25000000  1
  O  O11  1  0.91588112  0.51992565  0.75000000  1
  Mn  Mn12  1  0.50000000  0.00000000  0.50000000  1
  Mn  Mn13  1  0.00000000  0.50000000  0.50000000  1
  Mn  Mn14  1  0.00000000  0.50000000  0.00000000  1
  Mn  Mn15  1  0.50000000  0.00000000  0.00000000  1
  Yb  Yb16  1  0.01290899  0.94545138  0.75000000  1
  Yb  Yb17  1  0.51290899  0.55454862  0.25000000  1
  Yb  Yb18  1  0.48709101  0.44545138  0.75000000  1
  Yb  Yb19  1  0.98709101  0.05454862  0.25000000  1
