# generated using pymatgen
data_NaLaMnWO6
_symmetry_space_group_name_H-M   'P 1'
_cell_length_a   5.63942036
_cell_length_b   5.71115441
_cell_length_c   8.10666330
_cell_angle_alpha   90.00000000
_cell_angle_beta   90.17134914
_cell_angle_gamma   90.00000000
_symmetry_Int_Tables_number   1
_chemical_formula_structural   NaLaMnWO6
_chemical_formula_sum   'Na2 La2 Mn2 W2 O12'
_cell_volume   261.09500523
_cell_formula_units_Z   2
loop_
 _symmetry_equiv_pos_site_id
 _symmetry_equiv_pos_as_xyz
  1  'x, y, z'
loop_
 _atom_site_type_symbol
 _atom_site_label
 _atom_site_symmetry_multiplicity
 _atom_site_fract_x
 _atom_site_fract_y
 _atom_site_fract_z
 _atom_site_occupancy
  O  O0  1  0.33475025  0.77137601  0.01806938  1
  O  O1  1  0.66524941  0.27137614  0.98193105  1
  O  O2  1  0.16397936  0.72028198  0.49018911  1
  O  O3  1  0.83602029  0.22028211  0.50981132  1
  O  O4  1  0.07181745  0.45477623  0.21752139  1
  O  O5  1  0.92818221  0.95477610  0.78247903  1
  O  O6  1  0.03429370  0.42950915  0.77735755  1
  O  O7  1  0.96570774  0.92950902  0.22264163  1
  O  O8  1  0.54887533  0.50963649  0.69155519  1
  O  O9  1  0.45112432  0.00963662  0.30844523  1
  O  O10  1  0.47881775  0.04037500  0.69309650  1
  O  O11  1  0.52118369  0.54037487  0.30690393  1
  Na  Na12  1  0.24634166  0.22604494  0.00024988  1
  Na  Na13  1  0.75365800  0.72604481  0.99974930  1
  Mn  Mn14  1  0.75021162  0.25039385  0.23762347  1
  Mn  Mn15  1  0.24978804  0.75039372  0.76237571  1
  La  La16  1  0.25724666  0.28698473  0.50006559  1
  La  La17  1  0.74275479  0.78698459  0.49993484  1
  W  W18  1  0.75408723  0.24402394  0.76087794  1
  W  W19  1  0.24591243  0.74402380  0.23912248  1
