# generated using pymatgen
data_NaNdMnWO6
_symmetry_space_group_name_H-M   'P 1'
_cell_length_a   5.58463785
_cell_length_b   5.70578137
_cell_length_c   8.07138902
_cell_angle_alpha   90.00000000
_cell_angle_beta   90.09755097
_cell_angle_gamma   90.00000000
_symmetry_Int_Tables_number   1
_chemical_formula_structural   NaNdMnWO6
_chemical_formula_sum   'Na2 Nd2 Mn2 W2 O12'
_cell_volume   257.19219954
_cell_formula_units_Z   2
loop_
 _symmetry_equiv_pos_site_id
 _symmetry_equiv_pos_as_xyz
  1  'x, y, z'
loop_
 _atom_site_type_symbol
 _atom_site_label
 _atom_site_symmetry_multiplicity
 _atom_site_fract_x
 _atom_site_fract_y
 _atom_site_fract_z
 _atom_site_occupancy
  O  O0  1  0.33273632  0.77160713  0.01891194  1
  O  O1  1  0.66726348  0.27160660  0.98108829  1
  O  O2  1  0.15465723  0.71094037  0.49173322  1
  O  O3  1  0.84534258  0.21093984  0.50826702  1
  O  O4  1  0.07941942  0.44412877  0.21748037  1
  O  O5  1  0.92058039  0.94412930  0.78251862  1
  O  O6  1  0.04514900  0.41678231  0.77654514  1
  O  O7  1  0.95485080  0.91678284  0.22345510  1
  O  O8  1  0.55629774  0.50985141  0.68707764  1
  O  O9  1  0.44370207  0.00985089  0.31292259  1
  O  O10  1  0.47530282  0.04127529  0.68820629  1
  O  O11  1  0.52469699  0.54127405  0.31179395  1
  Na  Na12  1  0.24845721  0.21601977  0.00081872  1
  Na  Na13  1  0.75154260  0.71602030  0.99918151  1
  Mn  Mn14  1  0.75110140  0.24756584  0.23889186  1
  Mn  Mn15  1  0.24889840  0.74756459  0.76110837  1
  Nd  Nd16  1  0.26148295  0.29447818  0.50076478  1
  Nd  Nd17  1  0.73851686  0.79447871  0.49923545  1
  W  W18  1  0.75704674  0.23995241  0.75918416  1
  W  W19  1  0.24295307  0.73995293  0.24081608  1
