# generated using pymatgen
data_Na3Nb6O11
_symmetry_space_group_name_H-M   'P 1'
_cell_length_a   6.21482017
_cell_length_b   6.21001757
_cell_length_c   8.05988499
_cell_angle_alpha   90.03866340
_cell_angle_beta   90.00000000
_cell_angle_gamma   120.02558070
_symmetry_Int_Tables_number   1
_chemical_formula_structural   Na3Nb6O11
_chemical_formula_sum   'Na3 Nb6 O11'
_cell_volume   269.32007998
_cell_formula_units_Z   1
loop_
 _symmetry_equiv_pos_site_id
 _symmetry_equiv_pos_as_xyz
  1  'x, y, z'
loop_
 _atom_site_type_symbol
 _atom_site_label
 _atom_site_symmetry_multiplicity
 _atom_site_fract_x
 _atom_site_fract_y
 _atom_site_fract_z
 _atom_site_occupancy
  Na  Na0  1  0.00001389  0.00000000  0.50000000  1
  Na  Na1  1  0.33392604  0.66785767  0.57149153  1
  Na  Na2  1  0.66606937  0.33214233  0.42850847  1
  Nb  Nb3  1  0.15772418  0.84253385  0.14692096  1
  Nb  Nb4  1  0.15777089  0.31554241  0.14697176  1
  Nb  Nb5  1  0.31519034  0.15746615  0.85307904  1
  Nb  Nb6  1  0.68481280  0.84253657  0.14691918  1
  Nb  Nb7  1  0.84222848  0.68445759  0.85302824  1
  Nb  Nb8  1  0.84227623  0.15746343  0.85308082  1
  O  O9  1  0.15069711  0.84838668  0.70943314  1
  O  O10  1  0.99999812  0.50000556  -0.00000276  1
  O  O11  1  0.33382596  0.66765323  0.28091775  1
  O  O12  1  0.15122704  0.30244976  0.70984165  1
  O  O13  1  0.30231043  0.15161332  0.29056686  1
  O  O14  1  0.49999257  0.49999444  0.00000276  1
  O  O15  1  0.69768349  0.84838345  0.70943332  1
  O  O16  1  0.66617273  0.33234677  0.71908225  1
  O  O17  1  0.84877827  0.69755024  0.29015835  1
  O  O18  1  0.50000203  0.00000000  0.00000000  1
  O  O19  1  0.84929904  0.15161655  0.29056668  1
