# generated using pymatgen
data_Mn2Si(P2O7)2
_symmetry_space_group_name_H-M   'P 1'
_cell_length_a   5.17296541
_cell_length_b   9.04614585
_cell_length_c   12.56241815
_cell_angle_alpha   102.57307469
_cell_angle_beta   90.01007810
_cell_angle_gamma   106.59771866
_symmetry_Int_Tables_number   1
_chemical_formula_structural   Mn2Si(P2O7)2
_chemical_formula_sum   'Mn4 Si2 P8 O28'
_cell_volume   548.63606406
_cell_formula_units_Z   2
loop_
 _symmetry_equiv_pos_site_id
 _symmetry_equiv_pos_as_xyz
  1  'x, y, z'
loop_
 _atom_site_type_symbol
 _atom_site_label
 _atom_site_symmetry_multiplicity
 _atom_site_fract_x
 _atom_site_fract_y
 _atom_site_fract_z
 _atom_site_occupancy
  O  O0  1  0.01920692  0.12234904  0.83173150  1
  O  O1  1  0.89455749  0.87697783  0.66752911  1
  O  O2  1  0.98294036  0.87688817  0.16750119  1
  O  O3  1  0.10455431  0.12190293  0.33188466  1
  O  O4  1  0.76595737  0.60348503  0.04626314  1
  O  O5  1  0.16155443  0.39527964  0.45318101  1
  O  O6  1  0.23551570  0.39574307  0.95301145  1
  O  O7  1  0.83901098  0.60354776  0.54630016  1
  O  O8  1  0.25993673  0.68822537  0.12647905  1
  O  O9  1  0.57038433  0.31044235  0.37256491  1
  O  O10  1  0.74173430  0.31076599  0.87255453  1
  O  O11  1  0.42943341  0.68785472  0.62655562  1
  O  O12  1  0.88007766  0.18286760  0.01718719  1
  O  O13  1  0.69513793  0.81609800  0.48199700  1
  O  O14  1  0.37459325  0.08924135  0.67923771  1
  O  O15  1  0.28374458  0.90867339  0.81956812  1
  O  O16  1  0.62573051  0.90880315  0.31957777  1
  O  O17  1  0.71671841  0.08976541  0.17926863  1
  O  O18  1  0.77173875  0.28135318  0.62068282  1
  O  O19  1  0.48946092  0.71707548  0.87853068  1
  O  O20  1  0.22861232  0.71677755  0.37825009  1
  O  O21  1  0.51190600  0.28185210  0.12046773  1
  O  O22  1  -0.00273105  0.61990018  0.79704625  1
  O  O23  1  0.37645142  0.37818494  0.70223760  1
  O  O24  1  0.00377975  0.37860747  0.20228565  1
  O  O25  1  0.62430514  0.62008336  0.29702927  1
  O  O26  1  0.30488414  0.18236745  0.51717799  1
  O  O27  1  0.12149245  0.81617802  0.98193398  1
  Si  Si28  1  0.85911336  -0.00069203  0.24955293  1
  Si  Si29  1  0.14117226  -0.00076236  0.74946977  1
  P  P30  1  0.97061155  0.26633085  0.91614051  1
  P  P31  1  0.70270420  0.73266366  0.58304671  1
  P  P32  1  0.03103493  0.73277809  0.08302438  1
  P  P33  1  0.29723163  0.26591593  0.41622820  1
  P  P34  1  0.77259863  0.24553818  0.13404657  1
  P  P35  1  0.52569957  0.75318973  0.36496999  1
  P  P36  1  0.22855402  0.75320151  0.86504641  1
  P  P37  1  0.47471565  0.24507279  0.63411296  1
  Mn  Mn38  1  0.40251161  0.49202729  0.13074713  1
  Mn  Mn39  1  0.90941484  0.50664579  0.36859494  1
  Mn  Mn40  1  0.59882492  0.50691079  0.86850965  1
  Mn  Mn41  1  0.09084133  0.49160524  0.63083806  1
