# generated using pymatgen
data_PrMnO3
_symmetry_space_group_name_H-M   'P 1'
_cell_length_a   5.52176208
_cell_length_b   5.90961222
_cell_length_c   7.71697533
_cell_angle_alpha   90.00000000
_cell_angle_beta   90.00000000
_cell_angle_gamma   90.00000000
_symmetry_Int_Tables_number   1
_chemical_formula_structural   PrMnO3
_chemical_formula_sum   'Pr4 Mn4 O12'
_cell_volume   251.81626953
_cell_formula_units_Z   4
loop_
 _symmetry_equiv_pos_site_id
 _symmetry_equiv_pos_as_xyz
  1  'x, y, z'
loop_
 _atom_site_type_symbol
 _atom_site_label
 _atom_site_symmetry_multiplicity
 _atom_site_fract_x
 _atom_site_fract_y
 _atom_site_fract_z
 _atom_site_occupancy
  O  O0  1  0.71549100  0.31337129  0.45329085  1
  O  O1  1  0.21549100  0.18662871  0.54670915  1
  O  O2  1  0.78450900  0.81337129  0.04670915  1
  O  O3  1  0.28450900  0.68662871  0.95329085  1
  O  O4  1  0.28450900  0.68662871  0.54670915  1
  O  O5  1  0.78450900  0.81337129  0.45329085  1
  O  O6  1  0.21549100  0.18662871  0.95329085  1
  O  O7  1  0.71549100  0.31337129  0.04670915  1
  O  O8  1  0.09244186  0.47566812  0.25000000  1
  O  O9  1  0.59244186  0.02433188  0.75000000  1
  O  O10  1  0.40755814  0.97566812  0.25000000  1
  O  O11  1  0.90755814  0.52433188  0.75000000  1
  Mn  Mn12  1  0.50000000  0.00000000  0.50000000  1
  Mn  Mn13  1  0.00000000  0.50000000  0.50000000  1
  Mn  Mn14  1  0.00000000  0.50000000  0.00000000  1
  Mn  Mn15  1  0.50000000  0.00000000  0.00000000  1
  Pr  Pr16  1  0.01473793  0.93168797  0.75000000  1
  Pr  Pr17  1  0.51473793  0.56831203  0.25000000  1
  Pr  Pr18  1  0.48526207  0.43168797  0.75000000  1
  Pr  Pr19  1  0.98526207  0.06831203  0.25000000  1
