# generated using pymatgen
data_LiMnAsO4
_symmetry_space_group_name_H-M   'P 1'
_cell_length_a   4.99929510
_cell_length_b   6.24638934
_cell_length_c   10.91589838
_cell_angle_alpha   90.00000000
_cell_angle_beta   90.00000000
_cell_angle_gamma   90.00000000
_symmetry_Int_Tables_number   1
_chemical_formula_structural   LiMnAsO4
_chemical_formula_sum   'Li4 Mn4 As4 O16'
_cell_volume   340.87669281
_cell_formula_units_Z   4
loop_
 _symmetry_equiv_pos_site_id
 _symmetry_equiv_pos_as_xyz
  1  'x, y, z'
loop_
 _atom_site_type_symbol
 _atom_site_label
 _atom_site_symmetry_multiplicity
 _atom_site_fract_x
 _atom_site_fract_y
 _atom_site_fract_z
 _atom_site_occupancy
  Li  Li0  1  0.00000000  0.00000000  0.00000000  1
  Li  Li1  1  0.49999998  0.00000000  0.50000023  1
  Li  Li2  1  0.00000000  0.50000048  0.00000000  1
  Li  Li3  1  0.49999998  0.50000048  0.50000023  1
  O  O4  1  0.77104503  0.25000024  0.09351184  1
  O  O5  1  0.22177756  0.46461362  0.66551304  1
  O  O6  1  0.72177754  0.53538733  0.83448674  1
  O  O7  1  0.77822241  0.96461410  0.33448743  1
  O  O8  1  0.27822243  0.03538685  0.16551281  1
  O  O9  1  0.77822241  0.53538733  0.33448743  1
  O  O10  1  0.27822243  0.46461362  0.16551281  1
  O  O11  1  0.22177756  0.03538685  0.66551304  1
  O  O12  1  0.22895493  0.75000071  0.90648770  1
  O  O13  1  0.72895492  0.25000024  0.59351207  1
  O  O14  1  0.72177754  0.96461410  0.83448674  1
  O  O15  1  0.27104505  0.75000071  0.40648839  1
  O  O16  1  0.71499293  0.75000071  0.05271706  1
  O  O17  1  0.28500703  0.25000024  0.94728340  1
  O  O18  1  0.21499295  0.25000024  0.44728317  1
  O  O19  1  0.78500702  0.75000071  0.55271637  1
  Mn  Mn20  1  0.01018836  0.75000071  0.72335907  1
  Mn  Mn21  1  0.98981161  0.25000024  0.27664139  1
  Mn  Mn22  1  0.48981162  0.75000071  0.22335884  1
  Mn  Mn23  1  0.51018834  0.25000024  0.77664070  1
  As  As24  1  0.07096622  0.25000024  0.59086940  1
  As  As25  1  0.42903377  0.25000024  0.09086917  1
  As  As26  1  0.92903375  0.75000071  0.40913107  1
  As  As27  1  0.57096620  0.75000071  0.90913130  1
