# generated using pymatgen
data_RbMoP2O7
_symmetry_space_group_name_H-M   'P 1'
_cell_length_a   7.69719979
_cell_length_b   8.59978396
_cell_length_c   10.61996229
_cell_angle_alpha   90.00000000
_cell_angle_beta   90.00000000
_cell_angle_gamma   106.16381089
_symmetry_Int_Tables_number   1
_chemical_formula_structural   RbMoP2O7
_chemical_formula_sum   'Rb4 Mo4 P8 O28'
_cell_volume   675.19147269
_cell_formula_units_Z   4
loop_
 _symmetry_equiv_pos_site_id
 _symmetry_equiv_pos_as_xyz
  1  'x, y, z'
loop_
 _atom_site_type_symbol
 _atom_site_label
 _atom_site_symmetry_multiplicity
 _atom_site_fract_x
 _atom_site_fract_y
 _atom_site_fract_z
 _atom_site_occupancy
  O  O0  1  0.54961357  0.26408451  0.27467853  1
  O  O1  1  0.45038643  0.23591549  0.77467853  1
  O  O2  1  0.45038643  0.73591549  0.72532147  1
  O  O3  1  0.54961357  0.76408451  0.22532147  1
  O  O4  1  0.00093824  0.27858601  0.00263670  1
  O  O5  1  0.99906176  0.22141399  0.50263670  1
  O  O6  1  0.99906176  0.72141399  0.99736330  1
  O  O7  1  0.00093824  0.77858601  0.49736330  1
  O  O8  1  0.67630577  0.48094979  0.10419040  1
  O  O9  1  0.32369423  0.01905021  0.60419040  1
  O  O10  1  0.32369423  0.51905021  0.89580960  1
  O  O11  1  0.67630577  0.98094979  0.39580960  1
  O  O12  1  0.86200936  0.99769696  0.09394574  1
  O  O13  1  0.13799064  0.50230304  0.59394574  1
  O  O14  1  0.13799064  0.00230304  0.90605426  1
  O  O15  1  0.86200936  0.49769696  0.40605426  1
  O  O16  1  0.67198601  0.69185084  0.43491972  1
  O  O17  1  0.32801399  0.80814916  0.93491972  1
  O  O18  1  0.32801399  0.30814916  0.56508028  1
  O  O19  1  0.67198601  0.19185084  0.06508028  1
  O  O20  1  0.92300026  0.74837879  0.26805224  1
  O  O21  1  0.07699974  0.75162121  0.76805224  1
  O  O22  1  0.07699974  0.25162121  0.73194776  1
  O  O23  1  0.92300026  0.24837879  0.23194776  1
  O  O24  1  0.37558622  0.76106690  0.42325217  1
  O  O25  1  0.62441378  0.73893310  0.92325217  1
  O  O26  1  0.62441378  0.23893310  0.57674783  1
  O  O27  1  0.37558622  0.26106690  0.07674783  1
  P  P28  1  0.87194304  0.67489982  0.39998635  1
  P  P29  1  0.12805696  0.82510018  0.89998635  1
  P  P30  1  0.12805696  0.32510018  0.60001365  1
  P  P31  1  0.87194304  0.17489982  0.10001365  1
  P  P32  1  0.56516905  0.30889329  0.13402349  1
  P  P33  1  0.43483095  0.19110671  0.63402349  1
  P  P34  1  0.43483095  0.69110671  0.86597651  1
  P  P35  1  0.56516905  0.80889329  0.36597651  1
  Rb  Rb36  1  0.81424691  0.44118449  0.81981303  1
  Rb  Rb37  1  0.18575309  0.05881551  0.31981303  1
  Rb  Rb38  1  0.18575309  0.55881551  0.18018697  1
  Rb  Rb39  1  0.81424691  0.94118449  0.68018697  1
  Mo  Mo40  1  0.76338760  0.74209045  0.10106205  1
  Mo  Mo41  1  0.23661240  0.75790955  0.60106205  1
  Mo  Mo42  1  0.23661240  0.25790955  0.89893795  1
  Mo  Mo43  1  0.76338760  0.24209045  0.39893795  1
