# generated using pymatgen
data_Nd2MoO6
_symmetry_space_group_name_H-M   'P 1'
_cell_length_a   5.73804551
_cell_length_b   5.73804552
_cell_length_c   16.51126369
_cell_angle_alpha   100.00659596
_cell_angle_beta   100.00659596
_cell_angle_gamma   90.00000001
_symmetry_Int_Tables_number   1
_chemical_formula_structural   Nd2MoO6
_chemical_formula_sum   'Nd8 Mo4 O24'
_cell_volume   526.96648494
_cell_formula_units_Z   4
loop_
 _symmetry_equiv_pos_site_id
 _symmetry_equiv_pos_as_xyz
  1  'x, y, z'
loop_
 _atom_site_type_symbol
 _atom_site_label
 _atom_site_symmetry_multiplicity
 _atom_site_fract_x
 _atom_site_fract_y
 _atom_site_fract_z
 _atom_site_occupancy
  O  O0  1  0.75000000  0.99363883  0.50000000  1
  O  O1  1  0.00636117  0.25000000  0.00000000  1
  O  O2  1  0.49363883  0.75000000  0.00000000  1
  O  O3  1  0.25000000  0.50636117  0.50000000  1
  O  O4  1  0.25000000  0.00636117  0.50000000  1
  O  O5  1  0.99363883  0.75000000  0.00000000  1
  O  O6  1  0.50636117  0.25000000  0.00000000  1
  O  O7  1  0.75000000  0.49363883  0.50000000  1
  O  O8  1  0.91474312  0.16969255  0.67731469  1
  O  O9  1  0.49237786  0.73742844  0.82268531  1
  O  O10  1  0.83030745  0.08525688  0.82268531  1
  O  O11  1  0.23742844  0.33030745  0.32268531  1
  O  O12  1  0.73742844  0.49237786  0.32268531  1
  O  O13  1  0.33030745  0.23742844  0.82268531  1
  O  O14  1  0.99237786  0.58525688  0.82268531  1
  O  O15  1  0.41474312  0.00762214  0.67731469  1
  O  O16  1  0.76257156  0.66969255  0.67731469  1
  O  O17  1  0.16969255  0.91474312  0.17731469  1
  O  O18  1  0.50762214  0.26257156  0.17731469  1
  O  O19  1  0.08525688  0.83030745  0.32268531  1
  O  O20  1  0.26257156  0.50762214  0.67731469  1
  O  O21  1  0.66969255  0.76257156  0.17731469  1
  O  O22  1  0.00762214  0.41474312  0.17731469  1
  O  O23  1  0.58525688  0.99237786  0.32268531  1
  Mo  Mo24  1  0.37500000  0.12500000  0.25000000  1
  Mo  Mo25  1  0.62500000  0.87500000  0.75000000  1
  Mo  Mo26  1  0.12500000  0.37500000  0.75000000  1
  Mo  Mo27  1  0.87500000  0.62500000  0.25000000  1
  Nd  Nd28  1  0.21238883  0.96238883  0.92477766  1
  Nd  Nd29  1  0.46238883  0.71238883  0.42477766  1
  Nd  Nd30  1  0.28761117  0.53761117  0.07522234  1
  Nd  Nd31  1  0.03761117  0.78761117  0.57522234  1
  Nd  Nd32  1  0.78761117  0.03761117  0.07522234  1
  Nd  Nd33  1  0.53761117  0.28761117  0.57522234  1
  Nd  Nd34  1  0.71238883  0.46238883  0.92477766  1
  Nd  Nd35  1  0.96238883  0.21238883  0.42477766  1
