# generated using pymatgen
data_ZnMoO4
_symmetry_space_group_name_H-M   'P 1'
_cell_length_a   7.08166389
_cell_length_b   8.49947583
_cell_length_c   9.90707498
_cell_angle_alpha   97.06556788
_cell_angle_beta   106.78912295
_cell_angle_gamma   101.82898283
_symmetry_Int_Tables_number   1
_chemical_formula_structural   ZnMoO4
_chemical_formula_sum   'Zn6 Mo6 O24'
_cell_volume   548.10279685
_cell_formula_units_Z   6
loop_
 _symmetry_equiv_pos_site_id
 _symmetry_equiv_pos_as_xyz
  1  'x, y, z'
loop_
 _atom_site_type_symbol
 _atom_site_label
 _atom_site_symmetry_multiplicity
 _atom_site_fract_x
 _atom_site_fract_y
 _atom_site_fract_z
 _atom_site_occupancy
  O  O0  1  0.26404358  0.86667471  0.76559006  1
  O  O1  1  0.73595642  0.13332529  0.23440994  1
  O  O2  1  0.55584209  0.70965864  0.91981515  1
  O  O3  1  0.44415791  0.29034136  0.08018485  1
  O  O4  1  0.55517079  0.51783062  0.64999742  1
  O  O5  1  0.44482921  0.48216938  0.35000258  1
  O  O6  1  0.55267023  0.87032715  0.35405515  1
  O  O7  1  0.44732977  0.12967285  0.64594485  1
  O  O8  1  0.66109822  0.09745153  0.92790698  1
  O  O9  1  0.33890178  0.90254847  0.07209302  1
  O  O10  1  0.64806126  0.85979065  0.68113368  1
  O  O11  1  0.35193874  0.14020935  0.31886632  1
  O  O12  1  0.02201216  0.12112175  0.71555662  1
  O  O13  1  0.97798784  0.87887825  0.28444338  1
  O  O14  1  0.04871538  0.26799535  0.14393812  1
  O  O15  1  0.95128462  0.73200465  0.85606188  1
  O  O16  1  0.14845190  0.47793826  0.75320053  1
  O  O17  1  0.85154810  0.52206174  0.24679947  1
  O  O18  1  0.14300793  0.26806803  0.48560942  1
  O  O19  1  0.85699207  0.73193197  0.51439058  1
  O  O20  1  0.25499465  0.55976388  0.07133466  1
  O  O21  1  0.74500535  0.44023612  0.92866534  1
  O  O22  1  0.23611099  0.70773555  0.46108120  1
  O  O23  1  0.76388901  0.29226445  0.53891880  1
  Zn  Zn24  1  0.25228797  0.69361072  0.91022511  1
  Zn  Zn25  1  0.74771203  0.30638928  0.08977489  1
  Zn  Zn26  1  0.53372722  0.69880986  0.48548105  1
  Zn  Zn27  1  0.46627278  0.30119014  0.51451895  1
  Zn  Zn28  1  0.96792334  0.88409253  0.71252199  1
  Zn  Zn29  1  0.03207666  0.11590747  0.28747801  1
  Mo  Mo30  1  0.50470045  0.98687929  0.75659596  1
  Mo  Mo31  1  0.49529955  0.01312071  0.24340404  1
  Mo  Mo32  1  0.69924598  0.60213088  0.83880212  1
  Mo  Mo33  1  0.30075402  0.39786912  0.16119788  1
  Mo  Mo34  1  0.97877407  0.70756913  0.37418392  1
  Mo  Mo35  1  0.02122593  0.29243087  0.62581608  1
