# generated using pymatgen
data_Mo(RhO3)2
_symmetry_space_group_name_H-M   'P 1'
_cell_length_a   4.61790075
_cell_length_b   4.61790075
_cell_length_c   9.45189903
_cell_angle_alpha   90.00000000
_cell_angle_beta   90.00000000
_cell_angle_gamma   90.00000000
_symmetry_Int_Tables_number   1
_chemical_formula_structural   Mo(RhO3)2
_chemical_formula_sum   'Mo2 Rh4 O12'
_cell_volume   201.56181616
_cell_formula_units_Z   2
loop_
 _symmetry_equiv_pos_site_id
 _symmetry_equiv_pos_as_xyz
  1  'x, y, z'
loop_
 _atom_site_type_symbol
 _atom_site_label
 _atom_site_symmetry_multiplicity
 _atom_site_fract_x
 _atom_site_fract_y
 _atom_site_fract_z
 _atom_site_occupancy
  O  O0  1  0.69406671  0.69406671  0.66488543  1
  O  O1  1  0.30593329  0.30593329  0.66488543  1
  O  O2  1  0.69406671  0.69406671  0.33511457  1
  O  O3  1  0.19406671  0.80593329  0.16488543  1
  O  O4  1  0.80593329  0.19406671  0.16488543  1
  O  O5  1  0.80593329  0.19406671  0.83511457  1
  O  O6  1  0.30364498  0.30364498  0.00000000  1
  O  O7  1  0.19635502  0.80364498  0.50000000  1
  O  O8  1  0.80364498  0.19635502  0.50000000  1
  O  O9  1  0.69635502  0.69635502  0.00000000  1
  O  O10  1  0.30593329  0.30593329  0.33511457  1
  O  O11  1  0.19406671  0.80593329  0.83511457  1
  Mo  Mo12  1  0.00000000  0.00000000  0.00000000  1
  Mo  Mo13  1  0.50000000  0.50000000  0.50000000  1
  Rh  Rh14  1  0.50000000  0.50000000  0.83233286  1
  Rh  Rh15  1  0.00000000  0.00000000  0.33233286  1
  Rh  Rh16  1  0.50000000  0.50000000  0.16766714  1
  Rh  Rh17  1  0.00000000  0.00000000  0.66766714  1
