# generated using pymatgen
data_MoPb2O5
_symmetry_space_group_name_H-M   'P 1'
_cell_length_a   5.93187730
_cell_length_b   7.50007128
_cell_length_c   7.78108946
_cell_angle_alpha   110.47606698
_cell_angle_beta   112.40633955
_cell_angle_gamma   90.00000001
_symmetry_Int_Tables_number   1
_chemical_formula_structural   MoPb2O5
_chemical_formula_sum   'Mo2 Pb4 O10'
_cell_volume   296.24646654
_cell_formula_units_Z   2
loop_
 _symmetry_equiv_pos_site_id
 _symmetry_equiv_pos_as_xyz
  1  'x, y, z'
loop_
 _atom_site_type_symbol
 _atom_site_label
 _atom_site_symmetry_multiplicity
 _atom_site_fract_x
 _atom_site_fract_y
 _atom_site_fract_z
 _atom_site_occupancy
  O  O0  1  0.74680442  0.00000000  0.00000000  1
  O  O1  1  0.25319558  0.00000000  0.00000000  1
  O  O2  1  0.69901834  0.30618215  0.39803668  1
  O  O3  1  0.30098166  0.69381785  0.60196332  1
  O  O4  1  0.90398701  0.77852640  0.29148225  1
  O  O5  1  0.61250476  0.22147360  0.70851775  1
  O  O6  1  0.90734654  0.59651223  0.81469308  1
  O  O7  1  0.09265346  0.40348777  0.18530692  1
  O  O8  1  0.38749524  0.77852640  0.29148225  1
  O  O9  1  0.09601299  0.22147360  0.70851775  1
  Mo  Mo10  1  0.82967595  0.34075272  0.65935190  1
  Mo  Mo11  1  0.17032405  0.65924728  0.34064810  1
  Pb  Pb12  1  0.50908552  0.24885792  0.01817105  1
  Pb  Pb13  1  0.49091448  0.75114208  0.98182895  1
  Pb  Pb14  1  0.13516584  0.11208058  0.27033168  1
  Pb  Pb15  1  0.86483416  0.88791942  0.72966832  1
