# generated using pymatgen
data_KMoP2O7
_symmetry_space_group_name_H-M   'P 1'
_cell_length_a   7.56513253
_cell_length_b   8.54584911
_cell_length_c   10.61494166
_cell_angle_alpha   90.00000000
_cell_angle_beta   90.00000000
_cell_angle_gamma   107.18945962
_symmetry_Int_Tables_number   1
_chemical_formula_structural   KMoP2O7
_chemical_formula_sum   'K4 Mo4 P8 O28'
_cell_volume   655.60768672
_cell_formula_units_Z   4
loop_
 _symmetry_equiv_pos_site_id
 _symmetry_equiv_pos_as_xyz
  1  'x, y, z'
loop_
 _atom_site_type_symbol
 _atom_site_label
 _atom_site_symmetry_multiplicity
 _atom_site_fract_x
 _atom_site_fract_y
 _atom_site_fract_z
 _atom_site_occupancy
  O  O0  1  0.54094575  0.26003943  0.27858291  1
  O  O1  1  0.45905425  0.23996057  0.77858291  1
  O  O2  1  0.45905425  0.73996057  0.72141709  1
  O  O3  1  0.54094575  0.76003943  0.22141709  1
  O  O4  1  0.99476504  0.28276350  0.99892917  1
  O  O5  1  0.00523496  0.21723650  0.49892917  1
  O  O6  1  0.00523496  0.71723650  0.00107083  1
  O  O7  1  0.99476504  0.78276350  0.50107083  1
  O  O8  1  0.67800608  0.47785794  0.10669943  1
  O  O9  1  0.32199392  0.02214206  0.60669943  1
  O  O10  1  0.32199392  0.52214206  0.89330057  1
  O  O11  1  0.67800608  0.97785794  0.39330057  1
  O  O12  1  0.86713704  0.99977842  0.09677731  1
  O  O13  1  0.13286296  0.50022158  0.59677731  1
  O  O14  1  0.13286296  0.00022158  0.90322269  1
  O  O15  1  0.86713704  0.49977842  0.40322269  1
  O  O16  1  0.66260882  0.68405970  0.42992839  1
  O  O17  1  0.33739118  0.81594030  0.92992839  1
  O  O18  1  0.33739118  0.31594030  0.57007161  1
  O  O19  1  0.66260882  0.18405970  0.07007161  1
  O  O20  1  0.92826662  0.75561970  0.26939745  1
  O  O21  1  0.07173338  0.74438030  0.76939745  1
  O  O22  1  0.07173338  0.24438030  0.73060255  1
  O  O23  1  0.92826662  0.25561970  0.23060255  1
  O  O24  1  0.36492081  0.75912755  0.41979219  1
  O  O25  1  0.63507919  0.74087245  0.91979219  1
  O  O26  1  0.63507919  0.24087245  0.58020781  1
  O  O27  1  0.36492081  0.25912755  0.08020781  1
  P  P28  1  0.87074589  0.67667529  0.39959813  1
  P  P29  1  0.12925411  0.82332471  0.89959813  1
  P  P30  1  0.12925411  0.32332471  0.60040187  1
  P  P31  1  0.87074589  0.17667529  0.10040187  1
  P  P32  1  0.55853525  0.30503389  0.13765054  1
  P  P33  1  0.44146475  0.19496611  0.63765054  1
  P  P34  1  0.44146475  0.69496611  0.86234946  1
  P  P35  1  0.55853525  0.80503389  0.36234946  1
  K  K36  1  0.82333625  0.43681895  0.82444899  1
  K  K37  1  0.17666375  0.06318105  0.32444899  1
  K  K38  1  0.17666375  0.56318105  0.17555101  1
  K  K39  1  0.82333625  0.93681895  0.67555101  1
  Mo  Mo40  1  0.76527652  0.74155812  0.10127256  1
  Mo  Mo41  1  0.23472348  0.75844188  0.60127256  1
  Mo  Mo42  1  0.23472348  0.25844188  0.89872744  1
  Mo  Mo43  1  0.76527652  0.24155812  0.39872744  1
