# generated using pymatgen
data_NaMoP2O7
_symmetry_space_group_name_H-M   'P 1'
_cell_length_a   7.56280490
_cell_length_b   8.32155913
_cell_length_c   9.93585385
_cell_angle_alpha   90.00000000
_cell_angle_beta   111.78943648
_cell_angle_gamma   90.00000000
_symmetry_Int_Tables_number   1
_chemical_formula_structural   NaMoP2O7
_chemical_formula_sum   'Na4 Mo4 P8 O28'
_cell_volume   580.63082852
_cell_formula_units_Z   4
loop_
 _symmetry_equiv_pos_site_id
 _symmetry_equiv_pos_as_xyz
  1  'x, y, z'
loop_
 _atom_site_type_symbol
 _atom_site_label
 _atom_site_symmetry_multiplicity
 _atom_site_fract_x
 _atom_site_fract_y
 _atom_site_fract_z
 _atom_site_occupancy
  O  O0  1  0.87256465  0.33335173  0.93910689  1
  O  O1  1  0.12743535  0.83335173  0.56089311  1
  O  O2  1  0.12743535  0.66664827  0.06089311  1
  O  O3  1  0.87256465  0.16664827  0.43910689  1
  O  O4  1  0.37276073  0.60926172  0.60231918  1
  O  O5  1  0.62723927  0.10926172  0.89768082  1
  O  O6  1  0.62723927  0.39073828  0.39768082  1
  O  O7  1  0.37276073  0.89073828  0.10231918  1
  O  O8  1  0.18310903  0.28071542  0.62001476  1
  O  O9  1  0.81689097  0.78071542  0.87998524  1
  O  O10  1  0.81689097  0.71928458  0.37998524  1
  O  O11  1  0.18310903  0.21928458  0.12001476  1
  O  O12  1  0.97376843  0.59028529  0.63183774  1
  O  O13  1  0.02623157  0.09028529  0.86816226  1
  O  O14  1  0.02623157  0.40971471  0.36816226  1
  O  O15  1  0.97376843  0.90971471  0.13183774  1
  O  O16  1  0.54083193  0.09179942  0.35410546  1
  O  O17  1  0.45916807  0.59179942  0.14589454  1
  O  O18  1  0.45916807  0.90820058  0.64589454  1
  O  O19  1  0.54083193  0.40820058  0.85410546  1
  O  O20  1  0.30820615  0.79119605  0.38750746  1
  O  O21  1  0.69179385  0.29119605  0.11249254  1
  O  O22  1  0.69179385  0.20880395  0.61249254  1
  O  O23  1  0.30820615  0.70880395  0.88750746  1
  O  O24  1  0.17249098  0.13011501  0.39992637  1
  O  O25  1  0.82750902  0.63011501  0.10007363  1
  O  O26  1  0.82750902  0.86988499  0.60007363  1
  O  O27  1  0.17249098  0.36988499  0.89992637  1
  Na  Na28  1  0.28480202  0.01940363  0.78611847  1
  Na  Na29  1  0.71519798  0.51940363  0.71388153  1
  Na  Na30  1  0.71519798  0.98059637  0.21388153  1
  Na  Na31  1  0.28480202  0.48059637  0.28611847  1
  P  P32  1  0.67192941  0.28301321  0.95378885  1
  P  P33  1  0.32807059  0.78301321  0.54621115  1
  P  P34  1  0.32807059  0.71698679  0.04621115  1
  P  P35  1  0.67192941  0.21698679  0.45378885  1
  P  P36  1  0.07321494  0.24631288  0.95799168  1
  P  P37  1  0.92678506  0.74631288  0.54200832  1
  P  P38  1  0.92678506  0.75368712  0.04200832  1
  P  P39  1  0.07321494  0.25368712  0.45799168  1
  Mo  Mo40  1  0.25656463  0.49514680  0.74973885  1
  Mo  Mo41  1  0.74343537  0.99514680  0.75026115  1
  Mo  Mo42  1  0.74343537  0.50485320  0.25026115  1
  Mo  Mo43  1  0.25656463  0.00485320  0.24973885  1
