# generated using pymatgen
data_VInO4
_symmetry_space_group_name_H-M   'P 1'
_cell_length_a   5.23095081
_cell_length_b   5.23095082
_cell_length_c   6.75401002
_cell_angle_alpha   90.00000000
_cell_angle_beta   90.00000000
_cell_angle_gamma   112.07578623
_symmetry_Int_Tables_number   1
_chemical_formula_structural   VInO4
_chemical_formula_sum   'V2 In2 O8'
_cell_volume   171.26014183
_cell_formula_units_Z   2
loop_
 _symmetry_equiv_pos_site_id
 _symmetry_equiv_pos_as_xyz
  1  'x, y, z'
loop_
 _atom_site_type_symbol
 _atom_site_label
 _atom_site_symmetry_multiplicity
 _atom_site_fract_x
 _atom_site_fract_y
 _atom_site_fract_z
 _atom_site_occupancy
  O  O0  1  0.24672679  0.75327321  0.54549698  1
  O  O1  1  0.75327321  0.24672679  0.04549698  1
  O  O2  1  0.75327321  0.24672679  0.45450302  1
  O  O3  1  0.24672679  0.75327321  0.95450302  1
  O  O4  1  0.73274534  0.78357947  0.75000000  1
  O  O5  1  0.26725466  0.21642053  0.25000000  1
  O  O6  1  0.78357947  0.73274534  0.25000000  1
  O  O7  1  0.21642053  0.26725466  0.75000000  1
  V  V8  1  0.64063686  0.35936314  0.25000000  1
  V  V9  1  0.35936314  0.64063686  0.75000000  1
  In  In10  1  0.00000000  0.00000000  0.50000000  1
  In  In11  1  0.00000000  0.00000000  0.00000000  1
