# generated using pymatgen
data_Sm2MoO6
_symmetry_space_group_name_H-M   'P 1'
_cell_length_a   5.52237578
_cell_length_b   10.12928249
_cell_length_c   10.12928249
_cell_angle_alpha   68.44835562
_cell_angle_beta   75.16988670
_cell_angle_gamma   75.16988673
_symmetry_Int_Tables_number   1
_chemical_formula_structural   Sm2MoO6
_chemical_formula_sum   'Sm8 Mo4 O24'
_cell_volume   501.11011443
_cell_formula_units_Z   4
loop_
 _symmetry_equiv_pos_site_id
 _symmetry_equiv_pos_as_xyz
  1  'x, y, z'
loop_
 _atom_site_type_symbol
 _atom_site_label
 _atom_site_symmetry_multiplicity
 _atom_site_fract_x
 _atom_site_fract_y
 _atom_site_fract_z
 _atom_site_occupancy
  O  O0  1  0.86491550  0.38429191  0.82628780  1
  O  O1  1  0.63508450  0.17371220  0.61570809  1
  O  O2  1  0.13508450  0.61570809  0.17371220  1
  O  O3  1  0.36491550  0.82628780  0.38429191  1
  O  O4  1  0.26112059  0.52597877  0.92993367  1
  O  O5  1  0.23887941  0.07006633  0.47402123  1
  O  O6  1  0.73887941  0.47402123  0.07006633  1
  O  O7  1  0.76112059  0.92993367  0.52597877  1
  O  O8  1  0.63682646  0.67780640  0.78818070  1
  O  O9  1  0.86317354  0.21181930  0.32219360  1
  O  O10  1  0.36317354  0.32219360  0.21181930  1
  O  O11  1  0.13682646  0.78818070  0.67780640  1
  O  O12  1  0.92203337  0.10870490  0.07544791  1
  O  O13  1  0.57796663  0.92455209  0.89129510  1
  O  O14  1  0.07796663  0.89129510  0.92455209  1
  O  O15  1  0.42203337  0.07544791  0.10870490  1
  O  O16  1  0.91579903  0.83716838  0.31150471  1
  O  O17  1  0.58420097  0.68849529  0.16283162  1
  O  O18  1  0.08420097  0.16283162  0.68849529  1
  O  O19  1  0.41579903  0.31150471  0.83716838  1
  O  O20  1  0.01752762  0.61362304  0.54617683  1
  O  O21  1  0.48247238  0.45382317  0.38637696  1
  O  O22  1  0.98247238  0.38637696  0.45382317  1
  O  O23  1  0.51752762  0.54617683  0.61362304  1
  Mo  Mo24  1  0.55962706  0.50892003  0.79696138  1
  Mo  Mo25  1  0.94037294  0.20303862  0.49107997  1
  Mo  Mo26  1  0.44037294  0.49107997  0.20303862  1
  Mo  Mo27  1  0.05962706  0.79696138  0.50892003  1
  Sm  Sm28  1  0.61967211  0.05468294  0.28642605  1
  Sm  Sm29  1  0.88032789  0.71357395  0.94531706  1
  Sm  Sm30  1  0.38032789  0.94531706  0.71357395  1
  Sm  Sm31  1  0.11967211  0.28642605  0.05468294  1
  Sm  Sm32  1  0.75000000  0.10851011  0.89148989  1
  Sm  Sm33  1  0.25000000  0.89148989  0.10851011  1
  Sm  Sm34  1  0.75000000  0.63402304  0.36597696  1
  Sm  Sm35  1  0.25000000  0.36597696  0.63402304  1
