# generated using pymatgen
data_RbVP2O7
_symmetry_space_group_name_H-M   'P 1'
_cell_length_a   7.65449043
_cell_length_b   8.40523438
_cell_length_c   10.23194012
_cell_angle_alpha   90.00000000
_cell_angle_beta   90.00000000
_cell_angle_gamma   105.94166533
_symmetry_Int_Tables_number   1
_chemical_formula_structural   RbVP2O7
_chemical_formula_sum   'Rb4 V4 P8 O28'
_cell_volume   632.98334978
_cell_formula_units_Z   4
loop_
 _symmetry_equiv_pos_site_id
 _symmetry_equiv_pos_as_xyz
  1  'x, y, z'
loop_
 _atom_site_type_symbol
 _atom_site_label
 _atom_site_symmetry_multiplicity
 _atom_site_fract_x
 _atom_site_fract_y
 _atom_site_fract_z
 _atom_site_occupancy
  O  O0  1  0.82740459  0.30369288  0.94410007  1
  O  O1  1  0.17259541  0.19630712  0.44410007  1
  O  O2  1  0.17259541  0.69630712  0.05589993  1
  O  O3  1  0.82740459  0.80369288  0.55589993  1
  O  O4  1  0.87407073  0.26631889  0.42699951  1
  O  O5  1  0.12592927  0.23368111  0.92699951  1
  O  O6  1  0.12592927  0.73368111  0.57300049  1
  O  O7  1  0.87407073  0.76631889  0.07300049  1
  O  O8  1  0.50643442  0.27456687  0.49817366  1
  O  O9  1  0.49356558  0.22543313  0.99817366  1
  O  O10  1  0.49356558  0.72543313  0.50182634  1
  O  O11  1  0.50643442  0.77456687  0.00182634  1
  O  O12  1  0.58695670  0.26130592  0.76299909  1
  O  O13  1  0.41304330  0.23869408  0.26299909  1
  O  O14  1  0.41304330  0.73869408  0.23700091  1
  O  O15  1  0.58695670  0.76130592  0.73700091  1
  O  O16  1  0.94699292  0.73787098  0.77670122  1
  O  O17  1  0.05300708  0.76212902  0.27670122  1
  O  O18  1  0.05300708  0.26212902  0.22329878  1
  O  O19  1  0.94699292  0.23787098  0.72329878  1
  O  O20  1  0.65172829  0.01342105  0.58855016  1
  O  O21  1  0.34827171  0.48657895  0.08855016  1
  O  O22  1  0.34827171  0.98657895  0.41144984  1
  O  O23  1  0.65172829  0.51342105  0.91144984  1
  O  O24  1  0.82551564  0.01008810  0.89658669  1
  O  O25  1  0.17448436  0.48991190  0.39658669  1
  O  O26  1  0.17448436  0.98991190  0.10341331  1
  O  O27  1  0.82551564  0.51008810  0.60341331  1
  P  P28  1  0.93511742  0.18753358  0.86774089  1
  P  P29  1  0.06488258  0.31246642  0.36774089  1
  P  P30  1  0.06488258  0.81246642  0.13225911  1
  P  P31  1  0.93511742  0.68753358  0.63225911  1
  P  P32  1  0.63192057  0.32983009  0.90284405  1
  P  P33  1  0.36807943  0.17016991  0.40284405  1
  P  P34  1  0.36807943  0.67016991  0.09715595  1
  P  P35  1  0.63192057  0.82983009  0.59715595  1
  V  V36  1  0.73852091  0.25925187  0.60148423  1
  V  V37  1  0.26147909  0.24074813  0.10148423  1
  V  V38  1  0.26147909  0.74074813  0.39851577  1
  V  V39  1  0.73852091  0.75925187  0.89851577  1
  Rb  Rb40  1  0.31252823  0.44765694  0.68457112  1
  Rb  Rb41  1  0.68747177  0.05234306  0.18457112  1
  Rb  Rb42  1  0.68747177  0.55234306  0.31542888  1
  Rb  Rb43  1  0.31252823  0.94765694  0.81542888  1
