# generated using pymatgen
data_SrVPO6
_symmetry_space_group_name_H-M   'P 1'
_cell_length_a   5.61900034
_cell_length_b   8.58974086
_cell_length_c   9.88749876
_cell_angle_alpha   90.00000000
_cell_angle_beta   90.00000000
_cell_angle_gamma   91.73145158
_symmetry_Int_Tables_number   1
_chemical_formula_structural   SrVPO6
_chemical_formula_sum   'Sr4 V4 P4 O24'
_cell_volume   477.00972045
_cell_formula_units_Z   4
loop_
 _symmetry_equiv_pos_site_id
 _symmetry_equiv_pos_as_xyz
  1  'x, y, z'
loop_
 _atom_site_type_symbol
 _atom_site_label
 _atom_site_symmetry_multiplicity
 _atom_site_fract_x
 _atom_site_fract_y
 _atom_site_fract_z
 _atom_site_occupancy
  O  O0  1  0.12378007  0.38627837  0.92482841  1
  O  O1  1  0.87621993  0.11372163  0.42482841  1
  O  O2  1  0.87621993  0.61372163  0.07517159  1
  O  O3  1  0.12378007  0.88627837  0.57517159  1
  O  O4  1  0.31807701  0.96636580  0.07660487  1
  O  O5  1  0.68192299  0.53363420  0.57660487  1
  O  O6  1  0.68192299  0.03363420  0.92339513  1
  O  O7  1  0.31807701  0.46636580  0.42339513  1
  O  O8  1  0.91374560  0.17183274  0.13689451  1
  O  O9  1  0.08625440  0.32816726  0.63689451  1
  O  O10  1  0.08625440  0.82816726  0.86310549  1
  O  O11  1  0.91374560  0.67183274  0.36310549  1
  O  O12  1  0.74672329  0.38013320  0.34106991  1
  O  O13  1  0.25327671  0.11986680  0.84106991  1
  O  O14  1  0.25327671  0.61986680  0.65893009  1
  O  O15  1  0.74672329  0.88013320  0.15893009  1
  O  O16  1  0.47367528  0.77130060  0.46778779  1
  O  O17  1  0.52632472  0.72869940  0.96778779  1
  O  O18  1  0.52632472  0.22869940  0.53221221  1
  O  O19  1  0.47367528  0.27130060  0.03221221  1
  O  O20  1  0.49500524  0.63883049  0.21519300  1
  O  O21  1  0.50499476  0.86116951  0.71519300  1
  O  O22  1  0.50499476  0.36116951  0.78480700  1
  O  O23  1  0.49500524  0.13883049  0.28480700  1
  P  P24  1  0.33604855  0.28614633  0.89397619  1
  P  P25  1  0.66395145  0.21385367  0.39397619  1
  P  P26  1  0.66395145  0.71385367  0.10602381  1
  P  P27  1  0.33604855  0.78614633  0.60602381  1
  V  V28  1  0.65514182  0.08805272  0.09129012  1
  V  V29  1  0.34485818  0.41194728  0.59129012  1
  V  V30  1  0.34485818  0.91194728  0.90870988  1
  V  V31  1  0.65514182  0.58805272  0.40870988  1
  Sr  Sr32  1  0.13757129  0.42887576  0.18777124  1
  Sr  Sr33  1  0.86242871  0.07112424  0.68777124  1
  Sr  Sr34  1  0.86242871  0.57112424  0.81222876  1
  Sr  Sr35  1  0.13757129  0.92887576  0.31222876  1
