# generated using pymatgen
data_KTh2V3O12
_symmetry_space_group_name_H-M   'P 1'
_cell_length_a   7.20950137
_cell_length_b   8.25308781
_cell_length_c   10.04963828
_cell_angle_alpha   100.21947359
_cell_angle_beta   111.02004672
_cell_angle_gamma   89.99999999
_symmetry_Int_Tables_number   1
_chemical_formula_structural   KTh2V3O12
_chemical_formula_sum   'K2 Th4 V6 O24'
_cell_volume   547.99391296
_cell_formula_units_Z   2
loop_
 _symmetry_equiv_pos_site_id
 _symmetry_equiv_pos_as_xyz
  1  'x, y, z'
loop_
 _atom_site_type_symbol
 _atom_site_label
 _atom_site_symmetry_multiplicity
 _atom_site_fract_x
 _atom_site_fract_y
 _atom_site_fract_z
 _atom_site_occupancy
  O  O0  1  0.73134196  0.07547402  0.93188251  1
  O  O1  1  0.79945945  0.42452598  0.06811749  1
  O  O2  1  0.26865804  0.92452598  0.06811749  1
  O  O3  1  0.20054055  0.57547402  0.93188251  1
  O  O4  1  0.95602185  0.25970949  0.84857191  1
  O  O5  1  0.10744994  0.24029051  0.15142809  1
  O  O6  1  0.04397815  0.74029051  0.15142809  1
  O  O7  1  0.89255006  0.75970949  0.84857191  1
  O  O8  1  0.24511826  0.33698099  0.72083231  1
  O  O9  1  0.52428596  0.16301901  0.27916769  1
  O  O10  1  0.75488174  0.66301901  0.27916769  1
  O  O11  1  0.47571404  0.83698099  0.72083231  1
  O  O12  1  0.08017299  0.93625073  0.69831245  1
  O  O13  1  0.38186054  0.56374927  0.30168755  1
  O  O14  1  0.91982701  0.06374927  0.30168755  1
  O  O15  1  0.61813946  0.43625073  0.69831245  1
  O  O16  1  0.17840027  0.82420930  0.43605642  1
  O  O17  1  0.74234385  0.67579070  0.56394358  1
  O  O18  1  0.82159973  0.17579070  0.56394358  1
  O  O19  1  0.25765615  0.32420930  0.43605642  1
  O  O20  1  0.14341473  0.60929890  0.58923653  1
  O  O21  1  0.55417821  0.89070110  0.41076347  1
  O  O22  1  0.85658527  0.39070110  0.41076347  1
  O  O23  1  0.44582179  0.10929890  0.58923653  1
  K  K24  1  0.38458547  0.25000000  0.00000000  1
  K  K25  1  0.61541453  0.75000000  0.00000000  1
  V  V26  1  0.89386941  0.25000000  0.00000000  1
  V  V27  1  0.10613059  0.75000000  0.00000000  1
  V  V28  1  0.39481916  0.31687779  0.61911283  1
  V  V29  1  0.77570634  0.18312221  0.38088717  1
  V  V30  1  0.60518084  0.68312221  0.38088717  1
  V  V31  1  0.22429366  0.81687779  0.61911283  1
  Th  Th32  1  0.94136324  0.46318680  0.69197686  1
  Th  Th33  1  0.24938639  0.03681320  0.30802314  1
  Th  Th34  1  0.05863676  0.53681320  0.30802314  1
  Th  Th35  1  0.75061361  0.96318680  0.69197686  1
