# generated using pymatgen
data_BaVPO6
_symmetry_space_group_name_H-M   'P 1'
_cell_length_a   5.83312337
_cell_length_b   8.79019569
_cell_length_c   10.14274270
_cell_angle_alpha   90.00000000
_cell_angle_beta   90.00000000
_cell_angle_gamma   90.90698361
_symmetry_Int_Tables_number   1
_chemical_formula_structural   BaVPO6
_chemical_formula_sum   'Ba4 V4 P4 O24'
_cell_volume   519.99683175
_cell_formula_units_Z   4
loop_
 _symmetry_equiv_pos_site_id
 _symmetry_equiv_pos_as_xyz
  1  'x, y, z'
loop_
 _atom_site_type_symbol
 _atom_site_label
 _atom_site_symmetry_multiplicity
 _atom_site_fract_x
 _atom_site_fract_y
 _atom_site_fract_z
 _atom_site_occupancy
  O  O0  1  0.86541952  0.37775114  0.91543967  1
  O  O1  1  0.13458048  0.12224886  0.41543967  1
  O  O2  1  0.13458048  0.62224886  0.08456033  1
  O  O3  1  0.86541952  0.87775114  0.58456033  1
  O  O4  1  0.68185914  0.98343299  0.07081785  1
  O  O5  1  0.31814086  0.51656701  0.57081785  1
  O  O6  1  0.31814086  0.01656701  0.92918215  1
  O  O7  1  0.68185914  0.48343299  0.42918215  1
  O  O8  1  0.10199763  0.16089309  0.13008652  1
  O  O9  1  0.89800237  0.33910691  0.63008652  1
  O  O10  1  0.89800237  0.83910691  0.86991348  1
  O  O11  1  0.10199763  0.66089309  0.36991348  1
  O  O12  1  0.27928826  0.38180600  0.33381270  1
  O  O13  1  0.72071174  0.11819400  0.83381270  1
  O  O14  1  0.72071174  0.61819400  0.66618730  1
  O  O15  1  0.27928826  0.88180600  0.16618730  1
  O  O16  1  0.51511217  0.76724514  0.48150649  1
  O  O17  1  0.48488783  0.73275486  0.98150649  1
  O  O18  1  0.48488783  0.23275486  0.51849351  1
  O  O19  1  0.51511217  0.26724514  0.01849351  1
  O  O20  1  0.50536222  0.64835670  0.22295342  1
  O  O21  1  0.49463778  0.85164330  0.72295342  1
  O  O22  1  0.49463778  0.35164330  0.77704658  1
  O  O23  1  0.50536222  0.14835670  0.27704658  1
  P  P24  1  0.65274381  0.28118986  0.88477819  1
  P  P25  1  0.34725619  0.21881014  0.38477819  1
  P  P26  1  0.34725619  0.71881014  0.11522181  1
  P  P27  1  0.65274381  0.78118986  0.61522181  1
  V  V28  1  0.35039107  0.08431657  0.08815107  1
  V  V29  1  0.64960893  0.41568343  0.58815107  1
  V  V30  1  0.64960893  0.91568343  0.91184893  1
  V  V31  1  0.35039107  0.58431657  0.41184893  1
  Ba  Ba32  1  0.85677628  0.41408901  0.19028456  1
  Ba  Ba33  1  0.14322372  0.08591099  0.69028456  1
  Ba  Ba34  1  0.14322372  0.58591099  0.80971544  1
  Ba  Ba35  1  0.85677628  0.91408901  0.30971544  1
