# generated using pymatgen
data_Na3VP8O23
_symmetry_space_group_name_H-M   'P 1'
_cell_length_a   12.17756545
_cell_length_b   12.17756545
_cell_length_c   12.17756545
_cell_angle_alpha   90.00000000
_cell_angle_beta   90.00000000
_cell_angle_gamma   90.00000000
_symmetry_Int_Tables_number   1
_chemical_formula_structural   Na3VP8O23
_chemical_formula_sum   'Na12 V4 P32 O92'
_cell_volume   1805.84893455
_cell_formula_units_Z   4
loop_
 _symmetry_equiv_pos_site_id
 _symmetry_equiv_pos_as_xyz
  1  'x, y, z'
loop_
 _atom_site_type_symbol
 _atom_site_label
 _atom_site_symmetry_multiplicity
 _atom_site_fract_x
 _atom_site_fract_y
 _atom_site_fract_z
 _atom_site_occupancy
  O  O0  1  0.66238771  0.66238771  0.66238771  1
  O  O1  1  0.91238771  0.58761229  0.41238771  1
  O  O2  1  0.58761229  0.41238771  0.91238771  1
  O  O3  1  0.41238771  0.91238771  0.58761229  1
  O  O4  1  0.16238771  0.83761229  0.33761229  1
  O  O5  1  0.83761229  0.33761229  0.16238771  1
  O  O6  1  0.33761229  0.16238771  0.83761229  1
  O  O7  1  0.08761229  0.08761229  0.08761229  1
  O  O8  1  0.43661935  0.51129948  0.68212569  1
  O  O9  1  0.93661935  0.98870052  0.31787431  1
  O  O10  1  0.51129948  0.68212569  0.43661935  1
  O  O11  1  0.48870052  0.18212569  0.06338065  1
  O  O12  1  0.68212569  0.43661935  0.51129948  1
  O  O13  1  0.81787431  0.56338065  0.01129948  1
  O  O14  1  0.18661935  0.93212569  0.73870052  1
  O  O15  1  0.68661935  0.56787431  0.26129948  1
  O  O16  1  0.81338065  0.43212569  0.76129948  1
  O  O17  1  0.56787431  0.26129948  0.68661935  1
  O  O18  1  0.76129948  0.81338065  0.43212569  1
  O  O19  1  0.26129948  0.68661935  0.56787431  1
  O  O20  1  0.93212569  0.73870052  0.18661935  1
  O  O21  1  0.73870052  0.18661935  0.93212569  1
  O  O22  1  0.43212569  0.76129948  0.81338065  1
  O  O23  1  0.06787431  0.23870052  0.31338065  1
  O  O24  1  0.23870052  0.31338065  0.06787431  1
  O  O25  1  0.31787431  0.93661935  0.98870052  1
  O  O26  1  0.18212569  0.06338065  0.48870052  1
  O  O27  1  0.01129948  0.81787431  0.56338065  1
  O  O28  1  0.98870052  0.31787431  0.93661935  1
  O  O29  1  0.06338065  0.48870052  0.18212569  1
  O  O30  1  0.56338065  0.01129948  0.81787431  1
  O  O31  1  0.31338065  0.06787431  0.23870052  1
  O  O32  1  0.62500000  0.23388951  0.48388951  1
  O  O33  1  0.76611049  0.98388951  0.87500000  1
  O  O34  1  0.74030965  0.32529603  0.34548056  1
  O  O35  1  0.48388951  0.62500000  0.23388951  1
  O  O36  1  0.23388951  0.48388951  0.62500000  1
  O  O37  1  0.51611049  0.12500000  0.26611049  1
  O  O38  1  0.98388951  0.87500000  0.76611049  1
  O  O39  1  0.73388951  0.01611049  0.37500000  1
  O  O40  1  0.26611049  0.51611049  0.12500000  1
  O  O41  1  0.87500000  0.76611049  0.98388951  1
  O  O42  1  0.37500000  0.73388951  0.01611049  1
  O  O43  1  0.12500000  0.26611049  0.51611049  1
  O  O44  1  0.32529603  0.34548056  0.74030965  1
  O  O45  1  0.82529603  0.15451944  0.25969035  1
  O  O46  1  0.34548056  0.74030965  0.32529603  1
  O  O47  1  0.65451944  0.24030965  0.17470397  1
  O  O48  1  0.04071843  0.12048332  0.63576046  1
  O  O49  1  0.29071843  0.61423954  0.87048332  1
  O  O50  1  0.79071843  0.88576046  0.12951668  1
  O  O51  1  0.38576046  0.37048332  0.20928157  1
  O  O52  1  0.61423954  0.87048332  0.29071843  1
  O  O53  1  0.12951668  0.79071843  0.88576046  1
  O  O54  1  0.37048332  0.20928157  0.38576046  1
  O  O55  1  0.63576046  0.04071843  0.12048332  1
  O  O56  1  0.12048332  0.63576046  0.04071843  1
  O  O57  1  0.37951668  0.36423954  0.54071843  1
  O  O58  1  0.13576046  0.45928157  0.87951668  1
  O  O59  1  0.87951668  0.13576046  0.45928157  1
  O  O60  1  0.86423954  0.95928157  0.62048332  1
  O  O61  1  0.36423954  0.54071843  0.37951668  1
  O  O62  1  0.62048332  0.86423954  0.95928157  1
  O  O63  1  0.54071843  0.37951668  0.36423954  1
  O  O64  1  0.95928157  0.62048332  0.86423954  1
  O  O65  1  0.45928157  0.87951668  0.13576046  1
  O  O66  1  0.87048332  0.29071843  0.61423954  1
  O  O67  1  0.62951668  0.70928157  0.11423954  1
  O  O68  1  0.88576046  0.12951668  0.79071843  1
  O  O69  1  0.11423954  0.62951668  0.70928157  1
  O  O70  1  0.20928157  0.38576046  0.37048332  1
  O  O71  1  0.70928157  0.11423954  0.62951668  1
  O  O72  1  0.42470397  0.00969035  0.40451944  1
  O  O73  1  0.67470397  0.84548056  0.75969035  1
  O  O74  1  0.17470397  0.65451944  0.24030965  1
  O  O75  1  0.15451944  0.25969035  0.82529603  1
  O  O76  1  0.84548056  0.75969035  0.67470397  1
  O  O77  1  0.24030965  0.17470397  0.65451944  1
  O  O78  1  0.25969035  0.82529603  0.15451944  1
  O  O79  1  0.40451944  0.42470397  0.00969035  1
  O  O80  1  0.00969035  0.40451944  0.42470397  1
  O  O81  1  0.49030965  0.59548056  0.92470397  1
  O  O82  1  0.90451944  0.07529603  0.99030965  1
  O  O83  1  0.99030965  0.90451944  0.07529603  1
  O  O84  1  0.09548056  0.57529603  0.50969035  1
  O  O85  1  0.59548056  0.92470397  0.49030965  1
  O  O86  1  0.50969035  0.09548056  0.57529603  1
  O  O87  1  0.92470397  0.49030965  0.59548056  1
  O  O88  1  0.57529603  0.50969035  0.09548056  1
  O  O89  1  0.07529603  0.99030965  0.90451944  1
  O  O90  1  0.75969035  0.67470397  0.84548056  1
  O  O91  1  0.01611049  0.37500000  0.73388951  1
  Na  Na92  1  0.37500000  0.95557015  0.79442985  1
  Na  Na93  1  0.87500000  0.54442985  0.20557015  1
  Na  Na94  1  0.04442985  0.29442985  0.12500000  1
  Na  Na95  1  0.95557015  0.79442985  0.37500000  1
  Na  Na96  1  0.20557015  0.87500000  0.54442985  1
  Na  Na97  1  0.29442985  0.12500000  0.04442985  1
  Na  Na98  1  0.45557015  0.70557015  0.62500000  1
  Na  Na99  1  0.79442985  0.37500000  0.95557015  1
  Na  Na100  1  0.70557015  0.62500000  0.45557015  1
  Na  Na101  1  0.54442985  0.20557015  0.87500000  1
  Na  Na102  1  0.62500000  0.45557015  0.70557015  1
  Na  Na103  1  0.12500000  0.04442985  0.29442985  1
  P  P104  1  0.06852760  0.35902735  0.85400199  1
  P  P105  1  0.89599801  0.39097265  0.68147240  1
  P  P106  1  0.35902735  0.85400199  0.06852760  1
  P  P107  1  0.85902735  0.64599801  0.93147240  1
  P  P108  1  0.64097265  0.35400199  0.43147240  1
  P  P109  1  0.64599801  0.93147240  0.85902735  1
  P  P110  1  0.43147240  0.64097265  0.35400199  1
  P  P111  1  0.93147240  0.85902735  0.64599801  1
  P  P112  1  0.85400199  0.06852760  0.35902735  1
  P  P113  1  0.60400199  0.60902735  0.18147240  1
  P  P114  1  0.35400199  0.43147240  0.64097265  1
  P  P115  1  0.14599801  0.56852760  0.14097265  1
  P  P116  1  0.81852760  0.10400199  0.89097265  1
  P  P117  1  0.39599801  0.10902735  0.31852760  1
  P  P118  1  0.10400199  0.89097265  0.81852760  1
  P  P119  1  0.68147240  0.89599801  0.39097265  1
  P  P120  1  0.31852760  0.39599801  0.10902735  1
  P  P121  1  0.89097265  0.81852760  0.10400199  1
  P  P122  1  0.39097265  0.68147240  0.89599801  1
  P  P123  1  0.14097265  0.14599801  0.56852760  1
  P  P124  1  0.18147240  0.60400199  0.60902735  1
  P  P125  1  0.10902735  0.31852760  0.39599801  1
  P  P126  1  0.60902735  0.18147240  0.60400199  1
  P  P127  1  0.01730526  0.01730526  0.01730526  1
  P  P128  1  0.26730526  0.23269474  0.76730526  1
  P  P129  1  0.76730526  0.26730526  0.23269474  1
  P  P130  1  0.23269474  0.76730526  0.26730526  1
  P  P131  1  0.48269474  0.98269474  0.51730526  1
  P  P132  1  0.51730526  0.48269474  0.98269474  1
  P  P133  1  0.98269474  0.51730526  0.48269474  1
  P  P134  1  0.73269474  0.73269474  0.73269474  1
  P  P135  1  0.56852760  0.14097265  0.14599801  1
  V  V136  1  0.87500000  0.12500000  0.62500000  1
  V  V137  1  0.12500000  0.62500000  0.87500000  1
  V  V138  1  0.62500000  0.87500000  0.12500000  1
  V  V139  1  0.37500000  0.37500000  0.37500000  1
