# generated using pymatgen
data_V2P4PbO14
_symmetry_space_group_name_H-M   'P 1'
_cell_length_a   4.89062785
_cell_length_b   7.21923212
_cell_length_c   8.06653565
_cell_angle_alpha   89.60520073
_cell_angle_beta   87.15130182
_cell_angle_gamma   73.73258912
_symmetry_Int_Tables_number   1
_chemical_formula_structural   V2P4PbO14
_chemical_formula_sum   'V2 P4 Pb1 O14'
_cell_volume   273.05447059
_cell_formula_units_Z   1
loop_
 _symmetry_equiv_pos_site_id
 _symmetry_equiv_pos_as_xyz
  1  'x, y, z'
loop_
 _atom_site_type_symbol
 _atom_site_label
 _atom_site_symmetry_multiplicity
 _atom_site_fract_x
 _atom_site_fract_y
 _atom_site_fract_z
 _atom_site_occupancy
  O  O0  1  0.79964250  0.55784110  0.84868668  1
  O  O1  1  0.20035750  0.44215890  0.15131332  1
  O  O2  1  0.51977454  0.76015605  0.61645838  1
  O  O3  1  0.48022546  0.23984395  0.38354162  1
  O  O4  1  0.29062005  0.44637460  0.70354341  1
  O  O5  1  0.70937995  0.55362540  0.29645659  1
  O  O6  1  0.87210511  0.34983951  0.59016399  1
  O  O7  1  0.18187270  0.09578358  0.20616767  1
  O  O8  1  0.81812730  0.90421642  0.79383233  1
  O  O9  1  0.91546679  0.79387437  0.14669475  1
  O  O10  1  0.08453321  0.20612563  0.85330525  1
  O  O11  1  0.62140128  0.17446033  0.07171164  1
  O  O12  1  0.37859872  0.82553967  0.92828836  1
  O  O13  1  0.12789489  0.65016049  0.40983601  1
  P  P14  1  0.02336725  0.38494392  0.74808868  1
  P  P15  1  0.97663275  0.61505608  0.25191132  1
  P  P16  1  0.61690673  0.77271606  0.79563528  1
  P  P17  1  0.38309327  0.22728394  0.20436472  1
  V  V18  1  0.50000000  0.50000000  0.50000000  1
  V  V19  1  0.00000000  0.00000000  0.00000000  1
  Pb  Pb20  1  0.00000000  0.00000000  0.50000000  1
