# generated using pymatgen
data_NaVP2O7
_symmetry_space_group_name_H-M   'P 1'
_cell_length_a   7.43929888
_cell_length_b   8.10416721
_cell_length_c   9.71148443
_cell_angle_alpha   90.00000000
_cell_angle_beta   111.84303809
_cell_angle_gamma   90.00000000
_symmetry_Int_Tables_number   1
_chemical_formula_structural   NaVP2O7
_chemical_formula_sum   'Na4 V4 P8 O28'
_cell_volume   543.46386767
_cell_formula_units_Z   4
loop_
 _symmetry_equiv_pos_site_id
 _symmetry_equiv_pos_as_xyz
  1  'x, y, z'
loop_
 _atom_site_type_symbol
 _atom_site_label
 _atom_site_symmetry_multiplicity
 _atom_site_fract_x
 _atom_site_fract_y
 _atom_site_fract_z
 _atom_site_occupancy
  O  O0  1  0.68747560  0.36042364  0.89879819  1
  O  O1  1  0.31252440  0.86042364  0.60120181  1
  O  O2  1  0.31252440  0.63957636  0.10120181  1
  O  O3  1  0.68747560  0.13957636  0.39879819  1
  O  O4  1  0.13387270  0.10959361  0.90008255  1
  O  O5  1  0.86612730  0.60959361  0.59991745  1
  O  O6  1  0.86612730  0.89040639  0.09991745  1
  O  O7  1  0.13387270  0.39040639  0.40008255  1
  O  O8  1  0.03411339  0.41225706  0.84609176  1
  O  O9  1  0.96588661  0.91225706  0.65390824  1
  O  O10  1  0.96588661  0.58774294  0.15390824  1
  O  O11  1  0.03411339  0.08774294  0.34609176  1
  O  O12  1  0.37604060  0.34426141  0.93769205  1
  O  O13  1  0.62395940  0.84426141  0.56230795  1
  O  O14  1  0.62395940  0.65573859  0.06230795  1
  O  O15  1  0.37604060  0.15573859  0.43769205  1
  O  O16  1  0.51209416  0.08566637  0.86088097  1
  O  O17  1  0.48790584  0.58566637  0.63911903  1
  O  O18  1  0.48790584  0.91433363  0.13911903  1
  O  O19  1  0.51209416  0.41433363  0.36088097  1
  O  O20  1  0.19310157  0.19559680  0.61500606  1
  O  O21  1  0.80689843  0.69559680  0.88499394  1
  O  O22  1  0.80689843  0.80440320  0.38499394  1
  O  O23  1  0.19310157  0.30440320  0.11500606  1
  O  O24  1  0.32011350  0.78923774  0.87886526  1
  O  O25  1  0.67988650  0.28923774  0.62113474  1
  O  O26  1  0.67988650  0.21076226  0.12113474  1
  O  O27  1  0.32011350  0.71076226  0.37886526  1
  Na  Na28  1  0.21328859  0.52821978  0.70894196  1
  Na  Na29  1  0.78671141  0.02821978  0.79105804  1
  Na  Na30  1  0.78671141  0.47178022  0.29105804  1
  Na  Na31  1  0.21328859  0.97178022  0.20894196  1
  P  P32  1  0.57263706  0.24362627  0.95484301  1
  P  P33  1  0.42736294  0.74362627  0.54515699  1
  P  P34  1  0.42736294  0.75637373  0.04515699  1
  P  P35  1  0.57263706  0.25637373  0.45484301  1
  P  P36  1  0.17295756  0.28934443  0.95283633  1
  P  P37  1  0.82704244  0.78934443  0.54716367  1
  P  P38  1  0.82704244  0.71065557  0.04716367  1
  P  P39  1  0.17295756  0.21065557  0.45283633  1
  V  V40  1  0.23988559  0.99200591  0.75084166  1
  V  V41  1  0.76011441  0.49200591  0.74915834  1
  V  V42  1  0.76011441  0.00799409  0.24915834  1
  V  V43  1  0.23988559  0.50799409  0.25084166  1
