# generated using pymatgen
data_DyVO3
_symmetry_space_group_name_H-M   'P 1'
_cell_length_a   5.33421059
_cell_length_b   5.74309969
_cell_length_c   7.63590426
_cell_angle_alpha   90.00000000
_cell_angle_beta   90.00000000
_cell_angle_gamma   90.00000000
_symmetry_Int_Tables_number   1
_chemical_formula_structural   DyVO3
_chemical_formula_sum   'Dy4 V4 O12'
_cell_volume   233.92518774
_cell_formula_units_Z   4
loop_
 _symmetry_equiv_pos_site_id
 _symmetry_equiv_pos_as_xyz
  1  'x, y, z'
loop_
 _atom_site_type_symbol
 _atom_site_label
 _atom_site_symmetry_multiplicity
 _atom_site_fract_x
 _atom_site_fract_y
 _atom_site_fract_z
 _atom_site_occupancy
  O  O0  1  0.69482345  0.68911928  0.44060633  1
  O  O1  1  0.19482345  0.81088072  0.55939367  1
  O  O2  1  0.80517655  0.18911928  0.05939367  1
  O  O3  1  0.30517655  0.31088072  0.94060633  1
  O  O4  1  0.30517655  0.31088072  0.55939367  1
  O  O5  1  0.80517655  0.18911928  0.44060633  1
  O  O6  1  0.19482345  0.81088072  0.94060633  1
  O  O7  1  0.69482345  0.68911928  0.05939367  1
  O  O8  1  0.11877424  0.54623596  0.25000000  1
  O  O9  1  0.61877424  0.95376404  0.75000000  1
  O  O10  1  0.38122576  0.04623596  0.25000000  1
  O  O11  1  0.88122576  0.45376404  0.75000000  1
  V  V12  1  0.50000000  0.00000000  0.50000000  1
  V  V13  1  0.00000000  0.50000000  0.50000000  1
  V  V14  1  0.00000000  0.50000000  0.00000000  1
  V  V15  1  0.50000000  0.00000000  0.00000000  1
  Dy  Dy16  1  0.02019279  0.07038875  0.75000000  1
  Dy  Dy17  1  0.52019279  0.42961125  0.25000000  1
  Dy  Dy18  1  0.47980721  0.57038875  0.75000000  1
  Dy  Dy19  1  0.97980721  0.92961125  0.25000000  1
