# generated using pymatgen
data_Li3MnOF3
_symmetry_space_group_name_H-M   'P 1'
_cell_length_a   3.06930265
_cell_length_b   5.20619168
_cell_length_c   10.47390256
_cell_angle_alpha   79.59214577
_cell_angle_beta   90.07943741
_cell_angle_gamma   107.26291635
_symmetry_Int_Tables_number   1
_chemical_formula_structural   Li3MnOF3
_chemical_formula_sum   'Li6 Mn2 O2 F6'
_cell_volume   156.95423752
_cell_formula_units_Z   2
loop_
 _symmetry_equiv_pos_site_id
 _symmetry_equiv_pos_as_xyz
  1  'x, y, z'
loop_
 _atom_site_type_symbol
 _atom_site_label
 _atom_site_symmetry_multiplicity
 _atom_site_fract_x
 _atom_site_fract_y
 _atom_site_fract_z
 _atom_site_occupancy
  Li  Li0  1  0.75332461  0.50024692  0.86500376  1
  Li  Li1  1  0.49903267  0.99802119  0.75015098  1
  Li  Li2  1  0.50387590  0.00040970  0.25048978  1
  Li  Li3  1  0.25300692  0.49861843  0.63817423  1
  Li  Li4  1  0.99045854  0.99747581  0.49988537  1
  Li  Li5  1  0.99677586  0.00418719  0.99953175  1
  Mn  Mn6  1  0.74120885  0.48677354  0.37121520  1
  Mn  Mn7  1  0.25588847  0.51459689  0.13099841  1
  O  O8  1  0.87972059  0.76023428  0.18353791  1
  O  O9  1  0.11719374  0.24116794  0.31846234  1
  F  F10  1  0.87205488  0.74760767  0.69166534  1
  F  F11  1  0.62349614  0.24796267  0.57690272  1
  F  F12  1  0.63150177  0.26006568  0.04133331  1
  F  F13  1  0.12472762  0.25140514  0.81114541  1
  F  F14  1  0.38006285  0.75259516  0.92526774  1
  F  F15  1  0.36541657  0.74173279  0.46115377  1
