# generated using pymatgen
data_KVP2O7
_symmetry_space_group_name_H-M   'P 1'
_cell_length_a   7.50195428
_cell_length_b   8.33943537
_cell_length_c   10.25862741
_cell_angle_alpha   90.00000000
_cell_angle_beta   90.00000000
_cell_angle_gamma   106.88336541
_symmetry_Int_Tables_number   1
_chemical_formula_structural   KVP2O7
_chemical_formula_sum   'K4 V4 P8 O28'
_cell_volume   614.13795364
_cell_formula_units_Z   4
loop_
 _symmetry_equiv_pos_site_id
 _symmetry_equiv_pos_as_xyz
  1  'x, y, z'
loop_
 _atom_site_type_symbol
 _atom_site_label
 _atom_site_symmetry_multiplicity
 _atom_site_fract_x
 _atom_site_fract_y
 _atom_site_fract_z
 _atom_site_occupancy
  O  O0  1  0.66302323  0.18633987  0.93826350  1
  O  O1  1  0.33697677  0.31366013  0.43826350  1
  O  O2  1  0.33697677  0.81366013  0.06173650  1
  O  O3  1  0.66302323  0.68633987  0.56173650  1
  O  O4  1  0.91958991  0.24660173  0.76428721  1
  O  O5  1  0.08041009  0.25339827  0.26428721  1
  O  O6  1  0.08041009  0.75339827  0.23571279  1
  O  O7  1  0.91958991  0.74660173  0.73571279  1
  O  O8  1  0.63562287  0.23508959  0.42372739  1
  O  O9  1  0.36437713  0.26491041  0.92372739  1
  O  O10  1  0.36437713  0.76491041  0.57627261  1
  O  O11  1  0.63562287  0.73508959  0.07627261  1
  O  O12  1  0.54458292  0.25865896  0.71915167  1
  O  O13  1  0.45541708  0.24134104  0.21915167  1
  O  O14  1  0.45541708  0.74134104  0.28084833  1
  O  O15  1  0.54458292  0.75865896  0.78084833  1
  O  O16  1  0.85867687  0.98790433  0.90555824  1
  O  O17  1  0.14132313  0.51209567  0.40555824  1
  O  O18  1  0.14132313  0.01209567  0.09444176  1
  O  O19  1  0.85867687  0.48790433  0.59444176  1
  O  O20  1  0.67951152  0.48618378  0.89232210  1
  O  O21  1  0.32048848  0.01381622  0.39232210  1
  O  O22  1  0.32048848  0.51381622  0.10767790  1
  O  O23  1  0.67951152  0.98618378  0.60767790  1
  O  O24  1  0.99916754  0.72133996  0.99796079  1
  O  O25  1  0.00083246  0.77866004  0.49796079  1
  O  O26  1  0.00083246  0.27866004  0.00203921  1
  O  O27  1  0.99916754  0.22133996  0.50203921  1
  P  P28  1  0.86848815  0.17119590  0.90129289  1
  P  P29  1  0.86848815  0.67119590  0.59870711  1
  P  P30  1  0.13151185  0.82880410  0.09870711  1
  P  P31  1  0.13151185  0.32880410  0.40129289  1
  P  P32  1  0.55940365  0.30799100  0.86367824  1
  P  P33  1  0.55940365  0.80799100  0.63632176  1
  P  P34  1  0.44059635  0.69200900  0.13632176  1
  P  P35  1  0.44059635  0.19200900  0.36367824  1
  K  K36  1  0.82353590  0.44123491  0.17656312  1
  K  K37  1  0.17646410  0.55876509  0.82343688  1
  K  K38  1  0.82353590  0.94123491  0.32343688  1
  K  K39  1  0.17646410  0.05876509  0.67656312  1
  V  V40  1  0.76311485  0.23988041  0.60048025  1
  V  V41  1  0.23688515  0.26011959  0.10048025  1
  V  V42  1  0.23688515  0.76011959  0.39951975  1
  V  V43  1  0.76311485  0.73988041  0.89951975  1
