# generated using pymatgen
data_Co6O5F7
_symmetry_space_group_name_H-M   'P 1'
_cell_length_a   7.01627646
_cell_length_b   5.45796252
_cell_length_c   5.55620956
_cell_angle_alpha   72.51655813
_cell_angle_beta   74.36635638
_cell_angle_gamma   73.80553886
_symmetry_Int_Tables_number   1
_chemical_formula_structural   Co6O5F7
_chemical_formula_sum   'Co6 O5 F7'
_cell_volume   190.84359218
_cell_formula_units_Z   1
loop_
 _symmetry_equiv_pos_site_id
 _symmetry_equiv_pos_as_xyz
  1  'x, y, z'
loop_
 _atom_site_type_symbol
 _atom_site_label
 _atom_site_symmetry_multiplicity
 _atom_site_fract_x
 _atom_site_fract_y
 _atom_site_fract_z
 _atom_site_occupancy
  Co  Co0  1  0.83860494  0.69525582  0.67282406  1
  Co  Co1  1  0.31481184  0.68274793  0.61295767  1
  Co  Co2  1  0.66882736  0.31131776  0.36640178  1
  Co  Co3  1  0.16858655  0.31206489  0.33579728  1
  Co  Co4  1  0.49971434  0.00031110  0.99516371  1
  Co  Co5  1  0.00263700  0.00208192  0.00334768  1
  O  O6  1  0.66800094  0.02659738  0.66107082  1
  O  O7  1  0.96603949  0.21998268  0.24531307  1
  O  O8  1  0.37019939  0.41810708  0.43082557  1
  O  O9  1  0.03275333  0.78532800  0.76227725  1
  O  O10  1  0.33206257  0.97040057  0.33851627  1
  F  F11  1  0.33667729  0.37416009  0.94242237  1
  F  F12  1  0.63523576  0.58187927  0.57534417  1
  F  F13  1  0.30262163  0.90064555  0.88182839  1
  F  F14  1  0.69980890  0.09152951  0.11254686  1
  F  F15  1  0.66570896  0.62340817  0.05608622  1
  F  F16  1  0.99041955  0.32301603  0.70692031  1
  F  F17  1  0.00729116  0.68116424  0.30035552  1
