# generated using pymatgen
data_Bi2WO6
_symmetry_space_group_name_H-M   'P 1'
_cell_length_a   5.49521844
_cell_length_b   5.53733968
_cell_length_c   8.99385064
_cell_angle_alpha   107.92912615
_cell_angle_beta   90.00000000
_cell_angle_gamma   90.00000000
_symmetry_Int_Tables_number   1
_chemical_formula_structural   Bi2WO6
_chemical_formula_sum   'Bi4 W2 O12'
_cell_volume   260.38280842
_cell_formula_units_Z   2
loop_
 _symmetry_equiv_pos_site_id
 _symmetry_equiv_pos_as_xyz
  1  'x, y, z'
loop_
 _atom_site_type_symbol
 _atom_site_label
 _atom_site_symmetry_multiplicity
 _atom_site_fract_x
 _atom_site_fract_y
 _atom_site_fract_z
 _atom_site_occupancy
  O  O0  1  0.58684698  0.67030472  0.21377186  1
  O  O1  1  0.41315280  0.45653330  0.78622841  1
  O  O2  1  0.91315178  0.17030564  0.21377271  1
  O  O3  1  0.08684799  0.95653238  0.78622756  1
  O  O4  1  0.75273197  0.76838926  0.95589935  1
  O  O5  1  0.24726781  0.81248850  0.04410009  1
  O  O6  1  0.23816655  0.48056472  0.49934958  1
  O  O7  1  0.76183322  0.98121469  0.50065127  1
  O  O8  1  0.26183244  0.98056380  0.49934873  1
  O  O9  1  0.74726680  0.26838830  0.95589982  1
  O  O10  1  0.25273298  0.31248942  0.04410094  1
  O  O11  1  0.73816734  0.48121561  0.50065099  1
  W  W12  1  0.50000079  0.51296646  0.99999986  1
  W  W13  1  0.00000000  0.01296554  0.00000014  1
  Bi  Bi14  1  0.02489152  0.27924268  0.65094614  1
  Bi  Bi15  1  0.97510826  0.62829654  0.34905388  1
  Bi  Bi16  1  0.52489230  0.12829558  0.34905435  1
  Bi  Bi17  1  0.47510747  0.77924176  0.65094642  1
