# generated using pymatgen
data_Er2WO6
_symmetry_space_group_name_H-M   'P 1'
_cell_length_a   5.35860600
_cell_length_b   7.66299230
_cell_length_c   11.40306620
_cell_angle_alpha   104.66280948
_cell_angle_beta   90.00000000
_cell_angle_gamma   90.00000000
_symmetry_Int_Tables_number   1
_chemical_formula_structural   Er2WO6
_chemical_formula_sum   'Er8 W4 O24'
_cell_volume   452.99397619
_cell_formula_units_Z   4
loop_
 _symmetry_equiv_pos_site_id
 _symmetry_equiv_pos_as_xyz
  1  'x, y, z'
loop_
 _atom_site_type_symbol
 _atom_site_label
 _atom_site_symmetry_multiplicity
 _atom_site_fract_x
 _atom_site_fract_y
 _atom_site_fract_z
 _atom_site_occupancy
  O  O0  1  0.45908985  0.79163702  0.27376005  1
  O  O1  1  0.45908985  0.20836298  0.22623995  1
  O  O2  1  0.54091015  0.20836298  0.72623995  1
  O  O3  1  0.54091015  0.79163702  0.77376005  1
  O  O4  1  0.04350094  0.94047678  0.10460866  1
  O  O5  1  0.04350094  0.05952322  0.39539134  1
  O  O6  1  0.95649906  0.05952322  0.89539134  1
  O  O7  1  0.95649906  0.94047678  0.60460866  1
  O  O8  1  0.97909116  0.71025531  0.22894020  1
  O  O9  1  0.97909116  0.28974469  0.27105980  1
  O  O10  1  0.02090884  0.28974469  0.77105980  1
  O  O11  1  0.02090884  0.71025531  0.72894020  1
  O  O12  1  0.84871918  0.63398212  0.45078784  1
  O  O13  1  0.84871918  0.36601788  0.04921216  1
  O  O14  1  0.15128082  0.36601788  0.54921216  1
  O  O15  1  0.15128082  0.63398212  0.95078784  1
  O  O16  1  0.63799917  0.48886935  0.61490453  1
  O  O17  1  0.63799917  0.51113065  0.88509547  1
  O  O18  1  0.36200083  0.51113065  0.38509547  1
  O  O19  1  0.36200083  0.48886935  0.11490453  1
  O  O20  1  0.46376632  0.84720884  0.56940893  1
  O  O21  1  0.46376632  0.15279116  0.93059107  1
  O  O22  1  0.53623368  0.15279116  0.43059107  1
  O  O23  1  0.53623368  0.84720884  0.06940893  1
  Er  Er24  1  0.18352337  0.79424208  0.42174262  1
  Er  Er25  1  0.18352337  0.20575792  0.07825738  1
  Er  Er26  1  0.81647663  0.20575792  0.57825738  1
  Er  Er27  1  0.81647663  0.79424208  0.92174262  1
  Er  Er28  1  0.68415024  0.50000000  0.25000000  1
  Er  Er29  1  0.31584976  0.50000000  0.75000000  1
  Er  Er30  1  0.74017601  0.00000000  0.25000000  1
  Er  Er31  1  0.25982399  0.00000000  0.75000000  1
  W  W32  1  0.25606424  0.72344263  0.11479648  1
  W  W33  1  0.25606424  0.27655737  0.38520352  1
  W  W34  1  0.74393576  0.27655737  0.88520352  1
  W  W35  1  0.74393576  0.72344263  0.61479648  1
