# generated using pymatgen
data_NdF3
_symmetry_space_group_name_H-M   'P 1'
_cell_length_a   7.08818792
_cell_length_b   7.08818792
_cell_length_c   7.27672682
_cell_angle_alpha   90.00000000
_cell_angle_beta   90.00000000
_cell_angle_gamma   120.00000002
_symmetry_Int_Tables_number   1
_chemical_formula_structural   NdF3
_chemical_formula_sum   'Nd6 F18'
_cell_volume   316.61912785
_cell_formula_units_Z   6
loop_
 _symmetry_equiv_pos_site_id
 _symmetry_equiv_pos_as_xyz
  1  'x, y, z'
loop_
 _atom_site_type_symbol
 _atom_site_label
 _atom_site_symmetry_multiplicity
 _atom_site_fract_x
 _atom_site_fract_y
 _atom_site_fract_z
 _atom_site_occupancy
  F  F0  1  0.00000000  0.00000000  0.75000000  1
  F  F1  1  0.00000000  0.00000000  0.25000000  1
  F  F2  1  0.33333333  0.66666667  0.81680087  1
  F  F3  1  0.66666667  0.33333333  0.68319913  1
  F  F4  1  0.66666667  0.33333333  0.18319913  1
  F  F5  1  0.33333333  0.66666667  0.31680087  1
  F  F6  1  0.30878582  0.93658908  0.58014442  1
  F  F7  1  0.06341092  0.37219674  0.58014442  1
  F  F8  1  0.62780326  0.69121418  0.58014442  1
  F  F9  1  0.37219674  0.06341092  0.91985558  1
  F  F10  1  0.69121418  0.62780326  0.91985558  1
  F  F11  1  0.93658908  0.30878582  0.91985558  1
  F  F12  1  0.69121418  0.06341092  0.41985558  1
  F  F13  1  0.93658908  0.62780326  0.41985558  1
  F  F14  1  0.37219674  0.30878582  0.41985558  1
  F  F15  1  0.62780326  0.93658908  0.08014442  1
  F  F16  1  0.30878582  0.37219674  0.08014442  1
  F  F17  1  0.06341092  0.69121418  0.08014442  1
  Nd  Nd18  1  0.34425048  0.34425048  0.75000000  1
  Nd  Nd19  1  0.00000000  0.65574952  0.75000000  1
  Nd  Nd20  1  0.65574952  0.00000000  0.75000000  1
  Nd  Nd21  1  0.65574952  0.65574952  0.25000000  1
  Nd  Nd22  1  0.00000000  0.34425048  0.25000000  1
  Nd  Nd23  1  0.34425048  0.00000000  0.25000000  1
