# generated using pymatgen
data_KCr3H6(SO7)2
_symmetry_space_group_name_H-M   'P 1'
_cell_length_a   7.22951915
_cell_length_b   7.22951915
_cell_length_c   7.22951915
_cell_angle_alpha   61.15216835
_cell_angle_beta   61.15216836
_cell_angle_gamma   61.15216835
_symmetry_Int_Tables_number   1
_chemical_formula_structural   KCr3H6(SO7)2
_chemical_formula_sum   'K1 Cr3 H6 S2 O14'
_cell_volume   274.11266459
_cell_formula_units_Z   1
loop_
 _symmetry_equiv_pos_site_id
 _symmetry_equiv_pos_as_xyz
  1  'x, y, z'
loop_
 _atom_site_type_symbol
 _atom_site_label
 _atom_site_symmetry_multiplicity
 _atom_site_fract_x
 _atom_site_fract_y
 _atom_site_fract_z
 _atom_site_occupancy
  H  H0  1  0.69225741  0.69225741  0.28482107  1
  H  H1  1  0.69225741  0.28482107  0.69225741  1
  H  H2  1  0.28482107  0.69225741  0.69225741  1
  H  H3  1  0.71517893  0.30774259  0.30774259  1
  H  H4  1  0.30774259  0.30774259  0.71517893  1
  H  H5  1  0.30774259  0.71517893  0.30774259  1
  O  O6  1  0.38806628  0.38806628  0.38806628  1
  O  O7  1  0.61193372  0.61193372  0.61193372  1
  O  O8  1  0.16500543  0.49821905  0.16500543  1
  O  O9  1  0.16500543  0.16500543  0.49821905  1
  O  O10  1  0.49821905  0.16500543  0.16500543  1
  O  O11  1  0.50178095  0.83499457  0.83499457  1
  O  O12  1  0.83499457  0.50178095  0.83499457  1
  O  O13  1  0.83499457  0.83499457  0.50178095  1
  O  O14  1  0.26259549  0.87851961  0.26259549  1
  O  O15  1  0.26259549  0.26259549  0.87851961  1
  O  O16  1  0.87851961  0.26259549  0.26259549  1
  O  O17  1  0.12148039  0.73740451  0.73740451  1
  O  O18  1  0.73740451  0.12148039  0.73740451  1
  O  O19  1  0.73740451  0.73740451  0.12148039  1
  S  S20  1  0.69563128  0.69563128  0.69563128  1
  S  S21  1  0.30436872  0.30436872  0.30436872  1
  K  K22  1  0.00000000  0.00000000  0.00000000  1
  Cr  Cr23  1  0.00000000  0.00000000  0.50000000  1
  Cr  Cr24  1  0.50000000  0.00000000  0.00000000  1
  Cr  Cr25  1  0.00000000  0.50000000  0.00000000  1
