# generated using pymatgen
data_LiCrPO4F
_symmetry_space_group_name_H-M   'P 1'
_cell_length_a   5.20330490
_cell_length_b   5.35509879
_cell_length_c   7.36661618
_cell_angle_alpha   109.78824049
_cell_angle_beta   106.98188516
_cell_angle_gamma   98.10905866
_symmetry_Int_Tables_number   1
_chemical_formula_structural   LiCrPO4F
_chemical_formula_sum   'Li2 Cr2 P2 O8 F2'
_cell_volume   178.03589778
_cell_formula_units_Z   2
loop_
 _symmetry_equiv_pos_site_id
 _symmetry_equiv_pos_as_xyz
  1  'x, y, z'
loop_
 _atom_site_type_symbol
 _atom_site_label
 _atom_site_symmetry_multiplicity
 _atom_site_fract_x
 _atom_site_fract_y
 _atom_site_fract_z
 _atom_site_occupancy
  Li  Li0  1  0.91771589  0.57404450  0.18953676  1
  Li  Li1  1  0.08228529  0.42595582  0.81046316  1
  O  O2  1  0.35007829  0.31714187  0.65735318  1
  O  O3  1  0.64992087  0.68285844  0.34264633  1
  O  O4  1  0.71352035  0.83719300  0.08267629  1
  O  O5  1  0.64841779  0.18136035  0.39416025  1
  O  O6  1  0.28647826  0.16280525  0.91732260  1
  O  O7  1  0.35158284  0.81863790  0.60583905  1
  O  O8  1  0.76320913  0.21988048  0.88596146  1
  O  O9  1  0.23679004  0.78011983  0.11403805  1
  F  F10  1  0.13721095  0.33089343  0.26316881  1
  F  F11  1  0.86278823  0.66910689  0.73683207  1
  P  P12  1  0.43903831  0.11868603  0.76128400  1
  P  P13  1  0.56096289  0.88131430  0.23871729  1
  Cr  Cr14  1  0.00000000  0.00000000  0.00000000  1
  Cr  Cr15  1  0.50000060  0.50000017  0.50000065  1
