# generated using pymatgen
data_CrH17N4Cl2O3
_symmetry_space_group_name_H-M   'P 1'
_cell_length_a   6.83627722
_cell_length_b   7.93084076
_cell_length_c   10.44820073
_cell_angle_alpha   92.58304533
_cell_angle_beta   106.13991884
_cell_angle_gamma   105.67435622
_symmetry_Int_Tables_number   1
_chemical_formula_structural   CrH17N4Cl2O3
_chemical_formula_sum   'Cr2 H34 N8 Cl4 O6'
_cell_volume   519.47071631
_cell_formula_units_Z   2
loop_
 _symmetry_equiv_pos_site_id
 _symmetry_equiv_pos_as_xyz
  1  'x, y, z'
loop_
 _atom_site_type_symbol
 _atom_site_label
 _atom_site_symmetry_multiplicity
 _atom_site_fract_x
 _atom_site_fract_y
 _atom_site_fract_z
 _atom_site_occupancy
  H  H0  1  0.53972110  0.32805521  0.59271133  1
  H  H1  1  0.46027890  0.67194479  0.40728867  1
  H  H2  1  0.74455365  0.39014700  0.54807673  1
  H  H3  1  0.25544635  0.60985300  0.45192327  1
  H  H4  1  0.60607974  0.32768415  0.15870692  1
  H  H5  1  0.39392026  0.67231585  0.84129308  1
  H  H6  1  0.67225037  0.42761439  0.30658870  1
  H  H7  1  0.32774963  0.57238561  0.69341130  1
  H  H8  1  0.25596426  0.88667117  0.73421828  1
  H  H9  1  0.74403574  0.11332883  0.26578172  1
  H  H10  1  0.19123896  0.05769887  0.66384334  1
  H  H11  1  0.80876104  0.94230113  0.33615666  1
  H  H12  1  0.36286149  0.09162131  0.81484756  1
  H  H13  1  0.63713851  0.90837869  0.18515244  1
  H  H14  1  0.71171401  0.08330490  0.64249320  1
  H  H15  1  0.28828599  0.91669510  0.35750680  1
  H  H16  1  0.76159156  0.90024459  0.59205051  1
  H  H17  1  0.23840844  0.09975541  0.40794949  1
  H  H18  1  0.60409825  0.88621055  0.68728111  1
  H  H19  1  0.39590175  0.11378945  0.31271889  1
  H  H20  1  0.26782684  0.91336211  0.04000479  1
  H  H21  1  0.73217316  0.08663789  0.95999521  1
  H  H22  1  0.11050497  0.33110503  0.27929614  1
  H  H23  1  0.88949503  0.66889497  0.72070386  1
  H  H24  1  0.24337460  0.34509934  0.16943468  1
  H  H25  1  0.75662540  0.65490066  0.83056532  1
  H  H26  1  0.98595596  0.33509394  0.11919210  1
  H  H27  1  0.01404404  0.66490606  0.88080790  1
  H  H28  1  0.92269620  0.70047829  0.24247025  1
  H  H29  1  0.07730380  0.29952171  0.75752975  1
  H  H30  1  0.78661089  0.66279920  0.08149746  1
  H  H31  1  0.21338911  0.33720080  0.91850254  1
  H  H32  1  0.04582981  0.68129090  0.12904732  1
  H  H33  1  0.95417019  0.31870910  0.87095268  1
  N  N34  1  0.22409689  0.00404058  0.75230067  1
  N  N35  1  0.77590311  0.99595942  0.24769933  1
  N  N36  1  0.73918804  0.96650361  0.67139597  1
  N  N37  1  0.26081196  0.03349639  0.32860403  1
  N  N38  1  0.06878946  0.26929461  0.85103804  1
  N  N39  1  0.93121054  0.73070539  0.14896196  1
  N  N40  1  0.90228827  0.71270559  0.81765695  1
  N  N41  1  0.09771173  0.28729441  0.18234305  1
  O  O42  1  0.68067272  0.31040440  0.60413111  1
  O  O43  1  0.31932728  0.68959560  0.39586889  1
  O  O44  1  0.60429573  0.31061498  0.25173312  1
  O  O45  1  0.39570427  0.68938502  0.74826688  1
  O  O46  1  0.80004481  0.99019542  0.96769522  1
  O  O47  1  0.19995519  0.00980458  0.03230478  1
  Cl  Cl48  1  0.80890800  0.67420502  0.45279351  1
  Cl  Cl49  1  0.19109200  0.32579498  0.54720649  1
  Cl  Cl50  1  0.65173906  0.33005141  0.95766695  1
  Cl  Cl51  1  0.34826094  0.66994859  0.04233305  1
  Cr  Cr52  1  0.98895472  0.99234456  0.85039131  1
  Cr  Cr53  1  0.01104528  0.00765544  0.14960869  1
