# generated using pymatgen
data_CoP4H16(NO8)2
_symmetry_space_group_name_H-M   'P 1'
_cell_length_a   7.16463209
_cell_length_b   7.40126065
_cell_length_c   7.82042402
_cell_angle_alpha   81.10319381
_cell_angle_beta   70.95051962
_cell_angle_gamma   90.02146448
_symmetry_Int_Tables_number   1
_chemical_formula_structural   CoP4H16(NO8)2
_chemical_formula_sum   'Co1 P4 H16 N2 O16'
_cell_volume   386.69530798
_cell_formula_units_Z   1
loop_
 _symmetry_equiv_pos_site_id
 _symmetry_equiv_pos_as_xyz
  1  'x, y, z'
loop_
 _atom_site_type_symbol
 _atom_site_label
 _atom_site_symmetry_multiplicity
 _atom_site_fract_x
 _atom_site_fract_y
 _atom_site_fract_z
 _atom_site_occupancy
  H  H0  1  0.35090606  0.17173814  0.18897321  1
  H  H1  1  0.64909326  0.82826215  0.81102636  1
  H  H2  1  0.32761332  0.40116560  0.17631430  1
  H  H3  1  0.67238600  0.59883469  0.82368656  1
  H  H4  1  0.43071934  0.28534988  0.32549321  1
  H  H5  1  0.44572894  0.68224861  0.90444007  1
  H  H6  1  0.88177399  0.29562027  0.34176160  1
  H  H7  1  0.11822533  0.70438002  0.65823797  1
  H  H8  1  0.87950930  0.16318099  0.19817898  1
  H  H9  1  0.56785732  0.26695774  0.57471398  1
  H  H10  1  0.43214193  0.73304117  0.42528710  1
  H  H11  1  0.12049002  0.83681931  0.80182060  1
  H  H12  1  0.23730971  0.98238491  0.02625216  1
  H  H13  1  0.76268961  0.01761538  0.97374869  1
  H  H14  1  0.56927992  0.71464904  0.67450658  1
  H  H15  1  0.55427186  0.31775170  0.09555906  1
  N  N16  1  0.58357106  0.70593714  0.80386468  1
  N  N17  1  0.41642820  0.29406178  0.19613511  1
  O  O18  1  0.93915762  0.27960534  0.21165403  1
  O  O19  1  0.92615897  0.76363894  0.35452746  1
  O  O20  1  0.24902439  0.94723916  0.15892369  1
  O  O21  1  0.07384035  0.23636135  0.64547339  1
  O  O22  1  0.77149803  0.97696746  0.15660813  1
  O  O23  1  0.06084170  0.72039495  0.78834554  1
  O  O24  1  0.23487875  0.69820092  0.42311495  1
  O  O25  1  0.22850277  0.02303285  0.84339100  1
  O  O26  1  0.56938464  0.75616081  0.44232488  1
  O  O27  1  0.43061616  0.24383950  0.55767553  1
  O  O28  1  0.75918559  0.63174472  0.14992293  1
  O  O29  1  0.79941992  0.38322067  0.87598543  1
  O  O30  1  0.76512050  0.30179799  0.57688612  1
  O  O31  1  0.24081521  0.36825559  0.85007748  1
  O  O32  1  0.20058088  0.61677963  0.12401498  1
  O  O33  1  0.75097493  0.05276114  0.84107589  1
  P  P34  1  0.16243817  0.74926579  0.26173386  1
  P  P35  1  0.83756109  0.25073312  0.73826721  1
  P  P36  1  0.24634865  0.21771777  0.73880938  1
  P  P37  1  0.75365067  0.78228252  0.26119020  1
  Co  Co38  1  0.00000037  0.49999967  0.00000006  1
