# generated using pymatgen
data_FeH8(BrO2)2
_symmetry_space_group_name_H-M   'P 1'
_cell_length_a   6.13903324
_cell_length_b   7.65288124
_cell_length_c   8.71444325
_cell_angle_alpha   90.00000000
_cell_angle_beta   109.83010061
_cell_angle_gamma   90.00000000
_symmetry_Int_Tables_number   1
_chemical_formula_structural   FeH8(BrO2)2
_chemical_formula_sum   'Fe2 H16 Br4 O8'
_cell_volume   385.13854620
_cell_formula_units_Z   2
loop_
 _symmetry_equiv_pos_site_id
 _symmetry_equiv_pos_as_xyz
  1  'x, y, z'
loop_
 _atom_site_type_symbol
 _atom_site_label
 _atom_site_symmetry_multiplicity
 _atom_site_fract_x
 _atom_site_fract_y
 _atom_site_fract_z
 _atom_site_occupancy
  H  H0  1  0.87175796  0.70590343  0.50469966  1
  H  H1  1  0.62824204  0.20590343  0.99530034  1
  H  H2  1  0.12824204  0.29409657  0.49530034  1
  H  H3  1  0.37175796  0.79409657  0.00469966  1
  H  H4  1  0.70188254  0.70068680  0.32452124  1
  H  H5  1  0.79811746  0.20068680  0.17547876  1
  H  H6  1  0.29811746  0.29931320  0.67547876  1
  H  H7  1  0.20188254  0.79931320  0.82452124  1
  H  H8  1  0.72792772  0.56795942  0.83665795  1
  H  H9  1  0.77207228  0.06795942  0.66334205  1
  H  H10  1  0.27207228  0.43204058  0.16334205  1
  H  H11  1  0.22792772  0.93204058  0.33665795  1
  H  H12  1  0.87873931  0.42550739  0.78765461  1
  H  H13  1  0.62126069  0.92550739  0.71234539  1
  H  H14  1  0.37873931  0.07449261  0.28765461  1
  H  H15  1  0.12126069  0.57449261  0.21234539  1
  O  O16  1  0.70680798  0.68987124  0.43870454  1
  O  O17  1  0.79319202  0.18987124  0.06129546  1
  O  O18  1  0.29319202  0.31012876  0.56129546  1
  O  O19  1  0.20680798  0.81012876  0.93870454  1
  O  O20  1  0.73584628  0.49531976  0.74514299  1
  O  O21  1  0.76415372  0.99531976  0.75485701  1
  O  O22  1  0.26415372  0.50468024  0.25485701  1
  O  O23  1  0.23584628  0.00468024  0.24514299  1
  Fe  Fe24  1  0.00000000  0.00000000  0.00000000  1
  Fe  Fe25  1  0.50000000  0.50000000  0.50000000  1
  Br  Br26  1  0.73259750  0.22963724  0.42109565  1
  Br  Br27  1  0.76740250  0.72963724  0.07890435  1
  Br  Br28  1  0.23259750  0.27036276  0.92109565  1
  Br  Br29  1  0.26740250  0.77036276  0.57890435  1
