# generated using pymatgen
data_Li2V4CrCuO12
_symmetry_space_group_name_H-M   'P 1'
_cell_length_a   6.87422645
_cell_length_b   6.87422620
_cell_length_c   5.81327855
_cell_angle_alpha   74.27718133
_cell_angle_beta   105.72282067
_cell_angle_gamma   97.41757905
_symmetry_Int_Tables_number   1
_chemical_formula_structural   Li2V4CrCuO12
_chemical_formula_sum   'Li2 V4 Cr1 Cu1 O12'
_cell_volume   254.07430820
_cell_formula_units_Z   1
loop_
 _symmetry_equiv_pos_site_id
 _symmetry_equiv_pos_as_xyz
  1  'x, y, z'
loop_
 _atom_site_type_symbol
 _atom_site_label
 _atom_site_symmetry_multiplicity
 _atom_site_fract_x
 _atom_site_fract_y
 _atom_site_fract_z
 _atom_site_occupancy
  Li  Li0  1  0.23476054  0.23476054  0.25000000  1
  Li  Li1  1  0.75049607  0.75049607  0.75000000  1
  V  V2  1  0.19460807  0.60569086  0.76730574  1
  V  V3  1  0.39128856  0.79956593  0.26205060  1
  V  V4  1  0.60569086  0.19460807  0.73269426  1
  V  V5  1  0.79956593  0.39128856  0.23794940  1
  Cr  Cr6  1  0.08303201  0.08303201  0.75000000  1
  Cu  Cu7  1  0.90230474  0.90230474  0.25000000  1
  O  O8  1  0.02271167  0.80438864  0.66698360  1
  O  O9  1  0.09992573  0.35441944  0.83064272  1
  O  O10  1  0.20773431  0.98323680  0.12559288  1
  O  O11  1  0.36855393  0.65785950  0.55802301  1
  O  O12  1  0.35441944  0.09992573  0.66935728  1
  O  O13  1  0.36538289  0.63345771  0.06904858  1
  O  O14  1  0.65785950  0.36855393  0.94197699  1
  O  O15  1  0.63020676  0.91037684  0.31252430  1
  O  O16  1  0.63345771  0.36538289  0.43095142  1
  O  O17  1  0.80438864  0.02271167  0.83301640  1
  O  O18  1  0.91037684  0.63020676  0.18747570  1
  O  O19  1  0.98323680  0.20773431  0.37440712  1
