# generated using pymatgen
data_MnTl2H2OF5
_symmetry_space_group_name_H-M   'P 1'
_cell_length_a   6.36145801
_cell_length_b   6.36145802
_cell_length_c   8.54387282
_cell_angle_alpha   90.00000000
_cell_angle_beta   90.00000000
_cell_angle_gamma   102.56919682
_symmetry_Int_Tables_number   1
_chemical_formula_structural   MnTl2H2OF5
_chemical_formula_sum   'Mn2 Tl4 H4 O2 F10'
_cell_volume   337.46831793
_cell_formula_units_Z   2
loop_
 _symmetry_equiv_pos_site_id
 _symmetry_equiv_pos_as_xyz
  1  'x, y, z'
loop_
 _atom_site_type_symbol
 _atom_site_label
 _atom_site_symmetry_multiplicity
 _atom_site_fract_x
 _atom_site_fract_y
 _atom_site_fract_z
 _atom_site_occupancy
  H  H0  1  0.37413064  0.37413064  0.84282819  1
  H  H1  1  0.62586936  0.62586936  0.34282819  1
  H  H2  1  0.37413064  0.37413064  0.65717181  1
  H  H3  1  0.62586936  0.62586936  0.15717181  1
  O  O4  1  0.44920359  0.44920359  0.75000000  1
  O  O5  1  0.55079641  0.55079641  0.25000000  1
  F  F6  1  0.00553956  0.00553956  0.25000000  1
  F  F7  1  0.99446044  0.99446044  0.75000000  1
  F  F8  1  0.19084410  0.80915590  0.00000000  1
  F  F9  1  0.80915590  0.19084410  0.50000000  1
  F  F10  1  0.80915590  0.19084410  0.00000000  1
  F  F11  1  0.19084410  0.80915590  0.50000000  1
  F  F12  1  0.24131639  0.24131639  0.00064333  1
  F  F13  1  0.75868361  0.75868361  0.50064333  1
  F  F14  1  0.24131639  0.24131639  0.49935667  1
  F  F15  1  0.75868361  0.75868361  0.99935667  1
  Mn  Mn16  1  0.00000000  0.00000000  0.50000000  1
  Mn  Mn17  1  0.00000000  0.00000000  0.00000000  1
  Tl  Tl18  1  0.90093690  0.49601859  0.75000000  1
  Tl  Tl19  1  0.09906310  0.50398141  0.25000000  1
  Tl  Tl20  1  0.49601859  0.90093690  0.75000000  1
  Tl  Tl21  1  0.50398141  0.09906310  0.25000000  1
