# generated using pymatgen
data_RbMnH4Cl3O2
_symmetry_space_group_name_H-M   'P 1'
_cell_length_a   6.63518908
_cell_length_b   7.31591757
_cell_length_c   8.98696454
_cell_angle_alpha   91.26314025
_cell_angle_beta   107.60419647
_cell_angle_gamma   112.10082116
_symmetry_Int_Tables_number   1
_chemical_formula_structural   RbMnH4Cl3O2
_chemical_formula_sum   'Rb2 Mn2 H8 Cl6 O4'
_cell_volume   380.68199516
_cell_formula_units_Z   2
loop_
 _symmetry_equiv_pos_site_id
 _symmetry_equiv_pos_as_xyz
  1  'x, y, z'
loop_
 _atom_site_type_symbol
 _atom_site_label
 _atom_site_symmetry_multiplicity
 _atom_site_fract_x
 _atom_site_fract_y
 _atom_site_fract_z
 _atom_site_occupancy
  H  H0  1  0.58802140  0.70381163  0.47856679  1
  H  H1  1  0.41197860  0.29618837  0.52143321  1
  H  H2  1  0.77688814  0.82171198  0.40300624  1
  H  H3  1  0.22311186  0.17828802  0.59699376  1
  H  H4  1  0.62114426  0.44859531  0.18855696  1
  H  H5  1  0.37885574  0.55140469  0.81144304  1
  H  H6  1  0.75367260  0.47624341  0.06511349  1
  H  H7  1  0.24632740  0.52375659  0.93488651  1
  O  O8  1  0.75453572  0.75742371  0.49608819  1
  O  O9  1  0.24546428  0.24257629  0.50391181  1
  O  O10  1  0.75112218  0.43183854  0.16797958  1
  O  O11  1  0.24887782  0.56816146  0.83202042  1
  Cl  Cl12  1  0.24631992  0.70250869  0.48999363  1
  Cl  Cl13  1  0.75368008  0.29749131  0.51000637  1
  Cl  Cl14  1  0.78063966  0.97354922  0.19743814  1
  Cl  Cl15  1  0.21936034  0.02645078  0.80256186  1
  Cl  Cl16  1  0.25029444  0.42078452  0.15685953  1
  Cl  Cl17  1  0.74970556  0.57921548  0.84314047  1
  Mn  Mn18  1  0.99968207  0.33469590  0.33176435  1
  Mn  Mn19  1  0.00031793  0.66530410  0.66823565  1
  Rb  Rb20  1  0.26323797  0.94290099  0.18112553  1
  Rb  Rb21  1  0.73676203  0.05709901  0.81887447  1
