# generated using pymatgen
data_MnH2(SO4)2
_symmetry_space_group_name_H-M   'P 1'
_cell_length_a   5.13855226
_cell_length_b   7.70662107
_cell_length_c   8.46294724
_cell_angle_alpha   90.00000000
_cell_angle_beta   90.00000000
_cell_angle_gamma   99.67094131
_symmetry_Int_Tables_number   1
_chemical_formula_structural   MnH2(SO4)2
_chemical_formula_sum   'Mn2 H4 S4 O16'
_cell_volume   330.37737199
_cell_formula_units_Z   2
loop_
 _symmetry_equiv_pos_site_id
 _symmetry_equiv_pos_as_xyz
  1  'x, y, z'
loop_
 _atom_site_type_symbol
 _atom_site_label
 _atom_site_symmetry_multiplicity
 _atom_site_fract_x
 _atom_site_fract_y
 _atom_site_fract_z
 _atom_site_occupancy
  H  H0  1  0.22048032  0.65584528  0.01806181  1
  H  H1  1  0.27951968  0.84415472  0.51806181  1
  H  H2  1  0.77951968  0.34415472  0.98193819  1
  H  H3  1  0.72048032  0.15584528  0.48193819  1
  O  O4  1  0.28557249  0.61483749  0.91485887  1
  O  O5  1  0.21442751  0.88516251  0.41485887  1
  O  O6  1  0.80636787  0.42920015  0.65127347  1
  O  O7  1  0.69363213  0.07079985  0.15127347  1
  O  O8  1  0.19363213  0.57079985  0.34872653  1
  O  O9  1  0.30636787  0.92920015  0.84872653  1
  O  O10  1  0.21376267  0.30662822  0.62467696  1
  O  O11  1  0.28623733  0.19337178  0.12467696  1
  O  O12  1  0.78623733  0.69337178  0.37532304  1
  O  O13  1  0.71376267  0.80662822  0.87532304  1
  O  O14  1  0.91561095  0.21966368  0.84478278  1
  O  O15  1  0.58438905  0.28033632  0.34478278  1
  O  O16  1  0.08438905  0.78033632  0.15521722  1
  O  O17  1  0.41561095  0.71966368  0.65521722  1
  O  O18  1  0.78557249  0.11483749  0.58514113  1
  O  O19  1  0.71442751  0.38516251  0.08514113  1
  S  S20  1  0.43941658  0.77763198  0.82196117  1
  S  S21  1  0.06058342  0.72236802  0.32196117  1
  S  S22  1  0.56058342  0.22236802  0.17803883  1
  S  S23  1  0.93941658  0.27763198  0.67803883  1
  Mn  Mn24  1  0.50000000  0.50000000  0.50000000  1
  Mn  Mn25  1  0.00000000  0.00000000  0.00000000  1
