# generated using pymatgen
data_LiFePO4F
_symmetry_space_group_name_H-M   'P 1'
_cell_length_a   5.21171997
_cell_length_b   5.36560887
_cell_length_c   7.43634493
_cell_angle_alpha   109.78024876
_cell_angle_beta   106.37997556
_cell_angle_gamma   97.87983146
_symmetry_Int_Tables_number   1
_chemical_formula_structural   LiFePO4F
_chemical_formula_sum   'Li2 Fe2 P2 O8 F2'
_cell_volume   181.40446477
_cell_formula_units_Z   2
loop_
 _symmetry_equiv_pos_site_id
 _symmetry_equiv_pos_as_xyz
  1  'x, y, z'
loop_
 _atom_site_type_symbol
 _atom_site_label
 _atom_site_symmetry_multiplicity
 _atom_site_fract_x
 _atom_site_fract_y
 _atom_site_fract_z
 _atom_site_occupancy
  Li  Li0  1  0.91863151  0.57356441  0.18738170  1
  Li  Li1  1  0.08136856  0.42643530  0.81261850  1
  O  O2  1  0.35018183  0.31790364  0.65926070  1
  O  O3  1  0.64981823  0.68209607  0.34073950  1
  O  O4  1  0.71610079  0.84174562  0.08407769  1
  O  O5  1  0.63767224  0.17672716  0.38955232  1
  O  O6  1  0.28389927  0.15825409  0.91592250  1
  O  O7  1  0.36232782  0.82327255  0.61044788  1
  O  O8  1  0.76109079  0.22219082  0.88677922  1
  O  O9  1  0.23890927  0.77780889  0.11322098  1
  F  F10  1  0.13446321  0.33441800  0.26354989  1
  F  F11  1  0.86553685  0.66558171  0.73645031  1
  P  P12  1  0.44095650  0.12165843  0.76314016  1
  P  P13  1  0.55904357  0.87834128  0.23686004  1
  Fe  Fe14  1  0.00000000  0.00000000  0.00000000  1
  Fe  Fe15  1  0.49999904  0.49999986  0.49999923  1
