# generated using pymatgen
data_Rb2MnH2OF5
_symmetry_space_group_name_H-M   'P 1'
_cell_length_a   6.35347635
_cell_length_b   6.35347635
_cell_length_c   8.53950813
_cell_angle_alpha   90.00000000
_cell_angle_beta   90.00000000
_cell_angle_gamma   99.23686168
_symmetry_Int_Tables_number   1
_chemical_formula_structural   Rb2MnH2OF5
_chemical_formula_sum   'Rb4 Mn2 H4 O2 F10'
_cell_volume   340.24163157
_cell_formula_units_Z   2
loop_
 _symmetry_equiv_pos_site_id
 _symmetry_equiv_pos_as_xyz
  1  'x, y, z'
loop_
 _atom_site_type_symbol
 _atom_site_label
 _atom_site_symmetry_multiplicity
 _atom_site_fract_x
 _atom_site_fract_y
 _atom_site_fract_z
 _atom_site_occupancy
  H  H0  1  0.36895529  0.36895529  0.84229921  1
  H  H1  1  0.63104471  0.63104471  0.34229921  1
  H  H2  1  0.36895529  0.36895529  0.65770079  1
  H  H3  1  0.63104471  0.63104471  0.15770079  1
  O  O4  1  0.44153309  0.44153309  0.75000000  1
  O  O5  1  0.55846691  0.55846691  0.25000000  1
  F  F6  1  0.01085806  0.01085806  0.25000000  1
  F  F7  1  0.98914194  0.98914194  0.75000000  1
  F  F8  1  0.19502154  0.80497846  0.00000000  1
  F  F9  1  0.80497846  0.19502154  0.50000000  1
  F  F10  1  0.80497846  0.19502154  0.00000000  1
  F  F11  1  0.19502154  0.80497846  0.50000000  1
  F  F12  1  0.23283249  0.23283249  0.99594942  1
  F  F13  1  0.76716751  0.76716751  0.49594942  1
  F  F14  1  0.23283249  0.23283249  0.50405058  1
  F  F15  1  0.76716751  0.76716751  0.00405058  1
  Mn  Mn16  1  0.00000000  0.00000000  0.50000000  1
  Mn  Mn17  1  0.00000000  0.00000000  0.00000000  1
  Rb  Rb18  1  0.92050751  0.50179065  0.75000000  1
  Rb  Rb19  1  0.07949249  0.49820935  0.25000000  1
  Rb  Rb20  1  0.50179065  0.92050751  0.75000000  1
  Rb  Rb21  1  0.49820935  0.07949249  0.25000000  1
