# generated using pymatgen
data_MnAsH2O5
_symmetry_space_group_name_H-M   'P 1'
_cell_length_a   5.36345942
_cell_length_b   5.36345942
_cell_length_c   7.63643395
_cell_angle_alpha   103.95830894
_cell_angle_beta   103.95830894
_cell_angle_gamma   97.28584556
_symmetry_Int_Tables_number   1
_chemical_formula_structural   MnAsH2O5
_chemical_formula_sum   'Mn2 As2 H4 O10'
_cell_volume   202.86228234
_cell_formula_units_Z   2
loop_
 _symmetry_equiv_pos_site_id
 _symmetry_equiv_pos_as_xyz
  1  'x, y, z'
loop_
 _atom_site_type_symbol
 _atom_site_label
 _atom_site_symmetry_multiplicity
 _atom_site_fract_x
 _atom_site_fract_y
 _atom_site_fract_z
 _atom_site_occupancy
  H  H0  1  0.88248016  0.94902012  0.29799052  1
  H  H1  1  0.05097988  0.11751984  0.20200948  1
  H  H2  1  0.11751984  0.05097988  0.70200948  1
  H  H3  1  0.94902012  0.88248016  0.79799052  1
  O  O4  1  0.33733593  0.71918800  0.07783929  1
  O  O5  1  0.28081200  0.66266407  0.42216071  1
  O  O6  1  0.66266407  0.28081200  0.92216071  1
  O  O7  1  0.71918800  0.33733593  0.57783929  1
  O  O8  1  0.76687390  0.66779112  0.34586776  1
  O  O9  1  0.33220888  0.23312610  0.15413224  1
  O  O10  1  0.23312610  0.33220888  0.65413224  1
  O  O11  1  0.66779112  0.76687390  0.84586776  1
  O  O12  1  0.10718320  0.89281680  0.75000000  1
  O  O13  1  0.89281680  0.10718320  0.25000000  1
  Mn  Mn14  1  0.50000000  0.00000000  0.00000000  1
  Mn  Mn15  1  0.00000000  0.50000000  0.50000000  1
  As  As16  1  0.56841220  0.43158780  0.75000000  1
  As  As17  1  0.43158780  0.56841220  0.25000000  1
