# generated using pymatgen
data_NaFe(WO4)2
_symmetry_space_group_name_H-M   'P 1'
_cell_length_a   5.07777907
_cell_length_b   5.82967996
_cell_length_c   10.02599121
_cell_angle_alpha   90.00000000
_cell_angle_beta   90.92063663
_cell_angle_gamma   90.00000000
_symmetry_Int_Tables_number   1
_chemical_formula_structural   NaFe(WO4)2
_chemical_formula_sum   'Na2 Fe2 W4 O16'
_cell_volume   296.74934370
_cell_formula_units_Z   2
loop_
 _symmetry_equiv_pos_site_id
 _symmetry_equiv_pos_as_xyz
  1  'x, y, z'
loop_
 _atom_site_type_symbol
 _atom_site_label
 _atom_site_symmetry_multiplicity
 _atom_site_fract_x
 _atom_site_fract_y
 _atom_site_fract_z
 _atom_site_occupancy
  O  O0  1  0.92261509  0.12481500  0.87488327  1
  O  O1  1  0.57738491  0.12481500  0.12511673  1
  O  O2  1  0.07738491  0.87518500  0.12511673  1
  O  O3  1  0.42261509  0.87518500  0.87488327  1
  O  O4  1  0.55143715  0.09059535  0.67097769  1
  O  O5  1  0.94856285  0.09059535  0.32902231  1
  O  O6  1  0.44856285  0.90940465  0.32902231  1
  O  O7  1  0.05143715  0.90940465  0.67097769  1
  O  O8  1  0.40849945  0.37511651  0.89247212  1
  O  O9  1  0.09150055  0.37511651  0.10752788  1
  O  O10  1  0.59150055  0.62488349  0.10752788  1
  O  O11  1  0.90849945  0.62488349  0.89247212  1
  O  O12  1  0.62145276  0.62328834  0.64592118  1
  O  O13  1  0.87854724  0.62328834  0.35407882  1
  O  O14  1  0.37854724  0.37671166  0.35407882  1
  O  O15  1  0.12145276  0.37671166  0.64592118  1
  Na  Na16  1  0.25000000  0.68774412  0.50000000  1
  Na  Na17  1  0.75000000  0.31225588  0.50000000  1
  Fe  Fe18  1  0.25000000  0.66080654  0.00000000  1
  Fe  Fe19  1  0.75000000  0.33919346  0.00000000  1
  W  W20  1  0.23953428  0.17626734  0.76443966  1
  W  W21  1  0.26046572  0.17626734  0.23556034  1
  W  W22  1  0.76046572  0.82373266  0.23556034  1
  W  W23  1  0.73953428  0.82373266  0.76443966  1
