# generated using pymatgen
data_LiMnPO4F
_symmetry_space_group_name_H-M   'P 1'
_cell_length_a   5.19455100
_cell_length_b   5.33774295
_cell_length_c   7.39582474
_cell_angle_alpha   108.70975129
_cell_angle_beta   104.51477421
_cell_angle_gamma   98.04976603
_symmetry_Int_Tables_number   1
_chemical_formula_structural   LiMnPO4F
_chemical_formula_sum   'Li2 Mn2 P2 O8 F2'
_cell_volume   182.51545613
_cell_formula_units_Z   2
loop_
 _symmetry_equiv_pos_site_id
 _symmetry_equiv_pos_as_xyz
  1  'x, y, z'
loop_
 _atom_site_type_symbol
 _atom_site_label
 _atom_site_symmetry_multiplicity
 _atom_site_fract_x
 _atom_site_fract_y
 _atom_site_fract_z
 _atom_site_occupancy
  Li  Li0  1  0.91876924  0.56967985  0.18909827  1
  Li  Li1  1  0.08123002  0.43032128  0.81090225  1
  O  O2  1  0.35367081  0.31811054  0.65908559  1
  O  O3  1  0.64632796  0.68188854  0.34091300  1
  O  O4  1  0.71853454  0.83747391  0.08293799  1
  O  O5  1  0.63602315  0.17748634  0.38545282  1
  O  O6  1  0.28146670  0.16252720  0.91706291  1
  O  O7  1  0.36397757  0.82251270  0.61454749  1
  O  O8  1  0.75759318  0.21777406  0.88211256  1
  O  O9  1  0.24240608  0.78222707  0.11788796  1
  F  F10  1  0.12248553  0.33972785  0.26392664  1
  F  F11  1  0.87751323  0.66027124  0.73607195  1
  P  P12  1  0.44452444  0.11787659  0.76254007  1
  P  P13  1  0.55547628  0.88212246  0.23746023  1
  Mn  Mn14  1  0.00000000  0.00000000  0.00000000  1
  Mn  Mn15  1  0.50000063  0.50000056  0.49999978  1
