# generated using pymatgen
data_NdNiO3
_symmetry_space_group_name_H-M   'P 1'
_cell_length_a   5.49584938
_cell_length_b   5.43176205
_cell_length_c   7.70942855
_cell_angle_alpha   90.00000000
_cell_angle_beta   90.00000000
_cell_angle_gamma   90.00000000
_symmetry_Int_Tables_number   1
_chemical_formula_structural   NdNiO3
_chemical_formula_sum   'Nd4 Ni4 O12'
_cell_volume   230.14298738
_cell_formula_units_Z   4
loop_
 _symmetry_equiv_pos_site_id
 _symmetry_equiv_pos_as_xyz
  1  'x, y, z'
loop_
 _atom_site_type_symbol
 _atom_site_label
 _atom_site_symmetry_multiplicity
 _atom_site_fract_x
 _atom_site_fract_y
 _atom_site_fract_z
 _atom_site_occupancy
  O  O0  1  0.71244384  0.28621515  0.54299903  1
  O  O1  1  0.21244384  0.21378485  0.95700097  1
  O  O2  1  0.78755616  0.78621515  0.45700097  1
  O  O3  1  0.28755616  0.71378485  0.04299903  1
  O  O4  1  0.28755616  0.71378485  0.45700097  1
  O  O5  1  0.78755616  0.78621515  0.04299903  1
  O  O6  1  0.21244384  0.21378485  0.54299903  1
  O  O7  1  0.71244384  0.28621515  0.95700097  1
  O  O8  1  0.51435063  0.92102102  0.75000000  1
  O  O9  1  0.01435063  0.57897898  0.75000000  1
  O  O10  1  0.98564937  0.42102102  0.25000000  1
  O  O11  1  0.48564937  0.07897898  0.25000000  1
  Ni  Ni12  1  0.00000000  0.50000000  0.50000000  1
  Ni  Ni13  1  0.50000000  0.00000000  0.00000000  1
  Ni  Ni14  1  0.50000000  0.00000000  0.50000000  1
  Ni  Ni15  1  0.00000000  0.50000000  0.00000000  1
  Nd  Nd16  1  0.04745043  0.98904456  0.25000000  1
  Nd  Nd17  1  0.54745043  0.51095544  0.25000000  1
  Nd  Nd18  1  0.45254957  0.48904456  0.75000000  1
  Nd  Nd19  1  0.95254957  0.01095544  0.75000000  1
