# generated using pymatgen
data_KVBP2HO9
_symmetry_space_group_name_H-M   'P 1'
_cell_length_a   5.24817783
_cell_length_b   8.20210903
_cell_length_c   8.50016514
_cell_angle_alpha   87.08558965
_cell_angle_beta   80.39407100
_cell_angle_gamma   86.28899747
_symmetry_Int_Tables_number   1
_chemical_formula_structural   KVBP2HO9
_chemical_formula_sum   'K2 V2 B2 P4 H2 O18'
_cell_volume   359.71409544
_cell_formula_units_Z   2
loop_
 _symmetry_equiv_pos_site_id
 _symmetry_equiv_pos_as_xyz
  1  'x, y, z'
loop_
 _atom_site_type_symbol
 _atom_site_label
 _atom_site_symmetry_multiplicity
 _atom_site_fract_x
 _atom_site_fract_y
 _atom_site_fract_z
 _atom_site_occupancy
  H  H0  1  0.52962195  0.83172972  0.49476137  1
  H  H1  1  0.47037880  0.16826975  0.50523832  1
  B  B2  1  0.87612179  0.73403121  0.55394621  1
  B  B3  1  0.12387885  0.26596948  0.44605342  1
  O  O4  1  0.44646245  0.64319058  0.20653694  1
  O  O5  1  0.70700994  0.80714915  0.44259354  1
  O  O6  1  0.94203735  0.85267419  0.66143720  1
  O  O7  1  0.05796136  0.14732651  0.33856382  1
  O  O8  1  0.75686887  0.80327054  0.95053485  1
  O  O9  1  0.24312983  0.19673015  0.04946498  1
  O  O10  1  0.29299082  0.19285032  0.55740733  1
  O  O11  1  0.55353625  0.35681012  0.79346289  1
  O  O12  1  0.02693634  0.40739546  0.79255558  1
  O  O13  1  0.97306441  0.59260401  0.20744411  1
  O  O14  1  0.26808125  0.39843101  0.34961182  1
  O  O15  1  0.51247969  0.99582734  0.77951323  1
  O  O16  1  0.12484850  0.67600925  0.46220987  1
  O  O17  1  0.87515214  0.32399144  0.53778977  1
  O  O18  1  0.05769249  0.92418062  0.15226330  1
  O  O19  1  0.94230815  0.07582008  0.84773752  1
  O  O20  1  0.48752106  0.00417213  0.22048646  1
  O  O21  1  0.73191950  0.60156846  0.65038787  1
  P  P22  1  0.78372641  0.93594843  0.81376385  1
  P  P23  1  0.21627434  0.06405104  0.18623584  1
  P  P24  1  0.19807955  0.58117077  0.30375596  1
  P  P25  1  0.80192109  0.41882993  0.69624485  1
  K  K26  1  0.27879891  0.67433249  0.88861534  1
  K  K27  1  0.72120184  0.32566698  0.11138435  1
  V  V28  1  0.26691876  0.19633579  0.80601021  1
  V  V29  1  0.73308005  0.80366368  0.19398968  1
