# generated using pymatgen
data_VSO5
_symmetry_space_group_name_H-M   'P 1'
_cell_length_a   6.39499009
_cell_length_b   7.40551694
_cell_length_c   7.25939070
_cell_angle_alpha   90.00000000
_cell_angle_beta   90.00000000
_cell_angle_gamma   90.00000000
_symmetry_Int_Tables_number   1
_chemical_formula_structural   VSO5
_chemical_formula_sum   'V4 S4 O20'
_cell_volume   343.79173068
_cell_formula_units_Z   4
loop_
 _symmetry_equiv_pos_site_id
 _symmetry_equiv_pos_as_xyz
  1  'x, y, z'
loop_
 _atom_site_type_symbol
 _atom_site_label
 _atom_site_symmetry_multiplicity
 _atom_site_fract_x
 _atom_site_fract_y
 _atom_site_fract_z
 _atom_site_occupancy
  O  O0  1  0.75000073  0.00563549  0.70917504  1
  O  O1  1  0.25000077  0.99436444  0.29082590  1
  O  O2  1  0.25000077  0.50563546  0.79082569  1
  O  O3  1  0.75000073  0.49436447  0.20917389  1
  O  O4  1  0.75000073  0.01759186  0.04737522  1
  O  O5  1  0.25000077  0.98240807  0.95262436  1
  O  O6  1  0.25000077  0.51759320  0.45262457  1
  O  O7  1  0.75000073  0.48240811  0.54737636  1
  O  O8  1  0.56618142  0.25358382  0.37155768  1
  O  O9  1  0.06618146  0.74641612  0.62844326  1
  O  O10  1  0.43381850  0.75358378  0.12844347  1
  O  O11  1  0.93382004  0.24641615  0.87155747  1
  O  O12  1  0.43381850  0.74641612  0.62844326  1
  O  O13  1  0.93382004  0.25358382  0.37155768  1
  O  O14  1  0.25000077  0.18433728  0.61855087  1
  O  O15  1  0.06618146  0.75358378  0.12844347  1
  O  O16  1  0.25000077  0.31566269  0.11855108  1
  O  O17  1  0.75000073  0.68433725  0.88144850  1
  O  O18  1  0.75000073  0.81566265  0.38144871  1
  O  O19  1  0.56618142  0.24641615  0.87155747  1
  S  S20  1  0.75000073  0.12474207  0.87345873  1
  S  S21  1  0.25000077  0.87525787  0.12654221  1
  S  S22  1  0.25000077  0.62474341  0.62654200  1
  S  S23  1  0.75000073  0.37525790  0.37345894  1
  V  V24  1  0.25000077  0.23366111  0.84452839  1
  V  V25  1  0.75000073  0.76633883  0.15547119  1
  V  V26  1  0.75000073  0.73366107  0.65547098  1
  V  V27  1  0.25000077  0.26633886  0.34452860  1
