# generated using pymatgen
data_Fe3(OF2)2
_symmetry_space_group_name_H-M   'P 1'
_cell_length_a   4.75339961
_cell_length_b   7.92838041
_cell_length_c   5.72249561
_cell_angle_alpha   93.88185173
_cell_angle_beta   90.70071148
_cell_angle_gamma   90.33806255
_symmetry_Int_Tables_number   1
_chemical_formula_structural   Fe3(OF2)2
_chemical_formula_sum   'Fe6 O4 F8'
_cell_volume   215.14655857
_cell_formula_units_Z   2
loop_
 _symmetry_equiv_pos_site_id
 _symmetry_equiv_pos_as_xyz
  1  'x, y, z'
loop_
 _atom_site_type_symbol
 _atom_site_label
 _atom_site_symmetry_multiplicity
 _atom_site_fract_x
 _atom_site_fract_y
 _atom_site_fract_z
 _atom_site_occupancy
  Fe  Fe0  1  0.54883447  0.64649038  0.16297544  1
  Fe  Fe1  1  0.45116553  0.02017662  0.50369156  1
  Fe  Fe2  1  0.50000000  0.33333300  0.83333300  1
  Fe  Fe3  1  0.00212900  0.69049132  0.68656760  1
  Fe  Fe4  1  0.00000000  0.33333300  0.33333300  1
  Fe  Fe5  1  0.99787100  0.97617568  0.98009940  1
  O  O6  1  0.79092519  0.76274077  0.96975187  1
  O  O7  1  0.70653986  0.42678019  0.14548116  1
  O  O8  1  0.29346014  0.23988581  0.52118484  1
  O  O9  1  0.20907481  0.90392623  0.69691513  1
  F  F10  1  0.81505080  0.44424155  0.62767781  1
  F  F11  1  0.79789581  0.09544193  0.29869983  1
  F  F12  1  0.70780865  0.09646691  0.78212365  1
  F  F13  1  0.69196815  0.76846389  0.46142774  1
  F  F14  1  0.29219135  0.57020009  0.88454335  1
  F  F15  1  0.30803185  0.89820311  0.20523826  1
  F  F16  1  0.18494920  0.22242445  0.03898819  1
  F  F17  1  0.20210419  0.57122507  0.36796617  1
