# generated using pymatgen
data_MgMoH2O5
_symmetry_space_group_name_H-M   'P 1'
_cell_length_a   5.75804080
_cell_length_b   5.89150286
_cell_length_c   7.01486988
_cell_angle_alpha   100.44838488
_cell_angle_beta   94.67159369
_cell_angle_gamma   106.52653864
_symmetry_Int_Tables_number   1
_chemical_formula_structural   MgMoH2O5
_chemical_formula_sum   'Mg2 Mo2 H4 O10'
_cell_volume   222.11054537
_cell_formula_units_Z   2
loop_
 _symmetry_equiv_pos_site_id
 _symmetry_equiv_pos_as_xyz
  1  'x, y, z'
loop_
 _atom_site_type_symbol
 _atom_site_label
 _atom_site_symmetry_multiplicity
 _atom_site_fract_x
 _atom_site_fract_y
 _atom_site_fract_z
 _atom_site_occupancy
  H  H0  1  0.06981216  0.59284087  0.18860496  1
  H  H1  1  0.93018784  0.40715913  0.81139504  1
  H  H2  1  0.86994524  0.34955817  0.20010120  1
  H  H3  1  0.13005476  0.65044183  0.79989880  1
  O  O4  1  0.37807403  0.35981203  0.12203866  1
  O  O5  1  0.62192597  0.64018797  0.87796134  1
  O  O6  1  0.35681611  0.86316451  0.17354205  1
  O  O7  1  0.64318389  0.13683549  0.82645795  1
  O  O8  1  0.35945139  0.23377574  0.50630729  1
  O  O9  1  0.64054861  0.76622426  0.49369271  1
  O  O10  1  0.92491194  0.02903462  0.21252174  1
  O  O11  1  0.07508806  0.97096538  0.78747826  1
  O  O12  1  0.09668853  0.47421735  0.78143680  1
  O  O13  1  0.90331147  0.52578265  0.21856320  1
  Mg  Mg14  1  0.63942591  0.70729011  0.19470103  1
  Mg  Mg15  1  0.36057409  0.29270989  0.80529897  1
  Mo  Mo16  1  0.74460043  0.87923423  0.74611199  1
  Mo  Mo17  1  0.25539957  0.12076577  0.25388801  1
