# generated using pymatgen
data_NiSnH12(OF)6
_symmetry_space_group_name_H-M   'P 1'
_cell_length_a   6.57655505
_cell_length_b   6.57655504
_cell_length_c   6.57655504
_cell_angle_alpha   96.26503940
_cell_angle_beta   96.26503935
_cell_angle_gamma   96.26503942
_symmetry_Int_Tables_number   1
_chemical_formula_structural   NiSnH12(OF)6
_chemical_formula_sum   'Ni1 Sn1 H12 O6 F6'
_cell_volume   278.93907641
_cell_formula_units_Z   1
loop_
 _symmetry_equiv_pos_site_id
 _symmetry_equiv_pos_as_xyz
  1  'x, y, z'
loop_
 _atom_site_type_symbol
 _atom_site_label
 _atom_site_symmetry_multiplicity
 _atom_site_fract_x
 _atom_site_fract_y
 _atom_site_fract_z
 _atom_site_occupancy
  H  H0  1  0.68025632  0.89772767  0.55058651  1
  H  H1  1  0.89772767  0.55058651  0.68025632  1
  H  H2  1  0.55058651  0.68025632  0.89772767  1
  H  H3  1  0.31974368  0.10227233  0.44941349  1
  H  H4  1  0.10227233  0.44941349  0.31974368  1
  H  H5  1  0.44941349  0.31974368  0.10227233  1
  H  H6  1  0.66714886  0.80510611  0.31472617  1
  H  H7  1  0.80510611  0.31472617  0.66714886  1
  H  H8  1  0.33285114  0.19489389  0.68527383  1
  H  H9  1  0.19489389  0.68527383  0.33285114  1
  H  H10  1  0.68527383  0.33285114  0.19489389  1
  H  H11  1  0.31472617  0.66714886  0.80510611  1
  O  O12  1  0.79468276  0.44208933  0.60284141  1
  O  O13  1  0.60284141  0.79468276  0.44208933  1
  O  O14  1  0.39715859  0.20531724  0.55791067  1
  O  O15  1  0.20531724  0.55791067  0.39715859  1
  O  O16  1  0.55791067  0.39715859  0.20531724  1
  O  O17  1  0.44208933  0.60284141  0.79468276  1
  F  F18  1  0.83357764  0.07100549  0.74875992  1
  F  F19  1  0.07100549  0.74875992  0.83357764  1
  F  F20  1  0.74875992  0.83357764  0.07100549  1
  F  F21  1  0.16642236  0.92899451  0.25124008  1
  F  F22  1  0.92899451  0.25124008  0.16642236  1
  F  F23  1  0.25124008  0.16642236  0.92899451  1
  Ni  Ni24  1  0.50000000  0.50000000  0.50000000  1
  Sn  Sn25  1  0.00000000  0.00000000  0.00000000  1
