# generated using pymatgen
data_VH12(ClO2)3
_symmetry_space_group_name_H-M   'P 1'
_cell_length_a   6.42495457
_cell_length_b   6.55037300
_cell_length_c   11.99774636
_cell_angle_alpha   98.79343448
_cell_angle_beta   90.00000000
_cell_angle_gamma   90.00000000
_symmetry_Int_Tables_number   1
_chemical_formula_structural   VH12(ClO2)3
_chemical_formula_sum   'V2 H24 Cl6 O12'
_cell_volume   499.00028372
_cell_formula_units_Z   2
loop_
 _symmetry_equiv_pos_site_id
 _symmetry_equiv_pos_as_xyz
  1  'x, y, z'
loop_
 _atom_site_type_symbol
 _atom_site_label
 _atom_site_symmetry_multiplicity
 _atom_site_fract_x
 _atom_site_fract_y
 _atom_site_fract_z
 _atom_site_occupancy
  H  H0  1  0.34456057  0.78452712  0.04690595  1
  H  H1  1  0.84456057  0.21547288  0.45309405  1
  H  H2  1  0.65543943  0.21547288  0.95309405  1
  H  H3  1  0.15543943  0.78452712  0.54690595  1
  H  H4  1  0.36622124  0.01906736  0.11859268  1
  H  H5  1  0.86622124  0.98093264  0.38140732  1
  H  H6  1  0.63377876  0.98093264  0.88140732  1
  H  H7  1  0.13377876  0.01906736  0.61859268  1
  H  H8  1  0.90372198  0.79011973  0.16933269  1
  H  H9  1  0.40372198  0.20988027  0.33066731  1
  H  H10  1  0.09627802  0.20988027  0.83066731  1
  H  H11  1  0.59627802  0.79011973  0.66933269  1
  H  H12  1  0.76321229  0.68821859  0.06064370  1
  H  H13  1  0.26321229  0.31178141  0.43935630  1
  H  H14  1  0.23678771  0.31178141  0.93935630  1
  H  H15  1  0.73678771  0.68821859  0.56064370  1
  H  H16  1  0.95009506  0.66312821  0.32844625  1
  H  H17  1  0.45009506  0.33687179  0.17155375  1
  H  H18  1  0.04990494  0.33687179  0.67155375  1
  H  H19  1  0.54990494  0.66312821  0.82844625  1
  H  H20  1  0.14589779  0.78919689  0.30525731  1
  H  H21  1  0.64589779  0.21080311  0.19474269  1
  H  H22  1  0.85410221  0.21080311  0.69474269  1
  H  H23  1  0.35410221  0.78919689  0.80525731  1
  O  O24  1  0.85234259  0.80674710  0.09183100  1
  O  O25  1  0.50867344  0.78874037  0.79842620  1
  O  O26  1  0.00867344  0.21125963  0.70157380  1
  O  O27  1  0.49132656  0.21125963  0.20157380  1
  O  O28  1  0.99132656  0.78874037  0.29842620  1
  O  O29  1  0.64765741  0.80674710  0.59183100  1
  O  O30  1  0.27665194  0.92155381  0.06628799  1
  O  O31  1  0.77665194  0.07844619  0.43371201  1
  O  O32  1  0.72334806  0.07844619  0.93371201  1
  O  O33  1  0.22334806  0.92155381  0.56628799  1
  O  O34  1  0.35234259  0.19325290  0.40816900  1
  O  O35  1  0.14765741  0.19325290  0.90816900  1
  Cl  Cl36  1  0.96611141  0.27218217  0.15776059  1
  Cl  Cl37  1  0.00000000  0.50000000  0.50000000  1
  Cl  Cl38  1  0.50000000  0.50000000  0.00000000  1
  Cl  Cl39  1  0.53388859  0.27218217  0.65776059  1
  Cl  Cl40  1  0.03388859  0.72781783  0.84223941  1
  Cl  Cl41  1  0.46611141  0.72781783  0.34223941  1
  V  V42  1  0.00000000  0.00000000  0.00000000  1
  V  V43  1  0.50000000  0.00000000  0.50000000  1
