# generated using pymatgen
data_LiVPO4F
_symmetry_space_group_name_H-M   'P 1'
_cell_length_a   5.24954213
_cell_length_b   5.40648864
_cell_length_c   7.40927383
_cell_angle_alpha   108.13029011
_cell_angle_beta   107.76628439
_cell_angle_gamma   97.93731871
_symmetry_Int_Tables_number   1
_chemical_formula_structural   LiVPO4F
_chemical_formula_sum   'Li2 V2 P2 O8 F2'
_cell_volume   183.89808214
_cell_formula_units_Z   2
loop_
 _symmetry_equiv_pos_site_id
 _symmetry_equiv_pos_as_xyz
  1  'x, y, z'
loop_
 _atom_site_type_symbol
 _atom_site_label
 _atom_site_symmetry_multiplicity
 _atom_site_fract_x
 _atom_site_fract_y
 _atom_site_fract_z
 _atom_site_occupancy
  Li  Li0  1  0.27935397  0.62160193  0.77098832  1
  Li  Li1  1  0.72064603  0.37839807  0.22901168  1
  V  V2  1  -0.00000000  -0.00000000  0.00000000  1
  V  V3  1  -0.00000000  -0.00000000  0.50000000  1
  P  P4  1  0.67828674  0.35486812  0.75351957  1
  P  P5  1  0.32171326  0.64513188  0.24648043  1
  O  O6  1  0.62336456  0.75867626  0.40236039  1
  O  O7  1  0.37663544  0.24132374  0.59763961  1
  O  O8  1  0.88855956  0.32875061  0.64351248  1
  O  O9  1  0.11144044  0.67124939  0.35648752  1
  O  O10  1  0.30544124  0.34241485  0.13788707  1
  O  O11  1  0.69455876  0.65758515  0.86211293  1
  O  O12  1  0.73649995  0.21924228  0.91287988  1
  O  O13  1  0.26350005  0.78075772  0.08712012  1
  F  F14  1  0.11253929  0.90952784  0.75318654  1
  F  F15  1  0.88746071  0.09047216  0.24681346  1
