# generated using pymatgen
data_CoBiPO5
_symmetry_space_group_name_H-M   'P 1'
_cell_length_a   5.30406970
_cell_length_b   7.37854834
_cell_length_c   11.41856772
_cell_angle_alpha   90.00000000
_cell_angle_beta   90.00000000
_cell_angle_gamma   107.94498693
_symmetry_Int_Tables_number   1
_chemical_formula_structural   CoBiPO5
_chemical_formula_sum   'Co4 Bi4 P4 O20'
_cell_volume   425.14137647
_cell_formula_units_Z   4
loop_
 _symmetry_equiv_pos_site_id
 _symmetry_equiv_pos_as_xyz
  1  'x, y, z'
loop_
 _atom_site_type_symbol
 _atom_site_label
 _atom_site_symmetry_multiplicity
 _atom_site_fract_x
 _atom_site_fract_y
 _atom_site_fract_z
 _atom_site_occupancy
  O  O0  1  0.98833317  0.12068690  0.32644372  1
  O  O1  1  0.51166683  0.37931310  0.82644372  1
  O  O2  1  0.01166683  0.87931310  0.67355628  1
  O  O3  1  0.48833317  0.62068690  0.17355628  1
  O  O4  1  0.74332138  0.98616916  0.02216556  1
  O  O5  1  0.75667862  0.51383084  0.52216556  1
  O  O6  1  0.25667862  0.01383084  0.97783444  1
  O  O7  1  0.24332138  0.48616916  0.47783444  1
  O  O8  1  0.59689913  0.33762736  0.08279365  1
  O  O9  1  0.90310087  0.16237264  0.58279365  1
  O  O10  1  0.40310087  0.66237264  0.91720635  1
  O  O11  1  0.09689913  0.83762736  0.41720635  1
  O  O12  1  0.05386852  0.33859634  0.91936575  1
  O  O13  1  0.44613148  0.16140366  0.41936575  1
  O  O14  1  0.94613148  0.66140366  0.08063425  1
  O  O15  1  0.55386852  0.83859634  0.58063425  1
  O  O16  1  0.30385185  0.99130831  0.22354284  1
  O  O17  1  0.19614815  0.50869169  0.72354284  1
  O  O18  1  0.69614815  0.00869169  0.77645716  1
  O  O19  1  0.80385185  0.49130831  0.27645716  1
  P  P20  1  0.71178580  0.52727739  0.15131889  1
  P  P21  1  0.78821420  0.97272261  0.65131889  1
  P  P22  1  0.28821420  0.47272261  0.84868111  1
  P  P23  1  0.21178580  0.02727739  0.34868111  1
  Co  Co24  1  0.87429279  0.31743886  0.41805023  1
  Co  Co25  1  0.62570721  0.18256114  0.91805023  1
  Co  Co26  1  0.12570721  0.68256114  0.58194977  1
  Co  Co27  1  0.37429279  0.81743886  0.08194977  1
  Bi  Bi28  1  0.61795667  0.68946687  0.39978117  1
  Bi  Bi29  1  0.88204333  0.81053313  0.89978117  1
  Bi  Bi30  1  0.38204333  0.31053313  0.60021883  1
  Bi  Bi31  1  0.11795667  0.18946687  0.10021883  1
