# generated using pymatgen
data_Rb2CoH8(CO5)2
_symmetry_space_group_name_H-M   'P 1'
_cell_length_a   6.48362613
_cell_length_b   7.17916354
_cell_length_c   11.40647353
_cell_angle_alpha   99.45204022
_cell_angle_beta   90.00000000
_cell_angle_gamma   90.00000000
_symmetry_Int_Tables_number   1
_chemical_formula_structural   Rb2CoH8(CO5)2
_chemical_formula_sum   'Rb4 Co2 H16 C4 O20'
_cell_volume   523.72894603
_cell_formula_units_Z   2
loop_
 _symmetry_equiv_pos_site_id
 _symmetry_equiv_pos_as_xyz
  1  'x, y, z'
loop_
 _atom_site_type_symbol
 _atom_site_label
 _atom_site_symmetry_multiplicity
 _atom_site_fract_x
 _atom_site_fract_y
 _atom_site_fract_z
 _atom_site_occupancy
  H  H0  1  0.33808277  0.82959053  0.62993557  1
  H  H1  1  0.83808194  0.67041008  0.87006446  1
  H  H2  1  0.66191711  0.17040943  0.37006498  1
  H  H3  1  0.16191795  0.32958985  0.12993521  1
  H  H4  1  0.20162656  0.71629063  0.51700482  1
  H  H5  1  0.70162727  0.78370998  0.98299521  1
  H  H6  1  0.79837333  0.28370930  0.48299485  1
  H  H7  1  0.29837261  0.21628998  0.01700535  1
  H  H8  1  0.17524197  0.29462759  0.58414970  1
  H  H9  1  0.11966374  0.69388587  0.11862303  1
  H  H10  1  0.82475791  0.70537233  0.41584998  1
  H  H11  1  0.32475874  0.79462738  0.08414977  1
  H  H12  1  0.38033542  0.19388470  0.61862368  1
  H  H13  1  0.88033614  0.30611406  0.88137664  1
  H  H14  1  0.61966446  0.80611525  0.38137687  1
  H  H15  1  0.67524114  0.20537255  0.91584990  1
  C  C16  1  0.34182837  0.06906660  0.82015400  1
  C  C17  1  0.84182754  0.43093356  0.67984649  1
  C  C18  1  0.15817234  0.56906639  0.32015407  1
  C  C19  1  0.65817151  0.93093335  0.17984656  1
  O  O20  1  0.17395359  0.77832361  0.06429700  1
  O  O21  1  0.67395430  0.72167613  0.43570362  1
  O  O22  1  0.82604630  0.22167634  0.93570355  1
  O  O23  1  0.32604558  0.27832383  0.56429693  1
  O  O24  1  0.21132968  0.20174343  0.08964010  1
  O  O25  1  0.71133040  0.29825723  0.41035938  1
  O  O26  1  0.31013500  0.46815295  0.34932694  1
  O  O27  1  0.81013572  0.03184773  0.15067341  1
  O  O28  1  0.68986488  0.53184698  0.65067273  1
  O  O29  1  0.18986572  0.96815222  0.84932714  1
  O  O30  1  0.08190106  0.53211520  0.21334040  1
  O  O31  1  0.58190022  0.96788454  0.28666022  1
  O  O32  1  0.91809883  0.46788475  0.78666015  1
  O  O33  1  0.78867020  0.79825650  0.91035957  1
  O  O34  1  0.08067664  0.70667156  0.39682954  1
  O  O35  1  0.58067736  0.79332816  0.10317020  1
  O  O36  1  0.91932324  0.29332837  0.60317013  1
  O  O37  1  0.41932252  0.20667177  0.89682947  1
  O  O38  1  0.28866948  0.70174411  0.58964046  1
  O  O39  1  0.41809966  0.03211542  0.71334033  1
  Co  Co40  1  0.50000072  0.50000068  0.50000036  1
  Co  Co41  1  0.00000000  0.00000000  0.00000000  1
  Rb  Rb42  1  0.34595920  0.57692225  0.82326022  1
  Rb  Rb43  1  0.84595837  0.92307695  0.67673965  1
  Rb  Rb44  1  0.65404068  0.42307768  0.17673945  1
  Rb  Rb45  1  0.15404152  0.07692300  0.32326091  1
