# generated using pymatgen
data_K2VH2OF5
_symmetry_space_group_name_H-M   'P 1'
_cell_length_a   6.36781453
_cell_length_b   6.36781452
_cell_length_c   8.03733416
_cell_angle_alpha   85.66695733
_cell_angle_beta   85.66695736
_cell_angle_gamma   77.58254815
_symmetry_Int_Tables_number   1
_chemical_formula_structural   K2VH2OF5
_chemical_formula_sum   'K4 V2 H4 O2 F10'
_cell_volume   316.78351569
_cell_formula_units_Z   2
loop_
 _symmetry_equiv_pos_site_id
 _symmetry_equiv_pos_as_xyz
  1  'x, y, z'
loop_
 _atom_site_type_symbol
 _atom_site_label
 _atom_site_symmetry_multiplicity
 _atom_site_fract_x
 _atom_site_fract_y
 _atom_site_fract_z
 _atom_site_occupancy
  H  H0  1  0.09911343  0.85103093  0.15211759  1
  H  H1  1  0.14896907  0.90088657  0.34788241  1
  H  H2  1  0.90088657  0.14896907  0.84788241  1
  H  H3  1  0.85103093  0.09911343  0.65211759  1
  O  O4  1  0.05492513  0.94507487  0.25000000  1
  O  O5  1  0.94507487  0.05492513  0.75000000  1
  F  F6  1  0.44550688  0.55449312  0.75000000  1
  F  F7  1  0.55449312  0.44550688  0.25000000  1
  F  F8  1  0.38458843  0.99003617  0.80726665  1
  F  F9  1  0.00996383  0.61541157  0.69273335  1
  F  F10  1  0.61541157  0.00996383  0.19273335  1
  F  F11  1  0.99003617  0.38458843  0.30726665  1
  F  F12  1  0.27420649  0.86668257  0.50530825  1
  F  F13  1  0.13331743  0.72579351  0.99469175  1
  F  F14  1  0.72579351  0.13331743  0.49469175  1
  F  F15  1  0.86668257  0.27420649  0.00530825  1
  K  K16  1  0.29783492  0.29792210  0.03290025  1
  K  K17  1  0.70207790  0.70216508  0.46709975  1
  K  K18  1  0.70216508  0.70207790  0.96709975  1
  K  K19  1  0.29792210  0.29783492  0.53290025  1
  V  V20  1  0.79910208  0.20089792  0.25000000  1
  V  V21  1  0.20089792  0.79910208  0.75000000  1
