# generated using pymatgen
data_K2CoH8(CO5)2
_symmetry_space_group_name_H-M   'P 1'
_cell_length_a   6.31692063
_cell_length_b   6.93099797
_cell_length_c   11.39871797
_cell_angle_alpha   99.41099454
_cell_angle_beta   90.00000000
_cell_angle_gamma   90.00000000
_symmetry_Int_Tables_number   1
_chemical_formula_structural   K2CoH8(CO5)2
_chemical_formula_sum   'K4 Co2 H16 C4 O20'
_cell_volume   492.34808418
_cell_formula_units_Z   2
loop_
 _symmetry_equiv_pos_site_id
 _symmetry_equiv_pos_as_xyz
  1  'x, y, z'
loop_
 _atom_site_type_symbol
 _atom_site_label
 _atom_site_symmetry_multiplicity
 _atom_site_fract_x
 _atom_site_fract_y
 _atom_site_fract_z
 _atom_site_occupancy
  H  H0  1  0.32545642  0.77785033  0.07822093  1
  H  H1  1  0.82545571  0.72214832  0.42177936  1
  H  H2  1  0.67454373  0.22214845  0.92177947  1
  H  H3  1  0.17454445  0.27785046  0.57822016  1
  H  H4  1  0.10983730  0.68293974  0.11105517  1
  H  H5  1  0.60983818  0.81706037  0.38894439  1
  H  H6  1  0.30273985  0.22579176  0.01653785  1
  H  H7  1  0.80274072  0.27420909  0.48346161  1
  H  H8  1  0.69725872  0.77420848  0.98346181  1
  H  H9  1  0.19725944  0.72579115  0.51653805  1
  H  H10  1  0.16360941  0.33231102  0.13227722  1
  H  H11  1  0.66360869  0.16768984  0.36772312  1
  H  H12  1  0.83639074  0.66768923  0.86772245  1
  H  H13  1  0.33639146  0.83231041  0.63227742  1
  H  H14  1  0.89016285  0.31705904  0.88894435  1
  H  H15  1  0.39016198  0.18293987  0.61105528  1
  C  C16  1  0.34591408  0.07671648  0.81901889  1
  C  C17  1  0.15408679  0.57671635  0.31901878  1
  C  C18  1  0.65408607  0.92328376  0.18098078  1
  C  C19  1  0.84591336  0.42328390  0.68098089  1
  O  O20  1  0.82745422  0.23857936  0.94638698  1
  O  O21  1  0.41685028  0.22528895  0.89423650  1
  O  O22  1  0.27681089  0.70343919  0.59116308  1
  O  O23  1  0.06670594  0.53276304  0.21479579  1
  O  O24  1  0.72318926  0.29656106  0.40883658  1
  O  O25  1  0.22318839  0.20343833  0.09116361  1
  O  O26  1  0.32745494  0.26142102  0.55361280  1
  O  O27  1  0.91684957  0.27471143  0.60576415  1
  O  O28  1  0.67254521  0.73857922  0.44638687  1
  O  O29  1  0.17254593  0.76142089  0.05361269  1
  O  O30  1  0.18976857  0.97126913  0.84707730  1
  O  O31  1  0.68976785  0.52873051  0.65292257  1
  O  O32  1  0.81023158  0.02873112  0.15292237  1
  O  O33  1  0.31023230  0.47126974  0.34707710  1
  O  O34  1  0.93329422  0.46723720  0.78520388  1
  O  O35  1  0.56670522  0.96723707  0.28520377  1
  O  O36  1  0.08315059  0.72528881  0.39423639  1
  O  O37  1  0.43329494  0.03276318  0.71479590  1
  O  O38  1  0.58314987  0.77471130  0.10576404  1
  O  O39  1  0.77681017  0.79656191  0.90883693  1
  K  K40  1  0.34545793  0.58366412  0.81633458  1
  K  K41  1  0.84545721  0.91633698  0.68366543  1
  K  K42  1  0.65454222  0.41633613  0.18366509  1
  K  K43  1  0.15454294  0.08366327  0.31633511  1
  Co  Co44  1  0.00000000  0.00000000  0.00000000  1
  Co  Co45  1  0.49999928  0.49999939  0.50000020  1
