# generated using pymatgen
data_LaCrHO5
_symmetry_space_group_name_H-M   'P 1'
_cell_length_a   4.78338947
_cell_length_b   7.10527150
_cell_length_c   13.28796678
_cell_angle_alpha   90.00000000
_cell_angle_beta   90.00000000
_cell_angle_gamma   107.34395405
_symmetry_Int_Tables_number   1
_chemical_formula_structural   LaCrHO5
_chemical_formula_sum   'La4 Cr4 H4 O20'
_cell_volume   431.08769213
_cell_formula_units_Z   4
loop_
 _symmetry_equiv_pos_site_id
 _symmetry_equiv_pos_as_xyz
  1  'x, y, z'
loop_
 _atom_site_type_symbol
 _atom_site_label
 _atom_site_symmetry_multiplicity
 _atom_site_fract_x
 _atom_site_fract_y
 _atom_site_fract_z
 _atom_site_occupancy
  H  H0  1  0.27895157  0.00133268  0.85235281  1
  H  H1  1  0.22104843  0.49866732  0.35235281  1
  H  H2  1  0.72104843  0.99866732  0.14764719  1
  H  H3  1  0.77895157  0.50133268  0.64764719  1
  O  O4  1  0.32336208  0.05287822  0.92071916  1
  O  O5  1  0.17663792  0.44712178  0.42071916  1
  O  O6  1  0.67663792  0.94712178  0.07928084  1
  O  O7  1  0.82336208  0.55287822  0.57928084  1
  O  O8  1  0.23334732  0.55332137  0.92999210  1
  O  O9  1  0.26665268  0.94667863  0.42999210  1
  O  O10  1  0.76665268  0.44667863  0.07000790  1
  O  O11  1  0.73334732  0.05332137  0.57000790  1
  O  O12  1  0.43508067  0.67893072  0.73860131  1
  O  O13  1  0.06491933  0.82106928  0.23860131  1
  O  O14  1  0.56491933  0.32106928  0.26139869  1
  O  O15  1  0.93508067  0.17893072  0.76139869  1
  O  O16  1  0.65742422  0.43066259  0.83965012  1
  O  O17  1  0.84257578  0.06933741  0.33965012  1
  O  O18  1  0.34257578  0.56933741  0.16034988  1
  O  O19  1  0.15742422  0.93066259  0.66034988  1
  O  O20  1  0.78050007  0.80729806  0.90296226  1
  O  O21  1  0.71949993  0.69270194  0.40296226  1
  O  O22  1  0.21949993  0.19270194  0.09703774  1
  O  O23  1  0.28050007  0.30729806  0.59703774  1
  Cr  Cr24  1  0.02754747  0.11802248  0.64880408  1
  Cr  Cr25  1  0.47245253  0.38197752  0.14880408  1
  Cr  Cr26  1  0.97245253  0.88197752  0.35119592  1
  Cr  Cr27  1  0.52754747  0.61802248  0.85119592  1
  La  La28  1  0.86474017  0.20081050  0.94323198  1
  La  La29  1  0.63525983  0.29918950  0.44323198  1
  La  La30  1  0.13525983  0.79918950  0.05676802  1
  La  La31  1  0.36474017  0.70081050  0.55676802  1
