# generated using pymatgen
data_PWO4F
_symmetry_space_group_name_H-M   'P 1'
_cell_length_a   5.38506819
_cell_length_b   5.38158661
_cell_length_c   7.72598663
_cell_angle_alpha   109.04388743
_cell_angle_beta   106.32328627
_cell_angle_gamma   94.97538706
_symmetry_Int_Tables_number   1
_chemical_formula_structural   PWO4F
_chemical_formula_sum   'P2 W2 O8 F2'
_cell_volume   199.14728544
_cell_formula_units_Z   2
loop_
 _symmetry_equiv_pos_site_id
 _symmetry_equiv_pos_as_xyz
  1  'x, y, z'
loop_
 _atom_site_type_symbol
 _atom_site_label
 _atom_site_symmetry_multiplicity
 _atom_site_fract_x
 _atom_site_fract_y
 _atom_site_fract_z
 _atom_site_occupancy
  O  O0  1  0.27832417  0.81357956  0.11566981  1
  O  O1  1  0.73960201  0.84430405  0.10083184  1
  O  O2  1  0.65355485  0.17878817  0.38449330  1
  O  O3  1  0.63563651  0.69581957  0.34976622  1
  O  O4  1  0.26039799  0.15569595  0.89916816  1
  O  O5  1  0.34644515  0.82121183  0.61550670  1
  O  O6  1  0.36436349  0.30418043  0.65023378  1
  O  O7  1  0.72167583  0.18642044  0.88433019  1
  F  F8  1  0.14669111  0.32890066  0.26479931  1
  F  F9  1  0.85330889  0.67109934  0.73520069  1
  P  P10  1  0.42513700  0.11495989  0.76196543  1
  P  P11  1  0.57486300  0.88504011  0.23803457  1
  W  W12  1  0.00000000  0.00000000  0.00000000  1
  W  W13  1  0.50000000  0.50000000  0.50000000  1
