# generated using pymatgen
data_NaIn(WO4)2
_symmetry_space_group_name_H-M   'P 1'
_cell_length_a   5.16626505
_cell_length_b   5.92968750
_cell_length_c   10.24600107
_cell_angle_alpha   90.00000000
_cell_angle_beta   91.54411408
_cell_angle_gamma   90.00000000
_symmetry_Int_Tables_number   1
_chemical_formula_structural   NaIn(WO4)2
_chemical_formula_sum   'Na2 In2 W4 O16'
_cell_volume   313.76547473
_cell_formula_units_Z   2
loop_
 _symmetry_equiv_pos_site_id
 _symmetry_equiv_pos_as_xyz
  1  'x, y, z'
loop_
 _atom_site_type_symbol
 _atom_site_label
 _atom_site_symmetry_multiplicity
 _atom_site_fract_x
 _atom_site_fract_y
 _atom_site_fract_z
 _atom_site_occupancy
  Na  Na0  1  0.25000000  0.67992167  0.00000000  1
  Na  Na1  1  0.75000000  0.32007833  0.00000000  1
  In  In2  1  0.75000000  0.32059169  0.50000000  1
  In  In3  1  0.25000000  0.67940831  0.50000000  1
  W  W4  1  0.75064045  0.82875656  0.74315994  1
  W  W5  1  0.25064045  0.17124344  0.74315994  1
  W  W6  1  0.24935955  0.17124344  0.25684006  1
  W  W7  1  0.74935955  0.82875656  0.25684006  1
  O  O8  1  0.44008490  0.90482571  0.83277044  1
  O  O9  1  0.37781894  0.36681447  0.85849816  1
  O  O10  1  0.44408892  0.89368435  0.36709643  1
  O  O11  1  0.05991510  0.90482571  0.16722956  1
  O  O12  1  0.94408892  0.10631565  0.36709643  1
  O  O13  1  0.94008490  0.09517429  0.83277044  1
  O  O14  1  0.89547410  0.62595698  0.38421089  1
  O  O15  1  0.60452590  0.62595698  0.61578911  1
  O  O16  1  0.62218106  0.63318553  0.14150184  1
  O  O17  1  0.10452590  0.37404302  0.61578911  1
  O  O18  1  0.12218106  0.36681447  0.14150184  1
  O  O19  1  0.55991510  0.09517429  0.16722956  1
  O  O20  1  0.05591108  0.89368435  0.63290357  1
  O  O21  1  0.87781894  0.63318553  0.85849816  1
  O  O22  1  0.39547410  0.37404302  0.38421089  1
  O  O23  1  0.55591108  0.10631565  0.63290357  1
