# generated using pymatgen
data_EuMnO3
_symmetry_space_group_name_H-M   'P 1'
_cell_length_a   5.48321695
_cell_length_b   5.53589720
_cell_length_c   7.79210637
_cell_angle_alpha   90.00000000
_cell_angle_beta   90.00000000
_cell_angle_gamma   90.00000000
_symmetry_Int_Tables_number   1
_chemical_formula_structural   EuMnO3
_chemical_formula_sum   'Eu4 Mn4 O12'
_cell_volume   236.52569042
_cell_formula_units_Z   4
loop_
 _symmetry_equiv_pos_site_id
 _symmetry_equiv_pos_as_xyz
  1  'x, y, z'
loop_
 _atom_site_type_symbol
 _atom_site_label
 _atom_site_symmetry_multiplicity
 _atom_site_fract_x
 _atom_site_fract_y
 _atom_site_fract_z
 _atom_site_occupancy
  O  O0  1  0.70941563  0.29089058  0.46178021  1
  O  O1  1  0.20941634  0.20910899  0.53821910  1
  O  O2  1  0.79058406  0.79089015  0.03821880  1
  O  O3  1  0.29058478  0.70911039  0.96178051  1
  O  O4  1  0.29058478  0.70911039  0.53821910  1
  O  O5  1  0.79058406  0.79089015  0.46178021  1
  O  O6  1  0.20941634  0.20910899  0.96178051  1
  O  O7  1  0.70941563  0.29089058  0.03821880  1
  O  O8  1  0.07280137  0.48322135  0.24999950  1
  O  O9  1  0.57280066  0.01678005  0.74999981  1
  O  O10  1  0.92719903  0.51677962  0.74999981  1
  O  O11  1  0.42719975  0.98322092  0.24999950  1
  Mn  Mn12  1  0.49999928  0.00000000  0.50000030  1
  Mn  Mn13  1  0.00000000  0.49999957  0.50000030  1
  Mn  Mn14  1  0.00000000  0.49999957  0.00000000  1
  Mn  Mn15  1  0.49999928  0.00000000  0.00000000  1
  Eu  Eu16  1  0.00673099  0.96108328  0.74999981  1
  Eu  Eu17  1  0.50673027  0.53891543  0.24999950  1
  Eu  Eu18  1  0.49326830  0.46108371  0.74999981  1
  Eu  Eu19  1  0.99326942  0.03891586  0.24999950  1
