# generated using pymatgen
data_Li2FeO2F
_symmetry_space_group_name_H-M   'P 1'
_cell_length_a   5.15783267
_cell_length_b   5.15783267
_cell_length_c   9.55795015
_cell_angle_alpha   79.55573762
_cell_angle_beta   100.44426238
_cell_angle_gamma   70.71962591
_symmetry_Int_Tables_number   1
_chemical_formula_structural   Li2FeO2F
_chemical_formula_sum   'Li8 Fe4 O8 F4'
_cell_volume   227.93196561
_cell_formula_units_Z   4
loop_
 _symmetry_equiv_pos_site_id
 _symmetry_equiv_pos_as_xyz
  1  'x, y, z'
loop_
 _atom_site_type_symbol
 _atom_site_label
 _atom_site_symmetry_multiplicity
 _atom_site_fract_x
 _atom_site_fract_y
 _atom_site_fract_z
 _atom_site_occupancy
  Li  Li0  1  0.10961206  0.64315889  0.72553228  1
  Li  Li1  1  0.35684111  0.89038794  0.22553228  1
  Li  Li2  1  0.05832506  0.20520120  0.60585967  1
  Li  Li3  1  0.20736958  0.04511206  0.91206753  1
  Li  Li4  1  0.79479880  0.94167494  0.10585967  1
  Li  Li5  1  0.95488794  0.79263042  0.41206753  1
  Li  Li6  1  0.62360880  0.12900840  0.74045862  1
  Li  Li7  1  0.87099160  0.37639120  0.24045862  1
  Fe  Fe8  1  0.71103824  0.53852255  0.92037503  1
  Fe  Fe9  1  0.55150670  0.69700574  0.60598587  1
  Fe  Fe10  1  0.46147745  0.28896176  0.42037503  1
  Fe  Fe11  1  0.30299426  0.44849330  0.10598587  1
  O  O12  1  0.38967401  0.85269695  0.75481999  1
  O  O13  1  0.75778941  0.95718930  0.57033791  1
  O  O14  1  0.31167133  0.47005644  0.57062654  1
  O  O15  1  0.14730305  0.61032599  0.25481999  1
  O  O16  1  0.86530017  0.39335427  0.75457585  1
  O  O17  1  0.04281070  0.24221059  0.07033791  1
  O  O18  1  0.52994356  0.68832867  0.07062654  1
  O  O19  1  0.60664573  0.13469983  0.25457585  1
  F  F20  1  0.47197085  0.28198126  0.92048849  1
  F  F21  1  0.95135732  0.79593547  0.91887222  1
  F  F22  1  0.71801874  0.52802915  0.42048849  1
  F  F23  1  0.20406453  0.04864268  0.41887222  1
