# generated using pymatgen
data_Co3B7ClO13
_symmetry_space_group_name_H-M   'P 1'
_cell_length_a   8.65226333
_cell_length_b   8.65226333
_cell_length_c   8.65226333
_cell_angle_alpha   59.78750157
_cell_angle_beta   59.78750157
_cell_angle_gamma   59.78750159
_symmetry_Int_Tables_number   1
_chemical_formula_structural   Co3B7ClO13
_chemical_formula_sum   'Co6 B14 Cl2 O26'
_cell_volume   455.79962527
_cell_formula_units_Z   2
loop_
 _symmetry_equiv_pos_site_id
 _symmetry_equiv_pos_as_xyz
  1  'x, y, z'
loop_
 _atom_site_type_symbol
 _atom_site_label
 _atom_site_symmetry_multiplicity
 _atom_site_fract_x
 _atom_site_fract_y
 _atom_site_fract_z
 _atom_site_occupancy
  B  B0  1  0.57107487  0.57148649  0.26439497  1
  B  B1  1  0.60044585  0.60044627  0.60044577  1
  B  B2  1  0.10044581  0.10044610  0.10044579  1
  B  B3  1  0.57148736  0.26439463  0.57107417  1
  B  B4  1  0.26439446  0.57107532  0.57148631  1
  B  B5  1  0.76439359  0.07148781  0.07107452  1
  B  B6  1  0.07148745  0.07107522  0.76439412  1
  B  B7  1  0.07107513  0.76439467  0.07148636  1
  B  B8  1  0.24491900  0.75152787  0.24558684  1
  B  B9  1  0.24558586  0.24491958  0.75152798  1
  B  B10  1  0.75152795  0.24558691  0.24491894  1
  B  B11  1  0.25152768  0.74491969  0.74558654  1
  B  B12  1  0.74558649  0.25152783  0.74491916  1
  B  B13  1  0.74491869  0.74558701  0.25152804  1
  O  O14  1  0.21216600  0.74687115  0.59829251  1
  O  O15  1  0.61022222  0.43315379  0.18670784  1
  O  O16  1  0.71216617  0.09829264  0.24687109  1
  O  O17  1  0.24687187  0.71216483  0.09829279  1
  O  O18  1  0.09829361  0.24687104  0.71216546  1
  O  O19  1  0.43315344  0.18670918  0.61022099  1
  O  O20  1  0.59829321  0.21216480  0.74687145  1
  O  O21  1  0.74687114  0.59829274  0.21216604  1
  O  O22  1  0.98568190  0.98568265  0.98568283  1
  O  O23  1  0.48568319  0.48568248  0.48568217  1
  O  O24  1  0.18670842  0.61022125  0.43315372  1
  O  O25  1  0.10420645  0.94319203  0.26260936  1
  O  O26  1  0.26260908  0.10420624  0.94319189  1
  O  O27  1  0.76260852  0.44319199  0.60420640  1
  O  O28  1  0.60420630  0.76260962  0.44319179  1
  O  O29  1  0.44319211  0.60420635  0.76260931  1
  O  O30  1  0.25124849  0.93322368  0.69811339  1
  O  O31  1  0.69811369  0.25124867  0.93322335  1
  O  O32  1  0.93322372  0.69811233  0.25124927  1
  O  O33  1  0.43322380  0.75124870  0.19811328  1
  O  O34  1  0.19811354  0.43322358  0.75124854  1
  O  O35  1  0.75124938  0.19811365  0.43322306  1
  O  O36  1  0.11022196  0.68670928  0.93315288  1
  O  O37  1  0.93315423  0.11022121  0.68670922  1
  O  O38  1  0.68670927  0.93315389  0.11022091  1
  O  O39  1  0.94319269  0.26260951  0.10420560  1
  Cl  Cl40  1  0.76791995  0.76791957  0.76791970  1
  Cl  Cl41  1  0.26791991  0.26791940  0.26791972  1
  Co  Co42  1  0.97268749  0.97050862  0.53005891  1
  Co  Co43  1  0.53005852  0.97268753  0.97050889  1
  Co  Co44  1  0.97050881  0.53005913  0.97268642  1
  Co  Co45  1  0.47268719  0.03005896  0.47050875  1
  Co  Co46  1  0.03005861  0.47050845  0.47268678  1
  Co  Co47  1  0.47050888  0.47268736  0.03005876  1
