# generated using pymatgen
data_Na2CoH8(SO6)2
_symmetry_space_group_name_H-M   'P 1'
_cell_length_a   5.57960356
_cell_length_b   8.36713742
_cell_length_c   11.18358097
_cell_angle_alpha   90.00000000
_cell_angle_beta   99.75075777
_cell_angle_gamma   90.00000000
_symmetry_Int_Tables_number   1
_chemical_formula_structural   Na2CoH8(SO6)2
_chemical_formula_sum   'Na4 Co2 H16 S4 O24'
_cell_volume   514.56646125
_cell_formula_units_Z   2
loop_
 _symmetry_equiv_pos_site_id
 _symmetry_equiv_pos_as_xyz
  1  'x, y, z'
loop_
 _atom_site_type_symbol
 _atom_site_label
 _atom_site_symmetry_multiplicity
 _atom_site_fract_x
 _atom_site_fract_y
 _atom_site_fract_z
 _atom_site_occupancy
  H  H0  1  0.24229776  0.72573602  0.01373932  1
  H  H1  1  0.75770078  0.22573691  0.48626031  1
  H  H2  1  0.75770170  0.27426340  0.98626041  1
  H  H3  1  0.24229867  0.77426372  0.51373942  1
  H  H4  1  0.32801364  0.80229298  0.13981393  1
  H  H5  1  0.67198670  0.30229266  0.36018675  1
  H  H6  1  0.67198580  0.19770765  0.86018670  1
  H  H7  1  0.32801274  0.69770797  0.63981388  1
  H  H8  1  0.76877238  0.13522308  0.15443654  1
  H  H9  1  0.23122797  0.63522339  0.34556415  1
  H  H10  1  0.76409543  0.94537331  0.18132311  1
  H  H11  1  0.23590311  0.44537299  0.31867652  1
  H  H12  1  0.23590402  0.05462612  0.81867663  1
  H  H13  1  0.76409635  0.55462644  0.68132321  1
  H  H14  1  0.23122707  0.86477635  0.84556409  1
  H  H15  1  0.76877148  0.36477724  0.65443648  1
  O  O16  1  0.21277122  0.41352564  0.07734238  1
  O  O17  1  0.78722912  0.91352596  0.42265831  1
  O  O18  1  0.68729184  0.87180833  0.92328991  1
  O  O19  1  0.21277033  0.08647467  0.57734143  1
  O  O20  1  0.31270761  0.12819230  0.07670982  1
  O  O21  1  0.68729274  0.62819262  0.42328997  1
  O  O22  1  0.36475123  0.67830638  0.87302631  1
  O  O23  1  0.63524914  0.17830607  0.62697353  1
  O  O24  1  0.63525004  0.32169425  0.12697358  1
  O  O25  1  0.78723004  0.58647499  0.92265841  1
  O  O26  1  0.13109661  0.96418422  0.83768293  1
  O  O27  1  0.86890376  0.46418390  0.66231691  1
  O  O28  1  0.86890284  0.03581521  0.16231681  1
  O  O29  1  0.13109569  0.53581552  0.33768282  1
  O  O30  1  0.17954114  0.71555057  0.57885675  1
  O  O31  1  0.82045923  0.21555026  0.92114308  1
  O  O32  1  0.82046013  0.28444885  0.42114314  1
  O  O33  1  0.17954022  0.78444917  0.07885665  1
  O  O34  1  0.64305107  0.77569584  0.23119873  1
  O  O35  1  0.35694927  0.27569553  0.26880195  1
  O  O36  1  0.35694838  0.22430479  0.76880190  1
  O  O37  1  0.64305198  0.72430510  0.73119883  1
  O  O38  1  0.31270853  0.37180801  0.57670993  1
  O  O39  1  0.36475031  0.82169456  0.37302621  1
  Na  Na40  1  0.12068791  0.07090572  0.36148030  1
  Na  Na41  1  0.87931335  0.92909491  0.63852048  1
  Na  Na42  1  0.12068701  0.42909460  0.86148025  1
  Na  Na43  1  0.87931243  0.57090483  0.13852038  1
  S  S44  1  0.62607818  0.78623365  0.36413695  1
  S  S45  1  0.62607910  0.71376610  0.86413705  1
  S  S46  1  0.37392126  0.21376578  0.63586368  1
  S  S47  1  0.37392035  0.28623333  0.13586358  1
  Co  Co48  1  0.99999910  0.50000031  0.49999994  1
  Co  Co49  1  0.00000000  0.00000000  0.00000000  1
