# generated using pymatgen
data_LiMn4(BO3)4
_symmetry_space_group_name_H-M   'P 1'
_cell_length_a   5.79137715
_cell_length_b   9.10266019
_cell_length_c   5.32978452
_cell_angle_alpha   92.95235332
_cell_angle_beta   112.19592990
_cell_angle_gamma   105.91585979
_symmetry_Int_Tables_number   1
_chemical_formula_structural   LiMn4(BO3)4
_chemical_formula_sum   'Li1 Mn4 B4 O12'
_cell_volume   246.35185152
_cell_formula_units_Z   1
loop_
 _symmetry_equiv_pos_site_id
 _symmetry_equiv_pos_as_xyz
  1  'x, y, z'
loop_
 _atom_site_type_symbol
 _atom_site_label
 _atom_site_symmetry_multiplicity
 _atom_site_fract_x
 _atom_site_fract_y
 _atom_site_fract_z
 _atom_site_occupancy
  Li  Li0  1  0.32833925  0.80613458  0.74587996  1
  Mn  Mn1  1  0.73755191  0.39114485  0.74650831  1
  Mn  Mn2  1  0.75570871  0.88955986  0.28057601  1
  Mn  Mn3  1  0.27227691  0.12200063  0.76510152  1
  Mn  Mn4  1  0.24768348  0.60249459  0.22676408  1
  B  B5  1  0.75304510  0.05274039  0.79110805  1
  B  B6  1  0.73458419  0.53566386  0.27155466  1
  B  B7  1  0.25454294  0.46326556  0.71169289  1
  B  B8  1  0.25539868  0.94829896  0.22458328  1
  O  O9  1  0.89284223  0.07699372  0.62192674  1
  O  O10  1  0.86643245  0.55748563  0.09478311  1
  O  O11  1  0.72027745  0.40828882  0.38930120  1
  O  O12  1  0.64648178  0.16861986  0.83122154  1
  O  O13  1  0.61823047  0.64662733  0.29910730  1
  O  O14  1  0.28300205  0.08162758  0.11929320  1
  O  O15  1  0.69973510  0.91861769  0.88533721  1
  O  O16  1  0.36781145  0.35231777  0.67809579  1
  O  O17  1  0.32012514  0.82540175  0.13108991  1
  O  O18  1  0.27898505  0.59552477  0.60231097  1
  O  O19  1  0.12246563  0.43908988  0.88716151  1
  O  O20  1  0.17596405  0.93510492  0.44487175  1
