# generated using pymatgen
data_SnI2
_symmetry_space_group_name_H-M   'P 1'
_cell_length_a   4.51170523
_cell_length_b   7.75139570
_cell_length_c   11.16645126
_cell_angle_alpha   91.72510097
_cell_angle_beta   90.00000000
_cell_angle_gamma   106.91935198
_symmetry_Int_Tables_number   1
_chemical_formula_structural   SnI2
_chemical_formula_sum   'Sn3 I6'
_cell_volume   373.42503551
_cell_formula_units_Z   3
loop_
 _symmetry_equiv_pos_site_id
 _symmetry_equiv_pos_as_xyz
  1  'x, y, z'
loop_
 _atom_site_type_symbol
 _atom_site_label
 _atom_site_symmetry_multiplicity
 _atom_site_fract_x
 _atom_site_fract_y
 _atom_site_fract_z
 _atom_site_occupancy
  Sn  Sn0  1  0.00000000  0.00000000  0.00000000  1
  Sn  Sn1  1  0.26763487  0.53526975  0.31097720  1
  Sn  Sn2  1  0.73236513  0.46473025  0.68902280  1
  I  I3  1  0.08547203  0.17094406  0.73490831  1
  I  I4  1  0.91452797  0.82905594  0.26509169  1
  I  I5  1  0.35667810  0.71335620  0.56028417  1
  I  I6  1  0.64332190  0.28664380  0.43971583  1
  I  I7  1  0.35844913  0.71689827  0.91899083  1
  I  I8  1  0.64155087  0.28310173  0.08100917  1
