# generated using pymatgen
data_Ca2MnAs2(H2O5)2
_symmetry_space_group_name_H-M   'P 1'
_cell_length_a   5.79170642
_cell_length_b   5.95453528
_cell_length_c   13.16734403
_cell_angle_alpha   90.00000000
_cell_angle_beta   90.00000000
_cell_angle_gamma   108.13086948
_symmetry_Int_Tables_number   1
_chemical_formula_structural   Ca2MnAs2(H2O5)2
_chemical_formula_sum   'Ca4 Mn2 As4 H8 O20'
_cell_volume   431.55420794
_cell_formula_units_Z   2
loop_
 _symmetry_equiv_pos_site_id
 _symmetry_equiv_pos_as_xyz
  1  'x, y, z'
loop_
 _atom_site_type_symbol
 _atom_site_label
 _atom_site_symmetry_multiplicity
 _atom_site_fract_x
 _atom_site_fract_y
 _atom_site_fract_z
 _atom_site_occupancy
  H  H0  1  0.50141487  0.89392842  0.28957779  1
  H  H1  1  0.99858513  0.10607158  0.78957779  1
  H  H2  1  0.49858513  0.10607158  0.71042221  1
  H  H3  1  0.00141487  0.89392842  0.21042221  1
  H  H4  1  0.30507819  0.68381874  0.34407901  1
  H  H5  1  0.19492181  0.31618126  0.84407901  1
  H  H6  1  0.69492181  0.31618126  0.65592099  1
  H  H7  1  0.80507819  0.68381874  0.15592099  1
  O  O8  1  0.46834124  0.80372127  0.35690044  1
  O  O9  1  0.03165876  0.19627873  0.85690044  1
  O  O10  1  0.34873982  0.24728956  0.03811899  1
  O  O11  1  0.15126018  0.75271044  0.53811899  1
  O  O12  1  0.65126018  0.75271044  0.96188101  1
  O  O13  1  0.84873982  0.24728956  0.46188101  1
  O  O14  1  0.84175219  0.28826872  0.05426113  1
  O  O15  1  0.65824781  0.71173128  0.55426113  1
  O  O16  1  0.15824781  0.71173128  0.94573887  1
  O  O17  1  0.34175219  0.28826872  0.44573887  1
  O  O18  1  0.49790160  0.94980418  0.17475805  1
  O  O19  1  0.00209840  0.05019582  0.67475805  1
  O  O20  1  0.50209840  0.05019582  0.82524195  1
  O  O21  1  0.99790160  0.94980418  0.32524195  1
  O  O22  1  0.58262353  0.45018614  0.20657405  1
  O  O23  1  0.91737647  0.54981386  0.70657405  1
  O  O24  1  0.41737647  0.54981386  0.79342595  1
  O  O25  1  0.08262353  0.45018614  0.29342595  1
  O  O26  1  0.96834124  0.80372127  0.14309956  1
  O  O27  1  0.53165876  0.19627873  0.64309956  1
  Ca  Ca28  1  0.24160509  0.56874424  0.11999732  1
  Ca  Ca29  1  0.25839491  0.43125576  0.61999732  1
  Ca  Ca30  1  0.75839491  0.43125576  0.88000268  1
  Ca  Ca31  1  0.74160509  0.56874424  0.38000268  1
  Mn  Mn32  1  0.50000000  0.00000000  0.50000000  1
  Mn  Mn33  1  0.00000000  0.00000000  0.00000000  1
  As  As34  1  0.57125450  0.22393613  0.12214836  1
  As  As35  1  0.92874550  0.77606387  0.62214836  1
  As  As36  1  0.42874550  0.77606387  0.87785164  1
  As  As37  1  0.07125450  0.22393613  0.37785164  1
