# generated using pymatgen
data_LaMn2O5
_symmetry_space_group_name_H-M   'P 1'
_cell_length_a   5.84352760
_cell_length_b   7.74964183
_cell_length_c   8.79737986
_cell_angle_alpha   90.00000000
_cell_angle_beta   90.00000000
_cell_angle_gamma   90.00000000
_symmetry_Int_Tables_number   1
_chemical_formula_structural   LaMn2O5
_chemical_formula_sum   'La4 Mn8 O20'
_cell_volume   398.39151044
_cell_formula_units_Z   4
loop_
 _symmetry_equiv_pos_site_id
 _symmetry_equiv_pos_as_xyz
  1  'x, y, z'
loop_
 _atom_site_type_symbol
 _atom_site_label
 _atom_site_symmetry_multiplicity
 _atom_site_fract_x
 _atom_site_fract_y
 _atom_site_fract_z
 _atom_site_occupancy
  O  O0  1  0.24980320  0.90390986  0.29342121  1
  O  O1  1  0.24980320  0.09609014  0.70657879  1
  O  O2  1  0.75019680  0.40390986  0.20657879  1
  O  O3  1  0.75019680  0.59609014  0.79342121  1
  O  O4  1  0.75019680  0.09609014  0.70657879  1
  O  O5  1  0.75019680  0.90390986  0.29342121  1
  O  O6  1  0.24980320  0.59609014  0.79342121  1
  O  O7  1  0.24980320  0.40390986  0.20657879  1
  O  O8  1  0.50000000  0.34815074  0.93749330  1
  O  O9  1  0.50000000  0.65184926  0.06250670  1
  O  O10  1  0.50000000  0.84815074  0.56250670  1
  O  O11  1  0.50000000  0.15184926  0.43749330  1
  O  O12  1  0.27887532  0.00000000  0.00000000  1
  O  O13  1  0.72112468  0.50000000  0.50000000  1
  O  O14  1  0.72112468  0.00000000  0.00000000  1
  O  O15  1  0.27887532  0.50000000  0.50000000  1
  O  O16  1  0.00000000  0.15458443  0.44883809  1
  O  O17  1  0.00000000  0.84541557  0.55116191  1
  O  O18  1  0.00000000  0.65458443  0.05116191  1
  O  O19  1  0.00000000  0.34541557  0.94883809  1
  Mn  Mn20  1  0.50000000  0.08996165  0.85131306  1
  Mn  Mn21  1  0.50000000  0.91003835  0.14868694  1
  Mn  Mn22  1  0.50000000  0.58996165  0.64868694  1
  Mn  Mn23  1  0.50000000  0.41003835  0.35131306  1
  Mn  Mn24  1  0.25827287  0.50000000  0.00000000  1
  Mn  Mn25  1  0.74172713  0.00000000  0.50000000  1
  Mn  Mn26  1  0.74172713  0.50000000  0.00000000  1
  Mn  Mn27  1  0.25827287  0.00000000  0.50000000  1
  La  La28  1  0.00000000  0.35426441  0.67279955  1
  La  La29  1  0.00000000  0.64573559  0.32720045  1
  La  La30  1  0.00000000  0.85426441  0.82720045  1
  La  La31  1  0.00000000  0.14573559  0.17279955  1
