# generated using pymatgen
data_Te2Ru
_symmetry_space_group_name_H-M   'P 1'
_cell_length_a   4.06988056
_cell_length_b   5.34761431
_cell_length_c   6.46802311
_cell_angle_alpha   90.00000000
_cell_angle_beta   90.00000000
_cell_angle_gamma   90.00000000
_symmetry_Int_Tables_number   1
_chemical_formula_structural   Te2Ru
_chemical_formula_sum   'Te4 Ru2'
_cell_volume   140.77103502
_cell_formula_units_Z   2
loop_
 _symmetry_equiv_pos_site_id
 _symmetry_equiv_pos_as_xyz
  1  'x, y, z'
loop_
 _atom_site_type_symbol
 _atom_site_label
 _atom_site_symmetry_multiplicity
 _atom_site_fract_x
 _atom_site_fract_y
 _atom_site_fract_z
 _atom_site_occupancy
  Ru  Ru0  1  0.00000000  0.00000000  0.00000000  1
  Ru  Ru1  1  0.50000000  0.50000000  0.50000000  1
  Te  Te2  1  0.00000000  0.22144825  0.36643810  1
  Te  Te3  1  0.00000000  0.77855175  0.63356190  1
  Te  Te4  1  0.50000000  0.72144825  0.13356190  1
  Te  Te5  1  0.50000000  0.27855175  0.86643810  1
