# generated using pymatgen
data_CaV2P2O9
_symmetry_space_group_name_H-M   'P 1'
_cell_length_a   6.55940230
_cell_length_b   7.48330340
_cell_length_c   14.33675305
_cell_angle_alpha   90.00000000
_cell_angle_beta   90.00000000
_cell_angle_gamma   90.00000000
_symmetry_Int_Tables_number   1
_chemical_formula_structural   CaV2P2O9
_chemical_formula_sum   'Ca4 V8 P8 O36'
_cell_volume   703.73382485
_cell_formula_units_Z   4
loop_
 _symmetry_equiv_pos_site_id
 _symmetry_equiv_pos_as_xyz
  1  'x, y, z'
loop_
 _atom_site_type_symbol
 _atom_site_label
 _atom_site_symmetry_multiplicity
 _atom_site_fract_x
 _atom_site_fract_y
 _atom_site_fract_z
 _atom_site_occupancy
  O  O0  1  0.05477362  0.60500129  0.37011688  1
  O  O1  1  0.55477340  0.39499821  0.62988260  1
  O  O2  1  0.94522592  0.10500087  0.12988286  1
  O  O3  1  0.44522615  0.89499863  0.87011732  1
  O  O4  1  0.94522592  0.39499821  0.62988260  1
  O  O5  1  0.44522615  0.60500129  0.37011688  1
  O  O6  1  0.05477362  0.89499863  0.87011732  1
  O  O7  1  0.55477340  0.10500087  0.12988286  1
  O  O8  1  0.25000066  0.32703762  0.48226534  1
  O  O9  1  0.75000043  0.67296322  0.51773484  1
  O  O10  1  0.75000043  0.82703669  0.01773440  1
  O  O11  1  0.25000066  0.17296280  0.98226508  1
  O  O12  1  0.75000043  0.12389382  0.94494043  1
  O  O13  1  0.25000066  0.87610567  0.05505905  1
  O  O14  1  0.25000066  0.62389424  0.55505949  1
  O  O15  1  0.75000043  0.37610660  0.44494069  1
  O  O16  1  0.75000043  0.21541465  0.75146053  1
  O  O17  1  0.25000066  0.78458484  0.24853965  1
  O  O18  1  0.25000066  0.71541507  0.74853939  1
  O  O19  1  0.75000043  0.28458577  0.25146010  1
  O  O20  1  0.43521100  0.13058239  0.36622039  1
  O  O21  1  0.93521077  0.86941845  0.63377979  1
  O  O22  1  0.56478855  0.63058146  0.13378005  1
  O  O23  1  0.06478878  0.36941803  0.86622013  1
  O  O24  1  0.56478855  0.86941845  0.63377979  1
  O  O25  1  0.06478878  0.13058239  0.36622039  1
  O  O26  1  0.43521100  0.36941803  0.86622013  1
  O  O27  1  0.93521077  0.63058146  0.13378005  1
  O  O28  1  0.75000043  0.49907514  0.99205300  1
  O  O29  1  0.25000066  0.04052475  0.73423812  1
  O  O30  1  0.25000066  0.45947433  0.23423768  1
  O  O31  1  0.75000043  0.54052517  0.76576180  1
  O  O32  1  0.75000043  0.00092478  0.49205326  1
  O  O33  1  0.25000066  0.99907472  0.50794692  1
  O  O34  1  0.25000066  0.50092436  0.00794648  1
  O  O35  1  0.75000043  0.95947475  0.26576206  1
  P  P36  1  0.25000066  0.35910590  0.93243364  1
  P  P37  1  0.75000043  0.64089359  0.06756654  1
  P  P38  1  0.75000043  0.85910632  0.56756628  1
  P  P39  1  0.25000066  0.14089452  0.43243390  1
  P  P40  1  0.75000043  0.38869805  0.69152439  1
  P  P41  1  0.75000043  0.11130237  0.19152396  1
  P  P42  1  0.25000066  0.88869847  0.80847553  1
  P  P43  1  0.25000066  0.61130144  0.30847579  1
  Ca  Ca44  1  0.75000043  0.88907275  0.77865408  1
  Ca  Ca45  1  0.75000043  0.61092716  0.27865434  1
  Ca  Ca46  1  0.25000066  0.38907233  0.72134584  1
  Ca  Ca47  1  0.25000066  0.11092674  0.22134610  1
  V  V48  1  0.75000043  0.35173994  0.88140258  1
  V  V49  1  0.25000066  0.64825956  0.11859690  1
  V  V50  1  0.25000066  0.85174036  0.61859734  1
  V  V51  1  0.75000043  0.14826048  0.38140284  1
  V  V52  1  0.49999977  0.00000000  0.00000000  1
  V  V53  1  0.49999977  0.50000042  0.49999974  1
  V  V54  1  0.00000000  0.50000042  0.49999974  1
  V  V55  1  0.00000000  0.00000000  0.00000000  1
