# generated using pymatgen
data_RbMnP3HO10
_symmetry_space_group_name_H-M   'P 1'
_cell_length_a   7.51548224
_cell_length_b   7.51548224
_cell_length_c   9.26692549
_cell_angle_alpha   74.01584050
_cell_angle_beta   74.01584054
_cell_angle_gamma   68.70677935
_symmetry_Int_Tables_number   1
_chemical_formula_structural   RbMnP3HO10
_chemical_formula_sum   'Rb2 Mn2 P6 H2 O20'
_cell_volume   459.75822097
_cell_formula_units_Z   2
loop_
 _symmetry_equiv_pos_site_id
 _symmetry_equiv_pos_as_xyz
  1  'x, y, z'
loop_
 _atom_site_type_symbol
 _atom_site_label
 _atom_site_symmetry_multiplicity
 _atom_site_fract_x
 _atom_site_fract_y
 _atom_site_fract_z
 _atom_site_occupancy
  H  H0  1  0.00000000  0.50000000  0.00000000  1
  H  H1  1  0.50000000  0.00000000  0.50000000  1
  O  O2  1  0.15412524  0.71251472  0.39086094  1
  O  O3  1  0.28748528  0.84587476  0.10913906  1
  O  O4  1  0.84587476  0.28748528  0.60913906  1
  O  O5  1  0.71251472  0.15412524  0.89086094  1
  O  O6  1  0.63084070  0.84961239  0.17473428  1
  O  O7  1  0.15038761  0.36915930  0.32526572  1
  O  O8  1  0.36915930  0.15038761  0.82526572  1
  O  O9  1  0.84961239  0.63084070  0.67473428  1
  O  O10  1  0.90435102  0.92962769  0.69880316  1
  O  O11  1  0.07037231  0.09564898  0.80119684  1
  O  O12  1  0.09564898  0.07037231  0.30119684  1
  O  O13  1  0.92962769  0.90435102  0.19880316  1
  O  O14  1  0.64971738  0.78395546  0.89411637  1
  O  O15  1  0.21604454  0.35028262  0.60588363  1
  O  O16  1  0.35028262  0.21604454  0.10588363  1
  O  O17  1  0.78395546  0.64971738  0.39411637  1
  O  O18  1  0.01821327  0.62150961  0.88555549  1
  O  O19  1  0.37849039  0.98178673  0.61444451  1
  O  O20  1  0.98178673  0.37849039  0.11444451  1
  O  O21  1  0.62150961  0.01821327  0.38555549  1
  P  P22  1  0.12996301  0.87003699  0.25000000  1
  P  P23  1  0.87003699  0.12996301  0.75000000  1
  P  P24  1  0.73176229  0.85563435  0.29394881  1
  P  P25  1  0.14436565  0.26823771  0.20605119  1
  P  P26  1  0.26823771  0.14436565  0.70605119  1
  P  P27  1  0.85563435  0.73176229  0.79394881  1
  Mn  Mn28  1  0.00000000  0.50000000  0.50000000  1
  Mn  Mn29  1  0.50000000  0.00000000  0.00000000  1
  Rb  Rb30  1  0.56151792  0.43848208  0.25000000  1
  Rb  Rb31  1  0.43848208  0.56151792  0.75000000  1
