# generated using pymatgen
data_Zr(IO3)4
_symmetry_space_group_name_H-M   'P 1'
_cell_length_a   7.54299003
_cell_length_b   8.52943825
_cell_length_c   8.52943825
_cell_angle_alpha   90.00000000
_cell_angle_beta   90.00000000
_cell_angle_gamma   90.00000000
_symmetry_Int_Tables_number   1
_chemical_formula_structural   Zr(IO3)4
_chemical_formula_sum   'Zr2 I8 O24'
_cell_volume   548.76245775
_cell_formula_units_Z   2
loop_
 _symmetry_equiv_pos_site_id
 _symmetry_equiv_pos_as_xyz
  1  'x, y, z'
loop_
 _atom_site_type_symbol
 _atom_site_label
 _atom_site_symmetry_multiplicity
 _atom_site_fract_x
 _atom_site_fract_y
 _atom_site_fract_z
 _atom_site_occupancy
  O  O0  1  0.90132829  0.33904670  0.45437900  1
  O  O1  1  0.90132829  0.04562100  0.33904670  1
  O  O2  1  0.90132829  0.45437900  0.16095330  1
  O  O3  1  0.90132829  0.16095330  0.04562100  1
  O  O4  1  0.09867171  0.66095330  0.54562100  1
  O  O5  1  0.09867171  0.95437900  0.66095330  1
  O  O6  1  0.09867171  0.54562100  0.83904670  1
  O  O7  1  0.09867171  0.83904670  0.95437900  1
  O  O8  1  0.78274431  0.54319805  0.67762190  1
  O  O9  1  0.78274431  0.82237810  0.54319805  1
  O  O10  1  0.55453065  0.15064603  0.99416806  1
  O  O11  1  0.55453065  0.50583194  0.15064603  1
  O  O12  1  0.55453065  0.99416806  0.34935397  1
  O  O13  1  0.55453065  0.34935397  0.50583194  1
  O  O14  1  0.44546935  0.84935397  0.00583194  1
  O  O15  1  0.44546935  0.49416806  0.84935397  1
  O  O16  1  0.44546935  0.00583194  0.65064603  1
  O  O17  1  0.44546935  0.65064603  0.49416806  1
  O  O18  1  0.21725569  0.04319805  0.17762190  1
  O  O19  1  0.21725569  0.32237810  0.04319805  1
  O  O20  1  0.21725569  0.17762190  0.45680195  1
  O  O21  1  0.21725569  0.45680195  0.32237810  1
  O  O22  1  0.78274431  0.95680195  0.82237810  1
  O  O23  1  0.78274431  0.67762190  0.95680195  1
  Zr  Zr24  1  0.05452252  0.25000000  0.25000000  1
  Zr  Zr25  1  0.94547748  0.75000000  0.75000000  1
  I  I26  1  0.72768534  0.47170263  0.00437204  1
  I  I27  1  0.72768534  0.00437204  0.02829737  1
  I  I28  1  0.27231466  0.50437204  0.52829737  1
  I  I29  1  0.27231466  0.97170263  0.50437204  1
  I  I30  1  0.27231466  0.52829737  0.99562796  1
  I  I31  1  0.27231466  0.99562796  0.97170263  1
  I  I32  1  0.72768534  0.02829737  0.49562796  1
  I  I33  1  0.72768534  0.49562796  0.47170263  1
