# generated using pymatgen
data_K5As3O10
_symmetry_space_group_name_H-M   'P 1'
_cell_length_a   8.13689283
_cell_length_b   8.14210649
_cell_length_c   19.65770919
_cell_angle_alpha   90.00000000
_cell_angle_beta   90.00000000
_cell_angle_gamma   90.00000000
_symmetry_Int_Tables_number   1
_chemical_formula_structural   K5As3O10
_chemical_formula_sum   'K20 As12 O40'
_cell_volume   1302.35169662
_cell_formula_units_Z   4
loop_
 _symmetry_equiv_pos_site_id
 _symmetry_equiv_pos_as_xyz
  1  'x, y, z'
loop_
 _atom_site_type_symbol
 _atom_site_label
 _atom_site_symmetry_multiplicity
 _atom_site_fract_x
 _atom_site_fract_y
 _atom_site_fract_z
 _atom_site_occupancy
  O  O0  1  0.08405210  0.97484146  0.38429116  1
  O  O1  1  0.58405210  0.02515854  0.11570884  1
  O  O2  1  0.41594790  0.47484146  0.61570884  1
  O  O3  1  0.91594790  0.52515854  0.88429116  1
  O  O4  1  0.28058122  0.96460828  0.26572402  1
  O  O5  1  0.78058122  0.03539172  0.23427598  1
  O  O6  1  0.21941878  0.46460828  0.73427598  1
  O  O7  1  0.71941878  0.53539172  0.76572402  1
  O  O8  1  0.90923785  0.88422358  0.11596788  1
  O  O9  1  0.40923785  0.11577642  0.38403212  1
  O  O10  1  0.59076215  0.38422358  0.88403212  1
  O  O11  1  0.09076215  0.61577642  0.61596788  1
  O  O12  1  0.38529015  0.78335602  0.38281008  1
  O  O13  1  0.88529015  0.21664398  0.11718992  1
  O  O14  1  0.11470985  0.28335602  0.61718992  1
  O  O15  1  0.61470985  0.71664398  0.88281008  1
  O  O16  1  0.79435533  0.68866181  0.35356558  1
  O  O17  1  0.22103887  0.53261047  0.30407058  1
  O  O18  1  0.29435533  0.31133819  0.14643442  1
  O  O19  1  0.20564467  0.81133819  0.85356558  1
  O  O20  1  0.32274761  0.66202845  0.12743135  1
  O  O21  1  0.82274761  0.33797155  0.37256865  1
  O  O22  1  0.17725239  0.16202845  0.87256865  1
  O  O23  1  0.67725239  0.83797155  0.62743135  1
  O  O24  1  0.02076198  0.52150312  0.14013595  1
  O  O25  1  0.52076198  0.47849688  0.35986405  1
  O  O26  1  0.47923802  0.02150312  0.85986405  1
  O  O27  1  0.97923802  0.97849688  0.64013595  1
  O  O28  1  0.71191800  0.54082526  0.48045965  1
  O  O29  1  0.21191800  0.45917474  0.01954035  1
  O  O30  1  0.78808200  0.04082526  0.51954035  1
  O  O31  1  0.28808200  0.95917474  0.98045965  1
  O  O32  1  0.74879928  0.98320457  0.95262105  1
  O  O33  1  0.24879928  0.01679543  0.54737895  1
  O  O34  1  0.75120072  0.48320457  0.04737895  1
  O  O35  1  0.25120072  0.51679543  0.45262105  1
  O  O36  1  0.77896113  0.96738953  0.80407058  1
  O  O37  1  0.27896113  0.03261047  0.69592942  1
  O  O38  1  0.72103887  0.46738953  0.19592942  1
  O  O39  1  0.70564467  0.18866181  0.64643442  1
  K  K40  1  0.52411232  0.72451043  0.23364502  1
  K  K41  1  0.02411232  0.27548957  0.26635498  1
  K  K42  1  0.97588768  0.22451043  0.76635498  1
  K  K43  1  0.47588768  0.77548957  0.73364502  1
  K  K44  1  0.45756270  0.74884538  0.52963644  1
  K  K45  1  0.95756270  0.25115462  0.97036356  1
  K  K46  1  0.04243730  0.24884538  0.47036356  1
  K  K47  1  0.54243730  0.75115462  0.02963644  1
  K  K48  1  0.00056833  0.74734410  0.24874146  1
  K  K49  1  0.50056833  0.25265590  0.25125854  1
  K  K50  1  0.49943167  0.24734410  0.75125854  1
  K  K51  1  0.99943167  0.75265590  0.74874146  1
  K  K52  1  0.00734944  0.76461665  0.49427854  1
  K  K53  1  0.50734944  0.23538335  0.00572146  1
  K  K54  1  0.49265056  0.26461665  0.50572146  1
  K  K55  1  0.99265056  0.73538335  0.99427854  1
  K  K56  1  0.24036506  0.99204024  0.12303331  1
  K  K57  1  0.74036506  0.00795976  0.37696669  1
  K  K58  1  0.25963494  0.49204024  0.87696669  1
  K  K59  1  0.75963494  0.50795976  0.62303331  1
  As  As60  1  0.73057936  0.51749829  0.39441202  1
  As  As61  1  0.23057936  0.48250171  0.10558798  1
  As  As62  1  0.76942064  0.01749829  0.60558798  1
  As  As63  1  0.26942064  0.98250171  0.89441202  1
  As  As64  1  0.27798601  0.97353449  0.35252822  1
  As  As65  1  0.77798601  0.02646551  0.14747178  1
  As  As66  1  0.22201399  0.47353449  0.64747178  1
  As  As67  1  0.72201399  0.52646551  0.85252822  1
  As  As68  1  0.32574827  0.57066577  0.37585212  1
  As  As69  1  0.82574827  0.42933423  0.12414788  1
  As  As70  1  0.17425173  0.07066577  0.62414788  1
  As  As71  1  0.67425173  0.92933423  0.87585212  1
