# generated using pymatgen
data_LiMnSiO4
_symmetry_space_group_name_H-M   'P 1'
_cell_length_a   9.27744019
_cell_length_b   5.71167901
_cell_length_c   6.19627914
_cell_angle_alpha   103.50166232
_cell_angle_beta   101.94870227
_cell_angle_gamma   81.18125017
_symmetry_Int_Tables_number   1
_chemical_formula_structural   LiMnSiO4
_chemical_formula_sum   'Li4 Mn4 Si4 O16'
_cell_volume   310.44023678
_cell_formula_units_Z   4
loop_
 _symmetry_equiv_pos_site_id
 _symmetry_equiv_pos_as_xyz
  1  'x, y, z'
loop_
 _atom_site_type_symbol
 _atom_site_label
 _atom_site_symmetry_multiplicity
 _atom_site_fract_x
 _atom_site_fract_y
 _atom_site_fract_z
 _atom_site_occupancy
  Li  Li0  1  0.08553895  0.31888948  0.36254456  1
  Li  Li1  1  0.22761923  0.80611660  0.44180799  1
  Li  Li2  1  0.77238077  0.19388340  0.55819201  1
  Li  Li3  1  0.91446105  0.68111052  0.63745544  1
  Mn  Mn4  1  0.22007076  0.69443495  0.93409841  1
  Mn  Mn5  1  0.41136306  0.21904229  0.16072298  1
  Mn  Mn6  1  0.58863694  0.78095771  0.83927702  1
  Mn  Mn7  1  0.77992924  0.30556505  0.06590159  1
  Si  Si8  1  0.09193069  0.18524145  0.83957702  1
  Si  Si9  1  0.46245095  0.32071625  0.70996777  1
  Si  Si10  1  0.53754905  0.67928375  0.29003223  1
  Si  Si11  1  0.90806931  0.81475855  0.16042298  1
  O  O12  1  0.11489353  0.38892679  0.70441275  1
  O  O13  1  0.12281650  0.89711062  0.70710013  1
  O  O14  1  0.08331216  0.77520083  0.13462479  1
  O  O15  1  0.19697969  0.21264463  0.09318123  1
  O  O16  1  0.42746677  0.13351418  0.85172483  1
  O  O17  1  0.39064413  0.61016275  0.77760303  1
  O  O18  1  0.39777848  0.20937709  0.45211067  1
  O  O19  1  0.35946345  0.64345603  0.22514344  1
  O  O20  1  0.64053655  0.35654397  0.77485656  1
  O  O21  1  0.60222152  0.79062291  0.54788933  1
  O  O22  1  0.60935587  0.38983725  0.22239697  1
  O  O23  1  0.57253323  0.86648582  0.14827517  1
  O  O24  1  0.80302031  0.78735537  0.90681877  1
  O  O25  1  0.91668784  0.22479917  0.86537521  1
  O  O26  1  0.87718350  0.10288938  0.29289987  1
  O  O27  1  0.88510647  0.61107321  0.29558725  1
