# generated using pymatgen
data_ZrGe2Rh
_symmetry_space_group_name_H-M   'P 1'
_cell_length_a   8.08907032
_cell_length_b   9.41676872
_cell_length_c   10.58548293
_cell_angle_alpha   90.00000000
_cell_angle_beta   90.00000000
_cell_angle_gamma   90.00000000
_symmetry_Int_Tables_number   1
_chemical_formula_structural   ZrGe2Rh
_chemical_formula_sum   'Zr12 Ge24 Rh12'
_cell_volume   806.32697887
_cell_formula_units_Z   12
loop_
 _symmetry_equiv_pos_site_id
 _symmetry_equiv_pos_as_xyz
  1  'x, y, z'
loop_
 _atom_site_type_symbol
 _atom_site_label
 _atom_site_symmetry_multiplicity
 _atom_site_fract_x
 _atom_site_fract_y
 _atom_site_fract_z
 _atom_site_occupancy
  Zr  Zr0  1  0.75857592  0.32852337  0.04843687  1
  Zr  Zr1  1  0.75857592  0.82852337  0.45156313  1
  Zr  Zr2  1  0.75857592  0.67147663  0.95156313  1
  Zr  Zr3  1  0.00000000  0.66559341  0.67911331  1
  Zr  Zr4  1  0.24142408  0.82852337  0.45156313  1
  Zr  Zr5  1  0.24142408  0.32852337  0.04843687  1
  Zr  Zr6  1  0.00000000  0.16559341  0.82088669  1
  Zr  Zr7  1  0.24142408  0.67147663  0.95156313  1
  Zr  Zr8  1  0.24142408  0.17147663  0.54843687  1
  Zr  Zr9  1  0.75857592  0.17147663  0.54843687  1
  Zr  Zr10  1  0.00000000  0.83440659  0.17911331  1
  Zr  Zr11  1  0.00000000  0.33440659  0.32088669  1
  Ge  Ge12  1  0.34818482  0.65690458  0.68262768  1
  Ge  Ge13  1  0.50000000  0.94766902  0.60956386  1
  Ge  Ge14  1  0.00000000  0.03814392  0.38447369  1
  Ge  Ge15  1  0.34818482  0.34309542  0.31737232  1
  Ge  Ge16  1  0.00000000  0.53814392  0.11552631  1
  Ge  Ge17  1  0.00000000  0.46185608  0.88447369  1
  Ge  Ge18  1  0.50000000  0.86101544  0.90093099  1
  Ge  Ge19  1  0.65181518  0.34309542  0.31737232  1
  Ge  Ge20  1  0.65181518  0.84309542  0.18262768  1
  Ge  Ge21  1  0.00000000  0.96185608  0.61552631  1
  Ge  Ge22  1  0.00000000  0.62857054  0.39714659  1
  Ge  Ge23  1  0.50000000  0.05233098  0.39043614  1
  Ge  Ge24  1  0.50000000  0.36101544  0.59906901  1
  Ge  Ge25  1  0.50000000  0.13898456  0.09906901  1
  Ge  Ge26  1  0.50000000  0.55233098  0.10956386  1
  Ge  Ge27  1  0.65181518  0.65690458  0.68262768  1
  Ge  Ge28  1  0.65181518  0.15690458  0.81737232  1
  Ge  Ge29  1  0.34818482  0.15690458  0.81737232  1
  Ge  Ge30  1  0.00000000  0.12857054  0.10285341  1
  Ge  Ge31  1  0.00000000  0.87142946  0.89714659  1
  Ge  Ge32  1  0.50000000  0.44766902  0.89043614  1
  Ge  Ge33  1  0.34818482  0.84309542  0.18262768  1
  Ge  Ge34  1  0.50000000  0.63898456  0.40093099  1
  Ge  Ge35  1  0.00000000  0.37142946  0.60285341  1
  Rh  Rh36  1  0.74841406  0.40505649  0.75583840  1
  Rh  Rh37  1  0.25275101  0.00000000  0.00000000  1
  Rh  Rh38  1  0.74841406  0.59494351  0.24416160  1
  Rh  Rh39  1  0.74724899  0.00000000  -0.00000000  1
  Rh  Rh40  1  0.74841406  0.90505649  0.74416160  1
  Rh  Rh41  1  0.74841406  0.09494351  0.25583840  1
  Rh  Rh42  1  0.25158594  0.40505649  0.75583840  1
  Rh  Rh43  1  0.25158594  0.59494351  0.24416160  1
  Rh  Rh44  1  0.25275101  0.50000000  0.50000000  1
  Rh  Rh45  1  0.74724899  0.50000000  0.50000000  1
  Rh  Rh46  1  0.25158594  0.90505649  0.74416160  1
  Rh  Rh47  1  0.25158594  0.09494351  0.25583840  1
