# generated using pymatgen
data_LiMnSiO4
_symmetry_space_group_name_H-M   'P 1'
_cell_length_a   6.31832478
_cell_length_b   9.60046912
_cell_length_c   5.92197882
_cell_angle_alpha   93.65445552
_cell_angle_beta   100.51125126
_cell_angle_gamma   76.02344058
_symmetry_Int_Tables_number   1
_chemical_formula_structural   LiMnSiO4
_chemical_formula_sum   'Li4 Mn4 Si4 O16'
_cell_volume   342.66326728
_cell_formula_units_Z   4
loop_
 _symmetry_equiv_pos_site_id
 _symmetry_equiv_pos_as_xyz
  1  'x, y, z'
loop_
 _atom_site_type_symbol
 _atom_site_label
 _atom_site_symmetry_multiplicity
 _atom_site_fract_x
 _atom_site_fract_y
 _atom_site_fract_z
 _atom_site_occupancy
  Li  Li0  1  0.15890509  0.26340749  0.57105684  1
  Li  Li1  1  0.34998868  0.66742579  0.43107474  1
  Li  Li2  1  0.65001132  0.33257421  0.56892526  1
  Li  Li3  1  0.84109491  0.73659251  0.42894316  1
  Mn  Mn4  1  0.06628221  0.72436256  0.00248702  1
  Mn  Mn5  1  0.36824117  0.92159753  0.80641015  1
  Mn  Mn6  1  0.63175883  0.07840247  0.19358985  1
  Mn  Mn7  1  0.93371779  0.27563744  0.99751298  1
  Si  Si8  1  0.28235418  0.38506779  0.13612056  1
  Si  Si9  1  0.17443871  0.00140096  0.28806389  1
  Si  Si10  1  0.82556129  0.99859904  0.71193611  1
  Si  Si11  1  0.71764582  0.61493221  0.86387944  1
  O  O12  1  0.25445301  0.05486596  0.54693979  1
  O  O13  1  0.08253264  0.35486675  0.26745752  1
  O  O14  1  0.19474589  0.32274433  0.88067341  1
  O  O15  1  0.07375685  0.89235718  0.81418754  1
  O  O16  1  0.34315952  0.03222799  0.12094193  1
  O  O17  1  0.29351359  0.55245077  0.16122331  1
  O  O18  1  0.16940870  0.83195238  0.27379822  1
  O  O19  1  0.47763832  0.71413724  0.73749119  1
  O  O20  1  0.52236168  0.28586276  0.26250881  1
  O  O21  1  0.83059130  0.16804762  0.72620178  1
  O  O22  1  0.70648641  0.44754923  0.83877669  1
  O  O23  1  0.65684048  0.96777201  0.87905807  1
  O  O24  1  0.92624315  0.10764282  0.18581246  1
  O  O25  1  0.80525411  0.67725567  0.11932659  1
  O  O26  1  0.91746736  0.64513325  0.73254248  1
  O  O27  1  0.74554699  0.94513404  0.45306021  1
