# generated using pymatgen
data_Co2NiO4
_symmetry_space_group_name_H-M   'P 1'
_cell_length_a   5.79206242
_cell_length_b   5.82253218
_cell_length_c   5.79206258
_cell_angle_alpha   59.82583305
_cell_angle_beta   60.26016549
_cell_angle_gamma   59.82583153
_symmetry_Int_Tables_number   1
_chemical_formula_structural   Co2NiO4
_chemical_formula_sum   'Co4 Ni2 O8'
_cell_volume   138.02480350
_cell_formula_units_Z   2
loop_
 _symmetry_equiv_pos_site_id
 _symmetry_equiv_pos_as_xyz
  1  'x, y, z'
loop_
 _atom_site_type_symbol
 _atom_site_label
 _atom_site_symmetry_multiplicity
 _atom_site_fract_x
 _atom_site_fract_y
 _atom_site_fract_z
 _atom_site_occupancy
  Co  Co0  1  0.13298766  0.11701234  0.13298766  1
  Co  Co1  1  0.50000000  0.00000000  0.50000000  1
  Co  Co2  1  0.50000000  0.50000000  0.50000000  1
  Co  Co3  1  0.86701234  0.88298766  0.86701234  1
  Ni  Ni4  1  0.00000000  0.50000000  0.50000000  1
  Ni  Ni5  1  0.50000000  0.50000000  0.00000000  1
  O  O6  1  0.26469712  0.24608235  0.26469712  1
  O  O7  1  0.27568298  0.25016290  0.72399121  1
  O  O8  1  0.26469712  0.72452341  0.26469712  1
  O  O9  1  0.72399121  0.25016290  0.27568298  1
  O  O10  1  0.27600879  0.74983710  0.72431702  1
  O  O11  1  0.73530288  0.27547659  0.73530288  1
  O  O12  1  0.72431702  0.74983710  0.27600879  1
  O  O13  1  0.73530288  0.75391765  0.73530288  1
