# generated using pymatgen
data_AgSbF6
_symmetry_space_group_name_H-M   'P 1'
_cell_length_a   8.65550221
_cell_length_b   8.65550221
_cell_length_c   8.65550221
_cell_angle_alpha   109.47122062
_cell_angle_beta   109.47122062
_cell_angle_gamma   109.47122064
_symmetry_Int_Tables_number   1
_chemical_formula_structural   AgSbF6
_chemical_formula_sum   'Ag4 Sb4 F24'
_cell_volume   499.17741056
_cell_formula_units_Z   4
loop_
 _symmetry_equiv_pos_site_id
 _symmetry_equiv_pos_as_xyz
  1  'x, y, z'
loop_
 _atom_site_type_symbol
 _atom_site_label
 _atom_site_symmetry_multiplicity
 _atom_site_fract_x
 _atom_site_fract_y
 _atom_site_fract_z
 _atom_site_occupancy
  F  F0  1  0.97461740  0.42145598  0.67804869  1
  F  F1  1  0.24340729  0.29656871  0.82195131  1
  F  F2  1  0.25659271  0.07854402  0.05316142  1
  F  F3  1  0.20343129  0.44683858  0.52538260  1
  F  F4  1  0.44683858  0.52538260  0.20343129  1
  F  F5  1  0.67804869  0.97461740  0.42145598  1
  F  F6  1  0.29656871  0.82195131  0.24340729  1
  F  F7  1  0.05316142  0.25659271  0.07854402  1
  F  F8  1  0.47461740  0.79656871  0.55316142  1
  F  F9  1  0.92145598  0.94683858  0.74340729  1
  F  F10  1  0.17804869  0.75659271  0.70343129  1
  F  F11  1  0.57854402  0.32195131  0.02538260  1
  F  F12  1  0.94683858  0.74340729  0.92145598  1
  F  F13  1  0.70343129  0.17804869  0.75659271  1
  F  F14  1  0.32195131  0.02538260  0.57854402  1
  F  F15  1  0.55316142  0.47461740  0.79656871  1
  F  F16  1  0.79656871  0.55316142  0.47461740  1
  F  F17  1  0.74340729  0.92145598  0.94683858  1
  F  F18  1  0.75659271  0.70343129  0.17804869  1
  F  F19  1  0.02538260  0.57854402  0.32195131  1
  F  F20  1  0.52538260  0.20343129  0.44683858  1
  F  F21  1  0.07854402  0.05316142  0.25659271  1
  F  F22  1  0.82195131  0.24340729  0.29656871  1
  F  F23  1  0.42145598  0.67804869  0.97461740  1
  Ag  Ag24  1  0.50000000  0.50000000  0.50000000  1
  Ag  Ag25  1  0.00000000  0.00000000  0.50000000  1
  Ag  Ag26  1  0.50000000  0.00000000  0.00000000  1
  Ag  Ag27  1  0.00000000  0.50000000  0.00000000  1
  Sb  Sb28  1  0.00000000  0.00000000  0.00000000  1
  Sb  Sb29  1  0.00000000  0.50000000  0.50000000  1
  Sb  Sb30  1  0.50000000  0.00000000  0.50000000  1
  Sb  Sb31  1  0.50000000  0.50000000  0.00000000  1
