# generated using pymatgen
data_Ce3(BN2)2
_symmetry_space_group_name_H-M   'P 1'
_cell_length_a   3.51351199
_cell_length_b   6.21885105
_cell_length_c   6.37598477
_cell_angle_alpha   119.18805686
_cell_angle_beta   105.99342267
_cell_angle_gamma   90.00000004
_symmetry_Int_Tables_number   1
_chemical_formula_structural   Ce3(BN2)2
_chemical_formula_sum   'Ce3 B2 N4'
_cell_volume   115.40954635
_cell_formula_units_Z   1
loop_
 _symmetry_equiv_pos_site_id
 _symmetry_equiv_pos_as_xyz
  1  'x, y, z'
loop_
 _atom_site_type_symbol
 _atom_site_label
 _atom_site_symmetry_multiplicity
 _atom_site_fract_x
 _atom_site_fract_y
 _atom_site_fract_z
 _atom_site_occupancy
  B  B0  1  0.50000000  0.35733575  0.00000000  1
  B  B1  1  0.50000000  0.64266425  0.00000000  1
  N  N2  1  0.62208571  0.36043602  0.24417142  1
  N  N3  1  0.62208571  0.88373540  0.24417142  1
  N  N4  1  0.37791429  0.11626460  0.75582858  1
  N  N5  1  0.37791429  0.63956398  0.75582858  1
  Ce  Ce6  1  0.19703786  0.69703786  0.39407571  1
  Ce  Ce7  1  0.80296214  0.30296214  0.60592429  1
  Ce  Ce8  1  0.00000000  0.00000000  0.00000000  1
