# generated using pymatgen
data_Er2Si3Ni
_symmetry_space_group_name_H-M   'P 1'
_cell_length_a   4.03048981
_cell_length_b   3.98954208
_cell_length_c   7.86903122
_cell_angle_alpha   90.00000000
_cell_angle_beta   90.00000000
_cell_angle_gamma   59.56128529
_symmetry_Int_Tables_number   1
_chemical_formula_structural   Er2Si3Ni
_chemical_formula_sum   'Er2 Si3 Ni1'
_cell_volume   109.09273545
_cell_formula_units_Z   1
loop_
 _symmetry_equiv_pos_site_id
 _symmetry_equiv_pos_as_xyz
  1  'x, y, z'
loop_
 _atom_site_type_symbol
 _atom_site_label
 _atom_site_symmetry_multiplicity
 _atom_site_fract_x
 _atom_site_fract_y
 _atom_site_fract_z
 _atom_site_occupancy
  Er  Er0  1  0.00004032  0.99978892  0.01015645  1
  Er  Er1  1  0.00004032  0.99978892  0.48984355  1
  Si  Si2  1  0.66588844  0.66791176  0.75000000  1
  Si  Si3  1  0.33282010  0.33472914  0.25000000  1
  Si  Si4  1  0.33405701  0.33212872  0.75000000  1
  Ni  Ni5  1  0.66695380  0.66565254  0.25000000  1
