# generated using pymatgen
data_LiTi2O4
_symmetry_space_group_name_H-M   'P 1'
_cell_length_a   7.88679128
_cell_length_b   7.89166779
_cell_length_c   10.65016397
_cell_angle_alpha   83.58763773
_cell_angle_beta   99.16267055
_cell_angle_gamma   120.19256974
_symmetry_Int_Tables_number   1
_chemical_formula_structural   LiTi2O4
_chemical_formula_sum   'Li7 Ti14 O28'
_cell_volume   565.24259547
_cell_formula_units_Z   7
loop_
 _symmetry_equiv_pos_site_id
 _symmetry_equiv_pos_as_xyz
  1  'x, y, z'
loop_
 _atom_site_type_symbol
 _atom_site_label
 _atom_site_symmetry_multiplicity
 _atom_site_fract_x
 _atom_site_fract_y
 _atom_site_fract_z
 _atom_site_occupancy
  Li  Li0  1  0.13982470  0.95743705  0.78130405  1
  Li  Li1  1  0.29236396  0.68012107  0.77759867  1
  Li  Li2  1  0.44625361  0.39313083  0.78120303  1
  Li  Li3  1  0.79953317  0.25422002  0.73742892  1
  Li  Li4  1  0.99806662  0.74806765  0.22115188  1
  Li  Li5  1  0.37037240  0.41030112  0.26391629  1
  Li  Li6  1  0.84593582  0.04019260  0.22100120  1
  Ti  Ti7  1  0.85326476  0.77274315  0.50411445  1
  Ti  Ti8  1  0.29425651  0.94467899  0.49630571  1
  Ti  Ti9  1  0.42843808  0.64832149  0.49688347  1
  Ti  Ti10  1  0.57350973  0.35594706  0.50316263  1
  Ti  Ti11  1  0.71357288  0.06987580  0.49574737  1
  Ti  Ti12  1  0.00300391  0.49893752  0.49541653  1
  Ti  Ti13  1  0.13451879  0.21303736  0.50448238  1
  Ti  Ti14  1  0.57342936  0.85321694  0.99534236  1
  Ti  Ti15  1  0.71449132  0.58224008  0.99635838  1
  Ti  Ti16  1  0.86000671  0.29991317  0.00664827  1
  Ti  Ti17  1  0.14796636  0.71123729  0.00778341  1
  Ti  Ti18  1  0.27171363  0.41444343  0.99498355  1
  Ti  Ti19  1  0.43664493  0.13830010  0.01746890  1
  Ti  Ti20  1  0.99923887  0.00948311  0.99154048  1
  O  O21  1  0.93941973  0.77084497  0.89929869  1
  O  O22  1  0.35515035  0.90672380  0.89873329  1
  O  O23  1  0.49365137  0.61810680  0.88861503  1
  O  O24  1  0.64237893  0.33744743  0.90313029  1
  O  O25  1  0.79347143  0.06636393  0.89921972  1
  O  O26  1  0.07530557  0.48397174  0.89448099  1
  O  O27  1  0.23072985  0.19136704  0.89271897  1
  O  O28  1  0.68446501  0.82749106  0.59297177  1
  O  O29  1  0.83192689  0.53807990  0.60168773  1
  O  O30  1  0.96453079  0.25716977  0.60367792  1
  O  O31  1  0.11441589  0.96805989  0.60103394  1
  O  O32  1  0.25570090  0.68361208  0.59755039  1
  O  O33  1  0.39996814  0.40000034  0.60159793  1
  O  O34  1  0.54903820  0.11626958  0.60428938  1
  O  O35  1  0.45463229  0.88290027  0.40282942  1
  O  O36  1  0.59432227  0.59419675  0.39985413  1
  O  O37  1  0.74424828  0.31414973  0.40362500  1
  O  O38  1  0.88905868  0.02813582  0.40049253  1
  O  O39  1  0.02858056  0.74608536  0.40056534  1
  O  O40  1  0.17991681  0.45533547  0.40049377  1
  O  O41  1  0.31477775  0.17895626  0.39937482  1
  O  O42  1  0.78979167  0.81255078  0.10339820  1
  O  O43  1  0.92084843  0.52896271  0.10449258  1
  O  O44  1  0.20108928  0.94286797  0.10177481  1
  O  O45  1  0.35167738  0.65313733  0.09495903  1
  O  O46  1  0.48720288  0.37584433  0.09877066  1
  O  O47  1  0.64306934  0.08309468  0.10364465  1
  O  O48  1  0.06208817  0.22977940  0.10599706  1
