# generated using pymatgen
data_CaLaTiCrO6
_symmetry_space_group_name_H-M   'P 1'
_cell_length_a   5.49260638
_cell_length_b   5.55069909
_cell_length_c   7.78680223
_cell_angle_alpha   90.00000000
_cell_angle_beta   90.02181626
_cell_angle_gamma   90.00000000
_symmetry_Int_Tables_number   1
_chemical_formula_structural   CaLaTiCrO6
_chemical_formula_sum   'Ca2 La2 Ti2 Cr2 O12'
_cell_volume   237.40249257
_cell_formula_units_Z   2
loop_
 _symmetry_equiv_pos_site_id
 _symmetry_equiv_pos_as_xyz
  1  'x, y, z'
loop_
 _atom_site_type_symbol
 _atom_site_label
 _atom_site_symmetry_multiplicity
 _atom_site_fract_x
 _atom_site_fract_y
 _atom_site_fract_z
 _atom_site_occupancy
  Ca  Ca0  1  0.48996809  0.45871600  0.74968977  1
  Ca  Ca1  1  0.98996809  0.04128400  0.24968977  1
  La  La2  1  0.00678544  0.96804906  0.75061699  1
  La  La3  1  0.50678444  0.53195094  0.25061699  1
  Ti  Ti4  1  0.50004208  0.00078949  0.00137550  1
  Ti  Ti5  1  0.00004208  0.49921051  0.50137550  1
  Cr  Cr6  1  0.50036502  0.99947021  0.49958906  1
  Cr  Cr7  1  0.00036502  0.50052979  0.99958906  1
  O  O8  1  0.07402968  0.47996082  0.25254557  1
  O  O9  1  0.21988291  0.21511215  0.96075004  1
  O  O10  1  0.21451846  0.21856146  0.54021667  1
  O  O11  1  0.29018133  0.71691514  0.95708528  1
  O  O12  1  0.28440794  0.71019649  0.54113882  1
  O  O13  1  0.41981904  0.98371044  0.24699231  1
  O  O14  1  0.57402968  0.02003918  0.75254557  1
  O  O15  1  0.71988291  0.28488785  0.46075004  1
  O  O16  1  0.71451846  0.28143854  0.04021667  1
  O  O17  1  0.79018133  0.78308486  0.45708528  1
  O  O18  1  0.78440794  0.78980351  0.04113882  1
  O  O19  1  0.91981904  0.51628956  0.74699231  1
