# generated using pymatgen
data_Zr2CoSi2
_symmetry_space_group_name_H-M   'P 1'
_cell_length_a   3.89593550
_cell_length_b   5.34218561
_cell_length_c   8.56099971
_cell_angle_alpha   82.47431756
_cell_angle_beta   76.84773009
_cell_angle_gamma   68.61464905
_symmetry_Int_Tables_number   1
_chemical_formula_structural   Zr2CoSi2
_chemical_formula_sum   'Zr4 Co2 Si4'
_cell_volume   161.33213119
_cell_formula_units_Z   2
loop_
 _symmetry_equiv_pos_site_id
 _symmetry_equiv_pos_as_xyz
  1  'x, y, z'
loop_
 _atom_site_type_symbol
 _atom_site_label
 _atom_site_symmetry_multiplicity
 _atom_site_fract_x
 _atom_site_fract_y
 _atom_site_fract_z
 _atom_site_occupancy
  Si  Si0  1  0.64368138  0.28161949  0.43101774  1
  Si  Si1  1  0.35631862  0.71838051  0.56898226  1
  Si  Si2  1  0.51265997  0.85111815  0.12356190  1
  Si  Si3  1  0.48734003  0.14888185  0.87643810  1
  Co  Co4  1  0.27718441  0.07295268  0.37267851  1
  Co  Co5  1  0.72281559  0.92704732  0.62732149  1
  Zr  Zr6  1  0.81261088  0.27250898  0.10226926  1
  Zr  Zr7  1  0.18738912  0.72749102  0.89773074  1
  Zr  Zr8  1  0.99677766  0.33067469  0.67576999  1
  Zr  Zr9  1  0.00322234  0.66932531  0.32423001  1
