# generated using pymatgen
data_K2NaTiOF5
_symmetry_space_group_name_H-M   'P 1'
_cell_length_a   5.99689083
_cell_length_b   5.97906424
_cell_length_c   5.99689076
_cell_angle_alpha   60.09828570
_cell_angle_beta   59.80343646
_cell_angle_gamma   60.09827755
_symmetry_Int_Tables_number   1
_chemical_formula_structural   K2NaTiOF5
_chemical_formula_sum   'K2 Na1 Ti1 O1 F5'
_cell_volume   152.04174636
_cell_formula_units_Z   1
loop_
 _symmetry_equiv_pos_site_id
 _symmetry_equiv_pos_as_xyz
  1  'x, y, z'
loop_
 _atom_site_type_symbol
 _atom_site_label
 _atom_site_symmetry_multiplicity
 _atom_site_fract_x
 _atom_site_fract_y
 _atom_site_fract_z
 _atom_site_occupancy
  F  F0  1  0.22575492  0.23423205  0.76576795  1
  F  F1  1  0.22575492  0.77424508  0.76576795  1
  F  F2  1  0.76576795  0.23423205  0.22575492  1
  F  F3  1  0.76576795  0.77424508  0.22575492  1
  F  F4  1  0.76940157  0.23059843  0.76940157  1
  K  K5  1  0.25273724  0.24726276  0.25273724  1
  K  K6  1  0.75273724  0.74726276  0.75273724  1
  Na  Na7  1  0.49999043  0.50000957  0.49999043  1
  O  O8  1  0.22189083  0.77810917  0.22189083  1
  Ti  Ti9  1  0.02019695  0.97980305  0.02019695  1
