# generated using pymatgen
data_CaLaMn2O6
_symmetry_space_group_name_H-M   'P 1'
_cell_length_a   5.48344641
_cell_length_b   7.76696878
_cell_length_c   10.98008006
_cell_angle_alpha   90.00000000
_cell_angle_beta   90.00000000
_cell_angle_gamma   90.00000000
_symmetry_Int_Tables_number   1
_chemical_formula_structural   CaLaMn2O6
_chemical_formula_sum   'Ca4 La4 Mn8 O24'
_cell_volume   467.63894240
_cell_formula_units_Z   4
loop_
 _symmetry_equiv_pos_site_id
 _symmetry_equiv_pos_as_xyz
  1  'x, y, z'
loop_
 _atom_site_type_symbol
 _atom_site_label
 _atom_site_symmetry_multiplicity
 _atom_site_fract_x
 _atom_site_fract_y
 _atom_site_fract_z
 _atom_site_occupancy
  Ca  Ca0  1  0.47898045  -0.00000000  0.39150309  1
  Ca  Ca1  1  0.98324115  0.50000000  0.10687139  1
  Ca  Ca2  1  0.97898045  0.50000000  0.60849691  1
  Ca  Ca3  1  0.48324115  -0.00000000  0.89312861  1
  La  La4  1  0.47134426  0.50000000  0.85909249  1
  La  La5  1  0.97190882  -0.00000000  0.63975565  1
  La  La6  1  0.47190882  0.50000000  0.36024435  1
  La  La7  1  0.97134426  -0.00000000  0.14090751  1
  Mn  Mn8  1  0.47650350  0.24952300  0.62411897  1
  Mn  Mn9  1  0.47650350  0.75047700  0.62411897  1
  Mn  Mn10  1  0.47749827  0.25058180  0.12449674  1
  Mn  Mn11  1  0.97749827  0.24941820  0.87550326  1
  Mn  Mn12  1  0.47749827  0.74941820  0.12449674  1
  Mn  Mn13  1  0.97650350  0.74952300  0.37588103  1
  Mn  Mn14  1  0.97650350  0.25047700  0.37588103  1
  Mn  Mn15  1  0.97749827  0.75058180  0.87550326  1
  O  O16  1  0.68712324  0.78975619  0.76781225  1
  O  O17  1  0.05086966  -0.00000000  0.86980473  1
  O  O18  1  0.54726701  0.50000000  0.63071735  1
  O  O19  1  0.91218661  0.50000000  0.88000849  1
  O  O20  1  0.69098276  0.78777771  0.27057870  1
  O  O21  1  0.55086966  0.50000000  0.13019527  1
  O  O22  1  0.26008249  0.71560308  0.98312134  1
  O  O23  1  0.26557933  0.28191444  0.48046892  1
  O  O24  1  0.04726701  -0.00000000  0.36928265  1
  O  O25  1  0.91286585  0.50000000  0.38457710  1
  O  O26  1  0.76008249  0.78439692  0.01687866  1
  O  O27  1  0.76557933  0.21808556  0.51953108  1
  O  O28  1  0.26008249  0.28439692  0.98312134  1
  O  O29  1  0.19098276  0.28777771  0.72942130  1
  O  O30  1  0.69098276  0.21222229  0.27057870  1
  O  O31  1  0.76008249  0.21560308  0.01687866  1
  O  O32  1  0.41218661  -0.00000000  0.11999151  1
  O  O33  1  0.68712324  0.21024381  0.76781225  1
  O  O34  1  0.19098276  0.71222229  0.72942130  1
  O  O35  1  0.18712324  0.28975619  0.23218775  1
  O  O36  1  0.41286585  -0.00000000  0.61542290  1
  O  O37  1  0.76557933  0.78191444  0.51953108  1
  O  O38  1  0.18712324  0.71024381  0.23218775  1
  O  O39  1  0.26557933  0.71808556  0.48046892  1
