# generated using pymatgen
data_K4Rb2Co2O5
_symmetry_space_group_name_H-M   'P 1'
_cell_length_a   6.80198222
_cell_length_b   6.80198222
_cell_length_c   11.87734115
_cell_angle_alpha   90.00000000
_cell_angle_beta   90.00000000
_cell_angle_gamma   90.00000000
_symmetry_Int_Tables_number   1
_chemical_formula_structural   K4Rb2Co2O5
_chemical_formula_sum   'K8 Rb4 Co4 O10'
_cell_volume   549.52849309
_cell_formula_units_Z   2
loop_
 _symmetry_equiv_pos_site_id
 _symmetry_equiv_pos_as_xyz
  1  'x, y, z'
loop_
 _atom_site_type_symbol
 _atom_site_label
 _atom_site_symmetry_multiplicity
 _atom_site_fract_x
 _atom_site_fract_y
 _atom_site_fract_z
 _atom_site_occupancy
  O  O0  1  0.50000000  0.50000000  0.50000000  1
  O  O1  1  0.00000000  0.00000000  0.00000000  1
  O  O2  1  0.78341725  0.78341725  0.35980523  1
  O  O3  1  0.21658275  0.21658275  0.35980523  1
  O  O4  1  0.78341725  0.78341725  0.64019477  1
  O  O5  1  0.28341725  0.71658275  0.85980523  1
  O  O6  1  0.71658275  0.28341725  0.85980523  1
  O  O7  1  0.71658275  0.28341725  0.14019477  1
  O  O8  1  0.21658275  0.21658275  0.64019477  1
  O  O9  1  0.28341725  0.71658275  0.14019477  1
  K  K10  1  0.50000000  0.00000000  0.25000000  1
  K  K11  1  0.50000000  0.00000000  0.75000000  1
  K  K12  1  0.00000000  0.00000000  0.77903928  1
  K  K13  1  0.50000000  0.50000000  0.27903928  1
  K  K14  1  0.50000000  0.50000000  0.72096072  1
  K  K15  1  0.00000000  0.00000000  0.22096072  1
  K  K16  1  0.00000000  0.50000000  0.25000000  1
  K  K17  1  0.00000000  0.50000000  0.75000000  1
  Co  Co18  1  0.20430839  0.79569161  0.00000000  1
  Co  Co19  1  0.70430839  0.70430839  0.50000000  1
  Co  Co20  1  0.29569161  0.29569161  0.50000000  1
  Co  Co21  1  0.79569161  0.20430839  0.00000000  1
  Rb  Rb22  1  0.31356212  0.31356212  0.00000000  1
  Rb  Rb23  1  0.18643788  0.81356212  0.50000000  1
  Rb  Rb24  1  0.81356212  0.18643788  0.50000000  1
  Rb  Rb25  1  0.68643788  0.68643788  0.00000000  1
