# generated using pymatgen
data_Rb2Na4Co2O5
_symmetry_space_group_name_H-M   'P 1'
_cell_length_a   6.52680537
_cell_length_b   6.52680537
_cell_length_c   10.34603246
_cell_angle_alpha   90.00000000
_cell_angle_beta   90.00000000
_cell_angle_gamma   90.00000000
_symmetry_Int_Tables_number   1
_chemical_formula_structural   Rb2Na4Co2O5
_chemical_formula_sum   'Rb4 Na8 Co4 O10'
_cell_volume   440.73258531
_cell_formula_units_Z   2
loop_
 _symmetry_equiv_pos_site_id
 _symmetry_equiv_pos_as_xyz
  1  'x, y, z'
loop_
 _atom_site_type_symbol
 _atom_site_label
 _atom_site_symmetry_multiplicity
 _atom_site_fract_x
 _atom_site_fract_y
 _atom_site_fract_z
 _atom_site_occupancy
  O  O0  1  0.50000000  0.50000000  0.50000000  1
  O  O1  1  0.00000000  0.00000000  0.00000000  1
  O  O2  1  0.71835303  0.28164697  0.83572851  1
  O  O3  1  0.28164697  0.71835303  0.83572851  1
  O  O4  1  0.21835303  0.21835303  0.33572851  1
  O  O5  1  0.78164697  0.78164697  0.66427149  1
  O  O6  1  0.21835303  0.21835303  0.66427149  1
  O  O7  1  0.71835303  0.28164697  0.16427149  1
  O  O8  1  0.78164697  0.78164697  0.33572851  1
  O  O9  1  0.28164697  0.71835303  0.16427149  1
  Na  Na10  1  0.00000000  0.50000000  0.75000000  1
  Na  Na11  1  0.50000000  0.00000000  0.75000000  1
  Na  Na12  1  0.00000000  0.00000000  0.77746457  1
  Na  Na13  1  0.50000000  0.00000000  0.25000000  1
  Na  Na14  1  0.50000000  0.50000000  0.27746457  1
  Na  Na15  1  0.50000000  0.50000000  0.72253543  1
  Na  Na16  1  0.00000000  0.00000000  0.22253543  1
  Na  Na17  1  0.00000000  0.50000000  0.25000000  1
  Co  Co18  1  0.71002631  0.71002631  0.50000000  1
  Co  Co19  1  0.78997369  0.21002631  0.00000000  1
  Co  Co20  1  0.21002631  0.78997369  0.00000000  1
  Co  Co21  1  0.28997369  0.28997369  0.50000000  1
  Rb  Rb22  1  0.30359843  0.30359843  0.00000000  1
  Rb  Rb23  1  0.19640157  0.80359843  0.50000000  1
  Rb  Rb24  1  0.80359843  0.19640157  0.50000000  1
  Rb  Rb25  1  0.69640157  0.69640157  0.00000000  1
