# generated using pymatgen
data_K2Na4Co2O5
_symmetry_space_group_name_H-M   'P 1'
_cell_length_a   6.38450940
_cell_length_b   6.38450940
_cell_length_c   10.48301664
_cell_angle_alpha   90.00000000
_cell_angle_beta   90.00000000
_cell_angle_gamma   90.00000000
_symmetry_Int_Tables_number   1
_chemical_formula_structural   K2Na4Co2O5
_chemical_formula_sum   'K4 Na8 Co4 O10'
_cell_volume   427.30830788
_cell_formula_units_Z   2
loop_
 _symmetry_equiv_pos_site_id
 _symmetry_equiv_pos_as_xyz
  1  'x, y, z'
loop_
 _atom_site_type_symbol
 _atom_site_label
 _atom_site_symmetry_multiplicity
 _atom_site_fract_x
 _atom_site_fract_y
 _atom_site_fract_z
 _atom_site_occupancy
  O  O0  1  0.50000000  0.50000000  0.50000000  1
  O  O1  1  0.21327269  0.21327269  0.33853649  1
  O  O2  1  0.78672731  0.78672731  0.66146351  1
  O  O3  1  0.21327269  0.21327269  0.66146351  1
  O  O4  1  0.71327269  0.28672731  0.16146351  1
  O  O5  1  0.28672731  0.71327269  0.83853649  1
  O  O6  1  0.71327269  0.28672731  0.83853649  1
  O  O7  1  0.28672731  0.71327269  0.16146351  1
  O  O8  1  0.78672731  0.78672731  0.33853649  1
  O  O9  1  0.00000000  0.00000000  0.00000000  1
  Na  Na10  1  0.00000000  0.50000000  0.75000000  1
  Na  Na11  1  0.50000000  0.00000000  0.75000000  1
  Na  Na12  1  0.00000000  0.50000000  0.25000000  1
  Na  Na13  1  0.50000000  0.50000000  0.27959316  1
  Na  Na14  1  0.50000000  0.50000000  0.72040684  1
  Na  Na15  1  0.50000000  0.00000000  0.25000000  1
  Na  Na16  1  0.00000000  0.00000000  0.77959316  1
  Na  Na17  1  0.00000000  0.00000000  0.22040684  1
  K  K18  1  0.19608272  0.80391728  0.50000000  1
  K  K19  1  0.80391728  0.19608272  0.50000000  1
  K  K20  1  0.30391728  0.30391728  0.00000000  1
  K  K21  1  0.69608272  0.69608272  0.00000000  1
  Co  Co22  1  0.21371214  0.78628786  0.00000000  1
  Co  Co23  1  0.71371214  0.71371214  0.50000000  1
  Co  Co24  1  0.78628786  0.21371214  0.00000000  1
  Co  Co25  1  0.28628786  0.28628786  0.50000000  1
