# generated using pymatgen
data_K3FeO4
_symmetry_space_group_name_H-M   'P 1'
_cell_length_a   7.77209451
_cell_length_b   7.96224704
_cell_length_c   9.23238754
_cell_angle_alpha   90.00000000
_cell_angle_beta   90.00000000
_cell_angle_gamma   90.00000000
_symmetry_Int_Tables_number   1
_chemical_formula_structural   K3FeO4
_chemical_formula_sum   'K12 Fe4 O16'
_cell_volume   571.33094490
_cell_formula_units_Z   4
loop_
 _symmetry_equiv_pos_site_id
 _symmetry_equiv_pos_as_xyz
  1  'x, y, z'
loop_
 _atom_site_type_symbol
 _atom_site_label
 _atom_site_symmetry_multiplicity
 _atom_site_fract_x
 _atom_site_fract_y
 _atom_site_fract_z
 _atom_site_occupancy
  O  O0  1  0.28785336  0.22488794  0.25000000  1
  O  O1  1  0.78785336  0.27511206  0.25000000  1
  O  O2  1  0.21214664  0.72488794  0.75000000  1
  O  O3  1  0.71214664  0.77511206  0.75000000  1
  O  O4  1  0.97865640  0.57977064  0.25000000  1
  O  O5  1  0.47865640  0.92022936  0.25000000  1
  O  O6  1  0.52134360  0.07977064  0.75000000  1
  O  O7  1  0.02134360  0.42022936  0.75000000  1
  O  O8  1  0.81675839  0.04272266  0.58066455  1
  O  O9  1  0.31675839  0.45727734  0.91933545  1
  O  O10  1  0.68324161  0.54272266  0.41933545  1
  O  O11  1  0.18324161  0.95727734  0.08066455  1
  O  O12  1  0.18324161  0.95727734  0.41933545  1
  O  O13  1  0.81675839  0.04272266  0.91933545  1
  O  O14  1  0.31675839  0.45727734  0.58066455  1
  O  O15  1  0.68324161  0.54272266  0.08066455  1
  K  K16  1  0.03723360  0.27869961  0.03620376  1
  K  K17  1  0.82830649  0.94393264  0.25000000  1
  K  K18  1  0.17169351  0.05606736  0.75000000  1
  K  K19  1  0.67169351  0.44393264  0.75000000  1
  K  K20  1  0.96276640  0.72130039  0.96379624  1
  K  K21  1  0.46276640  0.77869961  0.53620376  1
  K  K22  1  0.53723360  0.22130039  0.03620376  1
  K  K23  1  0.03723360  0.27869961  0.46379624  1
  K  K24  1  0.96276640  0.72130039  0.53620376  1
  K  K25  1  0.53723360  0.22130039  0.46379624  1
  K  K26  1  0.46276640  0.77869961  0.96379624  1
  K  K27  1  0.32830649  0.55606736  0.25000000  1
  Fe  Fe28  1  0.27401201  0.00751645  0.25000000  1
  Fe  Fe29  1  0.77401201  0.49248355  0.25000000  1
  Fe  Fe30  1  0.22598799  0.50751645  0.75000000  1
  Fe  Fe31  1  0.72598799  0.99248355  0.75000000  1
