# generated using pymatgen
data_MgH12SeO9
_symmetry_space_group_name_H-M   'P 1'
_cell_length_a   5.99897014
_cell_length_b   5.99897011
_cell_length_c   5.99896971
_cell_angle_alpha   96.86554323
_cell_angle_beta   96.86554321
_cell_angle_gamma   96.86554834
_symmetry_Int_Tables_number   1
_chemical_formula_structural   MgH12SeO9
_chemical_formula_sum   'Mg1 H12 Se1 O9'
_cell_volume   210.83330471
_cell_formula_units_Z   1
loop_
 _symmetry_equiv_pos_site_id
 _symmetry_equiv_pos_as_xyz
  1  'x, y, z'
loop_
 _atom_site_type_symbol
 _atom_site_label
 _atom_site_symmetry_multiplicity
 _atom_site_fract_x
 _atom_site_fract_y
 _atom_site_fract_z
 _atom_site_occupancy
  Mg  Mg0  1  0.00600720  0.00600720  0.00600720  1
  Se  Se1  1  0.52337133  0.52337133  0.52337133  1
  O  O2  1  0.57627819  0.49148485  0.24383981  1
  O  O3  1  0.24383981  0.57627819  0.49148485  1
  O  O4  1  0.49148485  0.24383981  0.57627819  1
  O  O5  1  0.68532697  0.88134913  0.07263013  1
  O  O6  1  0.07263013  0.68532697  0.88134913  1
  O  O7  1  0.88134913  0.07263013  0.68532697  1
  O  O8  1  0.34276176  0.14497505  0.96403748  1
  O  O9  1  0.96403748  0.34276176  0.14497505  1
  O  O10  1  0.14497505  0.96403748  0.34276176  1
  H  H11  1  0.54902427  0.95619433  0.03931546  1
  H  H12  1  0.03931547  0.54902427  0.95619433  1
  H  H13  1  0.95619433  0.03931546  0.54902427  1
  H  H14  1  0.63899380  0.73939603  0.13686710  1
  H  H15  1  0.13686711  0.63899380  0.73939603  1
  H  H16  1  0.73939603  0.13686711  0.63899380  1
  H  H17  1  0.41702558  0.28216141  0.07464357  1
  H  H18  1  0.07464357  0.41702558  0.28216141  1
  H  H19  1  0.28216141  0.07464357  0.41702558  1
  H  H20  1  0.38250890  0.18317612  0.81383151  1
  H  H21  1  0.81383151  0.38250890  0.18317612  1
  H  H22  1  0.18317612  0.81383151  0.38250890  1
