# generated using pymatgen
data_Na2V2O5
_symmetry_space_group_name_H-M   'P 1'
_cell_length_a   5.35747437
_cell_length_b   24.42260821
_cell_length_c   8.77648657
_cell_angle_alpha   90.00000000
_cell_angle_beta   90.38181221
_cell_angle_gamma   90.00000000
_symmetry_Int_Tables_number   1
_chemical_formula_structural   Na2V2O5
_chemical_formula_sum   'Na16 V16 O40'
_cell_volume   1148.32070170
_cell_formula_units_Z   8
loop_
 _symmetry_equiv_pos_site_id
 _symmetry_equiv_pos_as_xyz
  1  'x, y, z'
loop_
 _atom_site_type_symbol
 _atom_site_label
 _atom_site_symmetry_multiplicity
 _atom_site_fract_x
 _atom_site_fract_y
 _atom_site_fract_z
 _atom_site_occupancy
  Na  Na0  1  0.21112748  0.26129904  0.51846335  1
  Na  Na1  1  0.21112748  0.23870096  0.01846335  1
  Na  Na2  1  0.22734305  0.71909337  0.72952389  1
  Na  Na3  1  0.22734305  0.78090663  0.22952389  1
  Na  Na4  1  0.26686226  0.47040669  0.90645567  1
  Na  Na5  1  0.26686226  0.02959331  0.40645567  1
  Na  Na6  1  0.29661860  0.98461483  0.83959857  1
  Na  Na7  1  0.29661860  0.51538517  0.33959857  1
  Na  Na8  1  0.70338140  0.48461483  0.66040143  1
  Na  Na9  1  0.70338140  0.01538517  0.16040143  1
  Na  Na10  1  0.73313774  0.97040669  0.59354433  1
  Na  Na11  1  0.73313774  0.52959331  0.09354433  1
  Na  Na12  1  0.77265695  0.21909337  0.77047611  1
  Na  Na13  1  0.77265695  0.28090663  0.27047611  1
  Na  Na14  1  0.78887252  0.76129904  0.98153665  1
  Na  Na15  1  0.78887252  0.73870096  0.48153665  1
  V  V16  1  0.16946657  0.41192685  0.54037572  1
  V  V17  1  0.16946657  0.08807315  0.04037572  1
  V  V18  1  0.19781192  0.88723366  0.52045086  1
  V  V19  1  0.19781192  0.61276634  0.02045086  1
  V  V20  1  0.30464949  0.13555408  0.69898160  1
  V  V21  1  0.30464949  0.36444592  0.19898160  1
  V  V22  1  0.32943906  0.83696196  0.86106016  1
  V  V23  1  0.32943906  0.66303804  0.36106016  1
  V  V24  1  0.67056094  0.33696196  0.63893984  1
  V  V25  1  0.67056094  0.16303804  0.13893984  1
  V  V26  1  0.69535051  0.63555408  0.80101840  1
  V  V27  1  0.69535051  0.86444592  0.30101840  1
  V  V28  1  0.80218808  0.38723366  0.97954914  1
  V  V29  1  0.80218808  0.11276634  0.47954914  1
  V  V30  1  0.83053343  0.91192685  0.95962428  1
  V  V31  1  0.83053343  0.58807315  0.45962428  1
  O  O32  1  0.14265187  0.11348845  0.51939215  1
  O  O33  1  0.14265187  0.38651155  0.01939215  1
  O  O34  1  0.16253143  0.89877558  0.93246377  1
  O  O35  1  0.16253143  0.60122442  0.43246377  1
  O  O36  1  0.22035953  0.20292470  0.74409596  1
  O  O37  1  0.22035953  0.29707530  0.24409596  1
  O  O38  1  0.23898116  0.07985400  0.83523993  1
  O  O39  1  0.26621604  0.46920036  0.64023437  1
  O  O40  1  0.23898116  0.42014600  0.33523993  1
  O  O41  1  0.26621604  0.03079964  0.14023437  1
  O  O42  1  0.23402478  0.77881760  0.95780556  1
  O  O43  1  0.23402478  0.72118240  0.45780556  1
  O  O44  1  0.26045926  0.83120185  0.65627846  1
  O  O45  1  0.26045926  0.66879815  0.15627846  1
  O  O46  1  0.28075296  0.95420328  0.57190758  1
  O  O47  1  0.28075296  0.54579672  0.07190758  1
  O  O48  1  0.33664374  0.34904616  0.60905079  1
  O  O49  1  0.33664374  0.15095384  0.10905079  1
  O  O50  1  0.35729409  0.63406601  0.84086085  1
  O  O51  1  0.35729409  0.86593399  0.34086085  1
  O  O52  1  0.64270591  0.13406601  0.65913915  1
  O  O53  1  0.64270591  0.36593399  0.15913915  1
  O  O54  1  0.66335626  0.84904616  0.89094921  1
  O  O55  1  0.66335626  0.65095384  0.39094921  1
  O  O56  1  0.71924704  0.45420328  0.92809242  1
  O  O57  1  0.71924704  0.04579672  0.42809242  1
  O  O58  1  0.73954074  0.33120185  0.84372154  1
  O  O59  1  0.73954074  0.16879815  0.34372154  1
  O  O60  1  0.76597522  0.27881760  0.54219444  1
  O  O61  1  0.76597522  0.22118240  0.04219444  1
  O  O62  1  0.73378396  0.96920036  0.85976563  1
  O  O63  1  0.76101884  0.57985400  0.66476007  1
  O  O64  1  0.73378396  0.53079964  0.35976563  1
  O  O65  1  0.76101884  0.92014600  0.16476007  1
  O  O66  1  0.77964047  0.70292470  0.75590404  1
  O  O67  1  0.77964047  0.79707530  0.25590404  1
  O  O68  1  0.83746857  0.39877558  0.56753623  1
  O  O69  1  0.83746857  0.10122442  0.06753623  1
  O  O70  1  0.85734813  0.61348845  0.98060785  1
  O  O71  1  0.85734813  0.88651155  0.48060785  1
