# generated using pymatgen
data_Pb2CO4
_symmetry_space_group_name_H-M   'P 1'
_cell_length_a   5.25264411
_cell_length_b   9.49909698
_cell_length_c   9.50266167
_cell_angle_alpha   90.00000000
_cell_angle_beta   90.00000000
_cell_angle_gamma   90.00000000
_symmetry_Int_Tables_number   1
_chemical_formula_structural   Pb2CO4
_chemical_formula_sum   'Pb8 C4 O16'
_cell_volume   474.13887515
_cell_formula_units_Z   4
loop_
 _symmetry_equiv_pos_site_id
 _symmetry_equiv_pos_as_xyz
  1  'x, y, z'
loop_
 _atom_site_type_symbol
 _atom_site_label
 _atom_site_symmetry_multiplicity
 _atom_site_fract_x
 _atom_site_fract_y
 _atom_site_fract_z
 _atom_site_occupancy
  Pb  Pb0  1  0.01208715  0.54538334  0.58759175  1
  Pb  Pb1  1  0.51208715  0.95461666  0.41240825  1
  Pb  Pb2  1  0.98791285  0.04538334  0.91240825  1
  Pb  Pb3  1  0.48791285  0.45461666  0.08759175  1
  Pb  Pb4  1  0.95044346  0.24461190  0.35009383  1
  Pb  Pb5  1  0.45044346  0.25538810  0.64990617  1
  Pb  Pb6  1  0.04955654  0.74461190  0.14990617  1
  Pb  Pb7  1  0.54955654  0.75538810  0.85009383  1
  C  C8  1  0.98990278  0.49424371  0.90268433  1
  C  C9  1  0.48990278  0.00575629  0.09731567  1
  C  C10  1  0.01009722  0.99424371  0.59731567  1
  C  C11  1  0.51009722  0.50575629  0.40268433  1
  O  O12  1  0.20484424  0.48690186  0.83743646  1
  O  O13  1  0.70484424  0.01309814  0.16256354  1
  O  O14  1  0.79515576  0.98690186  0.66256354  1
  O  O15  1  0.29515576  0.51309814  0.33743646  1
  O  O16  1  0.72196923  0.49088924  0.33290403  1
  O  O17  1  0.22196923  0.00911076  0.66709597  1
  O  O18  1  0.27803077  0.99088924  0.16709597  1
  O  O19  1  0.77803077  0.50911076  0.83290403  1
  O  O20  1  0.01791861  0.98649743  0.45945695  1
  O  O21  1  0.51791861  0.51350257  0.54054305  1
  O  O22  1  0.98208139  0.48649743  0.04054305  1
  O  O23  1  0.48208139  0.01350257  0.95945695  1
  O  O24  1  0.04503932  0.31428043  0.57090990  1
  O  O25  1  0.54503932  0.18571957  0.42909010  1
  O  O26  1  0.95496068  0.81428043  0.92909010  1
  O  O27  1  0.45496068  0.68571957  0.07090990  1
