# generated using pymatgen
data_Ho2Mo4O15
_symmetry_space_group_name_H-M   'P 1'
_cell_length_a   6.92362176
_cell_length_b   9.68757704
_cell_length_c   10.76083658
_cell_angle_alpha   90.00000000
_cell_angle_beta   104.86880317
_cell_angle_gamma   90.00000000
_symmetry_Int_Tables_number   1
_chemical_formula_structural   Ho2Mo4O15
_chemical_formula_sum   'Ho4 Mo8 O30'
_cell_volume   697.59532422
_cell_formula_units_Z   2
loop_
 _symmetry_equiv_pos_site_id
 _symmetry_equiv_pos_as_xyz
  1  'x, y, z'
loop_
 _atom_site_type_symbol
 _atom_site_label
 _atom_site_symmetry_multiplicity
 _atom_site_fract_x
 _atom_site_fract_y
 _atom_site_fract_z
 _atom_site_occupancy
  O  O0  1  0.50000000  0.00000000  0.00000000  1
  O  O1  1  0.50000000  0.50000000  0.50000000  1
  O  O2  1  0.54303519  0.97286030  0.29060161  1
  O  O3  1  0.45696481  0.47286030  0.20939839  1
  O  O4  1  0.45696481  0.02713970  0.70939839  1
  O  O5  1  0.54303519  0.52713970  0.79060161  1
  O  O6  1  0.61511707  0.72263939  0.15075887  1
  O  O7  1  0.38488293  0.22263939  0.34924113  1
  O  O8  1  0.38488293  0.27736061  0.84924113  1
  O  O9  1  0.61511707  0.77736061  0.65075887  1
  O  O10  1  0.87466845  0.94841870  0.18612286  1
  O  O11  1  0.12533155  0.44841870  0.31387714  1
  O  O12  1  0.97054050  0.87346388  0.60071721  1
  O  O13  1  0.02945950  0.37346388  0.89928279  1
  O  O14  1  0.02945950  0.12653612  0.39928279  1
  O  O15  1  0.97054050  0.62653612  0.10071721  1
  O  O16  1  0.88430905  0.66546619  0.39864623  1
  O  O17  1  0.11569095  0.16546619  0.10135377  1
  O  O18  1  0.11569095  0.33453381  0.60135377  1
  O  O19  1  0.88430905  0.83453381  0.89864623  1
  O  O20  1  0.21878099  0.85047229  0.41804159  1
  O  O21  1  0.78121901  0.35047229  0.08195841  1
  O  O22  1  0.78121901  0.14952771  0.58195841  1
  O  O23  1  0.21878099  0.64952771  0.91804159  1
  O  O24  1  0.24031101  0.63628154  0.61749375  1
  O  O25  1  0.75968899  0.13628154  0.88250625  1
  O  O26  1  0.75968899  0.36371846  0.38250625  1
  O  O27  1  0.24031101  0.86371846  0.11749375  1
  O  O28  1  0.87466845  0.55158130  0.68612286  1
  O  O29  1  0.12533155  0.05158130  0.81387714  1
  Mo  Mo30  1  0.61774301  0.90550031  0.15639880  1
  Mo  Mo31  1  0.38225699  0.40550031  0.34360120  1
  Mo  Mo32  1  0.38225699  0.09449969  0.84360120  1
  Mo  Mo33  1  0.61774301  0.59449969  0.65639880  1
  Mo  Mo34  1  0.07931827  0.74274737  0.00962853  1
  Mo  Mo35  1  0.92068173  0.24274737  0.49037147  1
  Mo  Mo36  1  0.92068173  0.25725263  0.99037147  1
  Mo  Mo37  1  0.07931827  0.75725263  0.50962853  1
  Ho  Ho38  1  0.20709624  0.02318166  0.27468497  1
  Ho  Ho39  1  0.79290376  0.52318166  0.22531503  1
  Ho  Ho40  1  0.79290376  0.97681834  0.72531503  1
  Ho  Ho41  1  0.20709624  0.47681834  0.77468497  1
