# generated using pymatgen
data_Sr7Mn4O15
_symmetry_space_group_name_H-M   'P 1'
_cell_length_a   6.89187529
_cell_length_b   9.78356407
_cell_length_c   10.57198051
_cell_angle_alpha   90.00000000
_cell_angle_beta   91.70521808
_cell_angle_gamma   90.00000000
_symmetry_Int_Tables_number   1
_chemical_formula_structural   Sr7Mn4O15
_chemical_formula_sum   'Sr14 Mn8 O30'
_cell_volume   712.52234673
_cell_formula_units_Z   2
loop_
 _symmetry_equiv_pos_site_id
 _symmetry_equiv_pos_as_xyz
  1  'x, y, z'
loop_
 _atom_site_type_symbol
 _atom_site_label
 _atom_site_symmetry_multiplicity
 _atom_site_fract_x
 _atom_site_fract_y
 _atom_site_fract_z
 _atom_site_occupancy
  O  O0  1  0.02828811  0.25378904  0.21048060  1
  O  O1  1  0.97171189  0.75378904  0.28951940  1
  O  O2  1  0.97171189  0.74621096  0.78951940  1
  O  O3  1  0.02828811  0.24621096  0.71048060  1
  O  O4  1  0.83801249  0.48130129  0.12001030  1
  O  O5  1  0.16198751  0.98130129  0.37998970  1
  O  O6  1  0.16198751  0.51869871  0.87998970  1
  O  O7  1  0.83801249  0.01869871  0.62001030  1
  O  O8  1  0.50000000  0.50000000  0.50000000  1
  O  O9  1  0.50000000  0.00000000  0.00000000  1
  O  O10  1  0.68678186  0.28114747  0.58452257  1
  O  O11  1  0.31321814  0.78114747  0.91547743  1
  O  O12  1  0.31321814  0.71885253  0.41547743  1
  O  O13  1  0.68678186  0.21885253  0.08452257  1
  O  O14  1  0.83921440  0.41740271  0.38220340  1
  O  O15  1  0.16078560  0.91740271  0.11779660  1
  O  O16  1  0.16078560  0.58259729  0.61779660  1
  O  O17  1  0.83921440  0.08259729  0.88220340  1
  O  O18  1  0.33685460  0.25364033  0.45397802  1
  O  O19  1  0.66314540  0.75364033  0.04602198  1
  O  O20  1  0.66314540  0.74635967  0.54602198  1
  O  O21  1  0.33685460  0.24635967  0.95397802  1
  O  O22  1  0.50740518  0.10154294  0.75322208  1
  O  O23  1  0.49259482  0.60154294  0.74677792  1
  O  O24  1  0.49259482  0.89845706  0.24677792  1
  O  O25  1  0.50740518  0.39845706  0.25322208  1
  O  O26  1  0.67923187  0.17436574  0.33829163  1
  O  O27  1  0.32076813  0.67436574  0.16170837  1
  O  O28  1  0.32076813  0.82563426  0.66170837  1
  O  O29  1  0.67923187  0.32563426  0.83829163  1
  Mn  Mn30  1  0.78028168  0.33118472  0.21957327  1
  Mn  Mn31  1  0.21971832  0.83118472  0.28042673  1
  Mn  Mn32  1  0.21971832  0.66881528  0.78042673  1
  Mn  Mn33  1  0.78028168  0.16881528  0.71957327  1
  Mn  Mn34  1  0.57665243  0.33271076  0.42567155  1
  Mn  Mn35  1  0.42334757  0.83271076  0.07432845  1
  Mn  Mn36  1  0.42334757  0.66728924  0.57432845  1
  Mn  Mn37  1  0.57665243  0.16728924  0.92567155  1
  Sr  Sr38  1  0.18021920  0.49593135  0.33202175  1
  Sr  Sr39  1  0.81978080  0.99593135  0.16797825  1
  Sr  Sr40  1  0.81978080  0.50406865  0.66797825  1
  Sr  Sr41  1  0.18021920  0.00406865  0.83202175  1
  Sr  Sr42  1  0.50000000  0.50000000  0.00000000  1
  Sr  Sr43  1  0.50000000  0.00000000  0.50000000  1
  Sr  Sr44  1  0.35149694  0.35065912  0.69532462  1
  Sr  Sr45  1  0.64850306  0.85065912  0.80467538  1
  Sr  Sr46  1  0.64850306  0.64934088  0.30467538  1
  Sr  Sr47  1  0.35149694  0.14934088  0.19532462  1
  Sr  Sr48  1  0.99864389  0.31422813  0.96463742  1
  Sr  Sr49  1  0.00135611  0.81422813  0.53536258  1
  Sr  Sr50  1  0.00135611  0.68577187  0.03536258  1
  Sr  Sr51  1  0.99864389  0.18577187  0.46463742  1
