# generated using pymatgen
data_K2CoSiO4
_symmetry_space_group_name_H-M   'P 1'
_cell_length_a   5.51048301
_cell_length_b   11.05457921
_cell_length_c   15.84159962
_cell_angle_alpha   90.00000000
_cell_angle_beta   90.00000000
_cell_angle_gamma   90.00000000
_symmetry_Int_Tables_number   1
_chemical_formula_structural   K2CoSiO4
_chemical_formula_sum   'K16 Co8 Si8 O32'
_cell_volume   965.00800593
_cell_formula_units_Z   8
loop_
 _symmetry_equiv_pos_site_id
 _symmetry_equiv_pos_as_xyz
  1  'x, y, z'
loop_
 _atom_site_type_symbol
 _atom_site_label
 _atom_site_symmetry_multiplicity
 _atom_site_fract_x
 _atom_site_fract_y
 _atom_site_fract_z
 _atom_site_occupancy
  O  O0  1  0.21892854  0.51126282  0.28924316  1
  O  O1  1  0.78107146  0.48873718  0.78924316  1
  O  O2  1  0.78107146  0.01126282  0.28924316  1
  O  O3  1  0.21892854  0.98873718  0.78924316  1
  O  O4  1  0.57002516  0.34955387  0.33809192  1
  O  O5  1  0.42997484  0.65044613  0.83809192  1
  O  O6  1  0.42997484  0.84955387  0.33809192  1
  O  O7  1  0.57002516  0.15044613  0.83809192  1
  O  O8  1  0.41654216  0.08174285  0.39066304  1
  O  O9  1  0.58345784  0.91825715  0.89066304  1
  O  O10  1  0.58345784  0.58174285  0.39066304  1
  O  O11  1  0.41654216  0.41825715  0.89066304  1
  O  O12  1  0.84419926  0.20253329  0.49538986  1
  O  O13  1  0.15580074  0.79746671  0.99538986  1
  O  O14  1  0.15580074  0.70253329  0.49538986  1
  O  O15  1  0.70444553  0.70467456  0.02030615  1
  O  O16  1  0.32941917  0.47563260  0.72544896  1
  O  O17  1  0.67058083  0.52436740  0.22544896  1
  O  O18  1  0.67058083  0.97563260  0.72544896  1
  O  O19  1  0.32941917  0.02436740  0.22544896  1
  O  O20  1  0.92830291  0.67591861  0.64743977  1
  O  O21  1  0.07169709  0.32408139  0.14743977  1
  O  O22  1  0.07169709  0.17591861  0.64743977  1
  O  O23  1  0.92830291  0.82408139  0.14743977  1
  O  O24  1  0.09006151  0.89433671  0.59694238  1
  O  O25  1  0.90993849  0.10566329  0.09694238  1
  O  O26  1  0.90993849  0.39433671  0.59694238  1
  O  O27  1  0.09006151  0.60566329  0.09694238  1
  O  O28  1  0.70444553  0.79532544  0.52030615  1
  O  O29  1  0.29555447  0.20467456  0.02030615  1
  O  O30  1  0.29555447  0.29532544  0.52030615  1
  O  O31  1  0.84419926  0.29746671  0.99538986  1
  Si  Si32  1  0.96892819  0.76490634  0.56476192  1
  Si  Si33  1  0.03107181  0.23509366  0.06476192  1
  Si  Si34  1  0.03107181  0.26490634  0.56476192  1
  Si  Si35  1  0.96892819  0.73509366  0.06476192  1
  Si  Si36  1  0.51018275  0.49158354  0.31106864  1
  Si  Si37  1  0.48981725  0.50841646  0.81106864  1
  Si  Si38  1  0.48981725  0.99158354  0.31106864  1
  Si  Si39  1  0.51018275  0.00841646  0.81106864  1
  K  K40  1  0.05562039  0.23411919  0.31369897  1
  K  K41  1  0.49593769  0.98735049  0.06173355  1
  K  K42  1  0.50406231  0.01264951  0.56173355  1
  K  K43  1  0.50406231  0.48735049  0.06173355  1
  K  K44  1  0.49593769  0.51264951  0.56173355  1
  K  K45  1  0.45055151  0.73817972  0.18263375  1
  K  K46  1  0.54944849  0.26182028  0.68263375  1
  K  K47  1  0.54944849  0.23817972  0.18263375  1
  K  K48  1  0.45055151  0.76182028  0.68263375  1
  K  K49  1  0.94437961  0.76588081  0.81369897  1
  K  K50  1  0.94437961  0.73411919  0.31369897  1
  K  K51  1  0.05562039  0.26588081  0.81369897  1
  K  K52  1  0.00650440  0.01244404  0.93865280  1
  K  K53  1  0.99349560  0.51244404  0.93865280  1
  K  K54  1  0.99349560  0.98755596  0.43865280  1
  K  K55  1  0.00650440  0.48755596  0.43865280  1
  Co  Co56  1  0.53658493  0.24024612  0.43586354  1
  Co  Co57  1  0.99115447  0.98992605  0.18886157  1
  Co  Co58  1  0.00884553  0.01007395  0.68886157  1
  Co  Co59  1  0.00884553  0.48992605  0.18886157  1
  Co  Co60  1  0.99115447  0.51007395  0.68886157  1
  Co  Co61  1  0.53658493  0.25975388  0.93586354  1
  Co  Co62  1  0.46341507  0.74024612  0.43586354  1
  Co  Co63  1  0.46341507  0.75975388  0.93586354  1
