# generated using pymatgen
data_V2Se3O11
_symmetry_space_group_name_H-M   'P 1'
_cell_length_a   6.42882493
_cell_length_b   9.49829399
_cell_length_c   15.40187825
_cell_angle_alpha   93.24489113
_cell_angle_beta   90.00000000
_cell_angle_gamma   90.00000000
_symmetry_Int_Tables_number   1
_chemical_formula_structural   V2Se3O11
_chemical_formula_sum   'V8 Se12 O44'
_cell_volume   938.97502140
_cell_formula_units_Z   4
loop_
 _symmetry_equiv_pos_site_id
 _symmetry_equiv_pos_as_xyz
  1  'x, y, z'
loop_
 _atom_site_type_symbol
 _atom_site_label
 _atom_site_symmetry_multiplicity
 _atom_site_fract_x
 _atom_site_fract_y
 _atom_site_fract_z
 _atom_site_occupancy
  O  O0  1  0.22487862  0.80145328  0.72360859  1
  O  O1  1  0.72487862  0.69854672  0.27639141  1
  O  O2  1  0.77512138  0.19854672  0.27639141  1
  O  O3  1  0.27512138  0.30145328  0.72360859  1
  O  O4  1  0.52391733  0.03626441  0.80344257  1
  O  O5  1  0.02391733  0.46373559  0.19655743  1
  O  O6  1  0.47608267  0.96373559  0.19655743  1
  O  O7  1  0.97608267  0.53626441  0.80344257  1
  O  O8  1  0.67539180  0.21827626  0.68741294  1
  O  O9  1  0.17539180  0.28172374  0.31258706  1
  O  O10  1  0.32460820  0.78172374  0.31258706  1
  O  O11  1  0.82460820  0.71827626  0.68741294  1
  O  O12  1  0.89094140  0.99569410  0.72362625  1
  O  O13  1  0.39094140  0.50430590  0.27637375  1
  O  O14  1  0.10905860  0.00430590  0.27637375  1
  O  O15  1  0.22931669  0.99565424  0.61355206  1
  O  O16  1  0.60905860  0.49569410  0.72362625  1
  O  O17  1  0.33320312  0.56756834  0.44800361  1
  O  O18  1  0.16679688  0.06756834  0.44800361  1
  O  O19  1  0.66679688  0.43243166  0.55199639  1
  O  O20  1  0.98874407  0.64103326  0.03747715  1
  O  O21  1  0.48874407  0.85896674  0.96252285  1
  O  O22  1  0.01125593  0.35896674  0.96252285  1
  O  O23  1  0.51125593  0.14103326  0.03747715  1
  O  O24  1  0.18361099  0.88985324  0.07767667  1
  O  O25  1  0.68361099  0.61014676  0.92232333  1
  O  O26  1  0.81638901  0.11014676  0.92232333  1
  O  O27  1  0.31638901  0.38985324  0.07767667  1
  O  O28  1  0.78226235  0.88654443  0.08558006  1
  O  O29  1  0.28226235  0.61345557  0.91441994  1
  O  O30  1  0.21773765  0.11345557  0.91441994  1
  O  O31  1  0.71773765  0.38654443  0.08558006  1
  O  O32  1  0.97346956  0.80518278  0.88953424  1
  O  O33  1  0.47346956  0.69481722  0.11046576  1
  O  O34  1  0.02653044  0.19481722  0.11046576  1
  O  O35  1  0.52653044  0.30518278  0.88953424  1
  O  O36  1  0.38429722  0.22638035  0.55919436  1
  O  O37  1  0.88429722  0.27361965  0.44080564  1
  O  O38  1  0.61570278  0.77361965  0.44080564  1
  O  O39  1  0.11570278  0.72638035  0.55919436  1
  O  O40  1  0.27068331  0.49565424  0.61355206  1
  O  O41  1  0.77068331  0.00434576  0.38644794  1
  O  O42  1  0.72931669  0.50434576  0.38644794  1
  O  O43  1  0.83320312  0.93243166  0.55199639  1
  V  V44  1  0.51834593  0.14320257  0.91196088  1
  V  V45  1  0.01834593  0.35679743  0.08803912  1
  V  V46  1  0.48165407  0.85679743  0.08803912  1
  V  V47  1  0.98165407  0.64320257  0.91196088  1
  V  V48  1  0.04934098  0.85254607  0.65661140  1
  V  V49  1  0.54934098  0.64745393  0.34338860  1
  V  V50  1  0.95065902  0.14745393  0.34338860  1
  V  V51  1  0.45065902  0.35254607  0.65661140  1
  Se  Se52  1  0.63362905  0.03970651  0.69957356  1
  Se  Se53  1  0.13362905  0.46029349  0.30042644  1
  Se  Se54  1  0.36637095  0.96029349  0.30042644  1
  Se  Se55  1  0.86637095  0.53970651  0.69957356  1
  Se  Se56  1  0.35675124  0.63518908  0.55238748  1
  Se  Se57  1  0.85675124  0.86481092  0.44761252  1
  Se  Se58  1  0.64324876  0.36481092  0.44761252  1
  Se  Se59  1  0.14324876  0.13518908  0.55238748  1
  Se  Se60  1  0.51149335  0.28400179  0.11595076  1
  Se  Se61  1  0.01149335  0.21599821  0.88404924  1
  Se  Se62  1  0.48850665  0.71599821  0.88404924  1
  Se  Se63  1  0.98850665  0.78400179  0.11595076  1
