# generated using pymatgen
data_V2Hg(P2O7)2
_symmetry_space_group_name_H-M   'P 1'
_cell_length_a   4.95188228
_cell_length_b   6.97298642
_cell_length_c   8.28905346
_cell_angle_alpha   92.88507978
_cell_angle_beta   94.02115527
_cell_angle_gamma   105.10991025
_symmetry_Int_Tables_number   1
_chemical_formula_structural   V2Hg(P2O7)2
_chemical_formula_sum   'V2 Hg1 P4 O14'
_cell_volume   274.94023628
_cell_formula_units_Z   1
loop_
 _symmetry_equiv_pos_site_id
 _symmetry_equiv_pos_as_xyz
  1  'x, y, z'
loop_
 _atom_site_type_symbol
 _atom_site_label
 _atom_site_symmetry_multiplicity
 _atom_site_fract_x
 _atom_site_fract_y
 _atom_site_fract_z
 _atom_site_occupancy
  O  O0  1  0.78022044  0.46552306  0.15319675  1
  O  O1  1  0.21977956  0.53447694  0.84680325  1
  O  O2  1  0.53432949  0.25787284  0.37110135  1
  O  O3  1  0.46567051  0.74212716  0.62889865  1
  O  O4  1  0.24476241  0.55030359  0.32300735  1
  O  O5  1  0.75523759  0.44969641  0.67699265  1
  O  O6  1  0.84891149  0.70011245  0.40195548  1
  O  O7  1  0.17297398  0.88780715  0.80922513  1
  O  O8  1  0.82702602  0.11219285  0.19077487  1
  O  O9  1  0.88912015  0.19166213  0.84522061  1
  O  O10  1  0.11087985  0.80833787  0.15477939  1
  O  O11  1  0.62615149  0.81392590  0.93301928  1
  O  O12  1  0.37384851  0.18607410  0.06698072  1
  O  O13  1  0.15108851  0.29988755  0.59804452  1
  P  P14  1  0.01349520  0.63663109  0.25692887  1
  P  P15  1  0.98650480  0.36336891  0.74307113  1
  P  P16  1  0.61808360  0.24019673  0.19525394  1
  P  P17  1  0.38191640  0.75980327  0.80474606  1
  V  V18  1  0.50000000  0.50000000  0.50000000  1
  V  V19  1  0.00000000  0.00000000  0.00000000  1
  Hg  Hg20  1  0.00000000  0.00000000  0.50000000  1
