# generated using pymatgen
data_LiMn3(BO3)3
_symmetry_space_group_name_H-M   'P 1'
_cell_length_a   5.90777260
_cell_length_b   12.05925279
_cell_length_c   5.33003057
_cell_angle_alpha   80.14624686
_cell_angle_beta   88.20779644
_cell_angle_gamma   83.25775878
_symmetry_Int_Tables_number   1
_chemical_formula_structural   LiMn3(BO3)3
_chemical_formula_sum   'Li2 Mn6 B6 O18'
_cell_volume   371.51564589
_cell_formula_units_Z   2
loop_
 _symmetry_equiv_pos_site_id
 _symmetry_equiv_pos_as_xyz
  1  'x, y, z'
loop_
 _atom_site_type_symbol
 _atom_site_label
 _atom_site_symmetry_multiplicity
 _atom_site_fract_x
 _atom_site_fract_y
 _atom_site_fract_z
 _atom_site_occupancy
  Li  Li0  1  0.40573798  0.10055090  0.03723087  1
  Li  Li1  1  0.26092902  0.56611610  0.62943613  1
  Mn  Mn2  1  0.23420791  0.98052057  0.62523259  1
  Mn  Mn3  1  0.58979016  0.32829136  0.95742049  1
  Mn  Mn4  1  0.92177879  0.66411647  0.26519636  1
  Mn  Mn5  1  0.07687684  0.33837464  0.70924651  1
  Mn  Mn6  1  0.43245909  0.68614643  0.04143341  1
  Mn  Mn7  1  0.74488821  0.00254953  0.40147064  1
  B  B8  1  0.85293823  0.11251769  0.85679516  1
  B  B9  1  0.45949813  0.21331123  0.48674114  1
  B  B10  1  0.81372777  0.55414931  0.80987184  1
  B  B11  1  0.20716887  0.45335477  0.17992586  1
  B  B12  1  0.51269929  0.77595140  0.51704254  1
  B  B13  1  0.15396771  0.89071460  0.14962446  1
  O  O14  1  0.94800266  0.07925341  0.63195935  1
  O  O15  1  0.72901996  0.04407061  0.01793658  1
  O  O16  1  0.43461106  0.10644188  0.42930769  1
  O  O17  1  0.87163587  0.22374700  0.89095687  1
  O  O18  1  0.56687659  0.28984720  0.32631222  1
  O  O19  1  0.37999613  0.23608776  0.73093277  1
  O  O20  1  0.71866434  0.58741259  0.03470765  1
  O  O21  1  0.79503013  0.44291900  0.77570913  1
  O  O22  1  0.93764704  0.62259639  0.64873042  1
  O  O23  1  0.09979041  0.37681980  0.34035478  1
  O  O24  1  0.23205594  0.56022512  0.23735931  1
  O  O25  1  0.28667087  0.43057924  0.93573423  1
  O  O26  1  0.60336016  0.75502259  0.28322740  1
  O  O27  1  0.41335169  0.69294992  0.67485467  1
  O  O28  1  0.14618548  0.78338684  0.08983677  1
  O  O29  1  0.52048152  0.88328016  0.57683023  1
  O  O30  1  0.25331531  0.97371608  0.99181233  1
  O  O31  1  0.06330684  0.91164441  0.38343960  1
