# generated using pymatgen
data_La3MoO7
_symmetry_space_group_name_H-M   'P 1'
_cell_length_a   7.72515856
_cell_length_b   7.80908249
_cell_length_c   11.12450104
_cell_angle_alpha   90.00000000
_cell_angle_beta   90.00000000
_cell_angle_gamma   90.00000000
_symmetry_Int_Tables_number   1
_chemical_formula_structural   La3MoO7
_chemical_formula_sum   'La12 Mo4 O28'
_cell_volume   671.10110447
_cell_formula_units_Z   4
loop_
 _symmetry_equiv_pos_site_id
 _symmetry_equiv_pos_as_xyz
  1  'x, y, z'
loop_
 _atom_site_type_symbol
 _atom_site_label
 _atom_site_symmetry_multiplicity
 _atom_site_fract_x
 _atom_site_fract_y
 _atom_site_fract_z
 _atom_site_occupancy
  O  O0  1  0.50903086  0.23986728  0.11897449  1
  O  O1  1  0.00903086  0.26013272  0.88102551  1
  O  O2  1  0.49096914  0.73986828  0.38102551  1
  O  O3  1  0.99096914  0.76013172  0.61897449  1
  O  O4  1  0.53572527  0.25251039  0.38275714  1
  O  O5  1  0.03572527  0.24748961  0.61724186  1
  O  O6  1  0.46427473  0.75251039  0.11724286  1
  O  O7  1  0.96427573  0.74748961  0.88275814  1
  O  O8  1  0.30649326  0.96936729  0.86988016  1
  O  O9  1  0.80649326  0.53063271  0.13011984  1
  O  O10  1  0.69350674  0.46936729  0.63011984  1
  O  O11  1  0.19350674  0.03063171  0.36987916  1
  O  O12  1  0.67634733  0.03465061  0.87411223  1
  O  O13  1  0.17634733  0.46534939  0.12588777  1
  O  O14  1  0.32365267  0.53465161  0.62588777  1
  O  O15  1  0.82365267  0.96534839  0.37411223  1
  O  O16  1  0.57835577  0.74612079  0.75697770  1
  O  O17  1  0.07835577  0.75387921  0.24302130  1
  O  O18  1  0.42164423  0.24612179  0.74302130  1
  O  O19  1  0.92164523  0.25387821  0.25697870  1
  O  O20  1  0.78790983  0.96588093  0.12980227  1
  O  O21  1  0.28790883  0.53411907  0.87019673  1
  O  O22  1  0.36684596  0.95183097  0.60924208  1
  O  O23  1  0.71209017  0.03412007  0.62980327  1
  O  O24  1  0.13315404  0.04817003  0.10924208  1
  O  O25  1  0.63315404  0.45183097  0.89075892  1
  O  O26  1  0.86684596  0.54816903  0.39075892  1
  O  O27  1  0.21208917  0.46587993  0.37019773  1
  Mo  Mo28  1  0.49886820  -0.00010621  0.74939653  1
  Mo  Mo29  1  0.99886820  0.50010521  0.25060247  1
  Mo  Mo30  1  0.50113280  0.49989379  0.75060347  1
  Mo  Mo31  1  0.00113180  1.00010621  0.24939753  1
  La  La32  1  0.52838424  0.99181958  0.25376576  1
  La  La33  1  0.29359260  0.25318263  0.96725458  1
  La  La34  1  0.20640740  0.74681837  0.46725558  1
  La  La35  1  0.70640840  0.75318163  0.53274542  1
  La  La36  1  0.79359260  0.24681837  0.03274442  1
  La  La37  1  0.02838424  0.50818042  0.74623324  1
  La  La38  1  0.47161576  0.49181958  0.24623324  1
  La  La39  1  0.97161676  0.00818042  0.75376676  1
  La  La40  1  0.69723631  0.74683552  0.98129538  1
  La  La41  1  0.19723531  0.75316448  0.01870462  1
  La  La42  1  0.30276469  0.24683552  0.51870462  1
  La  La43  1  0.80276469  0.25316448  0.48129538  1
