# generated using pymatgen
data_NdNiSnH2
_symmetry_space_group_name_H-M   'P 1'
_cell_length_a   4.38844343
_cell_length_b   7.63422135
_cell_length_c   8.49646512
_cell_angle_alpha   90.00000000
_cell_angle_beta   90.00000000
_cell_angle_gamma   90.00000000
_symmetry_Int_Tables_number   1
_chemical_formula_structural   NdNiSnH2
_chemical_formula_sum   'Nd4 Ni4 Sn4 H8'
_cell_volume   284.65153569
_cell_formula_units_Z   4
loop_
 _symmetry_equiv_pos_site_id
 _symmetry_equiv_pos_as_xyz
  1  'x, y, z'
loop_
 _atom_site_type_symbol
 _atom_site_label
 _atom_site_symmetry_multiplicity
 _atom_site_fract_x
 _atom_site_fract_y
 _atom_site_fract_z
 _atom_site_occupancy
  Nd  Nd0  1  0.25000000  0.74981157  0.00006561  1
  Nd  Nd1  1  0.75000000  0.25018843  0.99993439  1
  Nd  Nd2  1  0.75000000  0.24981157  0.49993439  1
  Nd  Nd3  1  0.25000000  0.75018843  0.50006561  1
  Ni  Ni4  1  0.25000000  0.41665356  0.24998683  1
  Ni  Ni5  1  0.75000000  0.58334644  0.75001317  1
  Ni  Ni6  1  0.75000000  0.91665356  0.25001317  1
  Ni  Ni7  1  0.25000000  0.08334644  0.74998683  1
  Sn  Sn8  1  0.25000000  0.08393883  0.24982893  1
  Sn  Sn9  1  0.75000000  0.91606117  0.75017107  1
  Sn  Sn10  1  0.75000000  0.58393883  0.25017107  1
  Sn  Sn11  1  0.25000000  0.41606117  0.74982893  1
  H  H12  1  0.25000000  0.08447834  0.93808593  1
  H  H13  1  0.75000000  0.91552166  0.06191407  1
  H  H14  1  0.75000000  0.58447834  0.56191407  1
  H  H15  1  0.25000000  0.41552166  0.43808593  1
  H  H16  1  0.25000000  0.08344536  0.56190242  1
  H  H17  1  0.75000000  0.91655464  0.43809758  1
  H  H18  1  0.75000000  0.58344536  0.93809758  1
  H  H19  1  0.25000000  0.41655464  0.06190242  1
