# generated using pymatgen
data_Tb5CoSb2
_symmetry_space_group_name_H-M   'P 1'
_cell_length_a   7.91746568
_cell_length_b   8.80884393
_cell_length_c   12.24302433
_cell_angle_alpha   90.00000000
_cell_angle_beta   90.00000000
_cell_angle_gamma   90.00000000
_symmetry_Int_Tables_number   1
_chemical_formula_structural   Tb5CoSb2
_chemical_formula_sum   'Tb20 Co4 Sb8'
_cell_volume   853.87405466
_cell_formula_units_Z   4
loop_
 _symmetry_equiv_pos_site_id
 _symmetry_equiv_pos_as_xyz
  1  'x, y, z'
loop_
 _atom_site_type_symbol
 _atom_site_label
 _atom_site_symmetry_multiplicity
 _atom_site_fract_x
 _atom_site_fract_y
 _atom_site_fract_z
 _atom_site_occupancy
  Tb  Tb0  1  0.15472248  0.75000000  0.79629146  1
  Tb  Tb1  1  0.65472248  0.25000000  0.70370854  1
  Tb  Tb2  1  0.84527752  0.25000000  0.20370854  1
  Tb  Tb3  1  0.34527752  0.75000000  0.29629146  1
  Tb  Tb4  1  0.45404720  0.75000000  0.00204369  1
  Tb  Tb5  1  0.95404720  0.25000000  0.49795631  1
  Tb  Tb6  1  0.54595280  0.25000000  0.99795631  1
  Tb  Tb7  1  0.04595280  0.75000000  0.50204369  1
  Tb  Tb8  1  0.62192789  0.75000000  0.69466571  1
  Tb  Tb9  1  0.12192789  0.25000000  0.80533429  1
  Tb  Tb10  1  0.37807211  0.25000000  0.30533429  1
  Tb  Tb11  1  0.87807211  0.75000000  0.19466571  1
  Tb  Tb12  1  0.82152593  0.96326780  0.93523637  1
  Tb  Tb13  1  0.32152593  0.03673220  0.56476363  1
  Tb  Tb14  1  0.17847407  0.46326780  0.06476363  1
  Tb  Tb15  1  0.67847407  0.53673220  0.43523637  1
  Tb  Tb16  1  0.17847407  0.03673220  0.06476363  1
  Tb  Tb17  1  0.67847407  0.96326780  0.43523637  1
  Tb  Tb18  1  0.82152593  0.53673220  0.93523637  1
  Tb  Tb19  1  0.32152593  0.46326780  0.56476363  1
  Co  Co20  1  0.42990442  0.75000000  0.51082973  1
  Co  Co21  1  0.92990442  0.25000000  0.98917027  1
  Co  Co22  1  0.57009558  0.25000000  0.48917027  1
  Co  Co23  1  0.07009558  0.75000000  0.01082973  1
  Sb  Sb24  1  0.92779250  0.99172033  0.67311082  1
  Sb  Sb25  1  0.42779250  0.00827967  0.82688918  1
  Sb  Sb26  1  0.07220750  0.49172033  0.32688918  1
  Sb  Sb27  1  0.57220750  0.50827967  0.17311082  1
  Sb  Sb28  1  0.07220750  0.00827967  0.32688918  1
  Sb  Sb29  1  0.57220750  0.99172033  0.17311082  1
  Sb  Sb30  1  0.92779250  0.50827967  0.67311082  1
  Sb  Sb31  1  0.42779250  0.49172033  0.82688918  1
