# generated using pymatgen
data_Ho5CoSb2
_symmetry_space_group_name_H-M   'P 1'
_cell_length_a   7.84253434
_cell_length_b   8.74688555
_cell_length_c   12.14723839
_cell_angle_alpha   90.00000000
_cell_angle_beta   90.00000000
_cell_angle_gamma   90.00000000
_symmetry_Int_Tables_number   1
_chemical_formula_structural   Ho5CoSb2
_chemical_formula_sum   'Ho20 Co4 Sb8'
_cell_volume   833.27322584
_cell_formula_units_Z   4
loop_
 _symmetry_equiv_pos_site_id
 _symmetry_equiv_pos_as_xyz
  1  'x, y, z'
loop_
 _atom_site_type_symbol
 _atom_site_label
 _atom_site_symmetry_multiplicity
 _atom_site_fract_x
 _atom_site_fract_y
 _atom_site_fract_z
 _atom_site_occupancy
  Ho  Ho0  1  0.15708865  0.75000000  0.79566885  1
  Ho  Ho1  1  0.65708865  0.25000000  0.70433115  1
  Ho  Ho2  1  0.84291135  0.25000000  0.20433115  1
  Ho  Ho3  1  0.34291135  0.75000000  0.29566885  1
  Ho  Ho4  1  0.45161750  0.75000000  0.00193466  1
  Ho  Ho5  1  0.95161750  0.25000000  0.49806534  1
  Ho  Ho6  1  0.54838250  0.25000000  0.99806534  1
  Ho  Ho7  1  0.04838250  0.75000000  0.50193466  1
  Ho  Ho8  1  0.62283282  0.75000000  0.69277731  1
  Ho  Ho9  1  0.12283282  0.25000000  0.80722269  1
  Ho  Ho10  1  0.37716718  0.25000000  0.30722269  1
  Ho  Ho11  1  0.87716718  0.75000000  0.19277731  1
  Ho  Ho12  1  0.82328896  0.96223843  0.93451890  1
  Ho  Ho13  1  0.32328896  0.03776157  0.56548110  1
  Ho  Ho14  1  0.17671104  0.46223843  0.06548110  1
  Ho  Ho15  1  0.67671104  0.53776157  0.43451890  1
  Ho  Ho16  1  0.17671104  0.03776157  0.06548110  1
  Ho  Ho17  1  0.67671104  0.96223843  0.43451890  1
  Ho  Ho18  1  0.82328896  0.53776157  0.93451890  1
  Ho  Ho19  1  0.32328896  0.46223843  0.56548110  1
  Co  Co20  1  0.42961278  0.75000000  0.51011247  1
  Co  Co21  1  0.92961278  0.25000000  0.98988753  1
  Co  Co22  1  0.57038722  0.25000000  0.48988753  1
  Co  Co23  1  0.07038722  0.75000000  0.01011247  1
  Sb  Sb24  1  0.93077363  0.99172147  0.67285689  1
  Sb  Sb25  1  0.43077363  0.00827853  0.82714311  1
  Sb  Sb26  1  0.06922637  0.49172147  0.32714311  1
  Sb  Sb27  1  0.56922637  0.50827853  0.17285689  1
  Sb  Sb28  1  0.06922637  0.00827853  0.32714311  1
  Sb  Sb29  1  0.56922637  0.99172147  0.17285689  1
  Sb  Sb30  1  0.93077363  0.50827853  0.67285689  1
  Sb  Sb31  1  0.43077363  0.49172147  0.82714311  1
