# generated using pymatgen
data_PrNiSnH2
_symmetry_space_group_name_H-M   'P 1'
_cell_length_a   4.40897614
_cell_length_b   7.64730469
_cell_length_c   8.56631690
_cell_angle_alpha   90.00000000
_cell_angle_beta   90.00000000
_cell_angle_gamma   90.00000000
_symmetry_Int_Tables_number   1
_chemical_formula_structural   PrNiSnH2
_chemical_formula_sum   'Pr4 Ni4 Sn4 H8'
_cell_volume   288.82865585
_cell_formula_units_Z   4
loop_
 _symmetry_equiv_pos_site_id
 _symmetry_equiv_pos_as_xyz
  1  'x, y, z'
loop_
 _atom_site_type_symbol
 _atom_site_label
 _atom_site_symmetry_multiplicity
 _atom_site_fract_x
 _atom_site_fract_y
 _atom_site_fract_z
 _atom_site_occupancy
  Pr  Pr0  1  0.25000000  0.75001599  0.00005536  1
  Pr  Pr1  1  0.75000000  0.24998401  0.99994464  1
  Pr  Pr2  1  0.75000000  0.25001599  0.49994464  1
  Pr  Pr3  1  0.25000000  0.74998401  0.50005536  1
  Ni  Ni4  1  0.25000000  0.41727319  0.24812961  1
  Ni  Ni5  1  0.75000000  0.58272681  0.75187039  1
  Ni  Ni6  1  0.75000000  0.91727319  0.25187039  1
  Ni  Ni7  1  0.25000000  0.08272681  0.74812961  1
  Sn  Sn8  1  0.25000000  0.08401808  0.24995783  1
  Sn  Sn9  1  0.75000000  0.91598192  0.75004217  1
  Sn  Sn10  1  0.75000000  0.58401808  0.25004217  1
  Sn  Sn11  1  0.25000000  0.41598192  0.74995783  1
  H  H12  1  0.25000000  0.08467468  0.93451175  1
  H  H13  1  0.75000000  0.91532532  0.06548825  1
  H  H14  1  0.75000000  0.58467468  0.56548825  1
  H  H15  1  0.25000000  0.41532532  0.43451175  1
  H  H16  1  0.25000000  0.08394901  0.56157656  1
  H  H17  1  0.75000000  0.91605099  0.43842344  1
  H  H18  1  0.75000000  0.58394901  0.93842344  1
  H  H19  1  0.25000000  0.41605099  0.06157656  1
