# generated using pymatgen
data_Dy5CoSb2
_symmetry_space_group_name_H-M   'P 1'
_cell_length_a   7.87992189
_cell_length_b   8.77602781
_cell_length_c   12.18974263
_cell_angle_alpha   90.00000000
_cell_angle_beta   90.00000000
_cell_angle_gamma   90.00000000
_symmetry_Int_Tables_number   1
_chemical_formula_structural   Dy5CoSb2
_chemical_formula_sum   'Dy20 Co4 Sb8'
_cell_volume   842.97450409
_cell_formula_units_Z   4
loop_
 _symmetry_equiv_pos_site_id
 _symmetry_equiv_pos_as_xyz
  1  'x, y, z'
loop_
 _atom_site_type_symbol
 _atom_site_label
 _atom_site_symmetry_multiplicity
 _atom_site_fract_x
 _atom_site_fract_y
 _atom_site_fract_z
 _atom_site_occupancy
  Dy  Dy0  1  0.15524052  0.75000000  0.79606019  1
  Dy  Dy1  1  0.65524052  0.25000000  0.70393981  1
  Dy  Dy2  1  0.84475948  0.25000000  0.20393981  1
  Dy  Dy3  1  0.34475948  0.75000000  0.29606019  1
  Dy  Dy4  1  0.45273937  0.75000000  0.00188207  1
  Dy  Dy5  1  0.95273937  0.25000000  0.49811793  1
  Dy  Dy6  1  0.54726063  0.25000000  0.99811793  1
  Dy  Dy7  1  0.04726063  0.75000000  0.50188207  1
  Dy  Dy8  1  0.62153205  0.75000000  0.69400189  1
  Dy  Dy9  1  0.12153205  0.25000000  0.80599811  1
  Dy  Dy10  1  0.37846795  0.25000000  0.30599811  1
  Dy  Dy11  1  0.87846795  0.75000000  0.19400189  1
  Dy  Dy12  1  0.82219619  0.96278666  0.93501566  1
  Dy  Dy13  1  0.32219619  0.03721334  0.56498434  1
  Dy  Dy14  1  0.17780381  0.46278666  0.06498434  1
  Dy  Dy15  1  0.67780381  0.53721334  0.43501566  1
  Dy  Dy16  1  0.17780381  0.03721334  0.06498434  1
  Dy  Dy17  1  0.67780381  0.96278666  0.43501566  1
  Dy  Dy18  1  0.82219619  0.53721334  0.93501566  1
  Dy  Dy19  1  0.32219619  0.46278666  0.56498434  1
  Co  Co20  1  0.43024969  0.75000000  0.51040877  1
  Co  Co21  1  0.93024969  0.25000000  0.98959123  1
  Co  Co22  1  0.56975031  0.25000000  0.48959123  1
  Co  Co23  1  0.06975031  0.75000000  0.01040877  1
  Sb  Sb24  1  0.92850560  0.99148442  0.67285434  1
  Sb  Sb25  1  0.42850560  0.00851558  0.82714566  1
  Sb  Sb26  1  0.07149440  0.49148442  0.32714566  1
  Sb  Sb27  1  0.57149440  0.50851558  0.17285434  1
  Sb  Sb28  1  0.07149440  0.00851558  0.32714566  1
  Sb  Sb29  1  0.57149440  0.99148442  0.17285434  1
  Sb  Sb30  1  0.92850560  0.50851558  0.67285434  1
  Sb  Sb31  1  0.42850560  0.49148442  0.82714566  1
