# generated using pymatgen
data_Fe2SiO4
_symmetry_space_group_name_H-M   'P 1'
_cell_length_a   4.88436307
_cell_length_b   6.16802710
_cell_length_c   10.62431597
_cell_angle_alpha   90.00000000
_cell_angle_beta   90.00000000
_cell_angle_gamma   90.00000000
_symmetry_Int_Tables_number   1
_chemical_formula_structural   Fe2SiO4
_chemical_formula_sum   'Fe8 Si4 O16'
_cell_volume   320.07753249
_cell_formula_units_Z   4
loop_
 _symmetry_equiv_pos_site_id
 _symmetry_equiv_pos_as_xyz
  1  'x, y, z'
loop_
 _atom_site_type_symbol
 _atom_site_label
 _atom_site_symmetry_multiplicity
 _atom_site_fract_x
 _atom_site_fract_y
 _atom_site_fract_z
 _atom_site_occupancy
  O  O0  1  0.21180182  0.46337021  0.66547368  1
  O  O1  1  0.71180182  0.53662979  0.83452632  1
  O  O2  1  0.78819818  0.96337021  0.33452632  1
  O  O3  1  0.28819818  0.03662979  0.16547368  1
  O  O4  1  0.78819818  0.53662979  0.33452632  1
  O  O5  1  0.28819818  0.46337021  0.16547368  1
  O  O6  1  0.21180182  0.03662979  0.66547368  1
  O  O7  1  0.71180182  0.96337021  0.83452632  1
  O  O8  1  0.78936337  0.75000000  0.54732640  1
  O  O9  1  0.28936337  0.25000000  0.95267360  1
  O  O10  1  0.21063663  0.25000000  0.45267360  1
  O  O11  1  0.71063663  0.75000000  0.04732640  1
  O  O12  1  0.23523307  0.75000000  0.90824433  1
  O  O13  1  0.73523307  0.25000000  0.59175567  1
  O  O14  1  0.76476693  0.25000000  0.09175567  1
  O  O15  1  0.26476693  0.75000000  0.40824433  1
  Si  Si16  1  0.92830695  0.75000000  0.40352309  1
  Si  Si17  1  0.42830695  0.25000000  0.09647691  1
  Si  Si18  1  0.07169305  0.25000000  0.59647691  1
  Si  Si19  1  0.57169305  0.75000000  0.90352309  1
  Fe  Fe20  1  0.48610713  0.75000000  0.22090260  1
  Fe  Fe21  1  0.98610713  0.25000000  0.27909740  1
  Fe  Fe22  1  0.51389287  0.25000000  0.77909740  1
  Fe  Fe23  1  0.01389287  0.75000000  0.72090260  1
  Fe  Fe24  1  0.50000000  0.50000000  0.50000000  1
  Fe  Fe25  1  0.00000000  0.50000000  0.00000000  1
  Fe  Fe26  1  0.50000000  0.00000000  0.50000000  1
  Fe  Fe27  1  0.00000000  0.00000000  0.00000000  1
