# generated using pymatgen
data_LiFe2O2F3
_symmetry_space_group_name_H-M   'P 1'
_cell_length_a   5.32672056
_cell_length_b   5.81457616
_cell_length_c   7.21103485
_cell_angle_alpha   70.58433787
_cell_angle_beta   89.91634129
_cell_angle_gamma   62.68134836
_symmetry_Int_Tables_number   1
_chemical_formula_structural   LiFe2O2F3
_chemical_formula_sum   'Li2 Fe4 O4 F6'
_cell_volume   184.08209788
_cell_formula_units_Z   2
loop_
 _symmetry_equiv_pos_site_id
 _symmetry_equiv_pos_as_xyz
  1  'x, y, z'
loop_
 _atom_site_type_symbol
 _atom_site_label
 _atom_site_symmetry_multiplicity
 _atom_site_fract_x
 _atom_site_fract_y
 _atom_site_fract_z
 _atom_site_occupancy
  Li  Li0  1  0.99959569  0.99792699  0.50349151  1
  Li  Li1  1  0.99621285  0.00835753  0.99962701  1
  Fe  Fe2  1  0.62636777  0.76796992  0.70155344  1
  Fe  Fe3  1  0.60240327  0.76755030  0.20232242  1
  Fe  Fe4  1  0.39373419  0.23380645  0.79965977  1
  Fe  Fe5  1  0.36908471  0.23527492  0.29905427  1
  O  O6  1  0.71671364  0.83449671  0.94155361  1
  O  O7  1  0.44269633  0.83531036  0.44074343  1
  O  O8  1  0.55159676  0.16689288  0.55972009  1
  O  O9  1  0.27634643  0.16802563  0.06057467  1
  F  F10  1  0.03893287  0.60622903  0.66106339  1
  F  F11  1  0.64397587  0.39571603  0.83987358  1
  F  F12  1  0.34820845  0.60921882  0.16282918  1
  F  F13  1  0.95627016  0.39436372  0.33927701  1
  F  F14  1  0.19170452  0.00171410  0.75089074  1
  F  F15  1  0.79969749  0.00254161  0.25021389  1
