# generated using pymatgen
data_Er5CoSb2
_symmetry_space_group_name_H-M   'P 1'
_cell_length_a   7.80919602
_cell_length_b   8.72641831
_cell_length_c   12.09912754
_cell_angle_alpha   90.00000000
_cell_angle_beta   90.00000000
_cell_angle_gamma   90.00000000
_symmetry_Int_Tables_number   1
_chemical_formula_structural   Er5CoSb2
_chemical_formula_sum   'Er20 Co4 Sb8'
_cell_volume   824.51090981
_cell_formula_units_Z   4
loop_
 _symmetry_equiv_pos_site_id
 _symmetry_equiv_pos_as_xyz
  1  'x, y, z'
loop_
 _atom_site_type_symbol
 _atom_site_label
 _atom_site_symmetry_multiplicity
 _atom_site_fract_x
 _atom_site_fract_y
 _atom_site_fract_z
 _atom_site_occupancy
  Er  Er0  1  0.15833837  0.75000000  0.79488757  1
  Er  Er1  1  0.65833837  0.25000000  0.70511243  1
  Er  Er2  1  0.84166163  0.25000000  0.20511243  1
  Er  Er3  1  0.34166163  0.75000000  0.29488757  1
  Er  Er4  1  0.45005764  0.75000000  0.00191585  1
  Er  Er5  1  0.95005764  0.25000000  0.49808415  1
  Er  Er6  1  0.54994236  0.25000000  0.99808415  1
  Er  Er7  1  0.04994236  0.75000000  0.50191585  1
  Er  Er8  1  0.62284618  0.75000000  0.69222693  1
  Er  Er9  1  0.12284618  0.25000000  0.80777307  1
  Er  Er10  1  0.37715382  0.25000000  0.30777307  1
  Er  Er11  1  0.87715382  0.75000000  0.19222693  1
  Er  Er12  1  0.82406229  0.96138739  0.93424431  1
  Er  Er13  1  0.32406229  0.03861261  0.56575569  1
  Er  Er14  1  0.17593771  0.46138739  0.06575569  1
  Er  Er15  1  0.67593771  0.53861261  0.43424431  1
  Er  Er16  1  0.17593771  0.03861261  0.06575569  1
  Er  Er17  1  0.67593771  0.96138739  0.43424431  1
  Er  Er18  1  0.82406229  0.53861261  0.93424431  1
  Er  Er19  1  0.32406229  0.46138739  0.56575569  1
  Co  Co20  1  0.42871977  0.75000000  0.50996800  1
  Co  Co21  1  0.92871977  0.25000000  0.99003200  1
  Co  Co22  1  0.57128023  0.25000000  0.49003200  1
  Co  Co23  1  0.07128023  0.75000000  0.00996800  1
  Sb  Sb24  1  0.93159515  0.99159783  0.67261952  1
  Sb  Sb25  1  0.43159515  0.00840217  0.82738048  1
  Sb  Sb26  1  0.06840485  0.49159783  0.32738048  1
  Sb  Sb27  1  0.56840485  0.50840217  0.17261952  1
  Sb  Sb28  1  0.06840485  0.00840217  0.32738048  1
  Sb  Sb29  1  0.56840485  0.99159783  0.17261952  1
  Sb  Sb30  1  0.93159515  0.50840217  0.67261952  1
  Sb  Sb31  1  0.43159515  0.49159783  0.82738048  1
