# generated using pymatgen
data_MoO2
_symmetry_space_group_name_H-M   'P 1'
_cell_length_a   4.74983117
_cell_length_b   5.74793749
_cell_length_c   6.48455736
_cell_angle_alpha   124.33468221
_cell_angle_beta   89.99998769
_cell_angle_gamma   89.99993138
_symmetry_Int_Tables_number   1
_chemical_formula_structural   MoO2
_chemical_formula_sum   'Mo4 O8'
_cell_volume   146.19173665
_cell_formula_units_Z   4
loop_
 _symmetry_equiv_pos_site_id
 _symmetry_equiv_pos_as_xyz
  1  'x, y, z'
loop_
 _atom_site_type_symbol
 _atom_site_label
 _atom_site_symmetry_multiplicity
 _atom_site_fract_x
 _atom_site_fract_y
 _atom_site_fract_z
 _atom_site_occupancy
  O  O0  1  0.19829571  0.80091746  0.40046108  1
  O  O1  1  0.69829946  0.69908599  0.09954108  1
  O  O2  1  0.80170429  0.19908254  0.59953892  1
  O  O3  1  0.30170054  0.30091401  0.90045892  1
  O  O4  1  0.80169429  0.19906998  0.09952852  1
  O  O5  1  0.30169055  0.30092656  0.40046932  1
  O  O6  1  0.19830571  0.80093002  0.90047148  1
  O  O7  1  0.69830945  0.69907344  0.59953068  1
  Mo  Mo8  1  0.49999826  0.49999716  0.24999717  1
  Mo  Mo9  1  0.99999826  0.00000284  0.25000284  1
  Mo  Mo10  1  0.50000174  0.50000284  0.75000283  1
  Mo  Mo11  1  0.00000174  0.99999716  0.74999716  1
