# generated using pymatgen
data_HoCoSi
_symmetry_space_group_name_H-M   'P 1'
_cell_length_a   4.18324962
_cell_length_b   6.88570320
_cell_length_c   6.88247334
_cell_angle_alpha   90.00000000
_cell_angle_beta   90.00000000
_cell_angle_gamma   90.00000000
_symmetry_Int_Tables_number   1
_chemical_formula_structural   HoCoSi
_chemical_formula_sum   'Ho4 Co4 Si4'
_cell_volume   198.24699684
_cell_formula_units_Z   4
loop_
 _symmetry_equiv_pos_site_id
 _symmetry_equiv_pos_as_xyz
  1  'x, y, z'
loop_
 _atom_site_type_symbol
 _atom_site_label
 _atom_site_symmetry_multiplicity
 _atom_site_fract_x
 _atom_site_fract_y
 _atom_site_fract_z
 _atom_site_occupancy
  Ho  Ho0  1  0.75000000  0.01830910  0.81238811  1
  Ho  Ho1  1  0.25000000  0.98169090  0.18761189  1
  Ho  Ho2  1  0.75000000  0.51830910  0.68761189  1
  Ho  Ho3  1  0.25000000  0.48169090  0.31238811  1
  Co  Co4  1  0.75000000  0.85486058  0.43428442  1
  Co  Co5  1  0.25000000  0.14513942  0.56571558  1
  Co  Co6  1  0.75000000  0.35486058  0.06571558  1
  Co  Co7  1  0.25000000  0.64513942  0.93428442  1
  Si  Si8  1  0.75000000  0.19486724  0.39306029  1
  Si  Si9  1  0.25000000  0.80513276  0.60693971  1
  Si  Si10  1  0.75000000  0.69486724  0.10693971  1
  Si  Si11  1  0.25000000  0.30513276  0.89306029  1
