# generated using pymatgen
data_LaMg2Cu9
_symmetry_space_group_name_H-M   'P 1'
_cell_length_a   5.07519196
_cell_length_b   5.07519224
_cell_length_c   16.20631616
_cell_angle_alpha   90.00000000
_cell_angle_beta   90.00000000
_cell_angle_gamma   119.99999817
_symmetry_Int_Tables_number   1
_chemical_formula_structural   LaMg2Cu9
_chemical_formula_sum   'La2 Mg4 Cu18'
_cell_volume   361.50966886
_cell_formula_units_Z   2
loop_
 _symmetry_equiv_pos_site_id
 _symmetry_equiv_pos_as_xyz
  1  'x, y, z'
loop_
 _atom_site_type_symbol
 _atom_site_label
 _atom_site_symmetry_multiplicity
 _atom_site_fract_x
 _atom_site_fract_y
 _atom_site_fract_z
 _atom_site_occupancy
  Cu  Cu0  1  0.00000000  0.00000000  0.00000000  1
  Cu  Cu1  1  0.00000000  0.00000000  0.50000000  1
  Cu  Cu2  1  0.00000000  0.00000000  0.25000000  1
  Cu  Cu3  1  0.00000000  0.00000000  0.75000000  1
  Cu  Cu4  1  0.33333300  0.66666700  0.25000000  1
  Cu  Cu5  1  0.66666700  0.33333300  0.75000000  1
  La  La6  1  0.33333300  0.66666700  0.75000000  1
  La  La7  1  0.66666700  0.33333300  0.25000000  1
  Mg  Mg8  1  0.33333300  0.66666700  0.53067494  1
  Mg  Mg9  1  0.66666700  0.33333300  0.03067494  1
  Mg  Mg10  1  0.66666700  0.33333300  0.46932506  1
  Mg  Mg11  1  0.33333300  0.66666700  0.96932506  1
  Cu  Cu12  1  0.16802387  0.33604773  0.12186598  1
  Cu  Cu13  1  0.83197613  0.16802387  0.62186598  1
  Cu  Cu14  1  0.33604773  0.16802387  0.62186598  1
  Cu  Cu15  1  0.66395227  0.83197613  0.12186598  1
  Cu  Cu16  1  0.16802387  0.83197613  0.12186598  1
  Cu  Cu17  1  0.83197613  0.66395227  0.87813402  1
  Cu  Cu18  1  0.83197613  0.16802387  0.87813402  1
  Cu  Cu19  1  0.83197613  0.66395227  0.62186598  1
  Cu  Cu20  1  0.33604773  0.16802387  0.87813402  1
  Cu  Cu21  1  0.66395227  0.83197613  0.37813402  1
  Cu  Cu22  1  0.16802387  0.33604773  0.37813402  1
  Cu  Cu23  1  0.16802387  0.83197613  0.37813402  1
