# generated using pymatgen
data_Eu3NbO7
_symmetry_space_group_name_H-M   'P 1'
_cell_length_a   6.59292880
_cell_length_b   6.59292811
_cell_length_c   7.73916872
_cell_angle_alpha   90.00000000
_cell_angle_beta   90.00000000
_cell_angle_gamma   110.26354869
_symmetry_Int_Tables_number   1
_chemical_formula_structural   Eu3NbO7
_chemical_formula_sum   'Eu6 Nb2 O14'
_cell_volume   315.57642950
_cell_formula_units_Z   2
loop_
 _symmetry_equiv_pos_site_id
 _symmetry_equiv_pos_as_xyz
  1  'x, y, z'
loop_
 _atom_site_type_symbol
 _atom_site_label
 _atom_site_symmetry_multiplicity
 _atom_site_fract_x
 _atom_site_fract_y
 _atom_site_fract_z
 _atom_site_occupancy
  Eu  Eu0  1  0.50767011  0.50767011  0.25000000  1
  Eu  Eu1  1  0.49232989  0.49232989  0.75000000  1
  Eu  Eu2  1  0.46899398  0.00285785  0.00255972  1
  Eu  Eu3  1  0.53100602  0.99714215  0.50255972  1
  Eu  Eu4  1  0.00285785  0.46899398  0.49744028  1
  Eu  Eu5  1  0.99714215  0.53100602  0.99744028  1
  Nb  Nb6  1  0.00186555  0.00186555  0.25000000  1
  Nb  Nb7  1  0.99813445  0.99813445  0.75000000  1
  O  O8  1  0.31696469  0.06884402  0.28386544  1
  O  O9  1  0.68303531  0.93115598  0.78386544  1
  O  O10  1  0.06884402  0.31696469  0.21613456  1
  O  O11  1  0.93115598  0.68303531  0.71613456  1
  O  O12  1  0.92341685  0.67717844  0.27684183  1
  O  O13  1  0.07658315  0.32282156  0.77684183  1
  O  O14  1  0.67717844  0.92341685  0.22315817  1
  O  O15  1  0.32282156  0.07658315  0.72315817  1
  O  O16  1  0.62804102  0.37195898  0.00000000  1
  O  O17  1  0.37195898  0.62804102  0.50000000  1
  O  O18  1  0.36221777  0.63778223  0.00000000  1
  O  O19  1  0.63778223  0.36221777  0.50000000  1
  O  O20  1  0.05823789  0.94176211  0.00000000  1
  O  O21  1  0.94176211  0.05823789  0.50000000  1
