# generated using pymatgen
data_VBiPbO5
_symmetry_space_group_name_H-M   'P 1'
_cell_length_a   5.83086589
_cell_length_b   7.34774445
_cell_length_c   7.32144646
_cell_angle_alpha   106.07038854
_cell_angle_beta   112.50402018
_cell_angle_gamma   97.96694513
_symmetry_Int_Tables_number   1
_chemical_formula_structural   VBiPbO5
_chemical_formula_sum   'V2 Bi2 Pb2 O10'
_cell_volume   267.69337576
_cell_formula_units_Z   2
loop_
 _symmetry_equiv_pos_site_id
 _symmetry_equiv_pos_as_xyz
  1  'x, y, z'
loop_
 _atom_site_type_symbol
 _atom_site_label
 _atom_site_symmetry_multiplicity
 _atom_site_fract_x
 _atom_site_fract_y
 _atom_site_fract_z
 _atom_site_occupancy
  O  O0  1  0.04841329  0.39589727  0.70280487  1
  O  O1  1  0.95158671  0.60410273  0.29719513  1
  O  O2  1  0.35392133  0.79020134  0.78098610  1
  O  O3  1  0.64607867  0.20979866  0.21901390  1
  O  O4  1  0.89231843  0.73972313  0.82035689  1
  O  O5  1  0.10768157  0.26027687  0.17964311  1
  O  O6  1  0.65204449  0.30331462  0.87753657  1
  O  O7  1  0.34795551  0.69668538  0.12246343  1
  O  O8  1  0.25688924  0.00215540  0.47791985  1
  O  O9  1  0.74311076  0.99784460  0.52208015  1
  V  V10  1  0.15475802  0.65126154  0.85339733  1
  V  V11  1  0.84524198  0.34873846  0.14660267  1
  Pb  Pb12  1  0.81236465  0.88653817  0.18800683  1
  Pb  Pb13  1  0.18763535  0.11346183  0.81199317  1
  Bi  Bi14  1  0.40909767  0.74852648  0.46789182  1
  Bi  Bi15  1  0.59090233  0.25147352  0.53210818  1
