# generated using pymatgen
data_CsUAgSe3
_symmetry_space_group_name_H-M   'P 1'
_cell_length_a   4.28837290
_cell_length_b   8.30008078
_cell_length_c   10.94223390
_cell_angle_alpha   90.00000000
_cell_angle_beta   90.00000000
_cell_angle_gamma   104.97118325
_symmetry_Int_Tables_number   1
_chemical_formula_structural   CsUAgSe3
_chemical_formula_sum   'Cs2 U2 Ag2 Se6'
_cell_volume   376.25571263
_cell_formula_units_Z   2
loop_
 _symmetry_equiv_pos_site_id
 _symmetry_equiv_pos_as_xyz
  1  'x, y, z'
loop_
 _atom_site_type_symbol
 _atom_site_label
 _atom_site_symmetry_multiplicity
 _atom_site_fract_x
 _atom_site_fract_y
 _atom_site_fract_z
 _atom_site_occupancy
  Cs  Cs0  1  0.74481919  0.48963838  0.75000000  1
  Cs  Cs1  1  0.25518081  0.51036162  0.25000000  1
  U  U2  1  0.00000000  0.00000000  0.00000000  1
  U  U3  1  0.00000000  0.00000000  0.50000000  1
  Ag  Ag4  1  0.45863737  0.91727474  0.75000000  1
  Ag  Ag5  1  0.54136263  0.08272526  0.25000000  1
  Se  Se6  1  0.05853124  0.11706248  0.75000000  1
  Se  Se7  1  0.94146876  0.88293752  0.25000000  1
  Se  Se8  1  0.38286175  0.76572350  0.96160925  1
  Se  Se9  1  0.61713825  0.23427650  0.03839075  1
  Se  Se10  1  0.61713825  0.23427650  0.46160925  1
  Se  Se11  1  0.38286175  0.76572350  0.53839075  1
