# generated using pymatgen
data_KBi(WO4)2
_symmetry_space_group_name_H-M   'P 1'
_cell_length_a   7.78853175
_cell_length_b   7.78853174
_cell_length_c   7.53203144
_cell_angle_alpha   62.27824606
_cell_angle_beta   62.27824611
_cell_angle_gamma   88.89376006
_symmetry_Int_Tables_number   1
_chemical_formula_structural   KBi(WO4)2
_chemical_formula_sum   'K2 Bi2 W4 O16'
_cell_volume   346.52391376
_cell_formula_units_Z   2
loop_
 _symmetry_equiv_pos_site_id
 _symmetry_equiv_pos_as_xyz
  1  'x, y, z'
loop_
 _atom_site_type_symbol
 _atom_site_label
 _atom_site_symmetry_multiplicity
 _atom_site_fract_x
 _atom_site_fract_y
 _atom_site_fract_z
 _atom_site_occupancy
  O  O0  1  0.54335219  0.72699784  0.31613734  1
  O  O1  1  0.27300216  0.45664781  0.18386266  1
  O  O2  1  0.45664781  0.27300216  0.68386266  1
  O  O3  1  0.72699784  0.54335219  0.81613734  1
  O  O4  1  0.86574226  0.55983386  0.36633327  1
  O  O5  1  0.44016614  0.13425774  0.13366673  1
  O  O6  1  0.13425774  0.44016614  0.63366673  1
  O  O7  1  0.55983386  0.86574226  0.86633327  1
  O  O8  1  0.86997673  0.75401443  0.94287690  1
  O  O9  1  0.24598557  0.13002327  0.55712310  1
  O  O10  1  0.13002327  0.24598557  0.05712310  1
  O  O11  1  0.75401443  0.86997673  0.44287690  1
  O  O12  1  0.90768323  0.12440626  0.52810644  1
  O  O13  1  0.87559374  0.09231677  0.97189356  1
  O  O14  1  0.09231677  0.87559374  0.47189356  1
  O  O15  1  0.12440626  0.90768323  0.02810644  1
  K  K16  1  0.28667597  0.71332403  0.75000000  1
  K  K17  1  0.71332403  0.28667597  0.25000000  1
  W  W18  1  0.81023491  0.80103390  0.21403850  1
  W  W19  1  0.80103390  0.81023491  0.71403850  1
  W  W20  1  0.19896610  0.18976509  0.28596150  1
  W  W21  1  0.18976509  0.19896610  0.78596150  1
  Bi  Bi22  1  0.28026254  0.71973746  0.25000000  1
  Bi  Bi23  1  0.71973746  0.28026254  0.75000000  1
