# generated using pymatgen
data_Gd(IO3)3
_symmetry_space_group_name_H-M   'P 1'
_cell_length_a   6.07865809
_cell_length_b   8.85851491
_cell_length_c   15.38402430
_cell_angle_alpha   96.82718683
_cell_angle_beta   90.00000000
_cell_angle_gamma   90.00000000
_symmetry_Int_Tables_number   1
_chemical_formula_structural   Gd(IO3)3
_chemical_formula_sum   'Gd4 I12 O36'
_cell_volume   822.52315812
_cell_formula_units_Z   4
loop_
 _symmetry_equiv_pos_site_id
 _symmetry_equiv_pos_as_xyz
  1  'x, y, z'
loop_
 _atom_site_type_symbol
 _atom_site_label
 _atom_site_symmetry_multiplicity
 _atom_site_fract_x
 _atom_site_fract_y
 _atom_site_fract_z
 _atom_site_occupancy
  Gd  Gd0  1  0.27952502  0.45803893  0.10235296  1
  Gd  Gd1  1  0.77952502  0.04196107  0.39764704  1
  Gd  Gd2  1  0.72047498  0.54196107  0.89764704  1
  Gd  Gd3  1  0.22047498  0.95803893  0.60235296  1
  I  I4  1  0.64161055  0.16382958  0.02119244  1
  I  I5  1  0.14161055  0.33617042  0.47880756  1
  I  I6  1  0.35838945  0.83617042  0.97880756  1
  I  I7  1  0.85838945  0.66382958  0.52119244  1
  I  I8  1  0.59202160  0.38393819  0.30191243  1
  I  I9  1  0.09202160  0.11606181  0.19808757  1
  I  I10  1  0.40797840  0.61606181  0.69808757  1
  I  I11  1  0.90797840  0.88393819  0.80191243  1
  I  I12  1  0.81314492  0.71586518  0.14522278  1
  I  I13  1  0.31314492  0.78413482  0.35477722  1
  I  I14  1  0.18685508  0.28413482  0.85477722  1
  I  I15  1  0.68685508  0.21586518  0.64522278  1
  O  O16  1  0.47076007  0.22251558  0.11827829  1
  O  O17  1  0.97076007  0.27748442  0.38172171  1
  O  O18  1  0.52923993  0.77748442  0.88172171  1
  O  O19  1  0.02923993  0.72251558  0.61827829  1
  O  O20  1  0.38908655  0.64244396  0.01303638  1
  O  O21  1  0.88908655  0.85755604  0.48696362  1
  O  O22  1  0.61091345  0.35755604  0.98696362  1
  O  O23  1  0.11091345  0.14244396  0.51303638  1
  O  O24  1  0.42024000  0.08655848  0.94384271  1
  O  O25  1  0.92024000  0.41344152  0.55615729  1
  O  O26  1  0.57976000  0.91344152  0.05615729  1
  O  O27  1  0.07976000  0.58655848  0.44384271  1
  O  O28  1  0.31866644  0.41053910  0.25521129  1
  O  O29  1  0.81866644  0.08946090  0.24478871  1
  O  O30  1  0.68133356  0.58946090  0.74478871  1
  O  O31  1  0.18133356  0.91053910  0.75521129  1
  O  O32  1  0.58494921  0.54946284  0.38607586  1
  O  O33  1  0.08494921  0.95053716  0.11392414  1
  O  O34  1  0.41505079  0.45053716  0.61392414  1
  O  O35  1  0.91505079  0.04946284  0.88607586  1
  O  O36  1  0.50539632  0.23238111  0.36755615  1
  O  O37  1  0.00539632  0.26761889  0.13244385  1
  O  O38  1  0.49460368  0.76761889  0.63244385  1
  O  O39  1  0.99460368  0.73238111  0.86755615  1
  O  O40  1  0.05507346  0.63332762  0.19421558  1
  O  O41  1  0.55507346  0.86667238  0.30578442  1
  O  O42  1  0.94492654  0.36667238  0.80578442  1
  O  O43  1  0.44492654  0.13332762  0.69421558  1
  O  O44  1  0.88906621  0.63822104  0.03371433  1
  O  O45  1  0.38906621  0.86177896  0.46628567  1
  O  O46  1  0.11093379  0.36177896  0.96628567  1
  O  O47  1  0.61093379  0.13822104  0.53371433  1
  O  O48  1  0.60694983  0.57341571  0.17066807  1
  O  O49  1  0.10694983  0.92658429  0.32933193  1
  O  O50  1  0.39305017  0.42658429  0.82933193  1
  O  O51  1  0.89305017  0.07341571  0.67066807  1
