# generated using pymatgen
data_KMo3Br7
_symmetry_space_group_name_H-M   'P 1'
_cell_length_a   14.39333738
_cell_length_b   14.35291640
_cell_length_c   14.12848181
_cell_angle_alpha   90.00000000
_cell_angle_beta   90.00000000
_cell_angle_gamma   90.00000000
_symmetry_Int_Tables_number   1
_chemical_formula_structural   KMo3Br7
_chemical_formula_sum   'K8 Mo24 Br56'
_cell_volume   2918.75174435
_cell_formula_units_Z   8
loop_
 _symmetry_equiv_pos_site_id
 _symmetry_equiv_pos_as_xyz
  1  'x, y, z'
loop_
 _atom_site_type_symbol
 _atom_site_label
 _atom_site_symmetry_multiplicity
 _atom_site_fract_x
 _atom_site_fract_y
 _atom_site_fract_z
 _atom_site_occupancy
  Br  Br0  1  0.04753511  0.88966980  0.19258173  1
  Br  Br1  1  0.04753511  0.61033020  0.30741827  1
  Br  Br2  1  0.07297587  0.59435386  0.79358456  1
  Br  Br3  1  0.07297587  0.90564614  0.70641544  1
  Br  Br4  1  0.09684984  0.20904871  0.57692954  1
  Br  Br5  1  0.09684984  0.29095129  0.92307046  1
  Br  Br6  1  0.10744799  0.68997177  0.55049860  1
  Br  Br7  1  0.10744799  0.81002823  0.94950140  1
  Br  Br8  1  0.13013868  0.37133008  0.36861845  1
  Br  Br9  1  0.13013868  0.12866992  0.13138155  1
  Br  Br10  1  0.19008003  0.04672629  0.88964324  1
  Br  Br11  1  0.19008003  0.45327371  0.61035676  1
  Br  Br12  1  0.21000580  0.57710914  0.09732872  1
  Br  Br13  1  0.21000580  0.92289086  0.40267128  1
  Br  Br14  1  0.28999420  0.57710914  0.40267128  1
  Br  Br15  1  0.28999420  0.92289086  0.09732872  1
  Br  Br16  1  0.30991997  0.04672629  0.61035676  1
  Br  Br17  1  0.30991997  0.45327371  0.88964324  1
  Br  Br18  1  0.36986132  0.12866992  0.36861845  1
  Br  Br19  1  0.36986132  0.37133008  0.13138155  1
  Br  Br20  1  0.39255201  0.68997177  0.94950140  1
  Br  Br21  1  0.39255201  0.81002823  0.55049860  1
  Br  Br22  1  0.40315016  0.20904871  0.92307046  1
  Br  Br23  1  0.40315016  0.29095129  0.57692954  1
  Br  Br24  1  0.42702413  0.59435386  0.70641544  1
  Br  Br25  1  0.42702413  0.90564614  0.79358456  1
  Br  Br26  1  0.45246489  0.88966980  0.30741827  1
  Br  Br27  1  0.45246489  0.61033020  0.19258173  1
  Br  Br28  1  0.54753511  0.38966980  0.80741827  1
  Br  Br29  1  0.54753511  0.11033020  0.69258173  1
  Br  Br30  1  0.57297587  0.09435386  0.20641544  1
  Br  Br31  1  0.57297587  0.40564614  0.29358456  1
  Br  Br32  1  0.59684984  0.70904871  0.42307046  1
  Br  Br33  1  0.59684984  0.79095129  0.07692954  1
  Br  Br34  1  0.60744799  0.18997177  0.44950140  1
  Br  Br35  1  0.60744799  0.31002823  0.05049860  1
  Br  Br36  1  0.63013868  0.62866992  0.86861845  1
  Br  Br37  1  0.63013868  0.87133008  0.63138155  1
  Br  Br38  1  0.69008003  0.54672629  0.11035676  1
  Br  Br39  1  0.69008003  0.95327371  0.38964324  1
  Br  Br40  1  0.71000580  0.07710914  0.90267128  1
  Br  Br41  1  0.71000580  0.42289086  0.59732872  1
  Br  Br42  1  0.78999420  0.07710914  0.59732872  1
  Br  Br43  1  0.78999420  0.42289086  0.90267128  1
  Br  Br44  1  0.80991997  0.54672629  0.38964324  1
  Br  Br45  1  0.80991997  0.95327371  0.11035676  1
  Br  Br46  1  0.86986132  0.87133008  0.86861845  1
  Br  Br47  1  0.86986132  0.62866992  0.63138155  1
  Br  Br48  1  0.89255201  0.18997177  0.05049860  1
  Br  Br49  1  0.89255201  0.31002823  0.44950140  1
  Br  Br50  1  0.90315016  0.70904871  0.07692954  1
  Br  Br51  1  0.90315016  0.79095129  0.42307046  1
  Br  Br52  1  0.92702413  0.09435386  0.29358456  1
  Br  Br53  1  0.92702413  0.40564614  0.20641544  1
  Br  Br54  1  0.95246489  0.38966980  0.69258173  1
  Br  Br55  1  0.95246489  0.11033020  0.80741827  1
  K  K56  1  0.00000000  0.00000000  0.50000000  1
  K  K57  1  0.00000000  0.50000000  0.00000000  1
  K  K58  1  0.25000000  0.25000000  0.75000000  1
  K  K59  1  0.25000000  0.75000000  0.25000000  1
  K  K60  1  0.50000000  0.50000000  0.50000000  1
  K  K61  1  0.50000000  0.00000000  0.00000000  1
  K  K62  1  0.75000000  0.25000000  0.75000000  1
  K  K63  1  0.75000000  0.75000000  0.25000000  1
  Mo  Mo64  1  0.02996320  0.54083209  0.62259007  1
  Mo  Mo65  1  0.02996320  0.95916791  0.87740993  1
  Mo  Mo66  1  0.04122971  0.37951037  0.53058023  1
  Mo  Mo67  1  0.04122971  0.12048963  0.96941977  1
  Mo  Mo68  1  0.11995087  0.53154237  0.45862518  1
  Mo  Mo69  1  0.11995087  0.96845763  0.04137482  1
  Mo  Mo70  1  0.38004913  0.96845763  0.45862518  1
  Mo  Mo71  1  0.38004913  0.53154237  0.04137482  1
  Mo  Mo72  1  0.45877029  0.12048963  0.53058023  1
  Mo  Mo73  1  0.45877029  0.37951037  0.96941977  1
  Mo  Mo74  1  0.47003680  0.54083209  0.87740993  1
  Mo  Mo75  1  0.47003680  0.95916791  0.62259007  1
  Mo  Mo76  1  0.52996320  0.04083209  0.37740993  1
  Mo  Mo77  1  0.52996320  0.45916791  0.12259007  1
  Mo  Mo78  1  0.54122971  0.62048963  0.03058023  1
  Mo  Mo79  1  0.54122971  0.87951037  0.46941977  1
  Mo  Mo80  1  0.61995087  0.46845763  0.95862518  1
  Mo  Mo81  1  0.61995087  0.03154237  0.54137482  1
  Mo  Mo82  1  0.88004913  0.03154237  0.95862518  1
  Mo  Mo83  1  0.88004913  0.46845763  0.54137482  1
  Mo  Mo84  1  0.95877029  0.62048963  0.46941977  1
  Mo  Mo85  1  0.95877029  0.87951037  0.03058023  1
  Mo  Mo86  1  0.97003680  0.04083209  0.12259007  1
  Mo  Mo87  1  0.97003680  0.45916791  0.37740993  1
