# generated using pymatgen
data_Zn5B3Rh7
_symmetry_space_group_name_H-M   'P 1'
_cell_length_a   2.86281917
_cell_length_b   11.13086820
_cell_length_c   11.84137178
_cell_angle_alpha   90.00000000
_cell_angle_beta   90.00000000
_cell_angle_gamma   90.00000000
_symmetry_Int_Tables_number   1
_chemical_formula_structural   Zn5B3Rh7
_chemical_formula_sum   'Zn10 B6 Rh14'
_cell_volume   377.33316096
_cell_formula_units_Z   2
loop_
 _symmetry_equiv_pos_site_id
 _symmetry_equiv_pos_as_xyz
  1  'x, y, z'
loop_
 _atom_site_type_symbol
 _atom_site_label
 _atom_site_symmetry_multiplicity
 _atom_site_fract_x
 _atom_site_fract_y
 _atom_site_fract_z
 _atom_site_occupancy
  Rh  Rh0  1  0.00000000  0.00000000  0.50000000  1
  Rh  Rh1  1  0.00000000  0.50000000  0.50000000  1
  Rh  Rh2  1  0.00000000  0.75000000  0.18200524  1
  Rh  Rh3  1  0.00000000  0.25000000  0.81799476  1
  Rh  Rh4  1  0.00000000  0.75000000  0.52801756  1
  Rh  Rh5  1  0.00000000  0.25000000  0.47198244  1
  Rh  Rh6  1  0.00000000  0.87368978  0.96250550  1
  Rh  Rh7  1  0.00000000  0.12631022  0.03749450  1
  Rh  Rh8  1  0.00000000  0.37368978  0.03749450  1
  Rh  Rh9  1  0.00000000  0.62631022  0.96250550  1
  Rh  Rh10  1  0.00000000  0.92321524  0.72056765  1
  Rh  Rh11  1  0.00000000  0.07678476  0.27943235  1
  Rh  Rh12  1  0.00000000  0.42321524  0.27943235  1
  Rh  Rh13  1  0.00000000  0.57678476  0.72056765  1
  Zn  Zn14  1  0.50000000  0.75000000  0.80873136  1
  Zn  Zn15  1  0.50000000  0.25000000  0.19126864  1
  Zn  Zn16  1  0.50000000  0.45113831  0.86632567  1
  Zn  Zn17  1  0.50000000  0.54886169  0.13367433  1
  Zn  Zn18  1  0.50000000  0.95113831  0.13367433  1
  Zn  Zn19  1  0.50000000  0.04886169  0.86632567  1
  Zn  Zn20  1  0.50000000  0.36916588  0.65094750  1
  Zn  Zn21  1  0.50000000  0.63083412  0.34905250  1
  Zn  Zn22  1  0.50000000  0.86916588  0.34905250  1
  Zn  Zn23  1  0.50000000  0.13083412  0.65094750  1
  B  B24  1  0.50000000  0.75000000  0.04034258  1
  B  B25  1  0.50000000  0.25000000  0.95965742  1
  B  B26  1  0.50000000  0.88330604  0.59373849  1
  B  B27  1  0.50000000  0.11669396  0.40626151  1
  B  B28  1  0.50000000  0.38330604  0.40626151  1
  B  B29  1  0.50000000  0.61669396  0.59373849  1
