# generated using pymatgen
data_Er4Si9Ir13
_symmetry_space_group_name_H-M   'P 1'
_cell_length_a   3.95137705
_cell_length_b   11.00682613
_cell_length_c   19.00473092
_cell_angle_alpha   90.00000000
_cell_angle_beta   90.00000000
_cell_angle_gamma   90.00000000
_symmetry_Int_Tables_number   1
_chemical_formula_structural   Er4Si9Ir13
_chemical_formula_sum   'Er8 Si18 Ir26'
_cell_volume   826.55604085
_cell_formula_units_Z   2
loop_
 _symmetry_equiv_pos_site_id
 _symmetry_equiv_pos_as_xyz
  1  'x, y, z'
loop_
 _atom_site_type_symbol
 _atom_site_label
 _atom_site_symmetry_multiplicity
 _atom_site_fract_x
 _atom_site_fract_y
 _atom_site_fract_z
 _atom_site_occupancy
  Er  Er0  1  0.75000000  0.94087990  0.20793269  1
  Er  Er1  1  0.25000000  0.05912010  0.79206731  1
  Er  Er2  1  0.25000000  0.44087990  0.79206731  1
  Er  Er3  1  0.75000000  0.55912010  0.20793269  1
  Er  Er4  1  0.75000000  0.25000000  0.51936446  1
  Er  Er5  1  0.25000000  0.75000000  0.48063554  1
  Er  Er6  1  0.75000000  0.75000000  0.02194026  1
  Er  Er7  1  0.25000000  0.25000000  0.97805974  1
  Ir  Ir8  1  0.25000000  0.93383943  0.33509475  1
  Ir  Ir9  1  0.75000000  0.06616057  0.66490525  1
  Ir  Ir10  1  0.75000000  0.43383943  0.66490525  1
  Ir  Ir11  1  0.25000000  0.56616057  0.33509475  1
  Ir  Ir12  1  0.25000000  0.75000000  0.14210354  1
  Ir  Ir13  1  0.75000000  0.25000000  0.85789646  1
  Ir  Ir14  1  0.75000000  0.75000000  0.34290541  1
  Ir  Ir15  1  0.25000000  0.25000000  0.65709459  1
  Ir  Ir16  1  0.25000000  0.75000000  0.77262018  1
  Ir  Ir17  1  0.75000000  0.25000000  0.22737982  1
  Ir  Ir18  1  0.75000000  0.93877879  0.53890623  1
  Ir  Ir19  1  0.25000000  0.06122121  0.46109377  1
  Ir  Ir20  1  0.25000000  0.43877879  0.46109377  1
  Ir  Ir21  1  0.75000000  0.56122121  0.53890623  1
  Ir  Ir22  1  0.25000000  0.95039781  0.95333726  1
  Ir  Ir23  1  0.75000000  0.04960219  0.04666274  1
  Ir  Ir24  1  0.75000000  0.45039781  0.04666274  1
  Ir  Ir25  1  0.25000000  0.54960219  0.95333726  1
  Ir  Ir26  1  0.25000000  0.12508120  0.14343502  1
  Ir  Ir27  1  0.75000000  0.87491880  0.85656498  1
  Ir  Ir28  1  0.75000000  0.62508120  0.85656498  1
  Ir  Ir29  1  0.25000000  0.37491880  0.14343502  1
  Ir  Ir30  1  0.75000000  0.12224939  0.35553374  1
  Ir  Ir31  1  0.25000000  0.87775061  0.64446626  1
  Ir  Ir32  1  0.25000000  0.62224939  0.64446626  1
  Ir  Ir33  1  0.75000000  0.37775061  0.35553374  1
  Si  Si34  1  0.25000000  0.25000000  0.39773186  1
  Si  Si35  1  0.75000000  0.75000000  0.60226814  1
  Si  Si36  1  0.75000000  0.56855777  0.41458908  1
  Si  Si37  1  0.25000000  0.43144223  0.58541092  1
  Si  Si38  1  0.25000000  0.06855777  0.58541092  1
  Si  Si39  1  0.75000000  0.93144223  0.41458908  1
  Si  Si40  1  0.25000000  0.93782392  0.08049253  1
  Si  Si41  1  0.75000000  0.06217608  0.91950747  1
  Si  Si42  1  0.75000000  0.43782392  0.91950747  1
  Si  Si43  1  0.25000000  0.56217608  0.08049253  1
  Si  Si44  1  0.75000000  0.25000000  0.10208792  1
  Si  Si45  1  0.25000000  0.75000000  0.89791208  1
  Si  Si46  1  0.75000000  0.62343005  0.72938753  1
  Si  Si47  1  0.25000000  0.37656995  0.27061247  1
  Si  Si48  1  0.25000000  0.12343005  0.27061247  1
  Si  Si49  1  0.75000000  0.87656995  0.72938753  1
  Si  Si50  1  0.75000000  0.25000000  0.73239022  1
  Si  Si51  1  0.25000000  0.75000000  0.26760978  1
