# generated using pymatgen
data_Mo15N16
_symmetry_space_group_name_H-M   'P 1'
_cell_length_a   11.47492187
_cell_length_b   9.96003657
_cell_length_c   8.04724016
_cell_angle_alpha   89.98058796
_cell_angle_beta   44.52271632
_cell_angle_gamma   90.00000000
_symmetry_Int_Tables_number   1
_chemical_formula_structural   Mo15N16
_chemical_formula_sum   'Mo30 N32'
_cell_volume   644.90319948
_cell_formula_units_Z   2
loop_
 _symmetry_equiv_pos_site_id
 _symmetry_equiv_pos_as_xyz
  1  'x, y, z'
loop_
 _atom_site_type_symbol
 _atom_site_label
 _atom_site_symmetry_multiplicity
 _atom_site_fract_x
 _atom_site_fract_y
 _atom_site_fract_z
 _atom_site_occupancy
  Mo  Mo0  1  0.00426210  0.01027766  0.49075898  1
  Mo  Mo1  1  0.00594463  0.50106315  0.48910193  1
  Mo  Mo2  1  0.12149308  0.24432250  0.49186149  1
  Mo  Mo3  1  0.13664543  0.74432250  0.49186149  1
  Mo  Mo4  1  0.00600866  0.49256932  0.99116615  1
  Mo  Mo5  1  0.25497892  0.51027766  0.49075898  1
  Mo  Mo6  1  0.25495344  0.00106315  0.48910193  1
  Mo  Mo7  1  0.00654514  0.99779455  0.98776613  1
  Mo  Mo8  1  0.36111298  0.74615029  0.51605336  1
  Mo  Mo9  1  0.12441222  0.25691172  0.99163891  1
  Mo  Mo10  1  0.39699811  0.24323010  0.46919856  1
  Mo  Mo11  1  0.25285479  0.98755229  0.99230579  1
  Mo  Mo12  1  0.50535920  0.00844139  0.49158123  1
  Mo  Mo13  1  0.50548754  0.50213728  0.48753743  1
  Mo  Mo14  1  0.25529574  0.49863096  0.98753821  1
  Mo  Mo15  1  0.62308608  0.24373946  0.49202072  1
  Mo  Mo16  1  0.37419758  0.75701538  0.99345052  1
  Mo  Mo17  1  0.63489320  0.74373946  0.49202072  1
  Mo  Mo18  1  0.38235190  0.25701538  0.99345052  1
  Mo  Mo19  1  0.75305957  0.50844139  0.49158123  1
  Mo  Mo20  1  0.50483942  0.48755229  0.99230579  1
  Mo  Mo21  1  0.75697503  0.00213728  0.48753743  1
  Mo  Mo22  1  0.50716605  0.99863096  0.98753821  1
  Mo  Mo23  1  0.88380333  0.74323010  0.46919856  1
  Mo  Mo24  1  0.87283366  0.24615029  0.51605336  1
  Mo  Mo25  1  0.63394887  0.75691172  0.99163891  1
  Mo  Mo26  1  0.75568873  0.49779455  0.98776613  1
  Mo  Mo27  1  0.75282519  0.99256932  0.99116615  1
  Mo  Mo28  1  0.87337148  0.75513340  0.99254955  1
  Mo  Mo29  1  0.88407896  0.25513340  0.99254955  1
  N  N30  1  0.00429502  0.91600769  0.24401984  1
  N  N31  1  0.13102257  0.66770757  0.24135917  1
  N  N32  1  0.13403410  0.16603610  0.22964325  1
  N  N33  1  0.25058241  0.91654876  0.24740898  1
  N  N34  1  0.00094528  0.58393917  0.74829974  1
  N  N35  1  0.25200861  0.41654876  0.24740898  1
  N  N36  1  0.38632265  0.66603610  0.22964325  1
  N  N37  1  0.37761826  0.16770757  0.24135917  1
  N  N38  1  0.13666572  0.33389356  0.72654728  1
  N  N39  1  0.12636454  0.83495065  0.74776840  1
  N  N40  1  0.25218684  0.58262945  0.74735921  1
  N  N41  1  0.50168515  0.41600769  0.24401984  1
  N  N42  1  0.50109492  0.91804537  0.24722122  1
  N  N43  1  0.25274299  0.08350383  0.74452527  1
  N  N44  1  0.37997997  0.83212742  0.73784619  1
  N  N45  1  0.63755614  0.16560870  0.22837707  1
  N  N46  1  0.62614952  0.66697321  0.24448260  1
  N  N47  1  0.37990105  0.33397315  0.73944120  1
  N  N48  1  0.75316361  0.91546730  0.24549161  1
  N  N49  1  0.50136956  0.08366861  0.74768002  1
  N  N50  1  0.75134478  0.41546730  0.24549161  1
  N  N51  1  0.50095043  0.58366861  0.74768002  1
  N  N52  1  0.63217385  0.33212742  0.73784619  1
  N  N53  1  0.88406679  0.66560870  0.22837707  1
  N  N54  1  0.87936788  0.16697321  0.24448260  1
  N  N55  1  0.63065775  0.83397315  0.73944120  1
  N  N56  1  0.75273175  0.58350383  0.74452527  1
  N  N57  1  0.00168386  0.41804537  0.24722122  1
  N  N58  1  0.75045395  0.08262945  0.74735921  1
  N  N59  1  0.88678700  0.83389356  0.72654728  1
  N  N60  1  0.87586706  0.33495065  0.74776840  1
  N  N61  1  0.00075498  0.08393917  0.74829974  1
