# generated using pymatgen
data_NaTa4O8
_symmetry_space_group_name_H-M   'P 1'
_cell_length_a   13.06964397
_cell_length_b   18.16732096
_cell_length_c   16.69084363
_cell_angle_alpha   23.25903585
_cell_angle_beta   38.48746666
_cell_angle_gamma   44.01731358
_symmetry_Int_Tables_number   1
_chemical_formula_structural   NaTa4O8
_chemical_formula_sum   'Na6 Ta24 O48'
_cell_volume   973.95255888
_cell_formula_units_Z   6
loop_
 _symmetry_equiv_pos_site_id
 _symmetry_equiv_pos_as_xyz
  1  'x, y, z'
loop_
 _atom_site_type_symbol
 _atom_site_label
 _atom_site_symmetry_multiplicity
 _atom_site_fract_x
 _atom_site_fract_y
 _atom_site_fract_z
 _atom_site_occupancy
  Na  Na0  1  0.38188026  0.00000000  0.50004331  1
  Na  Na1  1  0.61504854  0.00000000  0.50007550  1
  Na  Na2  1  0.34960140  0.50000000  0.50017430  1
  Na  Na3  1  0.90039860  0.00000000  0.49982570  1
  Na  Na4  1  0.63495146  0.50000000  0.49992450  1
  Na  Na5  1  0.86811974  0.50000000  0.49995669  1
  Ta  Ta6  1  0.10317311  0.00000000  0.00010034  1
  Ta  Ta7  1  0.39870689  0.00000000  0.99994017  1
  Ta  Ta8  1  0.60108597  0.00000000  0.00000698  1
  Ta  Ta9  1  0.14682689  0.50000000  0.99989966  1
  Ta  Ta10  1  0.03162251  0.26778408  0.44954257  1
  Ta  Ta11  1  0.46648818  0.26780524  0.01478281  1
  Ta  Ta12  1  0.35107821  0.50000000  0.00005122  1
  Ta  Ta13  1  0.89892179  0.00000000  0.99994878  1
  Ta  Ta14  1  0.21837749  0.23221592  0.55045743  1
  Ta  Ta15  1  0.21837749  0.76778408  0.01488926  1
  Ta  Ta16  1  0.64891403  0.50000000  -0.00000698  1
  Ta  Ta17  1  0.53048759  0.26940658  0.44973919  1
  Ta  Ta18  1  0.96880620  0.26939039  0.01153742  1
  Ta  Ta19  1  0.85129311  0.50000000  0.00005983  1
  Ta  Ta20  1  0.28119380  0.23060961  0.98846258  1
  Ta  Ta21  1  0.28119380  0.76939039  0.44968080  1
  Ta  Ta22  1  0.71951241  0.76940658  0.01144765  1
  Ta  Ta23  1  0.71951241  0.23059342  0.55026081  1
  Ta  Ta24  1  0.03162251  0.73221592  0.98511074  1
  Ta  Ta25  1  0.46648818  0.73219476  0.55039430  1
  Ta  Ta26  1  0.78351182  0.23219476  0.98521719  1
  Ta  Ta27  1  0.78351182  0.76780524  0.44960570  1
  Ta  Ta28  1  0.53048759  0.73059342  0.98855235  1
  Ta  Ta29  1  0.96880620  0.73060961  0.55031920  1
  O  O30  1  0.02424296  0.30793748  0.05633860  1
  O  O31  1  0.17982055  0.00000000  0.31966747  1
  O  O32  1  0.24930105  0.31197129  0.04983893  1
  O  O33  1  0.42554077  0.00000000  0.32724217  1
  O  O34  1  0.25217267  0.30796744  0.32738363  1
  O  O35  1  0.52291918  0.30800026  0.05674868  1
  O  O36  1  0.17009784  0.50000000  0.32736551  1
  O  O37  1  0.67705390  0.00000000  0.32196849  1
  O  O38  1  0.47608076  0.30729421  0.32784139  1
  O  O39  1  0.00069895  0.18802871  0.95016107  1
  O  O40  1  0.00069895  0.81197129  0.32621949  1
  O  O41  1  0.74648548  0.30719299  0.05769852  1
  O  O42  1  0.27702482  0.81198943  0.05003999  1
  O  O43  1  0.27702482  0.18801057  0.67401785  1
  O  O44  1  0.07017945  0.50000000  0.68033253  1
  O  O45  1  0.43080073  0.50000000  0.31976578  1
  O  O46  1  0.91744375  0.00000000  0.33376083  1
  O  O47  1  0.22575704  0.80793748  0.32778744  1
  O  O48  1  0.22575704  0.19206252  0.94366140  1
  O  O49  1  0.49746827  0.19215381  0.67204565  1
  O  O50  1  0.49746827  0.80784619  0.05635227  1
  O  O51  1  0.02424296  0.69206252  0.67221256  1
  O  O52  1  0.75253173  0.30784619  0.32795435  1
  O  O53  1  0.33255625  0.50000000  0.66623917  1
  O  O54  1  0.66543550  0.50000000  0.33363580  1
  O  O55  1  0.24930105  0.68802871  0.67378051  1
  O  O56  1  0.97297518  0.31198943  0.32598215  1
  O  O57  1  0.50351452  0.80719299  0.32791550  1
  O  O58  1  0.50351452  0.19280701  0.94230148  1
  O  O59  1  0.77391924  0.19270579  0.67215861  1
  O  O60  1  0.77391924  0.80729421  0.05756920  1
  O  O61  1  0.07990216  0.00000000  0.67263449  1
  O  O62  1  0.57294610  0.50000000  0.67803151  1
  O  O63  1  0.92904285  0.50000000  0.32186755  1
  O  O64  1  0.72708082  0.80800026  0.32724979  1
  O  O65  1  0.72708082  0.19199974  0.94325132  1
  O  O66  1  0.25217267  0.69203256  0.94331851  1
  O  O67  1  0.99782733  0.19203256  0.67261637  1
  O  O68  1  0.99782733  0.80796744  0.05668149  1
  O  O69  1  0.52291918  0.69199974  0.67275021  1
  O  O70  1  0.32095715  0.00000000  0.67813245  1
  O  O71  1  0.82445923  0.50000000  0.67275783  1
  O  O72  1  0.47608076  0.69270579  0.94243080  1
  O  O73  1  0.74648548  0.69280701  0.67208450  1
  O  O74  1  0.58456450  0.00000000  0.66636420  1
  O  O75  1  0.75253173  0.69215381  0.94364773  1
  O  O76  1  0.81919927  0.00000000  0.68023422  1
  O  O77  1  0.97297518  0.68801057  0.94996001  1
