# generated using pymatgen
data_Co6O7F5
_symmetry_space_group_name_H-M   'P 1'
_cell_length_a   4.63322724
_cell_length_b   4.63322724
_cell_length_c   8.74889484
_cell_angle_alpha   90.00000000
_cell_angle_beta   90.00000000
_cell_angle_gamma   97.51406268
_symmetry_Int_Tables_number   1
_chemical_formula_structural   Co6O7F5
_chemical_formula_sum   'Co6 O7 F5'
_cell_volume   186.19795961
_cell_formula_units_Z   1
loop_
 _symmetry_equiv_pos_site_id
 _symmetry_equiv_pos_as_xyz
  1  'x, y, z'
loop_
 _atom_site_type_symbol
 _atom_site_label
 _atom_site_symmetry_multiplicity
 _atom_site_fract_x
 _atom_site_fract_y
 _atom_site_fract_z
 _atom_site_occupancy
  Co  Co0  1  0.00860857  0.99139143  0.00906588  1
  Co  Co1  1  0.00860857  0.99139143  0.32426712  1
  Co  Co2  1  0.00019897  -0.00019897  0.66666700  1
  Co  Co3  1  0.46334504  0.53665496  0.16666700  1
  Co  Co4  1  0.50657893  0.49342107  0.83550738  1
  Co  Co5  1  0.50657893  0.49342107  0.49782562  1
  O  O6  1  0.18012328  0.81987672  0.16666700  1
  O  O7  1  0.30309249  0.30858243  0.32854754  1
  O  O8  1  0.30309249  0.30858243  0.00478546  1
  O  O9  1  0.31426467  0.30892782  0.66666700  1
  O  O10  1  0.69107218  0.68573533  0.66666700  1
  O  O11  1  0.69141757  0.69690751  0.00478546  1
  O  O12  1  0.69141757  0.69690751  0.32854754  1
  F  F13  1  0.18836590  0.81163410  0.84798460  1
  F  F14  1  0.18836590  0.81163410  0.48534840  1
  F  F15  1  0.82390056  0.17609944  0.16666700  1
  F  F16  1  0.81548370  0.18451630  0.84635445  1
  F  F17  1  0.81548370  0.18451630  0.48697855  1
