# generated using pymatgen
data_Tl4SnSe3
_symmetry_space_group_name_H-M   'P 1'
_cell_length_a   8.68089033
_cell_length_b   8.69016381
_cell_length_c   26.80623203
_cell_angle_alpha   90.08498913
_cell_angle_beta   90.00000000
_cell_angle_gamma   90.00000000
_symmetry_Int_Tables_number   1
_chemical_formula_structural   Tl4SnSe3
_chemical_formula_sum   'Tl32 Sn8 Se24'
_cell_volume   2022.21593008
_cell_formula_units_Z   8
loop_
 _symmetry_equiv_pos_site_id
 _symmetry_equiv_pos_as_xyz
  1  'x, y, z'
loop_
 _atom_site_type_symbol
 _atom_site_label
 _atom_site_symmetry_multiplicity
 _atom_site_fract_x
 _atom_site_fract_y
 _atom_site_fract_z
 _atom_site_occupancy
  Tl  Tl0  1  0.07390668  0.86557158  0.19327215  1
  Tl  Tl1  1  0.08333399  0.62595010  0.44859426  1
  Tl  Tl2  1  0.08607831  0.88397586  0.69955938  1
  Tl  Tl3  1  0.08079858  0.62036515  0.95138917  1
  Tl  Tl4  1  0.12728821  0.58276002  0.29967743  1
  Tl  Tl5  1  0.11909688  0.59003787  0.80389248  1
  Tl  Tl6  1  0.12555855  0.92387709  0.05049413  1
  Tl  Tl7  1  0.12135553  0.91875848  0.54826299  1
  Tl  Tl8  1  0.25779175  0.25443231  0.15332710  1
  Tl  Tl9  1  0.37138264  0.57730192  0.04933924  1
  Tl  Tl10  1  0.37306744  0.91241357  0.29774427  1
  Tl  Tl11  1  0.37994070  0.58927497  0.55206056  1
  Tl  Tl12  1  0.37146668  0.92135172  0.79851407  1
  Tl  Tl13  1  0.41448014  0.88511042  0.44949834  1
  Tl  Tl14  1  0.40921786  0.88551894  0.95007050  1
  Tl  Tl15  1  0.41318691  0.62479072  0.69985089  1
  Tl  Tl16  1  0.58079858  0.37963485  0.29861083  1
  Tl  Tl17  1  0.57390668  0.13442842  0.05672785  1
  Tl  Tl18  1  0.58333399  0.37404990  0.80140574  1
  Tl  Tl19  1  0.58607831  0.11602414  0.55044062  1
  Tl  Tl20  1  0.62555855  0.07612291  0.19950587  1
  Tl  Tl21  1  0.62135553  0.08124152  0.70173701  1
  Tl  Tl22  1  0.62728821  0.41723998  0.95032257  1
  Tl  Tl23  1  0.61909688  0.40996213  0.44610752  1
  Tl  Tl24  1  0.75779175  0.74556769  0.09667290  1
  Tl  Tl25  1  0.87138264  0.42269808  0.20066076  1
  Tl  Tl26  1  0.87994070  0.41072503  0.69793944  1
  Tl  Tl27  1  0.87306744  0.08758643  0.95225573  1
  Tl  Tl28  1  0.87146668  0.07864828  0.45148593  1
  Tl  Tl29  1  0.90921786  0.11448106  0.29992950  1
  Tl  Tl30  1  0.91448014  0.11488958  0.80050166  1
  Tl  Tl31  1  0.91318691  0.37520928  0.55014911  1
  Sn  Sn32  1  0.26722533  0.24353206  0.63083610  1
  Sn  Sn33  1  0.22774169  0.24117705  0.38182096  1
  Sn  Sn34  1  0.23231399  0.24454107  0.88238311  1
  Sn  Sn35  1  0.45542650  0.64968112  0.19260361  1
  Sn  Sn36  1  0.73231399  0.75545893  0.36761689  1
  Sn  Sn37  1  0.76722533  0.75646794  0.61916390  1
  Sn  Sn38  1  0.72774169  0.75882295  0.86817904  1
  Sn  Sn39  1  0.95542650  0.35031888  0.05739639  1
  Se  Se40  1  0.08503278  0.56719060  0.12060580  1
  Se  Se41  1  0.05970081  0.60531570  0.62230282  1
  Se  Se42  1  0.10203007  0.93919095  0.37748514  1
  Se  Se43  1  0.10361986  0.94223687  0.87935259  1
  Se  Se44  1  0.24377155  0.25963127  0.52891518  1
  Se  Se45  1  0.23214720  0.25176424  0.02292425  1
  Se  Se46  1  0.25331519  0.25534579  0.27954183  1
  Se  Se47  1  0.25282103  0.26161142  0.77902225  1
  Se  Se48  1  0.40811308  0.89424995  0.12748607  1
  Se  Se49  1  0.43761391  0.60756191  0.37123026  1
  Se  Se50  1  0.39300060  0.93902113  0.62711852  1
  Se  Se51  1  0.43817356  0.60634555  0.87380370  1
  Se  Se52  1  0.60361986  0.05776313  0.37064741  1
  Se  Se53  1  0.58503278  0.43280940  0.12939420  1
  Se  Se54  1  0.60203007  0.06080905  0.87251486  1
  Se  Se55  1  0.55970081  0.39468430  0.62769718  1
  Se  Se56  1  0.73214720  0.74823576  0.22707575  1
  Se  Se57  1  0.74377155  0.74036873  0.72108482  1
  Se  Se58  1  0.75282103  0.73838858  0.47097775  1
  Se  Se59  1  0.75331519  0.74465421  0.97045817  1
  Se  Se60  1  0.90811308  0.10575005  0.12251393  1
  Se  Se61  1  0.89300060  0.06097887  0.62288148  1
  Se  Se62  1  0.93817356  0.39365445  0.37619630  1
  Se  Se63  1  0.93761391  0.39243809  0.87876974  1
