# generated using pymatgen
data_Sr2NF
_symmetry_space_group_name_H-M   'P 1'
_cell_length_a   7.60257382
_cell_length_b   15.27495334
_cell_length_c   15.27495295
_cell_angle_alpha   60.31852454
_cell_angle_beta   60.15105924
_cell_angle_gamma   60.15105905
_symmetry_Int_Tables_number   1
_chemical_formula_structural   Sr2NF
_chemical_formula_sum   'Sr32 N16 F16'
_cell_volume   1260.18004740
_cell_formula_units_Z   16
loop_
 _symmetry_equiv_pos_site_id
 _symmetry_equiv_pos_as_xyz
  1  'x, y, z'
loop_
 _atom_site_type_symbol
 _atom_site_label
 _atom_site_symmetry_multiplicity
 _atom_site_fract_x
 _atom_site_fract_y
 _atom_site_fract_z
 _atom_site_occupancy
  F  F0  1  0.34857256  0.20071372  0.20071372  1
  F  F1  1  0.52490899  0.96408918  0.26100183  1
  F  F2  1  0.65142744  0.29928628  0.29928628  1
  F  F3  1  0.47509101  0.23899817  0.53591082  1
  F  F4  1  0.47509101  0.53591082  0.23899817  1
  F  F5  1  0.49998268  0.99723492  0.75278240  1
  F  F6  1  0.50000000  0.75000000  0.25000000  1
  F  F7  1  0.50000000  0.25000000  0.75000000  1
  F  F8  1  0.50001732  0.74721760  0.50276508  1
  F  F9  1  0.52490899  0.26100183  0.96408918  1
  F  F10  1  0.50001732  0.50276508  0.74721760  1
  F  F11  1  0.50000000  0.75000000  0.75000000  1
  F  F12  1  0.00000000  0.25000000  0.75000000  1
  F  F13  1  0.00000000  0.75000000  0.25000000  1
  F  F14  1  0.49998268  0.75278240  0.99723492  1
  F  F15  1  0.00000000  0.75000000  0.75000000  1
  N  N16  1  0.99947471  0.00051037  0.00051037  1
  N  N17  1  0.49848380  0.00051037  0.00051037  1
  N  N18  1  0.50000000  0.50292290  0.99707710  1
  N  N19  1  0.50000000  0.99707710  0.50292290  1
  N  N20  1  0.99721284  0.00232995  0.25045722  1
  N  N21  1  0.99721284  0.25045722  0.00232995  1
  N  N22  1  0.50151620  0.49948963  0.49948963  1
  N  N23  1  0.00000000  0.99707710  0.50292290  1
  N  N24  1  1.00000000  0.50292290  0.99707710  1
  N  N25  1  0.00278716  0.24954278  0.49767005  1
  N  N26  1  0.00278716  0.49767005  0.24954278  1
  N  N27  1  0.00075382  0.75074085  0.99850533  1
  N  N28  1  0.00075382  0.99850533  0.75074085  1
  N  N29  1  0.00052529  0.49948963  0.49948963  1
  N  N30  1  0.99924618  0.74925915  0.50149467  1
  N  N31  1  0.99924618  0.50149467  0.74925915  1
  Sr  Sr32  1  0.24678240  0.11906595  0.11906595  1
  Sr  Sr33  1  0.24101767  0.39788778  0.11109455  1
  Sr  Sr34  1  0.24101767  0.11109455  0.39788778  1
  Sr  Sr35  1  0.23988863  0.62241580  0.11984935  1
  Sr  Sr36  1  0.23988863  0.11984935  0.62241580  1
  Sr  Sr37  1  0.22304619  0.38093405  0.38093405  1
  Sr  Sr38  1  0.77695381  0.11906595  0.11906595  1
  Sr  Sr39  1  0.23916674  0.12056529  0.89026796  1
  Sr  Sr40  1  0.24005091  0.38915069  0.62079840  1
  Sr  Sr41  1  0.24005091  0.62079840  0.38915069  1
  Sr  Sr42  1  0.23916674  0.89026796  0.12056529  1
  Sr  Sr43  1  0.75898233  0.10211222  0.38890545  1
  Sr  Sr44  1  0.75898233  0.38890545  0.10211222  1
  Sr  Sr45  1  0.24282586  0.61945901  0.61945901  1
  Sr  Sr46  1  0.22441892  0.38015065  0.87758420  1
  Sr  Sr47  1  0.22441892  0.87758420  0.38015065  1
  Sr  Sr48  1  0.77558108  0.11984935  0.62241580  1
  Sr  Sr49  1  0.77558108  0.62241580  0.11984935  1
  Sr  Sr50  1  0.75321760  0.38093405  0.38093405  1
  Sr  Sr51  1  0.23926347  0.62360031  0.88713622  1
  Sr  Sr52  1  0.23926347  0.88713622  0.62360031  1
  Sr  Sr53  1  0.75994909  0.11084931  0.87920160  1
  Sr  Sr54  1  0.76083326  0.37943471  0.60973204  1
  Sr  Sr55  1  0.76083326  0.60973204  0.37943471  1
  Sr  Sr56  1  0.75994909  0.87920160  0.11084931  1
  Sr  Sr57  1  0.22066190  0.88054099  0.88054099  1
  Sr  Sr58  1  0.77933810  0.61945901  0.61945901  1
  Sr  Sr59  1  0.76011137  0.38015065  0.87758420  1
  Sr  Sr60  1  0.76011137  0.87758420  0.38015065  1
  Sr  Sr61  1  0.76073653  0.61286378  0.87639969  1
  Sr  Sr62  1  0.76073653  0.87639969  0.61286378  1
  Sr  Sr63  1  0.75717414  0.88054099  0.88054099  1
