# generated using pymatgen
data_YbZr3F15
_symmetry_space_group_name_H-M   'P 1'
_cell_length_a   8.20667110
_cell_length_b   8.25543401
_cell_length_c   16.41002100
_cell_angle_alpha   99.50742668
_cell_angle_beta   99.44859058
_cell_angle_gamma   99.49237325
_symmetry_Int_Tables_number   1
_chemical_formula_structural   YbZr3F15
_chemical_formula_sum   'Yb4 Zr12 F60'
_cell_volume   1060.34618185
_cell_formula_units_Z   4
loop_
 _symmetry_equiv_pos_site_id
 _symmetry_equiv_pos_as_xyz
  1  'x, y, z'
loop_
 _atom_site_type_symbol
 _atom_site_label
 _atom_site_symmetry_multiplicity
 _atom_site_fract_x
 _atom_site_fract_y
 _atom_site_fract_z
 _atom_site_occupancy
  F  F0  1  0.00545863  0.77058755  0.88513539  1
  F  F1  1  0.03890942  0.46614141  0.87891833  1
  F  F2  1  0.03312612  0.15609282  0.84007478  1
  F  F3  1  0.00227154  0.78050084  0.38959153  1
  F  F4  1  0.18884707  0.65436714  0.77750251  1
  F  F5  1  0.24512682  0.95078220  0.76272147  1
  F  F6  1  0.31189090  0.93431219  0.92273874  1
  F  F7  1  0.02524978  0.45237014  0.36814915  1
  F  F8  1  0.21851759  0.22312146  0.99915616  1
  F  F9  1  0.22604345  0.99192397  0.61439148  1
  F  F10  1  0.15700426  0.69056321  0.53349803  1
  F  F11  1  0.05090556  0.15599884  0.34357198  1
  F  F12  1  0.34239965  0.46522393  0.91004773  1
  F  F13  1  0.27414119  0.28018745  0.75136288  1
  F  F14  1  0.27623413  0.50896512  0.63956600  1
  F  F15  1  0.17850893  0.65668996  0.26590114  1
  F  F16  1  0.25095677  0.96785975  0.27037014  1
  F  F17  1  0.31993960  0.96592781  0.42002529  1
  F  F18  1  0.22431920  0.22529494  0.49550401  1
  F  F19  1  0.22526134  0.99570347  0.11245718  1
  F  F20  1  0.14988360  0.68665875  0.02509659  1
  F  F21  1  0.49324149  0.72355728  0.85890981  1
  F  F22  1  0.45013198  0.80990836  0.67280542  1
  F  F23  1  0.34571049  0.43662143  0.40573392  1
  F  F24  1  0.27223942  0.27083865  0.25312302  1
  F  F25  1  0.27240400  0.50392476  0.13458989  1
  F  F26  1  0.54584112  0.25484906  0.98750320  1
  F  F27  1  0.47179446  0.75401493  0.52274495  1
  F  F28  1  0.56697390  0.18487806  0.82682148  1
  F  F29  1  0.49895380  0.72720705  0.36254816  1
  F  F30  1  0.50104620  0.27279295  0.63745184  1
  F  F31  1  0.43302610  0.81512194  0.17317852  1
  F  F32  1  0.52820554  0.24598507  0.47725505  1
  F  F33  1  0.45415888  0.74515094  0.01249680  1
  F  F34  1  0.72759600  0.49607524  0.86541011  1
  F  F35  1  0.72776058  0.72916135  0.74687698  1
  F  F36  1  0.65428951  0.56337857  0.59426608  1
  F  F37  1  0.54986802  0.19009164  0.32719458  1
  F  F38  1  0.50675851  0.27644272  0.14109019  1
  F  F39  1  0.85011640  0.31334125  0.97490341  1
  F  F40  1  0.77473866  0.00429653  0.88754282  1
  F  F41  1  0.77568080  0.77470506  0.50449599  1
  F  F42  1  0.68006040  0.03407219  0.57997471  1
  F  F43  1  0.74904323  0.03214025  0.72962986  1
  F  F44  1  0.82149107  0.34331004  0.73409886  1
  F  F45  1  0.72376587  0.49103488  0.36043400  1
  F  F46  1  0.72585881  0.71981255  0.24863712  1
  F  F47  1  0.65760035  0.53477607  0.08995227  1
  F  F48  1  0.94909444  0.84400116  0.65642802  1
  F  F49  1  0.84299574  0.30943679  0.46650197  1
  F  F50  1  0.77395655  0.00807603  0.38560852  1
  F  F51  1  0.78148241  0.77687854  0.00084384  1
  F  F52  1  0.97475022  0.54762986  0.63185085  1
  F  F53  1  0.68810910  0.06568781  0.07726126  1
  F  F54  1  0.75487318  0.04921780  0.23727853  1
  F  F55  1  0.81115293  0.34563286  0.22249749  1
  F  F56  1  0.99772846  0.21949916  0.61040847  1
  F  F57  1  0.96687388  0.84390718  0.15992522  1
  F  F58  1  0.96109058  0.53385859  0.12108167  1
  F  F59  1  0.99454137  0.22941245  0.11486461  1
  Yb  Yb60  1  0.31966169  0.17975129  0.87407579  1
  Yb  Yb61  1  0.24817626  0.68075986  0.40831734  1
  Yb  Yb62  1  0.75182374  0.31924014  0.59168266  1
  Yb  Yb63  1  0.68033831  0.82024871  0.12592421  1
  Zr  Zr64  1  0.24886522  0.68095426  0.91178607  1
  Zr  Zr65  1  0.17922646  0.74793598  0.66031405  1
  Zr  Zr66  1  0.24981190  0.25026677  0.62661456  1
  Zr  Zr67  1  0.18036862  0.74956926  0.16024034  1
  Zr  Zr68  1  0.32025248  0.18413527  0.37505911  1
  Zr  Zr69  1  0.25153294  0.24953161  0.12324358  1
  Zr  Zr70  1  0.74846706  0.75046839  0.87675642  1
  Zr  Zr71  1  0.67974752  0.81586473  0.62494089  1
  Zr  Zr72  1  0.81963138  0.25043074  0.83975966  1
  Zr  Zr73  1  0.75018810  0.74973323  0.37338544  1
  Zr  Zr74  1  0.82077354  0.25206402  0.33968595  1
  Zr  Zr75  1  0.75113478  0.31904574  0.08821393  1
