# generated using pymatgen
data_Tl4Ag18Te11
_symmetry_space_group_name_H-M   'P 1'
_cell_length_a   13.40809448
_cell_length_b   13.40809449
_cell_length_c   13.38536907
_cell_angle_alpha   60.05605110
_cell_angle_beta   60.05605106
_cell_angle_gamma   59.97587904
_symmetry_Int_Tables_number   1
_chemical_formula_structural   Tl4Ag18Te11
_chemical_formula_sum   'Tl8 Ag36 Te22'
_cell_volume   1702.69762646
_cell_formula_units_Z   2
loop_
 _symmetry_equiv_pos_site_id
 _symmetry_equiv_pos_as_xyz
  1  'x, y, z'
loop_
 _atom_site_type_symbol
 _atom_site_label
 _atom_site_symmetry_multiplicity
 _atom_site_fract_x
 _atom_site_fract_y
 _atom_site_fract_z
 _atom_site_occupancy
  Ag  Ag0  1  0.00636938  0.25697949  0.25793716  1
  Ag  Ag1  1  0.00636938  0.25697949  0.47871397  1
  Ag  Ag2  1  0.00878712  0.47802989  0.25659149  1
  Ag  Ag3  1  0.25731975  0.25731975  0.00778060  1
  Ag  Ag4  1  0.25697949  0.00636938  0.25793716  1
  Ag  Ag5  1  0.25697949  0.00636938  0.47871397  1
  Ag  Ag6  1  0.25767491  0.47859016  0.00622280  1
  Ag  Ag7  1  0.47802989  0.00878712  0.25659149  1
  Ag  Ag8  1  0.47859016  0.25767491  0.00622280  1
  Ag  Ag9  1  0.25731975  0.25731975  0.47757990  1
  Ag  Ag10  1  0.25767491  0.47859016  0.25751213  1
  Ag  Ag11  1  -0.00545660  0.52265473  0.74140094  1
  Ag  Ag12  1  -0.00338425  0.74163587  0.52080009  1
  Ag  Ag13  1  0.47859016  0.25767491  0.25751213  1
  Ag  Ag14  1  -0.00338425  0.74163587  0.74094829  1
  Ag  Ag15  1  0.52265473  -0.00545660  0.74140094  1
  Ag  Ag16  1  0.52093985  0.74081439  -0.00380752  1
  Ag  Ag17  1  0.74081439  0.52093985  -0.00380752  1
  Ag  Ag18  1  0.74163587  -0.00338425  0.52080009  1
  Ag  Ag19  1  0.74163587  -0.00338425  0.74094829  1
  Ag  Ag20  1  0.74189100  0.74189100  0.99422608  1
  Ag  Ag21  1  0.38658846  0.61335058  1.00003048  1
  Ag  Ag22  1  0.38482949  0.00189495  0.61595356  1
  Ag  Ag23  1  0.52093985  0.74081439  0.74205329  1
  Ag  Ag24  1  0.61335058  0.38658846  1.00003048  1
  Ag  Ag25  1  0.61465387  0.00115197  0.38563934  1
  Ag  Ag26  1  0.74189100  0.74189100  0.52199191  1
  Ag  Ag27  1  0.74081439  0.52093985  0.74205329  1
  Ag  Ag28  1  0.38482949  0.00189495  0.99732200  1
  Ag  Ag29  1  0.00189495  0.38482949  0.61595356  1
  Ag  Ag30  1  0.00115197  0.61465387  0.38563934  1
  Ag  Ag31  1  0.61465387  0.00115197  0.99855482  1
  Ag  Ag32  1  0.00189495  0.38482949  0.99732200  1
  Ag  Ag33  1  0.99971854  0.99971854  0.38685465  1
  Ag  Ag34  1  0.00115197  0.61465387  0.99855482  1
  Ag  Ag35  1  0.99971854  0.99971854  0.61370828  1
  Te  Te36  1  0.10900124  0.10900124  0.10933475  1
  Te  Te37  1  0.10900124  0.10900124  0.67266277  1
  Te  Te38  1  0.10993627  0.67356086  0.10825143  1
  Te  Te39  1  0.25047516  0.25047516  0.24952484  1
  Te  Te40  1  0.18478450  0.49934506  0.49967781  1
  Te  Te41  1  0.67356086  0.10993627  0.10825143  1
  Te  Te42  1  0.49949371  0.49949371  0.18586848  1
  Te  Te43  1  0.49934506  0.18478450  0.49967781  1
  Te  Te44  1  0.18478450  0.49934506  0.81619264  1
  Te  Te45  1  0.18616278  0.81537976  0.49922873  1
  Te  Te46  1  0.49934506  0.18478450  0.81619264  1
  Te  Te47  1  0.50020711  0.81749563  0.18394502  1
  Te  Te48  1  0.49949371  0.49949371  0.81514409  1
  Te  Te49  1  0.50020711  0.81749563  0.49835224  1
  Te  Te50  1  0.81749563  0.50020711  0.18394502  1
  Te  Te51  1  0.81537976  0.18616278  0.49922873  1
  Te  Te52  1  0.32941597  0.88980772  0.89038816  1
  Te  Te53  1  0.81749563  0.50020711  0.49835224  1
  Te  Te54  1  0.88980772  0.32941597  0.89038816  1
  Te  Te55  1  0.89043269  0.89043269  0.32913324  1
  Te  Te56  1  0.74981516  0.74981516  0.75018484  1
  Te  Te57  1  0.89043269  0.89043269  0.89000137  1
  Tl  Tl58  1  0.00083175  0.00083175  0.99916825  1
  Tl  Tl59  1  0.23562854  0.23562854  0.76437146  1
  Tl  Tl60  1  0.23425597  0.76474094  0.23525052  1
  Tl  Tl61  1  0.23425597  0.76474094  0.76575258  1
  Tl  Tl62  1  0.76474094  0.23425597  0.23525052  1
  Tl  Tl63  1  0.55970099  0.55970099  0.44029901  1
  Tl  Tl64  1  0.76474094  0.23425597  0.76575258  1
  Tl  Tl65  1  0.77265842  0.77265842  0.22734158  1
