# generated using pymatgen
data_LuZr3F15
_symmetry_space_group_name_H-M   'P 1'
_cell_length_a   8.14152598
_cell_length_b   8.14723078
_cell_length_c   16.28577530
_cell_angle_alpha   100.19214314
_cell_angle_beta   100.17773726
_cell_angle_gamma   100.16496792
_symmetry_Int_Tables_number   1
_chemical_formula_structural   LuZr3F15
_chemical_formula_sum   'Lu4 Zr12 F60'
_cell_volume   1022.12572395
_cell_formula_units_Z   4
loop_
 _symmetry_equiv_pos_site_id
 _symmetry_equiv_pos_as_xyz
  1  'x, y, z'
loop_
 _atom_site_type_symbol
 _atom_site_label
 _atom_site_symmetry_multiplicity
 _atom_site_fract_x
 _atom_site_fract_y
 _atom_site_fract_z
 _atom_site_occupancy
  F  F0  1  0.00856386  0.77755919  0.88730061  1
  F  F1  1  0.03535649  0.46682733  0.87740872  1
  F  F2  1  0.04221180  0.15280805  0.84093874  1
  F  F3  1  0.00611897  0.77973588  0.38788052  1
  F  F4  1  0.18596899  0.65016847  0.77717275  1
  F  F5  1  0.24620945  0.95679782  0.76444744  1
  F  F6  1  0.02995559  0.45777411  0.37128456  1
  F  F7  1  0.31493129  0.94025619  0.92379565  1
  F  F8  1  0.21927060  0.22397939  0.99688907  1
  F  F9  1  0.22442145  0.99093875  0.61045139  1
  F  F10  1  0.15138683  0.68553037  0.52997918  1
  F  F11  1  0.05269527  0.15083066  0.34258347  1
  F  F12  1  0.34694087  0.45641462  0.90837493  1
  F  F13  1  0.27517684  0.27973860  0.75323193  1
  F  F14  1  0.28047267  0.51012382  0.63897158  1
  F  F15  1  0.18081727  0.65314732  0.27068390  1
  F  F16  1  0.25159021  0.96731828  0.26812255  1
  F  F17  1  0.31686287  0.95718404  0.42356358  1
  F  F18  1  0.21967072  0.22603413  0.49553947  1
  F  F19  1  0.22489313  0.99179282  0.11020907  1
  F  F20  1  0.15020713  0.68403013  0.02609703  1
  F  F21  1  0.49210525  0.72491174  0.85916944  1
  F  F22  1  0.44848058  0.81496501  0.67447691  1
  F  F23  1  0.34783581  0.44095455  0.40740614  1
  F  F24  1  0.27467045  0.27743619  0.25409841  1
  F  F25  1  0.27810068  0.50750935  0.13647364  1
  F  F26  1  0.54063038  0.25159101  0.98446586  1
  F  F27  1  0.46828323  0.75137137  0.52042146  1
  F  F28  1  0.56035879  0.18388117  0.82533115  1
  F  F29  1  0.50691333  0.27500590  0.63984058  1
  F  F30  1  0.49308667  0.72499410  0.36015942  1
  F  F31  1  0.43964121  0.81611883  0.17466885  1
  F  F32  1  0.53171677  0.24862863  0.47957854  1
  F  F33  1  0.45936962  0.74840899  0.01553414  1
  F  F34  1  0.72189932  0.49249065  0.86352636  1
  F  F35  1  0.72532955  0.72256381  0.74590159  1
  F  F36  1  0.65216419  0.55904545  0.59259386  1
  F  F37  1  0.55151942  0.18503499  0.32552309  1
  F  F38  1  0.50789475  0.27508826  0.14083056  1
  F  F39  1  0.84979287  0.31596987  0.97390297  1
  F  F40  1  0.77510687  0.00820718  0.88979093  1
  F  F41  1  0.78032928  0.77396587  0.50446053  1
  F  F42  1  0.68313713  0.04281596  0.57643642  1
  F  F43  1  0.74840979  0.03268172  0.73187745  1
  F  F44  1  0.81918273  0.34685268  0.72931610  1
  F  F45  1  0.71952733  0.48987618  0.36102842  1
  F  F46  1  0.72482316  0.72026140  0.24676807  1
  F  F47  1  0.65305913  0.54358538  0.09162507  1
  F  F48  1  0.94730473  0.84916934  0.65741653  1
  F  F49  1  0.84861317  0.31446963  0.47002082  1
  F  F50  1  0.77557855  0.00906125  0.38954861  1
  F  F51  1  0.78072940  0.77602061  0.00311093  1
  F  F52  1  0.68506871  0.05974381  0.07620435  1
  F  F53  1  0.97004441  0.54222589  0.62871544  1
  F  F54  1  0.75379055  0.04320218  0.23555256  1
  F  F55  1  0.81403101  0.34983153  0.22282725  1
  F  F56  1  0.99388103  0.22026412  0.61211948  1
  F  F57  1  0.95778820  0.84719195  0.15906126  1
  F  F58  1  0.96464351  0.53317267  0.12259128  1
  F  F59  1  0.99143614  0.22244081  0.11269939  1
  Lu  Lu60  1  0.32233562  0.17710856  0.87429424  1
  Lu  Lu61  1  0.24923383  0.67835462  0.41091185  1
  Lu  Lu62  1  0.75076617  0.32164538  0.58908815  1
  Lu  Lu63  1  0.67766438  0.82289144  0.12570576  1
  Zr  Zr64  1  0.25166951  0.67753323  0.91262818  1
  Zr  Zr65  1  0.17570376  0.74886419  0.66118043  1
  Zr  Zr66  1  0.25053331  0.25009924  0.62533140  1
  Zr  Zr67  1  0.17729731  0.75068872  0.16215274  1
  Zr  Zr68  1  0.32460904  0.17853991  0.37607033  1
  Zr  Zr69  1  0.24994110  0.24978649  0.12447623  1
  Zr  Zr70  1  0.75005890  0.75021351  0.87552377  1
  Zr  Zr71  1  0.67539096  0.82146009  0.62392967  1
  Zr  Zr72  1  0.82270269  0.24931128  0.83784726  1
  Zr  Zr73  1  0.74946669  0.74990076  0.37466860  1
  Zr  Zr74  1  0.82429624  0.25113581  0.33881957  1
  Zr  Zr75  1  0.74833049  0.32246677  0.08737182  1
