# generated using pymatgen
data_Li5GeN3
_symmetry_space_group_name_H-M   'P 1'
_cell_length_a   8.30888762
_cell_length_b   8.36916058
_cell_length_c   21.10457853
_cell_angle_alpha   97.62481654
_cell_angle_beta   97.53831837
_cell_angle_gamma   109.22381821
_symmetry_Int_Tables_number   1
_chemical_formula_structural   Li5GeN3
_chemical_formula_sum   'Li80 Ge16 N48'
_cell_volume   1349.30254671
_cell_formula_units_Z   16
loop_
 _symmetry_equiv_pos_site_id
 _symmetry_equiv_pos_as_xyz
  1  'x, y, z'
loop_
 _atom_site_type_symbol
 _atom_site_label
 _atom_site_symmetry_multiplicity
 _atom_site_fract_x
 _atom_site_fract_y
 _atom_site_fract_z
 _atom_site_occupancy
  Li  Li0  1  0.39785395  0.88726781  0.06722236  1
  Li  Li1  1  0.90687902  0.88476590  0.08504326  1
  Li  Li2  1  0.17556764  0.65607842  0.08060758  1
  Li  Li3  1  0.32312910  0.57220481  0.17514821  1
  Li  Li4  1  0.01484742  0.52317142  0.24547404  1
  Li  Li5  1  0.66595355  0.64829880  0.08039743  1
  Li  Li6  1  0.42577191  0.66530548  0.33862974  1
  Li  Li7  1  0.52168673  0.51845984  0.25633445  1
  Li  Li8  1  0.40993742  0.44965070  0.08702646  1
  Li  Li9  1  0.08645133  0.32749396  0.17684670  1
  Li  Li10  1  0.56896553  0.54772857  0.41669171  1
  Li  Li11  1  0.83863655  0.33155458  0.42123126  1
  Li  Li12  1  0.83887121  0.62005204  0.17426197  1
  Li  Li13  1  0.84804886  0.08018899  0.15381807  1
  Li  Li14  1  0.00025293  0.27347257  0.50677505  1
  Li  Li15  1  0.71958290  0.19537898  0.59272065  1
  Li  Li16  1  0.33671307  0.31845672  0.42871298  1
  Li  Li17  1  0.57844623  0.36673133  0.16357746  1
  Li  Li18  1  0.28485047  0.24923307  0.23754991  1
  Li  Li19  1  0.90021115  0.13701347  0.33221734  1
  Li  Li20  1  0.67878475  0.41897397  0.33869669  1
  Li  Li21  1  0.06981074  0.33267501  0.67850794  1
  Li  Li22  1  0.72631158  0.23039360  0.73819514  1
  Li  Li23  1  0.07210246  0.11462225  0.42712839  1
  Li  Li24  1  0.76039962  0.00261735  0.51030828  1
  Li  Li25  1  0.59351837  0.06954367  0.91875720  1
  Li  Li26  1  0.42550594  0.19680450  0.33304139  1
  Li  Li27  1  0.23308980  0.21550766  0.75420262  1
  Li  Li28  1  0.51433873  0.98510154  0.75216006  1
  Li  Li29  1  0.00685171  0.01514768  0.23753188  1
  Li  Li30  1  0.63787166  0.14303217  0.08971237  1
  Li  Li31  1  0.35878458  0.07624483  0.15976071  1
  Li  Li32  1  0.51426322  0.26828643  0.51627887  1
  Li  Li33  1  0.84191053  0.06280316  0.66850673  1
  Li  Li34  1  0.49743001  0.73738983  0.48912951  1
  Li  Li35  1  0.47749225  0.00710595  0.25082611  1
  Li  Li36  1  0.76847954  0.76889842  0.25712444  1
  Li  Li37  1  0.66995304  0.91494507  0.84531107  1
  Li  Li38  1  0.36082534  0.84515215  0.92023420  1
  Li  Li39  1  0.00540310  0.97630967  0.75017733  1
  Li  Li40  1  0.58166177  0.81647605  0.66345686  1
  Li  Li41  1  0.73460540  0.97820522  0.00658122  1
  Li  Li42  1  0.24889941  0.01062980  0.49189654  1
  Li  Li43  1  0.34975950  0.08151796  0.67837369  1
  Li  Li44  1  0.92287172  0.90689718  0.58196024  1
  Li  Li45  1  0.11155251  0.83513889  0.16626894  1
  Li  Li46  1  0.84545185  0.85646210  0.92394910  1
  Li  Li47  1  0.26376759  0.74785069  0.25298412  1
  Li  Li48  1  0.91442593  0.65004012  0.32877795  1
  Li  Li49  1  0.09455925  0.84632576  0.66405475  1
  Li  Li50  1  0.74377363  0.78316899  0.75528587  1
  Li  Li51  1  0.42888147  0.67006111  0.84530558  1
  Li  Li52  1  0.63875301  0.90976971  0.32310194  1
  Li  Li53  1  0.67120191  0.68604528  0.57325416  1
  Li  Li54  1  0.30274140  0.79954783  0.41824575  1
  Li  Li55  1  0.00150091  0.74471807  0.49720950  1
  Li  Li56  1  0.18122020  0.94677338  0.84505970  1
  Li  Li57  1  0.49598572  0.72128980  0.99311723  1
  Li  Li58  1  0.18078641  0.42080221  0.82279958  1
  Li  Li59  1  0.43616279  0.45874091  0.58370872  1
  Li  Li60  1  0.06834626  0.56198929  0.41889952  1
  Li  Li61  1  0.15926999  0.67289836  0.57237530  1
  Li  Li62  1  0.91032005  0.70529192  0.83432158  1
  Li  Li63  1  0.00135940  0.75032977  0.00400188  1
  Li  Li64  1  0.24460664  0.47576334  0.99442339  1
  Li  Li65  1  0.61234187  0.59664521  0.91234463  1
  Li  Li66  1  0.76474430  0.50041648  0.50177601  1
  Li  Li67  1  0.24058552  0.50171703  0.49895847  1
  Li  Li68  1  0.93802793  0.43319730  0.58357185  1
  Li  Li69  1  0.56466185  0.31283335  0.65502793  1
  Li  Li70  1  0.75606855  0.51791021  0.99638041  1
  Li  Li71  1  0.30014206  0.58091067  0.65476639  1
  Li  Li72  1  0.34535192  0.34789276  0.90486614  1
  Li  Li73  1  0.96537088  0.47998930  0.76041972  1
  Li  Li74  1  0.68519099  0.41787681  0.83030108  1
  Li  Li75  1  0.80832170  0.33292206  0.91596500  1
  Li  Li76  1  0.10154176  0.10501069  0.92284359  1
  Li  Li77  1  0.44489862  0.16438334  0.83365698  1
  Li  Li78  1  0.96531249  0.23122262  0.99082136  1
  Li  Li79  1  0.23278897  0.97361317  0.99001719  1
  Ge  Ge80  1  0.90255701  0.41261736  0.08671959  1
  Ge  Ge81  1  0.75087415  0.24764785  0.24356748  1
  Ge  Ge82  1  0.17118883  0.40473956  0.32974765  1
  Ge  Ge83  1  0.56645506  0.08094485  0.42160327  1
  Ge  Ge84  1  0.15202790  0.15659880  0.08055983  1
  Ge  Ge85  1  0.17969580  0.18091079  0.58594593  1
  Ge  Ge86  1  0.42994178  0.92792903  0.58223650  1
  Ge  Ge87  1  0.15492159  0.93148058  0.33396301  1
  Ge  Ge88  1  0.23198236  0.74163459  0.75553281  1
  Ge  Ge89  1  0.81072317  0.82537405  0.41371644  1
  Ge  Ge90  1  0.57519997  0.83041096  0.16296141  1
  Ge  Ge91  1  0.07786481  0.58336675  0.91415158  1
  Ge  Ge92  1  0.82006659  0.59319809  0.66656993  1
  Ge  Ge93  1  0.48011658  0.49098179  0.74587321  1
  Ge  Ge94  1  0.48780057  0.25866050  0.99989418  1
  Ge  Ge95  1  0.91172826  0.16739437  0.82920477  1
  N  N96  1  0.65454304  0.90099965  0.08933020  1
  N  N97  1  0.92217334  0.63933957  0.08783958  1
  N  N98  1  0.58789220  0.61450945  0.17257457  1
  N  N99  1  0.83255839  0.33763346  0.16819918  1
  N  N100  1  0.67800644  0.67725486  0.33851280  1
  N  N101  1  0.30682486  0.54871450  0.40709214  1
  N  N102  1  0.25180613  0.48707585  0.25789490  1
  N  N103  1  0.13090769  0.38995582  0.08435698  1
  N  N104  1  0.92284199  0.38971356  0.32180702  1
  N  N105  1  0.58210983  0.30573847  0.42089700  1
  N  N106  1  0.25421363  0.25708656  0.51205034  1
  N  N107  1  0.53577873  0.26280202  0.24957457  1
  N  N108  1  0.73467961  0.25898104  0.01300765  1
  N  N109  1  0.39820405  0.18382964  0.07786744  1
  N  N110  1  0.49646684  0.99425088  0.49741015  1
  N  N111  1  0.32836325  0.33388413  0.66690519  1
  N  N112  1  0.16201686  0.16516087  0.33460298  1
  N  N113  1  0.95135857  0.16552460  0.58820443  1
  N  N114  1  0.98796808  0.23721687  0.75440329  1
  N  N115  1  0.10396566  0.08666410  0.15871127  1
  N  N116  1  0.57954274  0.06992187  0.65615728  1
  N  N117  1  0.25883667  0.96961681  0.75353843  1
  N  N118  1  0.79221125  0.05675361  0.41331263  1
  N  N119  1  0.92718922  0.95145076  0.83755487  1
  N  N120  1  0.74137755  0.01275107  0.24180100  1
  N  N121  1  0.39656185  0.93180497  0.34374766  1
  N  N122  1  0.19768396  0.94639616  0.58295838  1
  N  N123  1  0.06338596  0.85642125  0.40949085  1
  N  N124  1  0.02644760  0.77977496  0.25830175  1
  N  N125  1  0.35151894  0.82879192  0.16735560  1
  N  N126  1  0.15987085  0.66863537  0.83332289  1
  N  N127  1  0.00859547  0.00965825  0.00741765  1
  N  N128  1  0.83432434  0.81754425  0.66562880  1
  N  N129  1  0.45743635  0.71446506  0.74492256  1
  N  N130  1  0.59309342  0.83074080  0.92084998  1
  N  N131  1  0.23239926  0.72024255  0.98919536  1
  N  N132  1  0.75617292  0.75504738  0.49007943  1
  N  N133  1  0.41446047  0.69830556  0.57693018  1
  N  N134  1  0.85647830  0.58815689  0.91357649  1
  N  N135  1  0.68918644  0.43952416  0.59101287  1
  N  N136  1  0.72001558  0.51300562  0.74132597  1
  N  N137  1  0.06235757  0.58960100  0.67968339  1
  N  N138  1  0.00064311  0.50418498  0.49887220  1
  N  N139  1  0.49785822  0.48135346  0.99954845  1
  N  N140  1  0.42691922  0.41339555  0.82056025  1
  N  N141  1  0.07193112  0.34432857  0.90711413  1
  N  N142  1  0.35819998  0.10561272  0.92456869  1
  N  N143  1  0.68587694  0.16494947  0.83067764  1
