# generated using pymatgen
data_Ho7Co6Sn23
_symmetry_space_group_name_H-M   'P 1'
_cell_length_a   9.70541738
_cell_length_b   9.70541738
_cell_length_c   9.93145306
_cell_angle_alpha   90.00000000
_cell_angle_beta   90.00000000
_cell_angle_gamma   120.00000002
_symmetry_Int_Tables_number   1
_chemical_formula_structural   Ho7Co6Sn23
_chemical_formula_sum   'Ho7 Co6 Sn23'
_cell_volume   810.16198211
_cell_formula_units_Z   1
loop_
 _symmetry_equiv_pos_site_id
 _symmetry_equiv_pos_as_xyz
  1  'x, y, z'
loop_
 _atom_site_type_symbol
 _atom_site_label
 _atom_site_symmetry_multiplicity
 _atom_site_fract_x
 _atom_site_fract_y
 _atom_site_fract_z
 _atom_site_occupancy
  Co  Co0  1  0.16797720  0.83202280  0.80241511  1
  Co  Co1  1  0.16797720  0.33595441  0.80241511  1
  Co  Co2  1  0.66404559  0.83202280  0.80241511  1
  Co  Co3  1  0.33595441  0.16797720  0.19758489  1
  Co  Co4  1  0.83202280  0.66404559  0.19758489  1
  Co  Co5  1  0.83202280  0.16797720  0.19758489  1
  Sn  Sn6  1  0.66666667  0.33333333  0.18000291  1
  Sn  Sn7  1  0.66666667  0.33333333  0.88380398  1
  Sn  Sn8  1  0.33333333  0.66666667  0.11619602  1
  Sn  Sn9  1  0.34669283  0.34669283  0.00000000  1
  Sn  Sn10  1  0.00000000  0.65330717  0.00000000  1
  Sn  Sn11  1  0.65330717  0.00000000  0.00000000  1
  Sn  Sn12  1  0.65330717  0.65330717  0.00000000  1
  Sn  Sn13  1  0.33333333  0.66666667  0.81999709  1
  Sn  Sn14  1  0.43635333  0.21817666  0.45262100  1
  Sn  Sn15  1  0.21817666  0.78182334  0.54737900  1
  Sn  Sn16  1  0.21817666  0.43635333  0.54737900  1
  Sn  Sn17  1  0.56364667  0.78182334  0.54737900  1
  Sn  Sn18  1  0.11750410  0.88249590  0.27412809  1
  Sn  Sn19  1  0.78182334  0.56364667  0.45262100  1
  Sn  Sn20  1  0.78182334  0.21817666  0.45262100  1
  Sn  Sn21  1  0.34669283  0.00000000  0.00000000  1
  Sn  Sn22  1  0.11750410  0.23500821  0.27412809  1
  Sn  Sn23  1  0.76499179  0.88249590  0.27412809  1
  Sn  Sn24  1  0.23500821  0.11750410  0.72587191  1
  Sn  Sn25  1  0.88249590  0.76499179  0.72587191  1
  Sn  Sn26  1  0.88249590  0.11750410  0.72587191  1
  Sn  Sn27  1  0.00000000  0.00000000  0.50000000  1
  Sn  Sn28  1  0.00000000  0.34669283  0.00000000  1
  Ho  Ho29  1  0.00000000  0.00000000  0.00000000  1
  Ho  Ho30  1  0.52134972  0.47865028  0.69278227  1
  Ho  Ho31  1  0.52134972  0.04269944  0.69278227  1
  Ho  Ho32  1  0.95730056  0.47865028  0.69278227  1
  Ho  Ho33  1  0.04269944  0.52134972  0.30721773  1
  Ho  Ho34  1  0.47865028  0.95730056  0.30721773  1
  Ho  Ho35  1  0.47865028  0.52134972  0.30721773  1
