# generated using pymatgen
data_Li2IrO3
_symmetry_space_group_name_H-M   'P 1'
_cell_length_a   25.91526747
_cell_length_b   5.18647502
_cell_length_c   5.18647537
_cell_angle_alpha   120.46674946
_cell_angle_beta   99.43648655
_cell_angle_gamma   99.43648337
_symmetry_Int_Tables_number   1
_chemical_formula_structural   Li2IrO3
_chemical_formula_sum   'Li20 Ir10 O30'
_cell_volume   567.14423164
_cell_formula_units_Z   10
loop_
 _symmetry_equiv_pos_site_id
 _symmetry_equiv_pos_as_xyz
  1  'x, y, z'
loop_
 _atom_site_type_symbol
 _atom_site_label
 _atom_site_symmetry_multiplicity
 _atom_site_fract_x
 _atom_site_fract_y
 _atom_site_fract_z
 _atom_site_occupancy
  Ir  Ir0  1  0.00000000  0.66575105  0.33424895  1
  Ir  Ir1  1  0.00000000  0.00103903  0.99896097  1
  Ir  Ir2  1  0.20000752  0.33239533  0.66765059  1
  Ir  Ir3  1  0.19996111  0.66644851  0.33177916  1
  Ir  Ir4  1  0.40000675  0.33279405  0.66727484  1
  Ir  Ir5  1  0.39999807  0.66724941  0.33273413  1
  Ir  Ir6  1  0.60000193  0.66726587  0.33275059  1
  Ir  Ir7  1  0.59999325  0.33272516  0.66720595  1
  Ir  Ir8  1  0.79999248  0.33234941  0.66760466  1
  Ir  Ir9  1  0.80003889  0.66822084  0.33355149  1
  Li  Li10  1  1.00000000  0.33358795  0.66641205  1
  Li  Li11  1  0.09951408  0.16611288  0.82953674  1
  Li  Li12  1  0.10011688  0.50741200  0.51312396  1
  Li  Li13  1  0.09972232  0.82341893  0.15319350  1
  Li  Li14  1  0.19981978  0.99991068  0.99987369  1
  Li  Li15  1  0.30000283  0.16078960  0.83900359  1
  Li  Li16  1  0.29996340  0.49973727  0.49982586  1
  Li  Li17  1  0.30004777  0.83930463  0.16098201  1
  Li  Li18  1  0.40002496  0.00003493  0.00000446  1
  Li  Li19  1  0.50000000  0.16093290  0.83906710  1
  Li  Li20  1  0.50000000  0.50001568  0.49998432  1
  Li  Li21  1  0.50000000  0.83907029  0.16092971  1
  Li  Li22  1  0.59997504  0.99999554  0.99996507  1
  Li  Li23  1  0.69999717  0.16099641  0.83921040  1
  Li  Li24  1  0.70003660  0.50017414  0.50026273  1
  Li  Li25  1  0.69995223  0.83901799  0.16069537  1
  Li  Li26  1  0.80018022  0.00012631  0.00008932  1
  Li  Li27  1  0.90048592  0.17046326  0.83388712  1
  Li  Li28  1  0.89988312  0.48687604  0.49258800  1
  Li  Li29  1  0.90027768  0.84680650  0.17658107  1
  O  O30  1  0.04768538  0.75656594  0.74698115  1
  O  O31  1  0.04730030  0.41265661  0.08995372  1
  O  O32  1  0.04635159  0.06331085  0.39664509  1
  O  O33  1  0.15282690  0.92084586  0.57656702  1
  O  O34  1  0.15221647  0.57642743  0.92026781  1
  O  O35  1  0.15357321  0.26970282  0.27074377  1
  O  O36  1  0.24677596  0.73195266  0.73137776  1
  O  O37  1  0.24710232  0.07859327  0.42260654  1
  O  O38  1  0.24732193  0.42258554  0.07862086  1
  O  O39  1  0.35284510  0.92219922  0.57765475  1
  O  O40  1  0.35284299  0.57769212  0.92213443  1
  O  O41  1  0.35303428  0.26787384  0.26790929  1
  O  O42  1  0.44698694  0.73209215  0.73204986  1
  O  O43  1  0.44715919  0.07786885  0.42235629  1
  O  O44  1  0.44716399  0.42236037  0.07788178  1
  O  O45  1  0.55283601  0.92211822  0.57763963  1
  O  O46  1  0.55284081  0.57764371  0.92213115  1
  O  O47  1  0.55301306  0.26795014  0.26790785  1
  O  O48  1  0.64696572  0.73209071  0.73212616  1
  O  O49  1  0.64715490  0.42234525  0.07780078  1
  O  O50  1  0.64715701  0.07786557  0.42230788  1
  O  O51  1  0.75267807  0.92137914  0.57741446  1
  O  O52  1  0.75289768  0.57739346  0.92140673  1
  O  O53  1  0.75322404  0.26862224  0.26804734  1
  O  O54  1  0.84642679  0.72925623  0.73029718  1
  O  O55  1  0.84778353  0.07973219  0.42357257  1
  O  O56  1  0.84717310  0.42343298  0.07915414  1
  O  O57  1  0.95269970  0.91004628  0.58734339  1
  O  O58  1  0.95364841  0.60335491  0.93668915  1
  O  O59  1  0.95231462  0.25301885  0.24343406  1
