# generated using pymatgen
data_Mg17(As3O16)2
_symmetry_space_group_name_H-M   'P 1'
_cell_length_a   9.96081703
_cell_length_b   39.83978794
_cell_length_c   18.96472124
_cell_angle_alpha   17.81500421
_cell_angle_beta   31.54289211
_cell_angle_gamma   35.76873866
_symmetry_Int_Tables_number   1
_chemical_formula_structural   Mg17(As3O16)2
_chemical_formula_sum   'Mg34 As12 O64'
_cell_volume   1204.52683286
_cell_formula_units_Z   2
loop_
 _symmetry_equiv_pos_site_id
 _symmetry_equiv_pos_as_xyz
  1  'x, y, z'
loop_
 _atom_site_type_symbol
 _atom_site_label
 _atom_site_symmetry_multiplicity
 _atom_site_fract_x
 _atom_site_fract_y
 _atom_site_fract_z
 _atom_site_occupancy
  As  As0  1  1.00275374  -0.00112517  0.00116180  1
  As  As1  1  -0.00275374  0.25112517  0.99883820  1
  As  As2  1  0.18998034  0.24980195  0.19373497  1
  As  As3  1  -0.00275374  0.49887483  1.00333888  1
  As  As4  1  0.81001966  0.00019805  0.80626503  1
  As  As5  1  0.18998034  0.50019805  0.19294278  1
  As  As6  1  1.00275374  0.75112517  -0.00333888  1
  As  As7  1  0.80817044  0.25028890  0.80644949  1
  As  As8  1  0.19182956  0.75028890  0.19239492  1
  As  As9  1  0.80817044  0.49971110  0.80760508  1
  As  As10  1  0.19182956  0.99971110  0.19355051  1
  As  As11  1  0.81001966  0.74980195  0.80705722  1
  Mg  Mg12  1  0.26398511  0.12497965  0.24588673  1
  Mg  Mg13  1  0.74424826  0.00436705  0.24657347  1
  Mg  Mg14  1  0.74010400  0.12560120  0.24592871  1
  Mg  Mg15  1  0.50000000  0.12500000  0.50000000  1
  Mg  Mg16  1  0.49779433  0.38331262  0.98505123  1
  Mg  Mg17  1  0.01848127  0.00400366  0.48190975  1
  Mg  Mg18  1  0.25989600  0.12439880  0.75407129  1
  Mg  Mg19  1  0.25311071  0.37327937  0.25963300  1
  Mg  Mg20  1  0.75408120  0.24980573  0.25577531  1
  Mg  Mg21  1  0.25575174  0.24563295  0.75342653  1
  Mg  Mg22  1  0.73601489  0.12502035  0.75411327  1
  Mg  Mg23  1  0.74368309  0.37446964  0.24494464  1
  Mg  Mg24  1  0.49779433  0.36668738  0.51830170  1
  Mg  Mg25  1  0.50000000  0.62500000  0.00000000  1
  Mg  Mg26  1  0.98151873  0.24599634  0.51809025  1
  Mg  Mg27  1  0.25311071  0.37672063  0.75275050  1
  Mg  Mg28  1  0.25989600  0.62560120  0.25166650  1
  Mg  Mg29  1  0.75408120  0.50019427  0.25499824  1
  Mg  Mg30  1  0.25575174  0.50436705  0.73595834  1
  Mg  Mg31  1  0.74368309  0.37553036  0.74282321  1
  Mg  Mg32  1  0.73601489  0.62497965  0.25419468  1
  Mg  Mg33  1  0.01848127  0.74599634  0.49792437  1
  Mg  Mg34  1  0.50220567  0.86668738  0.01494877  1
  Mg  Mg35  1  0.98151873  0.50400366  0.50207563  1
  Mg  Mg36  1  0.26398511  0.62502035  0.74580532  1
  Mg  Mg37  1  0.25631691  0.87446964  0.25717679  1
  Mg  Mg38  1  0.74424826  0.74563295  0.26404166  1
  Mg  Mg39  1  0.24591880  0.74980573  0.74500176  1
  Mg  Mg40  1  0.74010400  0.62439880  0.74833350  1
  Mg  Mg41  1  0.74688929  0.87327937  0.24724950  1
  Mg  Mg42  1  0.50220567  0.88331262  0.48169830  1
  Mg  Mg43  1  0.25631691  0.87553036  0.75505536  1
  Mg  Mg44  1  0.24591880  0.00019427  0.74422469  1
  Mg  Mg45  1  0.74688929  0.87672063  0.74036700  1
  O  O46  1  0.08116732  0.14434012  0.11041532  1
  O  O47  1  0.69047492  0.99260248  0.10904423  1
  O  O48  1  0.12901396  0.24965447  0.13006025  1
  O  O49  1  0.63548952  0.13487113  0.09572364  1
  O  O50  1  0.36511194  0.13428269  0.36531681  1
  O  O51  1  0.90307499  1.00042216  0.36436416  1
  O  O52  1  0.11074021  0.10859068  0.66944081  1
  O  O53  1  0.10518611  0.39010677  0.10926160  1
  O  O54  1  0.62220586  0.00082562  0.62010083  1
  O  O55  1  0.66213295  0.25208672  0.10747641  1
  O  O56  1  0.37779414  0.24917438  0.37989917  1
  O  O57  1  0.88925979  0.14140932  0.33055919  1
  O  O58  1  0.09692501  0.24957784  0.63563584  1
  O  O59  1  0.12901396  0.50034553  0.12867814  1
  O  O60  1  0.63488806  0.11571731  0.63468319  1
  O  O61  1  0.63517930  0.38367309  0.09878271  1
  O  O62  1  0.36451048  0.11512887  0.90427636  1
  O  O63  1  0.36075563  0.38397536  0.36758965  1
  O  O64  1  0.87098604  0.00034553  0.86993975  1
  O  O65  1  0.90153482  0.24764608  0.36986734  1
  O  O66  1  0.10518611  0.35989323  0.66968870  1
  O  O67  1  0.11074021  0.64140932  0.10380352  1
  O  O68  1  0.63054879  0.25786838  0.59788926  1
  O  O69  1  0.66213295  0.49791328  0.11582327  1
  O  O70  1  0.30952508  0.25739752  0.89095577  1
  O  O71  1  0.37779414  0.50082562  0.37659668  1
  O  O72  1  0.91883268  0.10565988  0.88958468  1
  O  O73  1  0.88073212  0.38776133  0.34169971  1
  O  O74  1  0.09692501  0.50042216  0.63394721  1
  O  O75  1  0.12852932  0.75004546  0.13031141  1
  O  O76  1  0.63517930  0.36632691  0.63347508  1
  O  O77  1  0.63488806  0.63428269  0.09755241  1
  O  O78  1  0.36075563  0.36602464  0.90349108  1
  O  O79  1  0.36451048  0.63487113  0.36479184  1
  O  O80  1  0.87147068  0.25004546  0.86950673  1
  O  O81  1  0.90153482  0.50235392  0.36045165  1
  O  O82  1  0.08116732  0.60565988  0.68777580  1
  O  O83  1  0.11926788  0.88776133  0.10725497  1
  O  O84  1  0.63054879  0.49213162  0.62936277  1
  O  O85  1  0.69047492  0.75739752  0.07945416  1
  O  O86  1  0.30952508  0.49260248  0.92054584  1
  O  O87  1  0.36945121  0.75786838  0.37063723  1
  O  O88  1  0.88073212  0.36223867  0.89274503  1
  O  O89  1  0.91883268  0.64434012  0.31222420  1
  O  O90  1  0.09846518  0.74764608  0.63954835  1
  O  O91  1  0.12852932  0.99995454  0.13049327  1
  O  O92  1  0.63548952  0.61512887  0.63520816  1
  O  O93  1  0.63924437  0.88397536  0.09650892  1
  O  O94  1  0.36511194  0.61571731  0.90244759  1
  O  O95  1  0.36482070  0.88367309  0.36652492  1
  O  O96  1  0.87147068  0.49995454  0.86968859  1
  O  O97  1  0.90307499  0.74957784  0.36605279  1
  O  O98  1  0.11926788  0.86223867  0.65830029  1
  O  O99  1  0.62220586  0.74917438  0.62340332  1
  O  O100  1  0.33786705  0.75208672  0.88417673  1
  O  O101  1  0.36945121  0.99213162  0.40211074  1
  O  O102  1  0.88925979  0.60859068  0.89619648  1
  O  O103  1  0.89481389  0.89010677  0.33031130  1
  O  O104  1  0.09846518  0.00235392  0.63013266  1
  O  O105  1  0.63924437  0.86602464  0.63241035  1
  O  O106  1  0.36482070  0.86632691  0.90121729  1
  O  O107  1  0.87098604  0.74965447  0.87132186  1
  O  O108  1  0.33786705  0.99791328  0.89252359  1
  O  O109  1  0.89481389  0.85989323  0.89073840  1
