# generated using pymatgen
data_KW3Br7
_symmetry_space_group_name_H-M   'P 1'
_cell_length_a   14.41957733
_cell_length_b   14.39811741
_cell_length_c   14.13441415
_cell_angle_alpha   90.00000000
_cell_angle_beta   90.00000000
_cell_angle_gamma   90.00000000
_symmetry_Int_Tables_number   1
_chemical_formula_structural   KW3Br7
_chemical_formula_sum   'K8 W24 Br56'
_cell_volume   2934.51310609
_cell_formula_units_Z   8
loop_
 _symmetry_equiv_pos_site_id
 _symmetry_equiv_pos_as_xyz
  1  'x, y, z'
loop_
 _atom_site_type_symbol
 _atom_site_label
 _atom_site_symmetry_multiplicity
 _atom_site_fract_x
 _atom_site_fract_y
 _atom_site_fract_z
 _atom_site_occupancy
  Br  Br0  1  0.04911965  0.88766149  0.19392430  1
  Br  Br1  1  0.04911965  0.61233851  0.30607570  1
  Br  Br2  1  0.07121321  0.59281921  0.79380696  1
  Br  Br3  1  0.07121321  0.90718079  0.70619304  1
  Br  Br4  1  0.09637323  0.20966838  0.57618800  1
  Br  Br5  1  0.09637323  0.29033162  0.92381200  1
  Br  Br6  1  0.10820787  0.69115152  0.55197083  1
  Br  Br7  1  0.10820787  0.80884848  0.94802917  1
  Br  Br8  1  0.13194421  0.37062962  0.36786809  1
  Br  Br9  1  0.13194421  0.12937038  0.13213191  1
  Br  Br10  1  0.19140869  0.04783194  0.88823591  1
  Br  Br11  1  0.19140869  0.45216806  0.61176409  1
  Br  Br12  1  0.21035332  0.57707454  0.09644822  1
  Br  Br13  1  0.21035332  0.92292546  0.40355178  1
  Br  Br14  1  0.28964668  0.57707454  0.40355178  1
  Br  Br15  1  0.28964668  0.92292546  0.09644822  1
  Br  Br16  1  0.30859131  0.04783194  0.61176409  1
  Br  Br17  1  0.30859131  0.45216806  0.88823591  1
  Br  Br18  1  0.36805579  0.12937038  0.36786809  1
  Br  Br19  1  0.36805579  0.37062962  0.13213191  1
  Br  Br20  1  0.39179213  0.69115152  0.94802917  1
  Br  Br21  1  0.39179213  0.80884848  0.55197083  1
  Br  Br22  1  0.40362677  0.20966838  0.92381200  1
  Br  Br23  1  0.40362677  0.29033162  0.57618800  1
  Br  Br24  1  0.42878679  0.59281921  0.70619304  1
  Br  Br25  1  0.42878679  0.90718079  0.79380696  1
  Br  Br26  1  0.45088035  0.61233851  0.19392430  1
  Br  Br27  1  0.45088035  0.88766149  0.30607570  1
  Br  Br28  1  0.54911965  0.11233851  0.69392430  1
  Br  Br29  1  0.54911965  0.38766149  0.80607570  1
  Br  Br30  1  0.57121321  0.09281921  0.20619304  1
  Br  Br31  1  0.57121321  0.40718079  0.29380696  1
  Br  Br32  1  0.59637323  0.70966838  0.42381200  1
  Br  Br33  1  0.59637323  0.79033162  0.07618800  1
  Br  Br34  1  0.60820787  0.19115152  0.44802917  1
  Br  Br35  1  0.60820787  0.30884848  0.05197083  1
  Br  Br36  1  0.63194421  0.62937038  0.86786809  1
  Br  Br37  1  0.63194421  0.87062962  0.63213191  1
  Br  Br38  1  0.69140869  0.95216806  0.38823591  1
  Br  Br39  1  0.69140869  0.54783194  0.11176409  1
  Br  Br40  1  0.71035332  0.07707454  0.90355178  1
  Br  Br41  1  0.71035332  0.42292546  0.59644822  1
  Br  Br42  1  0.78964668  0.07707454  0.59644822  1
  Br  Br43  1  0.78964668  0.42292546  0.90355178  1
  Br  Br44  1  0.80859131  0.54783194  0.38823591  1
  Br  Br45  1  0.80859131  0.95216806  0.11176409  1
  Br  Br46  1  0.86805579  0.87062962  0.86786809  1
  Br  Br47  1  0.86805579  0.62937038  0.63213191  1
  Br  Br48  1  0.89179213  0.19115152  0.05197083  1
  Br  Br49  1  0.89179213  0.30884848  0.44802917  1
  Br  Br50  1  0.90362677  0.70966838  0.07618800  1
  Br  Br51  1  0.90362677  0.79033162  0.42381200  1
  Br  Br52  1  0.92878679  0.09281921  0.29380696  1
  Br  Br53  1  0.92878679  0.40718079  0.20619304  1
  Br  Br54  1  0.95088035  0.38766149  0.69392430  1
  Br  Br55  1  0.95088035  0.11233851  0.80607570  1
  K  K56  1  0.00000000  0.00000000  0.50000000  1
  K  K57  1  0.00000000  0.50000000  0.00000000  1
  K  K58  1  0.25000000  0.75000000  0.25000000  1
  K  K59  1  0.25000000  0.25000000  0.75000000  1
  K  K60  1  0.50000000  0.50000000  0.50000000  1
  K  K61  1  0.50000000  0.00000000  0.00000000  1
  K  K62  1  0.75000000  0.25000000  0.75000000  1
  K  K63  1  0.75000000  0.75000000  0.25000000  1
  W  W64  1  0.02934953  0.54002964  0.62252039  1
  W  W65  1  0.02934953  0.95997036  0.87747961  1
  W  W66  1  0.04094536  0.37953244  0.53052387  1
  W  W67  1  0.04094536  0.12046756  0.96947613  1
  W  W68  1  0.12007040  0.96832721  0.04088999  1
  W  W69  1  0.12007040  0.53167279  0.45911001  1
  W  W70  1  0.37992960  0.96832721  0.45911001  1
  W  W71  1  0.37992960  0.53167279  0.04088999  1
  W  W72  1  0.45905464  0.12046756  0.53052387  1
  W  W73  1  0.45905464  0.37953244  0.96947613  1
  W  W74  1  0.47065047  0.54002964  0.87747961  1
  W  W75  1  0.47065047  0.95997036  0.62252039  1
  W  W76  1  0.52934953  0.04002964  0.37747961  1
  W  W77  1  0.52934953  0.45997036  0.12252039  1
  W  W78  1  0.54094536  0.62046756  0.03052387  1
  W  W79  1  0.54094536  0.87953244  0.46947613  1
  W  W80  1  0.62007040  0.46832721  0.95911001  1
  W  W81  1  0.62007040  0.03167279  0.54088999  1
  W  W82  1  0.87992960  0.46832721  0.54088999  1
  W  W83  1  0.87992960  0.03167279  0.95911001  1
  W  W84  1  0.95905464  0.62046756  0.46947613  1
  W  W85  1  0.95905464  0.87953244  0.03052387  1
  W  W86  1  0.97065047  0.04002964  0.12252039  1
  W  W87  1  0.97065047  0.45997036  0.37747961  1
