# generated using pymatgen
data_U7(Pd3S4)8
_symmetry_space_group_name_H-M   'P 1'
_cell_length_a   13.38159418
_cell_length_b   13.38159404
_cell_length_c   11.58879983
_cell_angle_alpha   54.73561048
_cell_angle_beta   54.73561089
_cell_angle_gamma   90.00000080
_symmetry_Int_Tables_number   1
_chemical_formula_structural   U7(Pd3S4)8
_chemical_formula_sum   'U7 Pd24 S32'
_cell_volume   1198.10130512
_cell_formula_units_Z   1
loop_
 _symmetry_equiv_pos_site_id
 _symmetry_equiv_pos_as_xyz
  1  'x, y, z'
loop_
 _atom_site_type_symbol
 _atom_site_label
 _atom_site_symmetry_multiplicity
 _atom_site_fract_x
 _atom_site_fract_y
 _atom_site_fract_z
 _atom_site_occupancy
  Pd  Pd0  1  0.12831620  0.24896610  0.00000000  1
  Pd  Pd1  1  0.12831620  0.75103390  1.00000000  1
  Pd  Pd2  1  0.12668838  0.37622985  0.24754030  1
  Pd  Pd3  1  0.12064990  0.87168380  0.25663241  1
  Pd  Pd4  1  0.37622985  0.24954147  1.00000000  1
  Pd  Pd5  1  0.37622985  0.75045853  1.00000000  1
  Pd  Pd6  1  0.24896610  0.12064990  0.50206780  1
  Pd  Pd7  1  0.24954147  0.87331162  0.50091706  1
  Pd  Pd8  1  0.24896610  0.37728230  0.50206780  1
  Pd  Pd9  1  0.24954147  0.62577132  0.50091706  1
  Pd  Pd10  1  0.62377015  0.24954147  0.00000000  1
  Pd  Pd11  1  0.62377015  0.75045853  0.00000000  1
  Pd  Pd12  1  0.62271770  0.87168380  0.25663241  1
  Pd  Pd13  1  0.62577132  0.37622985  0.24754030  1
  Pd  Pd14  1  0.37728230  0.12831620  0.74336759  1
  Pd  Pd15  1  0.37422868  0.62377015  0.75245970  1
  Pd  Pd16  1  0.87168380  0.24896610  0.00000000  1
  Pd  Pd17  1  0.87168380  0.75103390  1.00000000  1
  Pd  Pd18  1  0.75045853  0.12668838  0.49908294  1
  Pd  Pd19  1  0.75045853  0.37422868  0.49908294  1
  Pd  Pd20  1  0.75103390  0.62271770  0.49793220  1
  Pd  Pd21  1  0.75103390  0.87935010  0.49793220  1
  Pd  Pd22  1  0.87935010  0.12831620  0.74336759  1
  Pd  Pd23  1  0.87331162  0.62377015  0.75245970  1
  S  S24  1  0.00087494  0.25031526  0.24882001  1
  S  S25  1  0.00000000  0.73814951  0.26185049  1
  S  S26  1  0.24944032  0.99912506  0.25056989  1
  S  S27  1  0.25031526  0.50001021  0.25054947  1
  S  S28  1  1.00000000  1.00000000  0.73814951  1
  S  S29  1  0.99912506  0.49913527  0.75117999  1
  S  S30  1  1.00000000  0.26185049  0.73814951  1
  S  S31  1  0.25031526  0.24944032  0.25054947  1
  S  S32  1  0.24944032  0.75030505  0.25056989  1
  S  S33  1  0.99912506  0.74968474  0.75117999  1
  S  S34  1  0.49913527  0.24944032  0.25054947  1
  S  S35  1  0.26185049  0.26185049  0.73814951  1
  S  S36  1  0.49998979  0.99912506  0.25056989  1
  S  S37  1  0.26185049  1.00000000  0.73814951  1
  S  S38  1  0.49913527  0.50001021  0.25054947  1
  S  S39  1  0.49998979  0.75030505  0.25056989  1
  S  S40  1  0.24969495  0.49913527  0.75117999  1
  S  S41  1  0.24969495  0.74968474  0.75117999  1
  S  S42  1  0.73814951  0.00000000  0.26185049  1
  S  S43  1  0.50001021  0.00087494  0.74943011  1
  S  S44  1  0.75030505  0.50086473  0.24882001  1
  S  S45  1  0.50086473  0.49998979  0.74945053  1
  S  S46  1  0.75030505  0.25031526  0.24882001  1
  S  S47  1  0.50001021  0.24969495  0.74943011  1
  S  S48  1  0.73814951  0.73814951  0.26185049  1
  S  S49  1  0.50086473  0.75055968  0.74945053  1
  S  S50  1  0.75055968  0.24969495  0.74943011  1
  S  S51  1  0.74968474  0.75055968  0.74945053  1
  S  S52  1  0.00000000  0.00000000  0.26185049  1
  S  S53  1  0.75055968  0.00087494  0.74943011  1
  S  S54  1  0.00087494  0.50086473  0.24882001  1
  S  S55  1  0.74968474  0.49998979  0.74945053  1
  U  U56  1  0.50000000  0.50000000  0.00000000  1
  U  U57  1  0.50000000  0.00000000  0.00000000  1
  U  U58  1  0.50000000  0.00000000  0.50000000  1
  U  U59  1  0.50000000  0.50000000  0.50000000  1
  U  U60  1  0.00000000  0.50000000  0.00000000  1
  U  U61  1  0.00000000  0.00000000  0.50000000  1
  U  U62  1  0.00000000  0.50000000  0.50000000  1
