# generated using pymatgen
data_Li2PtO3
_symmetry_space_group_name_H-M   'P 1'
_cell_length_a   30.88269090
_cell_length_b   5.26993495
_cell_length_c   5.26993524
_cell_angle_alpha   119.93208783
_cell_angle_beta   99.85500387
_cell_angle_gamma   99.85500551
_symmetry_Int_Tables_number   1
_chemical_formula_structural   Li2PtO3
_chemical_formula_sum   'Li24 Pt12 O36'
_cell_volume   698.47206768
_cell_formula_units_Z   12
loop_
 _symmetry_equiv_pos_site_id
 _symmetry_equiv_pos_as_xyz
  1  'x, y, z'
loop_
 _atom_site_type_symbol
 _atom_site_label
 _atom_site_symmetry_multiplicity
 _atom_site_fract_x
 _atom_site_fract_y
 _atom_site_fract_z
 _atom_site_occupancy
  Li  Li0  1  1.00000000  0.33326779  0.66673221  1
  Li  Li1  1  0.08317573  0.82924981  0.16123086  1
  Li  Li2  1  0.08343590  0.50234313  0.50442663  1
  Li  Li3  1  0.08312984  0.16626595  0.83193485  1
  Li  Li4  1  0.16658327  0.00056972  0.00021160  1
  Li  Li5  1  0.24999793  0.83535779  0.16421733  1
  Li  Li6  1  0.24990043  0.49935056  0.49915250  1
  Li  Li7  1  0.24995280  0.16444446  0.83587286  1
  Li  Li8  1  0.33332280  -0.00002322  -0.00004350  1
  Li  Li9  1  0.41666644  0.83588404  0.16411149  1
  Li  Li10  1  0.41666468  0.50003174  0.50000883  1
  Li  Li11  1  0.41666677  0.16411526  0.83586173  1
  Li  Li12  1  0.50000000  0.00000717  0.99999283  1
  Li  Li13  1  0.58333323  0.16413827  0.83588474  1
  Li  Li14  1  0.58333532  0.49999117  0.49996826  1
  Li  Li15  1  0.58333356  0.83588851  0.16411596  1
  Li  Li16  1  0.66667720  1.00004350  1.00002322  1
  Li  Li17  1  0.75004720  0.16412714  0.83555554  1
  Li  Li18  1  0.75009957  0.50084750  0.50064944  1
  Li  Li19  1  0.75000207  0.83578267  0.16464221  1
  Li  Li20  1  0.83341673  0.99978840  0.99943028  1
  Li  Li21  1  0.91656410  0.49557337  0.49765687  1
  Li  Li22  1  0.91682427  0.83876914  0.17075019  1
  Li  Li23  1  0.91687016  0.16806515  0.83373405  1
  O  O24  1  0.03919325  0.75979568  0.74583481  1
  O  O25  1  0.03866739  0.06362627  0.39735998  1
  O  O26  1  0.03873680  0.41122787  0.09157756  1
  O  O27  1  0.12740993  0.57364250  0.92154711  1
  O  O28  1  0.12791283  0.92235294  0.57511427  1
  O  O29  1  0.12782053  0.26929832  0.26953321  1
  O  O30  1  0.20586820  0.73059058  0.73014427  1
  O  O31  1  0.20533168  0.07773805  0.42485663  1
  O  O32  1  0.20538865  0.42459330  0.07742939  1
  O  O33  1  0.29460923  0.57543367  0.92297774  1
  O  O34  1  0.29460504  0.92299687  0.57537238  1
  O  O35  1  0.29401071  0.26897008  0.26898848  1
  O  O36  1  0.37264371  0.73091416  0.73090238  1
  O  O37  1  0.37203427  0.07705294  0.42468409  1
  O  O38  1  0.37203518  0.42469292  0.07705420  1
  O  O39  1  0.46129030  0.57537208  0.92295920  1
  O  O40  1  0.46129073  0.92297749  0.57535723  1
  O  O41  1  0.46068279  0.26909437  0.26907693  1
  O  O42  1  0.53931721  0.73092307  0.73090563  1
  O  O43  1  0.53870970  0.07704080  0.42462792  1
  O  O44  1  0.53870927  0.42464277  0.07702251  1
  O  O45  1  0.62796482  0.92294580  0.57530708  1
  O  O46  1  0.62796573  0.57531591  0.92294706  1
  O  O47  1  0.62735629  0.26909762  0.26908584  1
  O  O48  1  0.70598929  0.73101152  0.73102992  1
  O  O49  1  0.70539496  0.42462762  0.07700313  1
  O  O50  1  0.70539077  0.07702226  0.42456633  1
  O  O51  1  0.79461135  0.92257061  0.57540670  1
  O  O52  1  0.79466832  0.57514337  0.92226195  1
  O  O53  1  0.79413180  0.26985573  0.26940942  1
  O  O54  1  0.87217947  0.73046679  0.73070168  1
  O  O55  1  0.87259007  0.07845289  0.42635750  1
  O  O56  1  0.87208717  0.42488573  0.07764706  1
  O  O57  1  0.96133261  0.60264002  0.93637373  1
  O  O58  1  0.96126320  0.90842244  0.58877213  1
  O  O59  1  0.96080675  0.25416519  0.24020432  1
  Pt  Pt60  1  0.00000000  0.66657977  0.33342023  1
  Pt  Pt61  1  0.00000000  1.00006660  -0.00006660  1
  Pt  Pt62  1  0.16662442  0.33302364  0.66644205  1
  Pt  Pt63  1  0.16662335  0.66627424  0.33301384  1
  Pt  Pt64  1  0.33332043  0.33337294  0.66663101  1
  Pt  Pt65  1  0.33331961  0.66663286  0.33335896  1
  Pt  Pt66  1  0.50000000  0.33336655  0.66663345  1
  Pt  Pt67  1  0.50000000  0.66665000  0.33335000  1
  Pt  Pt68  1  0.66667957  0.33336899  0.66662706  1
  Pt  Pt69  1  0.66668039  0.66664104  0.33336714  1
  Pt  Pt70  1  0.83337558  0.33355795  0.66697636  1
  Pt  Pt71  1  0.83337665  0.66698616  0.33372576  1
