# generated using pymatgen
data_LiMn3(BO3)3
_symmetry_space_group_name_H-M   'P 1'
_cell_length_a   9.22963189
_cell_length_b   5.31386374
_cell_length_c   8.19776036
_cell_angle_alpha   92.26673311
_cell_angle_beta   73.75090880
_cell_angle_gamma   106.14327093
_symmetry_Int_Tables_number   1
_chemical_formula_structural   LiMn3(BO3)3
_chemical_formula_sum   'Li2 Mn6 B6 O18'
_cell_volume   370.45949362
_cell_formula_units_Z   2
loop_
 _symmetry_equiv_pos_site_id
 _symmetry_equiv_pos_as_xyz
  1  'x, y, z'
loop_
 _atom_site_type_symbol
 _atom_site_label
 _atom_site_symmetry_multiplicity
 _atom_site_fract_x
 _atom_site_fract_y
 _atom_site_fract_z
 _atom_site_occupancy
  Li  Li0  1  0.37233943  0.35579256  0.03933224  1
  Li  Li1  1  0.03171160  0.68700295  0.71174204  1
  Mn  Mn2  1  0.77866123  0.18421600  0.03019568  1
  Mn  Mn3  1  0.88048508  0.12815851  0.62616578  1
  Mn  Mn4  1  0.56235691  0.49497507  0.29706238  1
  Mn  Mn5  1  0.44683166  0.53227600  0.68892807  1
  Mn  Mn6  1  0.11621539  0.85882193  0.36472550  1
  Mn  Mn7  1  0.22005183  0.80826713  0.96327361  1
  B  B8  1  0.89215610  0.77345087  0.13844217  1
  B  B9  1  0.77810121  0.55940470  0.52822719  1
  B  B10  1  0.44938779  0.89766425  0.17184313  1
  B  B11  1  0.55181952  0.10409030  0.81469537  1
  B  B12  1  0.22148259  0.43052243  0.48117439  1
  B  B13  1  0.10339813  0.22787548  0.86815983  1
  O  O14  1  0.88649666  0.02552442  0.14579019  1
  O  O15  1  0.97555087  0.30165128  0.83865568  1
  O  O16  1  0.89045937  0.75224838  0.58165795  1
  O  O17  1  0.76761436  0.56264675  0.12496308  1
  O  O18  1  0.78741943  0.30957470  0.51017016  1
  O  O19  1  0.65823358  0.62627257  0.48329588  1
  O  O20  1  0.57306801  0.10061664  0.19568435  1
  O  O21  1  0.69153014  0.05104932  0.82371747  1
  O  O22  1  0.44849405  0.64010628  0.16905576  1
  O  O23  1  0.53469314  0.34641180  0.83550678  1
  O  O24  1  0.32281458  0.97362939  0.14669203  1
  O  O25  1  0.42917630  0.88655519  0.80029066  1
  O  O26  1  0.36405233  0.37516958  0.47497700  1
  O  O27  1  0.20324554  0.67220275  0.51255852  1
  O  O28  1  0.22256223  0.42104916  0.90731727  1
  O  O29  1  0.09632725  0.21636970  0.46988241  1
  O  O30  1  0.02844826  0.71658732  0.15173030  1
  O  O31  1  0.11328042  0.97631061  0.83958013  1
