# generated using pymatgen
data_Ca14MnP11
_symmetry_space_group_name_H-M   'P 1'
_cell_length_a   14.90525917
_cell_length_b   14.90519244
_cell_length_c   14.90535406
_cell_angle_alpha   93.26974437
_cell_angle_beta   118.15846897
_cell_angle_gamma   118.10232079
_symmetry_Int_Tables_number   1
_chemical_formula_structural   Ca14MnP11
_chemical_formula_sum   'Ca56 Mn4 P44'
_cell_volume   2403.49537474
_cell_formula_units_Z   4
loop_
 _symmetry_equiv_pos_site_id
 _symmetry_equiv_pos_as_xyz
  1  'x, y, z'
loop_
 _atom_site_type_symbol
 _atom_site_label
 _atom_site_symmetry_multiplicity
 _atom_site_fract_x
 _atom_site_fract_y
 _atom_site_fract_z
 _atom_site_occupancy
  Ca  Ca0  1  0.14819059  0.75000162  0.89819151  1
  Ca  Ca1  1  0.02197523  0.74124503  0.62657594  1
  Ca  Ca2  1  0.03738637  0.78873843  0.40953104  1
  Ca  Ca3  1  0.08491442  0.52071399  0.74924388  1
  Ca  Ca4  1  0.35667861  0.97395107  0.87738752  1
  Ca  Ca5  1  0.12080274  0.37214765  0.90952991  1
  Ca  Ca6  1  0.09826324  0.12921453  0.98155760  1
  Ca  Ca7  1  0.14367447  0.62336695  0.52660681  1
  Ca  Ca8  1  0.42122166  0.75496759  0.97562259  1
  Ca  Ca9  1  0.14883981  0.90221204  0.25436001  1
  Ca  Ca10  1  0.47662108  0.87124699  0.75669680  1
  Ca  Ca11  1  0.35233502  0.88327754  0.48155236  1
  Ca  Ca12  1  0.35214682  0.59779046  0.74662788  1
  Ca  Ca13  1  0.22853128  0.97928854  0.06420731  1
  Ca  Ca14  1  0.27535760  0.33514055  0.75132113  1
  Ca  Ca15  1  0.22065969  0.74503402  0.16626255  1
  Ca  Ca16  1  0.26794444  0.43063978  0.52025205  1
  Ca  Ca17  1  0.09850044  0.46862962  0.11653483  1
  Ca  Ca18  1  0.59826243  0.61670860  0.96905179  1
  Ca  Ca19  1  0.14790201  0.01804446  0.61653744  1
  Ca  Ca20  1  0.08963824  0.06938238  0.33732038  1
  Ca  Ca21  1  0.12101334  0.25031692  0.21181811  1
  Ca  Ca22  1  0.58489735  0.83566178  0.56419131  1
  Ca  Ca23  1  0.62079119  0.71127129  0.74864875  1
  Ca  Ca24  1  0.35198986  0.25000486  0.60199343  1
  Ca  Ca25  1  0.52197441  0.89539982  0.28072282  1
  Ca  Ca26  1  0.40344415  0.52070660  0.37738588  1
  Ca  Ca27  1  0.62101022  0.40919024  0.87070638  1
  Ca  Ca28  1  0.38533136  0.60459933  0.12657267  1
  Ca  Ca29  1  0.59849633  0.48196067  0.62986795  1
  Ca  Ca30  1  0.46150268  0.09080841  0.71182534  1
  Ca  Ca31  1  0.64818964  0.75000471  0.39818664  1
  Ca  Ca32  1  0.38545746  0.28007989  0.25670293  1
  Ca  Ca33  1  0.41617174  0.16485440  0.44021227  1
  Ca  Ca34  1  0.88531748  0.75874015  0.78072760  1
  Ca  Ca35  1  0.92121176  0.94558327  0.66625665  1
  Ca  Ca36  1  0.85669562  0.97930687  0.38275261  1
  Ca  Ca37  1  0.40324233  0.38292510  0.02660310  1
  Ca  Ca38  1  0.90345770  0.52607080  0.88275968  1
  Ca  Ca39  1  0.72066340  0.55440630  0.47562785  1
  Ca  Ca40  1  0.76794371  0.24769193  0.83731331  1
  Ca  Ca41  1  0.72853889  0.66433442  0.24924496  1
  Ca  Ca42  1  0.77535652  0.02404690  0.94020196  1
  Ca  Ca43  1  0.64883589  0.39448368  0.24662994  1
  Ca  Ca44  1  0.64366638  0.11704960  0.52030059  1
  Ca  Ca45  1  0.53738283  0.12785648  0.24865100  1
  Ca  Ca46  1  0.85214476  0.10551370  0.75435164  1
  Ca  Ca47  1  0.58960863  0.25230294  0.02025672  1
  Ca  Ca48  1  0.85234208  0.37079491  0.46905139  1
  Ca  Ca49  1  0.90325486  0.87664394  0.02030647  1
  Ca  Ca50  1  0.88545413  0.62876006  0.10537967  1
  Ca  Ca51  1  0.64790580  0.03137356  0.12986358  1
  Ca  Ca52  1  0.91616640  0.47596184  0.25131196  1
  Ca  Ca53  1  0.97662391  0.21992491  0.60537548  1
  Ca  Ca54  1  0.96150869  0.24969166  0.37069605  1
  Ca  Ca55  1  0.85198504  0.25000341  0.10198337  1
  Mn  Mn56  1  0.25165250  0.12568981  0.87602405  1
  Mn  Mn57  1  0.25030095  0.62427101  0.37597719  1
  Mn  Mn58  1  0.75174184  0.87565302  0.12600460  1
  Mn  Mn59  1  0.75045720  0.37434989  0.62604351  1
  P  P60  1  0.12111520  0.92919453  0.81759042  1
  P  P61  1  0.15641051  0.58435175  0.98043863  1
  P  P62  1  0.25001014  0.74564260  0.75376576  1
  P  P63  1  0.24961993  0.85524090  0.64432433  1
  P  P64  1  0.10006530  0.42686517  0.58118096  1
  P  P65  1  0.11445231  0.18575287  0.80687750  1
  P  P66  1  0.12111920  0.69241278  0.30688369  1
  P  P67  1  0.00812938  0.75436925  0.00437439  1
  P  P68  1  0.34297747  0.52215952  0.91485224  1
  P  P69  1  0.11160860  0.42803315  0.30791684  1
  P  P70  1  0.10302317  0.17572416  0.52137493  1
  P  P71  1  0.39268918  0.97783337  0.32081224  1
  P  P72  1  0.38023723  0.68062116  0.57160661  1
  P  P73  1  0.61447328  0.80759267  0.92870400  1
  P  P74  1  0.47444639  0.48688694  0.73657519  1
  P  P75  1  0.37985546  0.19629135  0.80794279  1
  P  P76  1  0.38836500  0.69644997  0.31758370  1
  P  P77  1  0.39609458  0.91565699  0.07205644  1
  P  P78  1  0.34565722  0.32428656  0.42730311  1
  P  P79  1  0.84297350  0.92812113  0.82081286  1
  P  P80  1  0.24968786  0.01311745  0.48756447  1
  P  P81  1  0.75000438  0.99623954  0.50436788  1
  P  P82  1  0.28908749  0.39470556  0.14431877  1
  P  P83  1  0.15432512  0.07314392  0.17320893  1
  P  P84  1  0.78908168  0.64476614  0.89438362  1
  P  P85  1  0.65640358  0.67597070  0.57205379  1
  P  P86  1  0.60301337  0.08164486  0.92730079  1
  P  P87  1  0.61160845  0.30368466  0.68358449  1
  P  P88  1  0.62113678  0.80354445  0.19191910  1
  P  P89  1  0.50813161  0.50375951  0.25376096  1
  P  P90  1  0.39097843  0.19136019  0.07161545  1
  P  P91  1  0.62113128  0.31423772  0.42872925  1
  P  P92  1  0.60006514  0.01888549  0.67320280  1
  P  P93  1  0.89609084  0.82403550  0.48043782  1
  P  P94  1  0.88836720  0.57076686  0.69191881  1
  P  P95  1  0.65431996  0.48111606  0.08118346  1
  P  P96  1  0.97444787  0.23787717  0.98755558  1
  P  P97  1  0.88026237  0.30861711  0.69963673  1
  P  P98  1  0.89101010  0.81938287  0.19963138  1
  P  P99  1  0.89269058  0.57188104  0.41485158  1
  P  P100  1  0.74968437  0.26212630  0.23657092  1
  P  P101  1  0.74962090  0.10529769  0.39438056  1
  P  P102  1  0.84566206  0.41836198  0.02137493  1
  P  P103  1  0.87989031  0.07195948  0.18357056  1
