# generated using pymatgen
data_Sr17(Ta5S21)2
_symmetry_space_group_name_H-M   'P 1'
_cell_length_a   12.31903255
_cell_length_b   12.36066369
_cell_length_c   12.37403468
_cell_angle_alpha   96.32883452
_cell_angle_beta   96.50422107
_cell_angle_gamma   96.31732006
_symmetry_Int_Tables_number   1
_chemical_formula_structural   Sr17(Ta5S21)2
_chemical_formula_sum   'Sr17 Ta10 S42'
_cell_volume   1846.29794997
_cell_formula_units_Z   1
loop_
 _symmetry_equiv_pos_site_id
 _symmetry_equiv_pos_as_xyz
  1  'x, y, z'
loop_
 _atom_site_type_symbol
 _atom_site_label
 _atom_site_symmetry_multiplicity
 _atom_site_fract_x
 _atom_site_fract_y
 _atom_site_fract_z
 _atom_site_occupancy
  S  S0  1  0.03714750  0.81468444  0.89522061  1
  S  S1  1  0.04849262  0.51946793  0.94211330  1
  S  S2  1  0.97489735  0.57647692  0.46098663  1
  S  S3  1  0.00298247  0.33638104  0.66941749  1
  S  S4  1  0.12345978  0.98719744  0.20915255  1
  S  S5  1  0.12514606  0.65618671  0.23397601  1
  S  S6  1  0.16875646  0.83950135  0.50056166  1
  S  S7  1  0.19555103  0.60717613  0.71772300  1
  S  S8  1  0.21024663  0.12263920  0.98499310  1
  S  S9  1  0.16777054  0.24242832  0.36968223  1
  S  S10  1  0.27903880  0.37808612  0.86537891  1
  S  S11  1  0.23792011  0.12342181  0.65899329  1
  S  S12  1  0.31346704  0.89110650  0.79813934  1
  S  S13  1  0.24033934  0.37441880  0.16594997  1
  S  S14  1  0.29382038  0.51941944  0.43413858  1
  S  S15  1  0.37564990  0.85935257  0.27749997  1
  S  S16  1  0.33864827  0.67134348  0.00467769  1
  S  S17  1  0.37567796  0.16489187  0.24113457  1
  S  S18  1  0.43811201  0.28967393  0.51340487  1
  S  S19  1  0.50676646  0.59062260  0.72878076  1
  S  S20  1  0.46149755  0.97402027  0.57392229  1
  S  S21  1  0.50320833  0.16777581  0.84090963  1
  S  S22  1  0.52007052  0.94365007  0.05072406  1
  S  S23  1  0.58758425  0.72649763  0.50569577  1
  S  S24  1  0.51101625  0.43302464  0.28734114  1
  S  S25  1  0.64824713  0.85800386  0.78026851  1
  S  S26  1  0.60224676  0.71450529  0.19708892  1
  S  S27  1  0.57454203  0.46350147  0.97741250  1
  S  S28  1  0.78132101  0.64860718  0.85615799  1
  S  S29  1  0.71142784  0.19840508  0.60032271  1
  S  S30  1  0.65833054  0.23459333  0.12455901  1
  S  S31  1  0.72340526  0.50379905  0.58743779  1
  S  S32  1  0.66967373  0.00473451  0.33779160  1
  S  S33  1  0.79596945  0.31392926  0.89274313  1
  S  S34  1  0.85723956  0.77944484  0.64903896  1
  S  S35  1  0.81141111  0.89185033  0.03533234  1
  S  S36  1  0.89280492  0.79749630  0.31079615  1
  S  S37  1  0.83898113  0.50295565  0.16903041  1
  S  S38  1  0.86064667  0.27881147  0.37648242  1
  S  S39  1  0.89339757  0.03587956  0.81136293  1
  S  S40  1  0.94235322  0.04972682  0.52088589  1
  S  S41  1  0.98632915  0.20750030  0.12097707  1
  Sr  Sr42  1  0.07855451  0.93770631  0.70078248  1
  Sr  Sr43  1  0.04601693  0.27098075  0.90083312  1
  Sr  Sr44  1  0.04991159  0.41812484  0.28663500  1
  Sr  Sr45  1  0.26814908  0.90343399  0.04153063  1
  Sr  Sr46  1  0.36650602  0.73065855  0.60315777  1
  Sr  Sr47  1  0.28508730  0.05397706  0.42153037  1
  Sr  Sr48  1  0.37005344  0.60670018  0.23306064  1
  Sr  Sr49  1  0.41840178  0.28574851  0.05165237  1
  Sr  Sr50  1  0.58038577  0.71810848  0.95065537  1
  Sr  Sr51  1  0.58980401  0.36758394  0.73306827  1
  Sr  Sr52  1  0.71569653  0.95216828  0.58108265  1
  Sr  Sr53  1  0.60878263  0.23873567  0.36660921  1
  Sr  Sr54  1  0.70218043  0.07647559  0.93752655  1
  Sr  Sr55  1  0.73143265  0.59946982  0.36923087  1
  Sr  Sr56  1  0.95164714  0.57468016  0.71486025  1
  Sr  Sr57  1  0.93826572  0.69929703  0.07360872  1
  Sr  Sr58  1  0.90512407  0.04401664  0.26932389  1
  Ta  Ta59  1  0.04274633  0.72190064  0.38030233  1
  Ta  Ta60  1  0.21924984  0.54487101  0.88370211  1
  Ta  Ta61  1  0.16856660  0.16724783  0.16527198  1
  Ta  Ta62  1  0.34785776  0.35552762  0.36447211  1
  Ta  Ta63  1  0.38273213  0.04094866  0.72218731  1
  Ta  Ta64  1  0.54447178  0.88450791  0.21928871  1
  Ta  Ta65  1  0.66706237  0.66622009  0.66681958  1
  Ta  Ta66  1  0.85467285  0.85399572  0.85325436  1
  Ta  Ta67  1  0.72154109  0.38223513  0.04267537  1
  Ta  Ta68  1  0.88420497  0.22019031  0.54637224  1
