# generated using pymatgen
data_Zr3BiF15
_symmetry_space_group_name_H-M   'P 1'
_cell_length_a   8.30185710
_cell_length_b   8.29266770
_cell_length_c   16.60834510
_cell_angle_alpha   100.06394951
_cell_angle_beta   100.26201296
_cell_angle_gamma   100.03473224
_symmetry_Int_Tables_number   1
_chemical_formula_structural   Zr3BiF15
_chemical_formula_sum   'Zr12 Bi4 F60'
_cell_volume   1082.61698828
_cell_formula_units_Z   4
loop_
 _symmetry_equiv_pos_site_id
 _symmetry_equiv_pos_as_xyz
  1  'x, y, z'
loop_
 _atom_site_type_symbol
 _atom_site_label
 _atom_site_symmetry_multiplicity
 _atom_site_fract_x
 _atom_site_fract_y
 _atom_site_fract_z
 _atom_site_occupancy
  Bi  Bi0  1  0.32410492  0.17893003  0.87467743  1
  Bi  Bi1  1  0.25081456  0.67955380  0.41170401  1
  Bi  Bi2  1  0.74918544  0.32044620  0.58829599  1
  Bi  Bi3  1  0.67589508  0.82106997  0.12532257  1
  F  F4  1  0.00239895  0.76738466  0.88568578  1
  F  F5  1  0.03580126  0.46295628  0.88203501  1
  F  F6  1  0.00191555  0.78765059  0.39147811  1
  F  F7  1  0.03352437  0.14910465  0.83758716  1
  F  F8  1  0.19156925  0.65212483  0.78073712  1
  F  F9  1  0.24117913  0.94941488  0.76169745  1
  F  F10  1  0.02201847  0.45192617  0.36271157  1
  F  F11  1  0.30681429  0.93038745  0.92496501  1
  F  F12  1  0.21522092  0.22248175  0.00038029  1
  F  F13  1  0.22466674  0.99328885  0.61264977  1
  F  F14  1  0.14541185  0.68610149  0.53551139  1
  F  F15  1  0.05595203  0.15560449  0.34408645  1
  F  F16  1  0.34632935  0.46600468  0.90753812  1
  F  F17  1  0.27367845  0.28104306  0.74813848  1
  F  F18  1  0.27478840  0.50526193  0.63983885  1
  F  F19  1  0.17320935  0.65408501  0.26455820  1
  F  F20  1  0.25433349  0.96776146  0.26858911  1
  F  F21  1  0.31834321  0.96615651  0.42367589  1
  F  F22  1  0.22540540  0.22817897  0.49586663  1
  F  F23  1  0.22160752  0.99627141  0.11275227  1
  F  F24  1  0.14924791  0.68917437  0.02696994  1
  F  F25  1  0.44541029  0.80948405  0.67494863  1
  F  F26  1  0.49703208  0.72711573  0.86162598  1
  F  F27  1  0.35117977  0.43239279  0.40442899  1
  F  F28  1  0.27582524  0.27367097  0.25312370  1
  F  F29  1  0.27461467  0.50509534  0.13623950  1
  F  F30  1  0.55196331  0.25513321  0.98747107  1
  F  F31  1  0.47338424  0.75463856  0.52582824  1
  F  F32  1  0.50251400  0.27368215  0.64125533  1
  F  F33  1  0.57000067  0.18449171  0.82329860  1
  F  F34  1  0.42999933  0.81550829  0.17670140  1
  F  F35  1  0.49748600  0.72631785  0.35874467  1
  F  F36  1  0.52661576  0.24536144  0.47417176  1
  F  F37  1  0.44803669  0.74486679  0.01252893  1
  F  F38  1  0.72538533  0.49490466  0.86376050  1
  F  F39  1  0.72417476  0.72632903  0.74687630  1
  F  F40  1  0.64882023  0.56760721  0.59557101  1
  F  F41  1  0.50296792  0.27288427  0.13837402  1
  F  F42  1  0.55458971  0.19051595  0.32505137  1
  F  F43  1  0.85075209  0.31082563  0.97303006  1
  F  F44  1  0.77839248  0.00372859  0.88724773  1
  F  F45  1  0.77459460  0.77182103  0.50413337  1
  F  F46  1  0.68165679  0.03384349  0.57632411  1
  F  F47  1  0.74566651  0.03223854  0.73141089  1
  F  F48  1  0.82679065  0.34591499  0.73544180  1
  F  F49  1  0.72521160  0.49473807  0.36016115  1
  F  F50  1  0.72632155  0.71895694  0.25186152  1
  F  F51  1  0.65367065  0.53399532  0.09246188  1
  F  F52  1  0.94404797  0.84439551  0.65591355  1
  F  F53  1  0.85458815  0.31389851  0.46448861  1
  F  F54  1  0.77533326  0.00671115  0.38735023  1
  F  F55  1  0.78477908  0.77751825  0.99961971  1
  F  F56  1  0.69318571  0.06961255  0.07503499  1
  F  F57  1  0.97798153  0.54807383  0.63728843  1
  F  F58  1  0.75882087  0.05058512  0.23830255  1
  F  F59  1  0.80843075  0.34787517  0.21926288  1
  F  F60  1  0.96647563  0.85089535  0.16241284  1
  F  F61  1  0.99808445  0.21234941  0.60852189  1
  F  F62  1  0.96419874  0.53704372  0.11796499  1
  F  F63  1  0.99760105  0.23261534  0.11431422  1
  Zr  Zr64  1  0.24252027  0.67524545  0.91227947  1
  Zr  Zr65  1  0.17821026  0.74714237  0.66335541  1
  Zr  Zr66  1  0.24950868  0.24745931  0.62209201  1
  Zr  Zr67  1  0.17470735  0.75127824  0.15984982  1
  Zr  Zr68  1  0.32222545  0.17590200  0.37201707  1
  Zr  Zr69  1  0.25311697  0.25184359  0.12617793  1
  Zr  Zr70  1  0.74688303  0.74815641  0.87382207  1
  Zr  Zr71  1  0.67777455  0.82409800  0.62798293  1
  Zr  Zr72  1  0.82529265  0.24872176  0.84015018  1
  Zr  Zr73  1  0.75049132  0.75254069  0.37790799  1
  Zr  Zr74  1  0.82178974  0.25285763  0.33664459  1
  Zr  Zr75  1  0.75747973  0.32475455  0.08772053  1
