# generated using pymatgen
data_GaAgS2
_symmetry_space_group_name_H-M   'P 1'
_cell_length_a   5.78667280
_cell_length_b   5.78667280
_cell_length_c   6.70073693
_cell_angle_alpha   115.58145065
_cell_angle_beta   115.58145073
_cell_angle_gamma   90.00000002
_symmetry_Int_Tables_number   1
_chemical_formula_structural   GaAgS2
_chemical_formula_sum   'Ga2 Ag2 S4'
_cell_volume   177.68537908
_cell_formula_units_Z   2
loop_
 _symmetry_equiv_pos_site_id
 _symmetry_equiv_pos_as_xyz
  1  'x, y, z'
loop_
 _atom_site_type_symbol
 _atom_site_label
 _atom_site_symmetry_multiplicity
 _atom_site_fract_x
 _atom_site_fract_y
 _atom_site_fract_z
 _atom_site_occupancy
  S  S0  1  0.83751157  0.87500000  0.25000000  1
  S  S1  1  0.62500000  0.16248843  0.75000000  1
  S  S2  1  0.41248843  0.37500000  0.25000000  1
  S  S3  1  0.12500000  0.58751157  0.75000000  1
  Ga  Ga4  1  0.50000000  0.50000000  0.00000000  1
  Ga  Ga5  1  0.75000000  0.25000000  0.50000000  1
  Ag  Ag6  1  0.25000000  0.75000000  0.50000000  1
  Ag  Ag7  1  0.00000000  0.00000000  0.00000000  1
