# generated using pymatgen
data_BaLaCuSe3
_symmetry_space_group_name_H-M   'P 1'
_cell_length_a   4.30995905
_cell_length_b   11.24739430
_cell_length_c   14.03239311
_cell_angle_alpha   90.00000000
_cell_angle_beta   90.00000000
_cell_angle_gamma   90.00000000
_symmetry_Int_Tables_number   1
_chemical_formula_structural   BaLaCuSe3
_chemical_formula_sum   'Ba4 La4 Cu4 Se12'
_cell_volume   680.23160614
_cell_formula_units_Z   4
loop_
 _symmetry_equiv_pos_site_id
 _symmetry_equiv_pos_as_xyz
  1  'x, y, z'
loop_
 _atom_site_type_symbol
 _atom_site_label
 _atom_site_symmetry_multiplicity
 _atom_site_fract_x
 _atom_site_fract_y
 _atom_site_fract_z
 _atom_site_occupancy
  La  La0  1  0.75000000  0.99031297  0.24023962  1
  La  La1  1  0.25000000  0.00968703  0.75976038  1
  La  La2  1  0.75000000  0.49031297  0.25976038  1
  La  La3  1  0.25000000  0.50968703  0.74023962  1
  Ba  Ba4  1  0.75000000  0.72830719  0.99588993  1
  Ba  Ba5  1  0.25000000  0.27169281  0.00411007  1
  Ba  Ba6  1  0.75000000  0.22830719  0.50411007  1
  Ba  Ba7  1  0.25000000  0.77169281  0.49588993  1
  Cu  Cu8  1  0.75000000  0.75861583  0.71652205  1
  Cu  Cu9  1  0.25000000  0.24138417  0.28347795  1
  Cu  Cu10  1  0.75000000  0.25861583  0.78347795  1
  Cu  Cu11  1  0.25000000  0.74138417  0.21652205  1
  Se  Se12  1  0.75000000  0.94214424  0.61781725  1
  Se  Se13  1  0.25000000  0.05785576  0.38218275  1
  Se  Se14  1  0.75000000  0.44214424  0.88218275  1
  Se  Se15  1  0.25000000  0.55785576  0.11781725  1
  Se  Se16  1  0.75000000  0.74453811  0.31829641  1
  Se  Se17  1  0.25000000  0.25546189  0.68170359  1
  Se  Se18  1  0.75000000  0.24453811  0.18170359  1
  Se  Se19  1  0.25000000  0.75546189  0.81829641  1
  Se  Se20  1  0.75000000  0.58795807  0.60551659  1
  Se  Se21  1  0.25000000  0.41204193  0.39448341  1
  Se  Se22  1  0.75000000  0.08795807  0.89448341  1
  Se  Se23  1  0.25000000  0.91204193  0.10551659  1
