# generated using pymatgen
data_Nd2Ni7P4
_symmetry_space_group_name_H-M   'P 1'
_cell_length_a   3.77716571
_cell_length_b   9.23620273
_cell_length_c   10.41784515
_cell_angle_alpha   90.00000000
_cell_angle_beta   90.00000000
_cell_angle_gamma   90.00000000
_symmetry_Int_Tables_number   1
_chemical_formula_structural   Nd2Ni7P4
_chemical_formula_sum   'Nd4 Ni14 P8'
_cell_volume   363.44390755
_cell_formula_units_Z   2
loop_
 _symmetry_equiv_pos_site_id
 _symmetry_equiv_pos_as_xyz
  1  'x, y, z'
loop_
 _atom_site_type_symbol
 _atom_site_label
 _atom_site_symmetry_multiplicity
 _atom_site_fract_x
 _atom_site_fract_y
 _atom_site_fract_z
 _atom_site_occupancy
  Nd  Nd0  1  0.50000000  0.43618497  0.50058769  1
  Nd  Nd1  1  0.50000000  0.05955706  0.28200312  1
  Nd  Nd2  1  -0.00000000  0.94044294  0.78200312  1
  Nd  Nd3  1  0.00000000  0.56381503  0.00058769  1
  Ni  Ni4  1  0.50000000  0.30605270  0.07393998  1
  Ni  Ni5  1  0.50000000  0.74675851  0.40321818  1
  Ni  Ni6  1  0.50000000  0.41614519  0.80706748  1
  Ni  Ni7  1  0.50000000  0.05777703  0.98104793  1
  Ni  Ni8  1  0.50000000  0.68266546  0.76268957  1
  Ni  Ni9  1  0.00000000  0.27137213  0.66987203  1
  Ni  Ni10  1  0.00000000  0.25324149  0.90321818  1
  Ni  Ni11  1  0.00000000  0.69394730  0.57393998  1
  Ni  Ni12  1  0.50000000  0.09706095  0.58326310  1
  Ni  Ni13  1  0.00000000  0.31733454  0.26268957  1
  Ni  Ni14  1  0.00000000  0.58385481  0.30706748  1
  Ni  Ni15  1  0.00000000  0.90293905  0.08326310  1
  Ni  Ni16  1  0.00000000  0.94222297  0.48104793  1
  Ni  Ni17  1  0.50000000  0.72862787  0.16987203  1
  P  P18  1  -0.00000000  0.81752547  0.28946298  1
  P  P19  1  -0.00000000  0.18805111  0.46701088  1
  P  P20  1  0.50000000  0.18247453  0.78946298  1
  P  P21  1  -0.00000000  0.15741967  0.09051393  1
  P  P22  1  0.50000000  0.47992964  0.21702315  1
  P  P23  1  0.50000000  0.81194889  0.96701088  1
  P  P24  1  0.50000000  0.84258033  0.59051393  1
  P  P25  1  -0.00000000  0.52007036  0.71702315  1
