# generated using pymatgen
data_Li14Fe4O13
_symmetry_space_group_name_H-M   'P 1'
_cell_length_a   5.53007812
_cell_length_b   27.39099274
_cell_length_c   5.31866500
_cell_angle_alpha   90.00000000
_cell_angle_beta   120.75706646
_cell_angle_gamma   90.00000000
_symmetry_Int_Tables_number   1
_chemical_formula_structural   Li14Fe4O13
_chemical_formula_sum   'Li28 Fe8 O26'
_cell_volume   692.32241699
_cell_formula_units_Z   2
loop_
 _symmetry_equiv_pos_site_id
 _symmetry_equiv_pos_as_xyz
  1  'x, y, z'
loop_
 _atom_site_type_symbol
 _atom_site_label
 _atom_site_symmetry_multiplicity
 _atom_site_fract_x
 _atom_site_fract_y
 _atom_site_fract_z
 _atom_site_occupancy
  Li  Li0  1  0.15010654  0.32342195  0.98469355  1
  Li  Li1  1  0.20818711  0.55770515  0.99888371  1
  Li  Li2  1  0.15010654  0.17657805  0.48469355  1
  Li  Li3  1  0.20818711  0.94229485  0.49888371  1
  Li  Li4  1  0.22191043  0.38771165  0.52811216  1
  Li  Li5  1  0.34574867  0.72527048  0.57695572  1
  Li  Li6  1  0.26658076  0.50129539  0.53417145  1
  Li  Li7  1  0.29963989  0.28049277  0.56753991  1
  Li  Li8  1  0.30462928  0.61395778  0.52566833  1
  Li  Li9  1  0.22191043  0.11228835  0.02811216  1
  Li  Li10  1  0.69537072  0.11395778  0.97433167  1
  Li  Li11  1  0.34574867  0.77472952  0.07695572  1
  Li  Li12  1  0.26658076  0.99870461  0.03417145  1
  Li  Li13  1  0.29963989  0.21950723  0.06753991  1
  Li  Li14  1  0.70036011  0.78049277  0.93246009  1
  Li  Li15  1  0.73341924  0.00129539  0.96582855  1
  Li  Li16  1  0.65425133  0.22527048  0.92304428  1
  Li  Li17  1  0.30462928  0.88604222  0.02566833  1
  Li  Li18  1  0.77808957  0.88771165  0.97188784  1
  Li  Li19  1  0.69537072  0.38604222  0.47433167  1
  Li  Li20  1  0.70036011  0.71950723  0.43246009  1
  Li  Li21  1  0.73341924  0.49870461  0.46582855  1
  Li  Li22  1  0.65425133  0.27472952  0.42304428  1
  Li  Li23  1  0.77808957  0.61228835  0.47188784  1
  Li  Li24  1  0.79181289  0.05770515  0.50111629  1
  Li  Li25  1  0.84989346  0.82342195  0.51530645  1
  Li  Li26  1  0.79181289  0.44229485  0.00111629  1
  Li  Li27  1  0.84989346  0.67657805  0.01530645  1
  Fe  Fe28  1  0.30646896  0.66861141  0.99070619  1
  Fe  Fe29  1  0.27181511  0.05540191  0.50117844  1
  Fe  Fe30  1  0.30646896  0.83138859  0.49070619  1
  Fe  Fe31  1  0.72818489  0.55540191  0.99882156  1
  Fe  Fe32  1  0.27181511  0.44459809  0.00117844  1
  Fe  Fe33  1  0.69353104  0.16861141  0.50929381  1
  Fe  Fe34  1  0.72818489  0.94459809  0.49882156  1
  Fe  Fe35  1  0.69353104  0.33138859  0.00929381  1
  O  O36  1  0.90922960  0.44109118  0.68253982  1
  O  O37  1  0.93663223  0.67230887  0.68492602  1
  O  O38  1  0.90922960  0.05890882  0.18253982  1
  O  O39  1  0.44905443  0.27945399  0.99522858  1
  O  O40  1  0.22422064  0.05647327  0.82067058  1
  O  O41  1  0.26544151  0.82573904  0.81762578  1
  O  O42  1  0.93663223  0.82769113  0.18492602  1
  O  O43  1  0.50580845  0.39121353  0.00515562  1
  O  O44  1  0.44905443  0.22054601  0.49522858  1
  O  O45  1  0.22422064  0.44352673  0.32067058  1
  O  O46  1  0.26544151  0.67426096  0.31762578  1
  O  O47  1  0.49419155  0.89121353  0.49484438  1
  O  O48  1  0.50000000  0.00000000  0.50000000  1
  O  O49  1  0.50580845  0.10878647  0.50515562  1
  O  O50  1  0.73455849  0.32573904  0.68237422  1
  O  O51  1  0.77577936  0.55647327  0.67932942  1
  O  O52  1  0.55094557  0.77945399  0.50477142  1
  O  O53  1  0.49419155  0.60878647  0.99484438  1
  O  O54  1  0.50000000  0.50000000  0.00000000  1
  O  O55  1  0.06336777  0.17230887  0.81507398  1
  O  O56  1  0.73455849  0.17426096  0.18237422  1
  O  O57  1  0.77577936  0.94352673  0.17932942  1
  O  O58  1  0.55094557  0.72054601  0.00477142  1
  O  O59  1  0.09077040  0.94109118  0.81746018  1
  O  O60  1  0.06336777  0.32769113  0.31507398  1
  O  O61  1  0.09077040  0.55890882  0.31746018  1
