# generated using pymatgen
data_Mo2P2O11
_symmetry_space_group_name_H-M   'P 1'
_cell_length_a   7.63206367
_cell_length_b   6.43802215
_cell_length_c   9.15167882
_cell_angle_alpha   90.07471495
_cell_angle_beta   104.96065441
_cell_angle_gamma   89.95049487
_symmetry_Int_Tables_number   1
_chemical_formula_structural   Mo2P2O11
_chemical_formula_sum   'Mo4 P4 O22'
_cell_volume   434.42855903
_cell_formula_units_Z   2
loop_
 _symmetry_equiv_pos_site_id
 _symmetry_equiv_pos_as_xyz
  1  'x, y, z'
loop_
 _atom_site_type_symbol
 _atom_site_label
 _atom_site_symmetry_multiplicity
 _atom_site_fract_x
 _atom_site_fract_y
 _atom_site_fract_z
 _atom_site_occupancy
  Mo  Mo0  1  0.17985782  0.24908993  0.85689720  1
  Mo  Mo1  1  0.39274956  0.24811119  0.29136782  1
  Mo  Mo2  1  0.60725044  0.75188881  0.70863218  1
  Mo  Mo3  1  0.82014218  0.75091007  0.14310280  1
  O  O4  1  0.03732642  0.24628081  0.68121555  1
  O  O5  1  0.19239576  0.94285361  0.88622142  1
  O  O6  1  0.19174353  0.55609567  0.88327785  1
  O  O7  1  0.09606038  0.24895167  0.25212646  1
  O  O8  1  0.01746006  0.74808911  0.03712156  1
  O  O9  1  0.40703478  0.24984392  0.80007863  1
  O  O10  1  0.37559191  0.75441484  0.64969744  1
  O  O11  1  0.36763900  0.24893726  0.51759428  1
  O  O12  1  0.36378265  0.93903563  0.30423966  1
  O  O13  1  0.36674453  0.55752190  0.30539058  1
  O  O14  1  0.35418042  0.24904496  0.09000000  1
  O  O15  1  0.64581958  0.75095504  0.91000000  1
  O  O16  1  0.63325547  0.44247810  0.69460942  1
  O  O17  1  0.63621735  0.06096437  0.69576034  1
  O  O18  1  0.63236100  0.75106274  0.48240572  1
  O  O19  1  0.62440809  0.24558516  0.35030256  1
  O  O20  1  0.59296522  0.75015608  0.19992137  1
  O  O21  1  0.98253994  0.25191089  0.96287844  1
  O  O22  1  0.90393962  0.75104833  0.74787354  1
  O  O23  1  0.80825647  0.44390433  0.11672215  1
  O  O24  1  0.80760424  0.05714639  0.11377858  1
  O  O25  1  0.96267358  0.75371919  0.31878545  1
  P  P26  1  0.06770347  0.74943835  0.88189086  1
  P  P27  1  0.50855703  0.25063933  0.66946683  1
  P  P28  1  0.49144297  0.74936067  0.33053317  1
  P  P29  1  0.93229653  0.25056165  0.11810914  1
