# generated using pymatgen
data_Pr3IrO7
_symmetry_space_group_name_H-M   'P 1'
_cell_length_a   6.70678092
_cell_length_b   6.70678093
_cell_length_c   7.64293309
_cell_angle_alpha   90.00000000
_cell_angle_beta   90.00000000
_cell_angle_gamma   111.37146233
_symmetry_Int_Tables_number   1
_chemical_formula_structural   Pr3IrO7
_chemical_formula_sum   'Pr6 Ir2 O14'
_cell_volume   320.14647569
_cell_formula_units_Z   2
loop_
 _symmetry_equiv_pos_site_id
 _symmetry_equiv_pos_as_xyz
  1  'x, y, z'
loop_
 _atom_site_type_symbol
 _atom_site_label
 _atom_site_symmetry_multiplicity
 _atom_site_fract_x
 _atom_site_fract_y
 _atom_site_fract_z
 _atom_site_occupancy
  O  O0  1  0.58819895  0.58819895  0.75000000  1
  O  O1  1  0.41180105  0.41180105  0.25000000  1
  O  O2  1  0.10681458  0.84333384  0.75000000  1
  O  O3  1  0.89318542  0.15666616  0.25000000  1
  O  O4  1  0.84333384  0.10681458  0.75000000  1
  O  O5  1  0.15666616  0.89318542  0.25000000  1
  O  O6  1  0.18955760  0.44052202  0.96136394  1
  O  O7  1  0.81044240  0.55947798  0.46136394  1
  O  O8  1  0.44052202  0.18955760  0.96136394  1
  O  O9  1  0.55947798  0.81044240  0.46136394  1
  O  O10  1  0.18955760  0.44052202  0.53863606  1
  O  O11  1  0.81044240  0.55947798  0.03863606  1
  O  O12  1  0.55947798  0.81044240  0.03863606  1
  O  O13  1  0.44052202  0.18955760  0.53863606  1
  Pr  Pr14  1  0.00000000  0.00000000  0.00000000  1
  Pr  Pr15  1  0.00000000  0.00000000  0.50000000  1
  Pr  Pr16  1  0.91712733  0.47370438  0.75000000  1
  Pr  Pr17  1  0.08287267  0.52629562  0.25000000  1
  Pr  Pr18  1  0.47370438  0.91712733  0.75000000  1
  Pr  Pr19  1  0.52629562  0.08287267  0.25000000  1
  Ir  Ir20  1  0.50000000  0.50000000  0.00000000  1
  Ir  Ir21  1  0.50000000  0.50000000  0.50000000  1
