# generated using pymatgen
data_La4Os6O19
_symmetry_space_group_name_H-M   'P 1'
_cell_length_a   7.92386083
_cell_length_b   7.92386057
_cell_length_c   7.92386098
_cell_angle_alpha   109.47122166
_cell_angle_beta   109.47122099
_cell_angle_gamma   109.47122095
_symmetry_Int_Tables_number   1
_chemical_formula_structural   La4Os6O19
_chemical_formula_sum   'La4 Os6 O19'
_cell_volume   382.99103821
_cell_formula_units_Z   1
loop_
 _symmetry_equiv_pos_site_id
 _symmetry_equiv_pos_as_xyz
  1  'x, y, z'
loop_
 _atom_site_type_symbol
 _atom_site_label
 _atom_site_symmetry_multiplicity
 _atom_site_fract_x
 _atom_site_fract_y
 _atom_site_fract_z
 _atom_site_occupancy
  La  La0  1  0.31436208  0.31436208  0.31436208  1
  La  La1  1  1.00000000  0.68563792  1.00000000  1
  La  La2  1  0.00000000  0.00000000  0.68563792  1
  La  La3  1  0.68563792  0.00000000  1.00000000  1
  Os  Os4  1  0.50000000  0.36280576  0.86280576  1
  Os  Os5  1  0.63719424  0.13719424  0.50000000  1
  Os  Os6  1  0.13719424  0.50000000  0.63719424  1
  Os  Os7  1  0.36280576  0.86280576  0.50000000  1
  Os  Os8  1  0.86280576  0.50000000  0.36280576  1
  Os  Os9  1  0.50000000  0.63719424  0.13719424  1
  O  O10  1  0.00000000  0.32402030  0.32402030  1
  O  O11  1  0.67597970  0.67597970  1.00000000  1
  O  O12  1  0.67597970  0.00000000  0.67597970  1
  O  O13  1  0.32402030  0.32402030  0.00000000  1
  O  O14  1  0.32402030  0.00000000  0.32402030  1
  O  O15  1  1.00000000  0.67597970  0.67597970  1
  O  O16  1  0.00000000  0.00000000  0.00000000  1
  O  O17  1  0.27214688  0.33208231  0.62726354  1
  O  O18  1  0.64488334  0.37273646  0.70481876  1
  O  O19  1  0.94006457  0.29518124  0.66791769  1
  O  O20  1  0.35511666  0.05993543  0.72785312  1
  O  O21  1  0.37273646  0.70481876  0.64488334  1
  O  O22  1  0.66791769  0.94006457  0.29518124  1
  O  O23  1  0.05993543  0.72785312  0.35511666  1
  O  O24  1  0.62726354  0.27214688  0.33208231  1
  O  O25  1  0.33208231  0.62726354  0.27214688  1
  O  O26  1  0.70481876  0.64488334  0.37273646  1
  O  O27  1  0.29518124  0.66791769  0.94006457  1
  O  O28  1  0.72785312  0.35511666  0.05993543  1
