# generated using pymatgen
data_Co(NO3)2
_symmetry_space_group_name_H-M   'P 1'
_cell_length_a   7.53045718
_cell_length_b   7.53045656
_cell_length_c   7.53045688
_cell_angle_alpha   90.19206658
_cell_angle_beta   90.19206654
_cell_angle_gamma   90.19207720
_symmetry_Int_Tables_number   1
_chemical_formula_structural   Co(NO3)2
_chemical_formula_sum   'Co4 N8 O24'
_cell_volume   427.02828273
_cell_formula_units_Z   4
loop_
 _symmetry_equiv_pos_site_id
 _symmetry_equiv_pos_as_xyz
  1  'x, y, z'
loop_
 _atom_site_type_symbol
 _atom_site_label
 _atom_site_symmetry_multiplicity
 _atom_site_fract_x
 _atom_site_fract_y
 _atom_site_fract_z
 _atom_site_occupancy
  Co  Co0  1  0.50000000  0.00000000  0.50000000  1
  Co  Co1  1  0.50000000  0.50000000  0.00000000  1
  Co  Co2  1  0.00000000  0.50000000  0.50000000  1
  Co  Co3  1  0.00000000  0.00000000  0.00000000  1
  N  N4  1  0.33650507  0.33650507  0.33650507  1
  N  N5  1  0.66349493  0.66349493  0.66349493  1
  N  N6  1  0.34874966  0.15861724  0.84179363  1
  N  N7  1  0.84179363  0.34874966  0.15861724  1
  N  N8  1  0.15861724  0.84179363  0.34874966  1
  N  N9  1  0.65125034  0.84138276  0.15820637  1
  N  N10  1  0.15820637  0.65125034  0.84138276  1
  N  N11  1  0.84138276  0.15820637  0.65125034  1
  O  O12  1  0.33331338  0.22032009  0.45706693  1
  O  O13  1  0.45706693  0.33331338  0.22032009  1
  O  O14  1  0.22032009  0.45706693  0.33331338  1
  O  O15  1  0.66668662  0.77967991  0.54293307  1
  O  O16  1  0.54293307  0.66668662  0.77967991  1
  O  O17  1  0.77967991  0.54293307  0.66668662  1
  O  O18  1  0.71533036  0.17212201  0.54019857  1
  O  O19  1  0.54019857  0.71533036  0.17212201  1
  O  O20  1  0.17212201  0.54019857  0.71533036  1
  O  O21  1  0.28466964  0.82787799  0.45980143  1
  O  O22  1  0.45980143  0.28466964  0.82787799  1
  O  O23  1  0.82787799  0.45980143  0.28466964  1
  O  O24  1  0.17466915  0.94322980  0.21599548  1
  O  O25  1  0.21599548  0.17466915  0.94322980  1
  O  O26  1  0.94322980  0.21599548  0.17466915  1
  O  O27  1  0.82533085  0.05677020  0.78400452  1
  O  O28  1  0.78400452  0.82533085  0.05677020  1
  O  O29  1  0.05677020  0.78400452  0.82533085  1
  O  O30  1  0.37269842  0.01644435  0.75511317  1
  O  O31  1  0.75511317  0.37269842  0.01644435  1
  O  O32  1  0.01644435  0.75511317  0.37269842  1
  O  O33  1  0.62730158  0.98355565  0.24488683  1
  O  O34  1  0.24488683  0.62730158  0.98355565  1
  O  O35  1  0.98355565  0.24488683  0.62730158  1
