# generated using pymatgen
data_Sc2FeB2Rh5
_symmetry_space_group_name_H-M   'P 1'
_cell_length_a   3.08426017
_cell_length_b   9.32826805
_cell_length_c   9.32826805
_cell_angle_alpha   90.00000000
_cell_angle_beta   90.00000000
_cell_angle_gamma   90.00000000
_symmetry_Int_Tables_number   1
_chemical_formula_structural   Sc2FeB2Rh5
_chemical_formula_sum   'Sc4 Fe2 B4 Rh10'
_cell_volume   268.38178667
_cell_formula_units_Z   2
loop_
 _symmetry_equiv_pos_site_id
 _symmetry_equiv_pos_as_xyz
  1  'x, y, z'
loop_
 _atom_site_type_symbol
 _atom_site_label
 _atom_site_symmetry_multiplicity
 _atom_site_fract_x
 _atom_site_fract_y
 _atom_site_fract_z
 _atom_site_occupancy
  Rh  Rh0  1  0.50000000  0.21584856  0.07065516  1
  Rh  Rh1  1  0.50000000  0.92934484  0.21584856  1
  Rh  Rh2  1  0.50000000  0.07065516  0.78415144  1
  Rh  Rh3  1  0.50000000  0.78415144  0.92934484  1
  Rh  Rh4  1  0.50000000  0.71584856  0.42934484  1
  Rh  Rh5  1  0.50000000  0.28415144  0.57065516  1
  Rh  Rh6  1  0.50000000  0.57065516  0.71584856  1
  Rh  Rh7  1  0.50000000  0.42934484  0.28415144  1
  Rh  Rh8  1  0.50000000  0.00000000  0.50000000  1
  Rh  Rh9  1  0.50000000  0.50000000  0.00000000  1
  Sc  Sc10  1  0.00000000  0.32476626  0.82476626  1
  Sc  Sc11  1  0.00000000  0.17523374  0.32476626  1
  Sc  Sc12  1  0.00000000  0.82476626  0.67523374  1
  Sc  Sc13  1  0.00000000  0.67523374  0.17523374  1
  B  B14  1  0.00000000  0.12430559  0.62430559  1
  B  B15  1  0.00000000  0.37569441  0.12430559  1
  B  B16  1  0.00000000  0.62430559  0.87569441  1
  B  B17  1  0.00000000  0.87569441  0.37569441  1
  Fe  Fe18  1  0.00000000  0.00000000  0.00000000  1
  Fe  Fe19  1  0.00000000  0.50000000  0.50000000  1
