# generated using pymatgen
data_Li2NbO3
_symmetry_space_group_name_H-M   'P 1'
_cell_length_a   5.18395584
_cell_length_b   5.18395584
_cell_length_c   5.20499463
_cell_angle_alpha   78.78613833
_cell_angle_beta   101.21386167
_cell_angle_gamma   62.61331281
_symmetry_Int_Tables_number   1
_chemical_formula_structural   Li2NbO3
_chemical_formula_sum   'Li4 Nb2 O6'
_cell_volume   115.17268669
_cell_formula_units_Z   2
loop_
 _symmetry_equiv_pos_site_id
 _symmetry_equiv_pos_as_xyz
  1  'x, y, z'
loop_
 _atom_site_type_symbol
 _atom_site_label
 _atom_site_symmetry_multiplicity
 _atom_site_fract_x
 _atom_site_fract_y
 _atom_site_fract_z
 _atom_site_occupancy
  Li  Li0  1  0.26289166  0.26289166  0.75000000  1
  Li  Li1  1  0.58007560  0.58007560  0.75000000  1
  Li  Li2  1  0.41992440  0.41992440  0.25000000  1
  Li  Li3  1  0.73710734  0.73710734  0.25000000  1
  Nb  Nb4  1  0.91572268  0.91572268  0.75000000  1
  Nb  Nb5  1  0.08427732  0.08427732  0.25000000  1
  O  O6  1  0.15975231  0.67906734  0.50377552  1
  O  O7  1  0.32093266  0.84024769  0.00377552  1
  O  O8  1  0.00000000  0.50000000  0.00000000  1
  O  O9  1  0.67906734  0.15975231  0.99622448  1
  O  O10  1  0.50000000  0.00000000  0.50000000  1
  O  O11  1  0.84024769  0.32093266  0.49622448  1
