# generated using pymatgen
data_Mo2NCl7
_symmetry_space_group_name_H-M   'P 1'
_cell_length_a   9.49019483
_cell_length_b   10.17152320
_cell_length_c   13.72531718
_cell_angle_alpha   101.99526752
_cell_angle_beta   107.77263501
_cell_angle_gamma   102.24229255
_symmetry_Int_Tables_number   1
_chemical_formula_structural   Mo2NCl7
_chemical_formula_sum   'Mo8 N4 Cl28'
_cell_volume   1178.91437547
_cell_formula_units_Z   4
loop_
 _symmetry_equiv_pos_site_id
 _symmetry_equiv_pos_as_xyz
  1  'x, y, z'
loop_
 _atom_site_type_symbol
 _atom_site_label
 _atom_site_symmetry_multiplicity
 _atom_site_fract_x
 _atom_site_fract_y
 _atom_site_fract_z
 _atom_site_occupancy
  Mo  Mo0  1  0.06200997  0.93800722  0.73139161  1
  Mo  Mo1  1  0.93799003  0.06199278  0.26860839  1
  Mo  Mo2  1  0.84729711  0.57186201  0.67914961  1
  Mo  Mo3  1  0.15270289  0.42813799  0.32085039  1
  Mo  Mo4  1  0.61517639  0.40028368  0.81727631  1
  Mo  Mo5  1  0.38482361  0.59971632  0.18272369  1
  Mo  Mo6  1  0.46940151  0.10865687  0.76899960  1
  Mo  Mo7  1  0.53059849  0.89134313  0.23100040  1
  Cl  Cl8  1  0.94826086  0.04961069  0.61722365  1
  Cl  Cl9  1  0.05173914  0.95038931  0.38277635  1
  Cl  Cl10  1  0.04974103  0.07013879  0.88389462  1
  Cl  Cl11  1  0.95025897  0.92986121  0.11610538  1
  Cl  Cl12  1  0.02669021  0.73503860  0.59112971  1
  Cl  Cl13  1  0.97330979  0.26496140  0.40887029  1
  Cl  Cl14  1  0.07797342  0.75598035  0.83324995  1
  Cl  Cl15  1  0.92202658  0.24401965  0.16675005  1
  Cl  Cl16  1  0.75515358  0.77358889  0.69017420  1
  Cl  Cl17  1  0.24484642  0.22641111  0.30982580  1
  Cl  Cl18  1  0.02050342  0.44433088  0.69043811  1
  Cl  Cl19  1  0.97949658  0.55566912  0.30956189  1
  Cl  Cl20  1  0.68517751  0.45751947  0.50834168  1
  Cl  Cl21  1  0.31482249  0.54248053  0.49165832  1
  Cl  Cl22  1  0.50027686  0.57728633  0.81346456  1
  Cl  Cl23  1  0.49972314  0.42271367  0.18653544  1
  Cl  Cl24  1  0.80154365  0.49148549  0.98386858  1
  Cl  Cl25  1  0.19845635  0.50851451  0.01613142  1
  Cl  Cl26  1  0.72883018  0.21469582  0.76823245  1
  Cl  Cl27  1  0.27116982  0.78530418  0.23176755  1
  Cl  Cl28  1  0.39433795  0.25611913  0.64774805  1
  Cl  Cl29  1  0.60566205  0.74388087  0.35225195  1
  Cl  Cl30  1  0.43531664  0.29315146  0.89697821  1
  Cl  Cl31  1  0.56468336  0.70684854  0.10302179  1
  Cl  Cl32  1  0.42804153  0.93490631  0.61792246  1
  Cl  Cl33  1  0.57195847  0.06509369  0.38207754  1
  Cl  Cl34  1  0.58178064  0.01331945  0.89681779  1
  Cl  Cl35  1  0.41821936  0.98668055  0.10318221  1
  N  N36  1  0.25335013  0.01345059  0.75306974  1
  N  N37  1  0.74664987  0.98654941  0.24693026  1
  N  N38  1  0.74401194  0.49554929  0.74695868  1
  N  N39  1  0.25598806  0.50445071  0.25304132  1
