# generated using pymatgen
data_Ba3NaRu2O9
_symmetry_space_group_name_H-M   'P 1'
_cell_length_a   5.94960291
_cell_length_b   5.94960328
_cell_length_c   14.72319856
_cell_angle_alpha   90.00000000
_cell_angle_beta   90.00000000
_cell_angle_gamma   119.99999798
_symmetry_Int_Tables_number   1
_chemical_formula_structural   Ba3NaRu2O9
_chemical_formula_sum   'Ba6 Na2 Ru4 O18'
_cell_volume   451.34516932
_cell_formula_units_Z   2
loop_
 _symmetry_equiv_pos_site_id
 _symmetry_equiv_pos_as_xyz
  1  'x, y, z'
loop_
 _atom_site_type_symbol
 _atom_site_label
 _atom_site_symmetry_multiplicity
 _atom_site_fract_x
 _atom_site_fract_y
 _atom_site_fract_z
 _atom_site_occupancy
  Ba  Ba0  1  0.66666700  0.33333300  0.09225030  1
  Ba  Ba1  1  0.33333300  0.66666700  0.59225030  1
  Ba  Ba2  1  0.33333300  0.66666700  0.90774970  1
  Ba  Ba3  1  0.66666700  0.33333300  0.40774970  1
  Ba  Ba4  1  0.00000000  0.00000000  0.25000000  1
  Ba  Ba5  1  0.00000000  0.00000000  0.75000000  1
  Na  Na6  1  0.00000000  0.00000000  0.00000000  1
  Na  Na7  1  0.00000000  0.00000000  0.50000000  1
  Ru  Ru8  1  0.33333300  0.66666700  0.15511569  1
  Ru  Ru9  1  0.66666700  0.33333300  0.65511569  1
  Ru  Ru10  1  0.66666700  0.33333300  0.84488431  1
  Ru  Ru11  1  0.33333300  0.66666700  0.34488431  1
  O  O12  1  0.17722434  0.35444867  0.09006772  1
  O  O13  1  0.82277566  0.17722434  0.59006772  1
  O  O14  1  0.35444867  0.17722434  0.59006772  1
  O  O15  1  0.64555133  0.82277566  0.09006772  1
  O  O16  1  0.17722434  0.82277566  0.09006772  1
  O  O17  1  0.82277566  0.64555133  0.90993228  1
  O  O18  1  0.82277566  0.17722434  0.90993228  1
  O  O19  1  0.82277566  0.64555133  0.59006772  1
  O  O20  1  0.35444867  0.17722434  0.90993228  1
  O  O21  1  0.64555133  0.82277566  0.40993228  1
  O  O22  1  0.17722434  0.35444867  0.40993228  1
  O  O23  1  0.17722434  0.82277566  0.40993228  1
  O  O24  1  0.03431505  0.51715753  0.25000000  1
  O  O25  1  0.51715753  0.03431505  0.75000000  1
  O  O26  1  0.51715753  0.48284247  0.75000000  1
  O  O27  1  0.48284247  0.51715753  0.25000000  1
  O  O28  1  0.48284247  0.96568495  0.25000000  1
  O  O29  1  0.96568495  0.48284247  0.75000000  1
