# generated using pymatgen
data_MnP4H16(NO8)2
_symmetry_space_group_name_H-M   'P 1'
_cell_length_a   7.11576013
_cell_length_b   7.51058163
_cell_length_c   7.90691868
_cell_angle_alpha   80.50198616
_cell_angle_beta   71.66692274
_cell_angle_gamma   88.28894874
_symmetry_Int_Tables_number   1
_chemical_formula_structural   MnP4H16(NO8)2
_chemical_formula_sum   'Mn1 P4 H16 N2 O16'
_cell_volume   395.51669174
_cell_formula_units_Z   1
loop_
 _symmetry_equiv_pos_site_id
 _symmetry_equiv_pos_as_xyz
  1  'x, y, z'
loop_
 _atom_site_type_symbol
 _atom_site_label
 _atom_site_symmetry_multiplicity
 _atom_site_fract_x
 _atom_site_fract_y
 _atom_site_fract_z
 _atom_site_occupancy
  Mn  Mn0  1  0.00000000  0.50000000  0.00000000  1
  P  P1  1  0.24803243  0.20507315  0.74356125  1
  P  P2  1  0.75196757  0.79492685  0.25643875  1
  P  P3  1  0.83342114  0.25260740  0.74449354  1
  P  P4  1  0.16657886  0.74739260  0.25550646  1
  O  O5  1  0.24450362  0.34639635  0.85961429  1
  O  O6  1  0.75549638  0.65360365  0.14038571  1
  O  O7  1  0.42854622  0.23434062  0.56348932  1
  O  O8  1  0.57145378  0.76565938  0.43651068  1
  O  O9  1  0.23390873  0.00984292  0.83945281  1
  O  O10  1  0.76609127  0.99015708  0.16054719  1
  O  O11  1  0.06995626  0.23375095  0.65434340  1
  O  O12  1  0.93004374  0.76624905  0.34565660  1
  O  O13  1  0.79513992  0.38187961  0.88126338  1
  O  O14  1  0.20486008  0.61812039  0.11873662  1
  O  O15  1  0.75914481  0.30886317  0.58469746  1
  O  O16  1  0.24085519  0.69113683  0.41530254  1
  O  O17  1  0.74777799  0.05882714  0.84479435  1
  O  O18  1  0.25222201  0.94117286  0.15520565  1
  O  O19  1  0.05896635  0.72217273  0.76919008  1
  O  O20  1  0.94103365  0.27782727  0.23080992  1
  N  N21  1  0.58621600  0.71320713  0.79803075  1
  N  N22  1  0.41378400  0.28679287  0.20196925  1
  H  H23  1  0.56411452  0.26567377  0.58010932  1
  H  H24  1  0.43588548  0.73432623  0.41989068  1
  H  H25  1  0.75782752  0.02638803  0.97715792  1
  H  H26  1  0.24217248  0.97361197  0.02284208  1
  H  H27  1  0.44697624  0.69278311  0.89285530  1
  H  H28  1  0.55302376  0.30721689  0.10714470  1
  H  H29  1  0.57584970  0.72529040  0.66807665  1
  H  H30  1  0.42415030  0.27470960  0.33192335  1
  H  H31  1  0.67333417  0.60399306  0.82101404  1
  H  H32  1  0.32666583  0.39600694  0.17898596  1
  H  H33  1  0.65021698  0.83060418  0.81008103  1
  H  H34  1  0.34978302  0.16939582  0.18991897  1
  H  H35  1  0.11882775  0.83426464  0.78350193  1
  H  H36  1  0.88117225  0.16573536  0.21649807  1
  H  H37  1  0.11923195  0.70510359  0.64166791  1
  H  H38  1  0.88076805  0.29489641  0.35833209  1
