# generated using pymatgen
data_BaTm2NiO5
_symmetry_space_group_name_H-M   'P 1'
_cell_length_a   5.67570687
_cell_length_b   7.01012246
_cell_length_c   12.24473649
_cell_angle_alpha   90.00000000
_cell_angle_beta   90.00000000
_cell_angle_gamma   90.00000000
_symmetry_Int_Tables_number   1
_chemical_formula_structural   BaTm2NiO5
_chemical_formula_sum   'Ba4 Tm8 Ni4 O20'
_cell_volume   487.18623114
_cell_formula_units_Z   4
loop_
 _symmetry_equiv_pos_site_id
 _symmetry_equiv_pos_as_xyz
  1  'x, y, z'
loop_
 _atom_site_type_symbol
 _atom_site_label
 _atom_site_symmetry_multiplicity
 _atom_site_fract_x
 _atom_site_fract_y
 _atom_site_fract_z
 _atom_site_occupancy
  Ba  Ba0  1  0.25000000  0.92464676  0.90205344  1
  Ba  Ba1  1  0.75000000  0.07535324  0.09794656  1
  Ba  Ba2  1  0.75000000  0.42464676  0.59794656  1
  Ba  Ba3  1  0.25000000  0.57535324  0.40205344  1
  Tm  Tm4  1  0.25000000  0.11943213  0.29150538  1
  Tm  Tm5  1  0.75000000  0.88056787  0.70849462  1
  Tm  Tm6  1  0.75000000  0.61943213  0.20849462  1
  Tm  Tm7  1  0.25000000  0.38056787  0.79150538  1
  Tm  Tm8  1  0.25000000  0.39838846  0.07376979  1
  Tm  Tm9  1  0.75000000  0.60161154  0.92623021  1
  Tm  Tm10  1  0.75000000  0.89838846  0.42623021  1
  Tm  Tm11  1  0.25000000  0.10161154  0.57376979  1
  Ni  Ni12  1  0.25000000  0.69738728  0.65574980  1
  Ni  Ni13  1  0.75000000  0.30261272  0.34425020  1
  Ni  Ni14  1  0.75000000  0.19738728  0.84425020  1
  Ni  Ni15  1  0.25000000  0.80261272  0.15574980  1
  O  O16  1  -0.00217504  0.16487874  0.43421030  1
  O  O17  1  0.49782496  0.83512126  0.56578970  1
  O  O18  1  1.00217504  0.66487874  0.06578970  1
  O  O19  1  0.50217504  0.33512126  0.93421030  1
  O  O20  1  1.00217504  0.83512126  0.56578970  1
  O  O21  1  0.50217504  0.16487874  0.43421030  1
  O  O22  1  -0.00217504  0.33512126  0.93421030  1
  O  O23  1  0.49782496  0.66487874  0.06578970  1
  O  O24  1  0.49959383  0.36149802  0.22527791  1
  O  O25  1  0.99959383  0.63850198  0.77472209  1
  O  O26  1  0.50040617  0.86149802  0.27472209  1
  O  O27  1  0.00040617  0.13850198  0.72527791  1
  O  O28  1  0.50040617  0.63850198  0.77472209  1
  O  O29  1  0.00040617  0.36149802  0.22527791  1
  O  O30  1  0.49959383  0.13850198  0.72527791  1
  O  O31  1  0.99959383  0.86149802  0.27472209  1
  O  O32  1  0.25000000  0.07549730  0.10358188  1
  O  O33  1  0.75000000  0.92450270  0.89641812  1
  O  O34  1  0.75000000  0.57549730  0.39641812  1
  O  O35  1  0.25000000  0.42450270  0.60358188  1
