# generated using pymatgen
data_HoMn2O5
_symmetry_space_group_name_H-M   'P 1'
_cell_length_a   5.78387475
_cell_length_b   7.32371665
_cell_length_c   8.55310883
_cell_angle_alpha   90.00000000
_cell_angle_beta   90.00000000
_cell_angle_gamma   90.00000000
_symmetry_Int_Tables_number   1
_chemical_formula_structural   HoMn2O5
_chemical_formula_sum   'Ho4 Mn8 O20'
_cell_volume   362.30506972
_cell_formula_units_Z   4
loop_
 _symmetry_equiv_pos_site_id
 _symmetry_equiv_pos_as_xyz
  1  'x, y, z'
loop_
 _atom_site_type_symbol
 _atom_site_label
 _atom_site_symmetry_multiplicity
 _atom_site_fract_x
 _atom_site_fract_y
 _atom_site_fract_z
 _atom_site_occupancy
  Ho  Ho0  1  0.00000000  0.13789629  0.17054935  1
  Ho  Ho1  1  0.00000000  0.86210371  0.82945065  1
  Ho  Ho2  1  0.00000000  0.63789629  0.32945065  1
  Ho  Ho3  1  0.00000000  0.36210371  0.67054935  1
  Mn  Mn4  1  0.25335743  0.00000000  0.50000000  1
  Mn  Mn5  1  0.74664257  0.50000000  0.00000000  1
  Mn  Mn6  1  0.74664257  0.00000000  0.50000000  1
  Mn  Mn7  1  0.25335743  0.50000000  0.00000000  1
  Mn  Mn8  1  0.50000000  0.41194870  0.34854796  1
  Mn  Mn9  1  0.50000000  0.58805130  0.65145204  1
  Mn  Mn10  1  0.50000000  0.91194870  0.15145204  1
  Mn  Mn11  1  0.50000000  0.08805130  0.84854796  1
  O  O12  1  0.26907965  0.00000000  0.00000000  1
  O  O13  1  0.73092035  0.50000000  0.50000000  1
  O  O14  1  0.73092035  0.00000000  0.00000000  1
  O  O15  1  0.26907965  0.50000000  0.50000000  1
  O  O16  1  0.00000000  0.16463633  0.44250127  1
  O  O17  1  0.00000000  0.83536367  0.55749873  1
  O  O18  1  0.00000000  0.66463633  0.05749873  1
  O  O19  1  0.00000000  0.33536367  0.94250127  1
  O  O20  1  0.50000000  0.15164724  0.43121991  1
  O  O21  1  0.50000000  0.84835276  0.56878009  1
  O  O22  1  0.50000000  0.65164724  0.06878009  1
  O  O23  1  0.50000000  0.34835276  0.93121991  1
  O  O24  1  0.23937689  0.39332320  0.20727688  1
  O  O25  1  0.23937689  0.60667680  0.79272312  1
  O  O26  1  0.76062311  0.89332320  0.29272312  1
  O  O27  1  0.76062311  0.10667680  0.70727688  1
  O  O28  1  0.76062311  0.60667680  0.79272312  1
  O  O29  1  0.76062311  0.39332320  0.20727688  1
  O  O30  1  0.23937689  0.10667680  0.70727688  1
  O  O31  1  0.23937689  0.89332320  0.29272312  1
