# generated using pymatgen
data_Sr2MnGaO5
_symmetry_space_group_name_H-M   'P 1'
_cell_length_a   5.49805738
_cell_length_b   5.69421213
_cell_length_c   8.93957040
_cell_angle_alpha   108.57353502
_cell_angle_beta   107.90937949
_cell_angle_gamma   90.00000000
_symmetry_Int_Tables_number   1
_chemical_formula_structural   Sr2MnGaO5
_chemical_formula_sum   'Sr4 Mn2 Ga2 O10'
_cell_volume   250.94712886
_cell_formula_units_Z   2
loop_
 _symmetry_equiv_pos_site_id
 _symmetry_equiv_pos_as_xyz
  1  'x, y, z'
loop_
 _atom_site_type_symbol
 _atom_site_label
 _atom_site_symmetry_multiplicity
 _atom_site_fract_x
 _atom_site_fract_y
 _atom_site_fract_z
 _atom_site_occupancy
  O  O0  1  0.62730338  0.11965436  0.49999169  1
  O  O1  1  0.12731168  0.88034564  0.50000831  1
  O  O2  1  0.32967782  0.40592225  0.71030566  1
  O  O3  1  0.61937216  0.59407775  0.28969434  1
  O  O4  1  0.82964556  0.80437644  0.71027264  1
  O  O5  1  0.11937293  0.19562356  0.28972736  1
  O  O6  1  0.25345292  0.75944748  0.01378600  1
  O  O7  1  0.23966692  0.24055252  0.98621400  1
  O  O8  1  0.73968667  0.24570278  0.98622701  1
  O  O9  1  0.75345966  0.75429722  0.01377299  1
  Mn  Mn10  1  0.99477603  0.00000000  0.00000000  1
  Mn  Mn11  1  0.49477492  0.50000000  0.00000000  1
  Ga  Ga12  1  0.28437080  0.17806178  0.50001718  1
  Ga  Ga13  1  0.78435362  0.82193822  0.49998282  1
  Sr  Sr14  1  0.11042203  0.59276416  0.22245912  1
  Sr  Sr15  1  0.61042494  0.12968559  0.22245989  1
  Sr  Sr16  1  0.88796291  0.40723584  0.77754088  1
  Sr  Sr17  1  0.38796505  0.87031441  0.77754011  1
