# generated using pymatgen
data_Ho2MoO6
_symmetry_space_group_name_H-M   'P 1'
_cell_length_a   5.37794906
_cell_length_b   9.91241094
_cell_length_c   9.91241094
_cell_angle_alpha   68.07136465
_cell_angle_beta   75.02283377
_cell_angle_gamma   75.02283381
_symmetry_Int_Tables_number   1
_chemical_formula_structural   Ho2MoO6
_chemical_formula_sum   'Ho8 Mo4 O24'
_cell_volume   465.73793688
_cell_formula_units_Z   4
loop_
 _symmetry_equiv_pos_site_id
 _symmetry_equiv_pos_as_xyz
  1  'x, y, z'
loop_
 _atom_site_type_symbol
 _atom_site_label
 _atom_site_symmetry_multiplicity
 _atom_site_fract_x
 _atom_site_fract_y
 _atom_site_fract_z
 _atom_site_occupancy
  O  O0  1  0.92217648  0.57301799  0.60948723  1
  O  O1  1  0.57782352  0.39051277  0.42698201  1
  O  O2  1  0.07782352  0.42698201  0.39051277  1
  O  O3  1  0.42217648  0.60948723  0.57301799  1
  O  O4  1  0.91813973  0.80700266  0.33791014  1
  O  O5  1  0.58186027  0.66208986  0.19299734  1
  O  O6  1  0.08186027  0.19299734  0.66208986  1
  O  O7  1  0.41813973  0.33791014  0.80700266  1
  O  O8  1  0.37472048  0.88388377  0.32565461  1
  O  O9  1  0.12527952  0.67434539  0.11611623  1
  O  O10  1  0.62527952  0.11611623  0.67434539  1
  O  O11  1  0.87472048  0.32565461  0.88388377  1
  O  O12  1  0.63711457  0.28912009  0.18421415  1
  O  O13  1  0.86288543  0.81578585  0.71087991  1
  O  O14  1  0.36288543  0.71087991  0.81578585  1
  O  O15  1  0.13711457  0.18421415  0.28912009  1
  O  O16  1  0.51460460  0.11010140  0.04798200  1
  O  O17  1  0.98539540  0.95201800  0.88989860  1
  O  O18  1  0.48539540  0.88989860  0.95201800  1
  O  O19  1  0.01460460  0.04798200  0.11010140  1
  O  O20  1  0.25448266  0.43288116  0.02491529  1
  O  O21  1  0.24551734  0.97508471  0.56711884  1
  O  O22  1  0.74551734  0.56711884  0.97508471  1
  O  O23  1  0.75448266  0.02491529  0.43288116  1
  Mo  Mo24  1  0.06138922  0.01147558  0.29637432  1
  Mo  Mo25  1  0.43861078  0.70362568  0.98852442  1
  Mo  Mo26  1  0.93861078  0.98852442  0.70362568  1
  Mo  Mo27  1  0.56138922  0.29637432  0.01147558  1
  Ho  Ho28  1  0.37784352  0.21656108  0.44771923  1
  Ho  Ho29  1  0.12215648  0.55228077  0.78343892  1
  Ho  Ho30  1  0.62215648  0.78343892  0.55228077  1
  Ho  Ho31  1  0.87784352  0.44771923  0.21656108  1
  Ho  Ho32  1  0.25000000  0.13661669  0.86338331  1
  Ho  Ho33  1  0.75000000  0.86338331  0.13661669  1
  Ho  Ho34  1  0.25000000  0.60609239  0.39390761  1
  Ho  Ho35  1  0.75000000  0.39390761  0.60609239  1
