# generated using pymatgen
data_Nd2Mo4O15
_symmetry_space_group_name_H-M   'P 1'
_cell_length_a   9.62446392
_cell_length_b   11.22212008
_cell_length_c   11.77715700
_cell_angle_alpha   104.46192031
_cell_angle_beta   109.42847867
_cell_angle_gamma   108.84862725
_symmetry_Int_Tables_number   1
_chemical_formula_structural   Nd2Mo4O15
_chemical_formula_sum   'Nd6 Mo12 O45'
_cell_volume   1040.36512803
_cell_formula_units_Z   3
loop_
 _symmetry_equiv_pos_site_id
 _symmetry_equiv_pos_as_xyz
  1  'x, y, z'
loop_
 _atom_site_type_symbol
 _atom_site_label
 _atom_site_symmetry_multiplicity
 _atom_site_fract_x
 _atom_site_fract_y
 _atom_site_fract_z
 _atom_site_occupancy
  O  O0  1  0.45147407  0.42560064  0.19368139  1
  O  O1  1  0.54852593  0.57439936  0.80631861  1
  O  O2  1  0.32459628  0.60855626  0.16152943  1
  O  O3  1  0.67540372  0.39144374  0.83847057  1
  O  O4  1  0.38504297  0.14345062  0.06807563  1
  O  O5  1  0.61495703  0.85654938  0.93192437  1
  O  O6  1  0.05754380  0.92027142  0.89279318  1
  O  O7  1  0.94245620  0.07972858  0.10720682  1
  O  O8  1  0.33466428  0.85573402  0.94276592  1
  O  O9  1  0.66533572  0.14426598  0.05723408  1
  O  O10  1  0.41121302  0.55441940  0.95757849  1
  O  O11  1  0.58878698  0.44558060  0.04242151  1
  O  O12  1  0.08825387  0.50436188  0.80091461  1
  O  O13  1  0.91174613  0.49563812  0.19908539  1
  O  O14  1  0.18876870  0.46015068  0.59540564  1
  O  O15  1  0.11438073  0.38356759  0.16748452  1
  O  O16  1  0.21918682  0.30638799  0.37571898  1
  O  O17  1  0.88561927  0.61643241  0.83251548  1
  O  O18  1  0.41625716  0.16230964  0.51830871  1
  O  O19  1  0.58374284  0.83769036  0.48169129  1
  O  O20  1  0.33914719  0.28815371  0.75500175  1
  O  O21  1  0.66085281  0.71184629  0.24499825  1
  O  O22  1  0.28441160  0.01728710  0.78494234  1
  O  O23  1  0.71558840  0.98271290  0.21505766  1
  O  O24  1  0.96611096  0.84367075  0.51379792  1
  O  O25  1  0.03388904  0.15632925  0.48620208  1
  O  O26  1  0.03207066  0.93051173  0.34264137  1
  O  O27  1  0.96792934  0.06948827  0.65735863  1
  O  O28  1  0.65506277  0.09651044  0.44782194  1
  O  O29  1  0.34493723  0.90348956  0.55217806  1
  O  O30  1  0.52651742  0.26853384  0.34108360  1
  O  O31  1  0.47348258  0.73146616  0.65891640  1
  O  O32  1  0.75138969  0.37710230  0.62144709  1
  O  O33  1  0.24861031  0.62289770  0.37855291  1
  O  O34  1  0.00000000  0.50000000  0.00000000  1
  O  O35  1  0.21734096  0.01061284  0.20191045  1
  O  O36  1  0.78265904  0.98938716  0.79808955  1
  O  O37  1  0.14808067  0.74395970  0.22040462  1
  O  O38  1  0.85191933  0.25604030  0.77959538  1
  O  O39  1  0.88300084  0.79171860  0.05406459  1
  O  O40  1  0.11699916  0.20828140  0.94593541  1
  O  O41  1  0.10332165  0.69792672  0.66050390  1
  O  O42  1  0.89667835  0.30207328  0.33949610  1
  O  O43  1  0.78081318  0.69361201  0.62428102  1
  O  O44  1  0.81123130  0.53984932  0.40459436  1
  Mo  Mo45  1  0.47388247  0.56317052  0.13101877  1
  Mo  Mo46  1  0.52611753  0.43682948  0.86898123  1
  Mo  Mo47  1  0.26713156  0.98313026  0.92149762  1
  Mo  Mo48  1  0.73286844  0.01686974  0.07850238  1
  Mo  Mo49  1  0.09346215  0.53576922  0.18131402  1
  Mo  Mo50  1  0.90653785  0.46423078  0.81868598  1
  Mo  Mo51  1  0.08315153  0.30887706  0.44815900  1
  Mo  Mo52  1  0.91684847  0.69112294  0.55184100  1
  Mo  Mo53  1  0.93252755  0.13185438  0.79660042  1
  Mo  Mo54  1  0.06747245  0.86814562  0.20339958  1
  Mo  Mo55  1  0.41643574  0.77738071  0.51949075  1
  Mo  Mo56  1  0.58356426  0.22261929  0.48050925  1
  Nd  Nd57  1  0.33249312  0.65744042  0.79747737  1
  Nd  Nd58  1  0.66750688  0.34255958  0.20252263  1
  Nd  Nd59  1  0.23292954  0.22344197  0.17445992  1
  Nd  Nd60  1  0.76707046  0.77655803  0.82554008  1
  Nd  Nd61  1  0.78270393  0.94325998  0.40922511  1
  Nd  Nd62  1  0.21729607  0.05674002  0.59077489  1
