# generated using pymatgen
data_Dy2MoO6
_symmetry_space_group_name_H-M   'P 1'
_cell_length_a   5.40324563
_cell_length_b   9.95578363
_cell_length_c   9.95578326
_cell_angle_alpha   68.03213547
_cell_angle_beta   75.00937644
_cell_angle_gamma   75.00937700
_symmetry_Int_Tables_number   1
_chemical_formula_structural   Dy2MoO6
_chemical_formula_sum   'Dy8 Mo4 O24'
_cell_volume   471.86942353
_cell_formula_units_Z   4
loop_
 _symmetry_equiv_pos_site_id
 _symmetry_equiv_pos_as_xyz
  1  'x, y, z'
loop_
 _atom_site_type_symbol
 _atom_site_label
 _atom_site_symmetry_multiplicity
 _atom_site_fract_x
 _atom_site_fract_y
 _atom_site_fract_z
 _atom_site_occupancy
  Dy  Dy0  1  0.37859067  0.21627883  0.44813596  1
  Dy  Dy1  1  0.12140933  0.55186404  0.78372117  1
  Dy  Dy2  1  0.62140933  0.78372117  0.55186404  1
  Dy  Dy3  1  0.87859067  0.44813596  0.21627883  1
  Dy  Dy4  1  0.25000000  0.13604345  0.86395655  1
  Dy  Dy5  1  0.75000000  0.86395655  0.13604345  1
  Dy  Dy6  1  0.25000000  0.60690260  0.39309740  1
  Dy  Dy7  1  0.75000000  0.39309740  0.60690260  1
  Mo  Mo8  1  0.06029207  0.01186945  0.29586862  1
  Mo  Mo9  1  0.43970793  0.70413138  0.98813055  1
  Mo  Mo10  1  0.93970793  0.98813055  0.70413138  1
  Mo  Mo11  1  0.56029207  0.29586862  0.01186945  1
  O  O12  1  0.92173089  0.57344832  0.60896525  1
  O  O13  1  0.57826911  0.39103475  0.42655168  1
  O  O14  1  0.07826911  0.42655168  0.39103475  1
  O  O15  1  0.42173089  0.60896525  0.57344832  1
  O  O16  1  0.91734445  0.80787545  0.33691469  1
  O  O17  1  0.58265555  0.66308531  0.19212455  1
  O  O18  1  0.08265555  0.19212455  0.66308531  1
  O  O19  1  0.41734445  0.33691469  0.80787545  1
  O  O20  1  0.37099459  0.88394800  0.32666971  1
  O  O21  1  0.12900541  0.67333029  0.11605200  1
  O  O22  1  0.62900541  0.11605200  0.67333029  1
  O  O23  1  0.87099459  0.32666971  0.88394800  1
  O  O24  1  0.63658261  0.28984246  0.18310592  1
  O  O25  1  0.86341739  0.81689408  0.71015754  1
  O  O26  1  0.36341739  0.71015754  0.81689408  1
  O  O27  1  0.13658261  0.18310592  0.28984246  1
  O  O28  1  0.51463580  0.10995866  0.04896562  1
  O  O29  1  0.98536420  0.95103438  0.89004134  1
  O  O30  1  0.48536420  0.89004134  0.95103438  1
  O  O31  1  0.01463580  0.04896562  0.10995866  1
  O  O32  1  0.25416060  0.43101551  0.02518627  1
  O  O33  1  0.24583940  0.97481373  0.56898449  1
  O  O34  1  0.74583940  0.56898449  0.97481373  1
  O  O35  1  0.75416060  0.02518627  0.43101551  1
