# generated using pymatgen
data_Li2FeF4
_symmetry_space_group_name_H-M   'P 1'
_cell_length_a   5.85784855
_cell_length_b   5.87828261
_cell_length_c   5.53026086
_cell_angle_alpha   92.20900198
_cell_angle_beta   88.17383298
_cell_angle_gamma   112.19280052
_symmetry_Int_Tables_number   1
_chemical_formula_structural   Li2FeF4
_chemical_formula_sum   'Li4 Fe2 F8'
_cell_volume   176.16024837
_cell_formula_units_Z   2
loop_
 _symmetry_equiv_pos_site_id
 _symmetry_equiv_pos_as_xyz
  1  'x, y, z'
loop_
 _atom_site_type_symbol
 _atom_site_label
 _atom_site_symmetry_multiplicity
 _atom_site_fract_x
 _atom_site_fract_y
 _atom_site_fract_z
 _atom_site_occupancy
  Li  Li0  1  0.01919563  0.01791282  0.00002228  1
  Li  Li1  1  0.98686870  0.99278706  0.50122222  1
  Li  Li2  1  0.23276045  0.77321459  0.81745518  1
  Li  Li3  1  0.76524837  0.22435131  0.18045951  1
  Fe  Fe4  1  0.38132021  0.61096625  0.29580829  1
  Fe  Fe5  1  0.61824126  0.38824627  0.70412414  1
  F  F6  1  0.18901295  0.80035590  0.15719346  1
  F  F7  1  0.09867044  0.28117046  0.26504359  1
  F  F8  1  0.39974548  0.60280123  0.67087472  1
  F  F9  1  0.70603789  0.89752776  0.26605943  1
  F  F10  1  0.29008818  0.10648513  0.74540044  1
  F  F11  1  0.59971095  0.39561081  0.32889161  1
  F  F12  1  0.90430358  0.71414100  0.72738325  1
  F  F13  1  0.80865492  0.19398939  0.84005988  1
