# generated using pymatgen
data_Sm2Mo4O15
_symmetry_space_group_name_H-M   'P 1'
_cell_length_a   9.52754993
_cell_length_b   11.14245477
_cell_length_c   11.70021965
_cell_angle_alpha   104.51898371
_cell_angle_beta   109.21021845
_cell_angle_gamma   108.92047929
_symmetry_Int_Tables_number   1
_chemical_formula_structural   Sm2Mo4O15
_chemical_formula_sum   'Sm6 Mo12 O45'
_cell_volume   1016.88989847
_cell_formula_units_Z   3
loop_
 _symmetry_equiv_pos_site_id
 _symmetry_equiv_pos_as_xyz
  1  'x, y, z'
loop_
 _atom_site_type_symbol
 _atom_site_label
 _atom_site_symmetry_multiplicity
 _atom_site_fract_x
 _atom_site_fract_y
 _atom_site_fract_z
 _atom_site_occupancy
  O  O0  1  0.45305977  0.42618700  0.19735847  1
  O  O1  1  0.54694023  0.57381300  0.80264153  1
  O  O2  1  0.32500720  0.60872358  0.16199860  1
  O  O3  1  0.67499280  0.39127642  0.83800140  1
  O  O4  1  0.38427134  0.14454784  0.06772003  1
  O  O5  1  0.61572866  0.85545216  0.93227997  1
  O  O6  1  0.05444568  0.91858566  0.89025834  1
  O  O7  1  0.94555432  0.08141434  0.10974166  1
  O  O8  1  0.33450524  0.85479976  0.94082886  1
  O  O9  1  0.66549476  0.14520024  0.05917114  1
  O  O10  1  0.41506477  0.55782242  0.95821237  1
  O  O11  1  0.58493523  0.44217758  0.04178763  1
  O  O12  1  0.09241936  0.50675562  0.80164059  1
  O  O13  1  0.90758064  0.49324438  0.19835941  1
  O  O14  1  0.19091688  0.46210965  0.59663612  1
  O  O15  1  0.11371663  0.38150602  0.16744194  1
  O  O16  1  0.22128126  0.30654838  0.37523490  1
  O  O17  1  0.88628337  0.61849398  0.83255806  1
  O  O18  1  0.41465572  0.16214933  0.51902695  1
  O  O19  1  0.58534428  0.83785067  0.48097305  1
  O  O20  1  0.33548284  0.28628081  0.75225916  1
  O  O21  1  0.66451716  0.71371919  0.24774084  1
  O  O22  1  0.28455395  0.01850199  0.78301601  1
  O  O23  1  0.71544605  0.98149801  0.21698399  1
  O  O24  1  0.96645003  0.84379490  0.51298969  1
  O  O25  1  0.03354997  0.15620510  0.48701031  1
  O  O26  1  0.03088722  0.93219300  0.34282334  1
  O  O27  1  0.96911278  0.06780700  0.65717666  1
  O  O28  1  0.65588365  0.09477613  0.44794344  1
  O  O29  1  0.34411635  0.90522387  0.55205656  1
  O  O30  1  0.52610246  0.26713076  0.33924861  1
  O  O31  1  0.47389754  0.73286924  0.66075139  1
  O  O32  1  0.75286691  0.37806502  0.62018496  1
  O  O33  1  0.24713309  0.62193498  0.37981504  1
  O  O34  1  0.00000000  0.50000000  0.00000000  1
  O  O35  1  0.21866731  0.01238158  0.20103778  1
  O  O36  1  0.78133269  0.98761842  0.79896222  1
  O  O37  1  0.14804838  0.74451156  0.22129340  1
  O  O38  1  0.85195162  0.25548844  0.77870660  1
  O  O39  1  0.88127299  0.79124801  0.05215286  1
  O  O40  1  0.11872701  0.20875199  0.94784714  1
  O  O41  1  0.10429400  0.69713788  0.66009713  1
  O  O42  1  0.89570600  0.30286212  0.33990287  1
  O  O43  1  0.77871874  0.69345162  0.62476510  1
  O  O44  1  0.80908312  0.53789035  0.40336388  1
  Mo  Mo45  1  0.47687217  0.56374847  0.13253635  1
  Mo  Mo46  1  0.52312783  0.43625153  0.86746365  1
  Mo  Mo47  1  0.26639251  0.98326052  0.91999442  1
  Mo  Mo48  1  0.73360749  0.01673948  0.08000558  1
  Mo  Mo49  1  0.09223396  0.53465486  0.18169401  1
  Mo  Mo50  1  0.90776604  0.46534514  0.81830599  1
  Mo  Mo51  1  0.08396557  0.30979840  0.44854929  1
  Mo  Mo52  1  0.91603443  0.69020160  0.55145071  1
  Mo  Mo53  1  0.93322527  0.13085839  0.79734382  1
  Mo  Mo54  1  0.06677473  0.86914161  0.20265618  1
  Mo  Mo55  1  0.41680319  0.77837094  0.52016134  1
  Mo  Mo56  1  0.58319681  0.22162906  0.47983866  1
  Sm  Sm57  1  0.33416391  0.65835769  0.79727318  1
  Sm  Sm58  1  0.66583609  0.34164231  0.20272682  1
  Sm  Sm59  1  0.23438997  0.22456585  0.17515075  1
  Sm  Sm60  1  0.76561003  0.77543415  0.82484925  1
  Sm  Sm61  1  0.78484516  0.94389584  0.41027946  1
  Sm  Sm62  1  0.21515484  0.05610416  0.58972054  1
