# generated using pymatgen
data_Er2FeSi4
_symmetry_space_group_name_H-M   'P 1'
_cell_length_a   3.96115155
_cell_length_b   3.99233311
_cell_length_c   8.24015493
_cell_angle_alpha   75.98070646
_cell_angle_beta   90.00000000
_cell_angle_gamma   90.00000000
_symmetry_Int_Tables_number   1
_chemical_formula_structural   Er2FeSi4
_chemical_formula_sum   'Er2 Fe1 Si4'
_cell_volume   126.43031974
_cell_formula_units_Z   1
loop_
 _symmetry_equiv_pos_site_id
 _symmetry_equiv_pos_as_xyz
  1  'x, y, z'
loop_
 _atom_site_type_symbol
 _atom_site_label
 _atom_site_symmetry_multiplicity
 _atom_site_fract_x
 _atom_site_fract_y
 _atom_site_fract_z
 _atom_site_occupancy
  Er  Er0  1  0.25000000  0.89383013  0.21233973  1
  Er  Er1  1  0.75000000  0.10996371  0.78007258  1
  Fe  Fe2  1  0.25000000  0.25053882  0.49892235  1
  Si  Si3  1  0.25000000  0.69180683  0.61638635  1
  Si  Si4  1  0.75000000  0.30767833  0.38464334  1
  Si  Si5  1  0.25000000  0.53859687  0.92280627  1
  Si  Si6  1  0.75000000  0.45758531  0.08482938  1
