# generated using pymatgen
data_SrCrO4
_symmetry_space_group_name_H-M   'P 1'
_cell_length_a   6.84166858
_cell_length_b   7.20560261
_cell_length_c   7.50389491
_cell_angle_alpha   90.00000000
_cell_angle_beta   90.00000000
_cell_angle_gamma   103.20929513
_symmetry_Int_Tables_number   1
_chemical_formula_structural   SrCrO4
_chemical_formula_sum   'Sr4 Cr4 O16'
_cell_volume   360.14194500
_cell_formula_units_Z   4
loop_
 _symmetry_equiv_pos_site_id
 _symmetry_equiv_pos_as_xyz
  1  'x, y, z'
loop_
 _atom_site_type_symbol
 _atom_site_label
 _atom_site_symmetry_multiplicity
 _atom_site_fract_x
 _atom_site_fract_y
 _atom_site_fract_z
 _atom_site_occupancy
  Sr  Sr0  1  0.89968738  0.22579856  0.65600240  1
  Sr  Sr1  1  0.60031262  0.27420144  0.15600240  1
  Sr  Sr2  1  0.10031262  0.77420144  0.34399760  1
  Sr  Sr3  1  0.39968738  0.72579856  0.84399760  1
  Cr  Cr4  1  0.38415452  0.19669162  0.66284500  1
  Cr  Cr5  1  0.11584548  0.30330838  0.16284500  1
  Cr  Cr6  1  0.61584548  0.80330838  0.33715500  1
  Cr  Cr7  1  0.88415452  0.69669162  0.83715500  1
  O  O8  1  0.28586253  0.37994017  0.71489222  1
  O  O9  1  0.21413747  0.12005983  0.21489222  1
  O  O10  1  0.71413747  0.62005983  0.28510778  1
  O  O11  1  0.78586253  0.87994017  0.78510778  1
  O  O12  1  0.55797101  0.25279662  0.50350123  1
  O  O13  1  0.94202899  0.24720338  0.00350123  1
  O  O14  1  0.44202899  0.74720338  0.49649877  1
  O  O15  1  0.05797101  0.75279662  0.99649877  1
  O  O16  1  0.19140494  0.02539429  0.59852022  1
  O  O17  1  0.30859506  0.47460571  0.09852022  1
  O  O18  1  0.80859506  0.97460571  0.40147978  1
  O  O19  1  0.69140494  0.52539429  0.90147978  1
  O  O20  1  0.49418998  0.11884216  0.83821347  1
  O  O21  1  0.00581002  0.38115784  0.33821347  1
  O  O22  1  0.50581002  0.88115784  0.16178653  1
  O  O23  1  0.99418998  0.61884216  0.66178653  1
