# generated using pymatgen
data_Mo(PO3)3
_symmetry_space_group_name_H-M   'P 1'
_cell_length_a   9.86495702
_cell_length_b   11.11545199
_cell_length_c   12.13225144
_cell_angle_alpha   113.70306710
_cell_angle_beta   110.08108805
_cell_angle_gamma   97.93116737
_symmetry_Int_Tables_number   1
_chemical_formula_structural   Mo(PO3)3
_chemical_formula_sum   'Mo6 P18 O54'
_cell_volume   1083.53969182
_cell_formula_units_Z   6
loop_
 _symmetry_equiv_pos_site_id
 _symmetry_equiv_pos_as_xyz
  1  'x, y, z'
loop_
 _atom_site_type_symbol
 _atom_site_label
 _atom_site_symmetry_multiplicity
 _atom_site_fract_x
 _atom_site_fract_y
 _atom_site_fract_z
 _atom_site_occupancy
  O  O0  1  0.96454776  0.45296293  0.45798183  1
  O  O1  1  0.50656593  0.49498110  0.54201817  1
  O  O2  1  0.89484074  0.19589882  0.03655363  1
  O  O3  1  0.85828712  0.65934519  0.96344637  1
  O  O4  1  0.19350158  0.58548353  0.67862005  1
  O  O5  1  0.51488153  0.40686348  0.32137995  1
  O  O6  1  0.45406934  0.68612288  0.69549932  1
  O  O7  1  0.75857003  0.49062356  0.30450068  1
  O  O8  1  0.13385843  0.28304689  0.01507103  1
  O  O9  1  0.11878740  0.76797586  0.98492897  1
  O  O10  1  0.14161372  0.18038460  0.79299845  1
  O  O11  1  0.34861526  0.88738615  0.20700155  1
  O  O12  1  0.18515919  0.99630947  0.62849922  1
  O  O13  1  0.55665997  0.86781025  0.37150078  1
  O  O14  1  0.45366931  0.09647016  0.65971528  1
  O  O15  1  0.79395403  0.93675487  0.34028472  1
  O  O16  1  0.68706819  0.22208993  0.87532359  1
  O  O17  1  0.81174460  0.84676634  0.12467641  1
  O  O18  1  0.59741521  0.24049048  0.15872466  1
  O  O19  1  0.43869055  0.58176582  0.84127534  1
  O  O20  1  0.35239394  0.08501580  0.87467607  1
  O  O21  1  0.47771787  0.71033972  0.12532393  1
  O  O22  1  0.63740862  0.98816654  0.16130350  1
  O  O23  1  0.47610511  0.32686304  0.83869650  1
  O  O24  1  0.19149274  0.36517019  0.50240060  1
  O  O25  1  0.68909214  0.36276959  0.49759940  1
  O  O26  1  0.40385437  0.23706987  0.38761589  1
  O  O27  1  0.01623848  0.34945398  0.61238411  1
  O  O28  1  0.15024193  0.27401841  0.22084853  1
  O  O29  1  0.92939341  0.55316988  0.77915147  1
  O  O30  1  0.12937697  0.98258501  0.17472149  1
  O  O31  1  0.95465548  0.30786352  0.82527851  1
  O  O32  1  0.21697091  0.09497633  0.48250212  1
  O  O33  1  0.73446879  0.11247421  0.51749788  1
  O  O34  1  0.92736792  0.10432082  0.28714955  1
  O  O35  1  0.64021837  0.31717127  0.71285045  1
  O  O36  1  0.01850518  0.66290672  0.42487583  1
  O  O37  1  0.59362935  0.73803089  0.57512417  1
  O  O38  1  0.28434256  0.87357618  0.46622914  1
  O  O39  1  0.81811342  0.90734704  0.53377086  1
  O  O40  1  0.31038472  0.59590688  0.44463775  1
  O  O41  1  0.86574698  0.65126913  0.55536225  1
  O  O42  1  0.03932573  0.45082276  0.16530898  1
  O  O43  1  0.87401675  0.78551378  0.83469102  1
  O  O44  1  0.00383075  0.73612344  0.21064494  1
  O  O45  1  0.79318580  0.02547850  0.78935506  1
  O  O46  1  0.30745997  0.67144702  0.23320417  1
  O  O47  1  0.07425580  0.93824285  0.76679583  1
  O  O48  1  0.50190269  0.43480103  0.12702162  1
  O  O49  1  0.37488107  0.80777941  0.87297838  1
  O  O50  1  0.71931665  0.59757974  0.07822781  1
  O  O51  1  0.64108883  0.01935193  0.92177219  1
  O  O52  1  0.23822658  0.43889280  0.93241251  1
  O  O53  1  0.30581407  0.00648029  0.06758749  1
  P  P54  1  0.94020338  0.69098074  0.88095071  1
  P  P55  1  0.05925267  0.31003003  0.11904929  1
  P  P56  1  0.27994591  0.01417311  0.54882541  1
  P  P57  1  0.73112050  0.96534769  0.45117459  1
  P  P58  1  0.09285695  0.42855794  0.56312139  1
  P  P59  1  0.52973556  0.36543655  0.43687861  1
  P  P60  1  0.46293816  0.63266049  0.55568723  1
  P  P61  1  0.90725093  0.57697326  0.44431277  1
  P  P62  1  0.74787265  0.10302598  0.89668029  1
  P  P63  1  0.85119235  0.70634568  0.10331971  1
  P  P64  1  0.37107222  0.66699667  0.78248424  1
  P  P65  1  0.58858798  0.38451243  0.21751576  1
  P  P66  1  0.11616512  0.31226591  0.89173564  1
  P  P67  1  0.22442948  0.92053027  0.10826436  1
  P  P68  1  0.19168091  0.04542591  0.77374484  1
  P  P69  1  0.41793607  0.77168107  0.22625516  1
  P  P70  1  0.56343479  0.25151035  0.77164978  1
  P  P71  1  0.79178501  0.97986057  0.22835022  1
  Mo  Mo72  1  0.48698277  0.02474153  0.01057209  1
  Mo  Mo73  1  0.47641068  0.51416944  0.98942791  1
  Mo  Mo74  1  0.83453156  0.83921975  0.67664955  1
  Mo  Mo75  1  0.15788200  0.66257020  0.32335045  1
  Mo  Mo76  1  0.82564892  0.33228144  0.65808933  1
  Mo  Mo77  1  0.16755958  0.17419211  0.34191067  1
