# generated using pymatgen
data_Ca4Bi2O
_symmetry_space_group_name_H-M   'P 1'
_cell_length_a   4.76435112
_cell_length_b   4.76435159
_cell_length_c   9.00142690
_cell_angle_alpha   105.34581296
_cell_angle_beta   105.34581489
_cell_angle_gamma   90.00000235
_symmetry_Int_Tables_number   1
_chemical_formula_structural   Ca4Bi2O
_chemical_formula_sum   'Ca4 Bi2 O1'
_cell_volume   189.47402417
_cell_formula_units_Z   1
loop_
 _symmetry_equiv_pos_site_id
 _symmetry_equiv_pos_as_xyz
  1  'x, y, z'
loop_
 _atom_site_type_symbol
 _atom_site_label
 _atom_site_symmetry_multiplicity
 _atom_site_fract_x
 _atom_site_fract_y
 _atom_site_fract_z
 _atom_site_occupancy
  Ca  Ca0  1  0.33562540  0.33562540  0.67125080  1
  Ca  Ca1  1  0.00000111  0.50000111  0.00000223  1
  Bi  Bi2  1  0.14049948  0.14049948  0.28099896  1
  Ca  Ca3  1  0.66437438  0.66437438  0.32874876  1
  Bi  Bi4  1  0.85950053  0.85950053  0.71900106  1
  Ca  Ca5  1  0.49999924  0.99999924  0.99999847  1
  O  O6  1  0.49999987  0.49999987  0.99999973  1
