# generated using pymatgen
data_Na2NiH8(SO6)2
_symmetry_space_group_name_H-M   'P 1'
_cell_length_a   5.56722169
_cell_length_b   8.25921428
_cell_length_c   11.12545074
_cell_angle_alpha   90.00000000
_cell_angle_beta   99.95645228
_cell_angle_gamma   90.00000000
_symmetry_Int_Tables_number   1
_chemical_formula_structural   Na2NiH8(SO6)2
_chemical_formula_sum   'Na4 Ni2 H16 S4 O24'
_cell_volume   503.85363611
_cell_formula_units_Z   2
loop_
 _symmetry_equiv_pos_site_id
 _symmetry_equiv_pos_as_xyz
  1  'x, y, z'
loop_
 _atom_site_type_symbol
 _atom_site_label
 _atom_site_symmetry_multiplicity
 _atom_site_fract_x
 _atom_site_fract_y
 _atom_site_fract_z
 _atom_site_occupancy
  Ni  Ni0  1  0.00000000  0.00000000  0.00000000  1
  Ni  Ni1  1  0.00000000  0.50000000  0.50000000  1
  S  S2  1  0.62365556  0.71443467  0.86358984  1
  S  S3  1  0.37634444  0.21443467  0.63641016  1
  S  S4  1  0.37634444  0.28556533  0.13641016  1
  S  S5  1  0.62365556  0.78556533  0.36358984  1
  Na  Na6  1  0.87674194  0.92891685  0.63934952  1
  Na  Na7  1  0.12325806  0.42891685  0.86065048  1
  Na  Na8  1  0.12325806  0.07108315  0.36065048  1
  Na  Na9  1  0.87674194  0.57108315  0.13934952  1
  O  O10  1  0.63725503  0.72478300  0.72975361  1
  O  O11  1  0.36274497  0.22478300  0.77024639  1
  O  O12  1  0.36274497  0.27521700  0.27024639  1
  O  O13  1  0.63725503  0.77521700  0.22975361  1
  O  O14  1  0.78685295  0.58609484  0.92243798  1
  O  O15  1  0.21314705  0.08609484  0.57756202  1
  O  O16  1  0.21314705  0.41390516  0.07756202  1
  O  O17  1  0.78685295  0.91390516  0.42243798  1
  O  O18  1  0.68474746  0.87447244  0.92338277  1
  O  O19  1  0.31525254  0.37447244  0.57661723  1
  O  O20  1  0.31525254  0.12552756  0.07661723  1
  O  O21  1  0.68474746  0.62552756  0.42338277  1
  O  O22  1  0.36242330  0.67846068  0.87381844  1
  O  O23  1  0.63757670  0.17846068  0.62618156  1
  O  O24  1  0.63757670  0.32153932  0.12618156  1
  O  O25  1  0.36242330  0.82153932  0.37381844  1
  O  O26  1  0.12665170  0.96477597  0.83853485  1
  O  O27  1  0.87334830  0.46477597  0.66146515  1
  O  O28  1  0.87334830  0.03522403  0.16146515  1
  O  O29  1  0.12665170  0.53522403  0.33853485  1
  O  O30  1  0.17265010  0.71279689  0.57867366  1
  O  O31  1  0.82734990  0.21279689  0.92132634  1
  O  O32  1  0.82734990  0.28720311  0.42132634  1
  O  O33  1  0.17265010  0.78720311  0.07867366  1
  H  H34  1  0.23444951  0.05572175  0.82111782  1
  H  H35  1  0.76555049  0.55572175  0.67888218  1
  H  H36  1  0.76555049  0.94427825  0.17888218  1
  H  H37  1  0.23444951  0.44427825  0.32111782  1
  H  H38  1  0.22703227  0.86377989  0.84721308  1
  H  H39  1  0.77296773  0.36377989  0.65278692  1
  H  H40  1  0.77296773  0.13622011  0.15278692  1
  H  H41  1  0.22703227  0.63622011  0.34721308  1
  H  H42  1  0.32165773  0.69317244  0.63996212  1
  H  H43  1  0.67834227  0.19317244  0.86003788  1
  H  H44  1  0.67834227  0.30682756  0.36003788  1
  H  H45  1  0.32165773  0.80682756  0.13996212  1
  H  H46  1  0.23580355  0.77546359  0.51490403  1
  H  H47  1  0.76419645  0.27546359  0.98509597  1
  H  H48  1  0.76419645  0.22453641  0.48509597  1
  H  H49  1  0.23580355  0.72453641  0.01490403  1
