# generated using pymatgen
data_K2CrH2Cl5O
_symmetry_space_group_name_H-M   'P 1'
_cell_length_a   7.46962900
_cell_length_b   9.38129306
_cell_length_c   13.97787425
_cell_angle_alpha   90.00000000
_cell_angle_beta   90.00000000
_cell_angle_gamma   90.00000000
_symmetry_Int_Tables_number   1
_chemical_formula_structural   K2CrH2Cl5O
_chemical_formula_sum   'K8 Cr4 H8 Cl20 O4'
_cell_volume   979.49644474
_cell_formula_units_Z   4
loop_
 _symmetry_equiv_pos_site_id
 _symmetry_equiv_pos_as_xyz
  1  'x, y, z'
loop_
 _atom_site_type_symbol
 _atom_site_label
 _atom_site_symmetry_multiplicity
 _atom_site_fract_x
 _atom_site_fract_y
 _atom_site_fract_z
 _atom_site_occupancy
  K  K0  1  0.63129324  0.00234701  0.65134086  1
  K  K1  1  0.13129324  0.99765299  0.84865914  1
  K  K2  1  0.36870676  0.50234701  0.34865914  1
  K  K3  1  0.86870676  0.49765299  0.15134086  1
  K  K4  1  0.36870676  0.99765299  0.34865914  1
  K  K5  1  0.86870676  0.00234701  0.15134086  1
  K  K6  1  0.63129324  0.49765299  0.65134086  1
  K  K7  1  0.13129324  0.50234701  0.84865914  1
  Cr  Cr8  1  0.19002341  0.75000000  0.60632892  1
  Cr  Cr9  1  0.69002341  0.25000000  0.89367108  1
  Cr  Cr10  1  0.80997659  0.25000000  0.39367108  1
  Cr  Cr11  1  0.30997659  0.75000000  0.10632892  1
  Cl  Cl12  1  0.19132801  0.00400623  0.60177390  1
  Cl  Cl13  1  0.69132801  0.99599377  0.89822610  1
  Cl  Cl14  1  0.80867199  0.50400623  0.39822610  1
  Cl  Cl15  1  0.30867199  0.49599377  0.10177390  1
  Cl  Cl16  1  0.80867199  0.99599377  0.39822610  1
  Cl  Cl17  1  0.30867199  0.00400623  0.10177390  1
  Cl  Cl18  1  0.19132801  0.49599377  0.60177390  1
  Cl  Cl19  1  0.69132801  0.50400623  0.89822610  1
  Cl  Cl20  1  0.92729610  0.75000000  0.70388900  1
  Cl  Cl21  1  0.42729610  0.25000000  0.79611100  1
  Cl  Cl22  1  0.07270390  0.25000000  0.29611100  1
  Cl  Cl23  1  0.57270390  0.75000000  0.20388900  1
  Cl  Cl24  1  0.37437807  0.75000000  0.74433444  1
  Cl  Cl25  1  0.87437807  0.25000000  0.75566556  1
  Cl  Cl26  1  0.62562193  0.25000000  0.25566556  1
  Cl  Cl27  1  0.12562193  0.75000000  0.24433444  1
  Cl  Cl28  1  0.45392981  0.75000000  0.50749365  1
  Cl  Cl29  1  0.95392981  0.25000000  0.99250635  1
  Cl  Cl30  1  0.54607019  0.25000000  0.49250635  1
  Cl  Cl31  1  0.04607019  0.75000000  0.00749365  1
  O  O32  1  0.03540398  0.75000000  0.48431916  1
  O  O33  1  0.53540398  0.25000000  0.01568084  1
  O  O34  1  0.96459602  0.25000000  0.51568084  1
  O  O35  1  0.46459602  0.75000000  0.98431916  1
  H  H36  1  0.96522226  0.83526868  0.46567680  1
  H  H37  1  0.46522226  0.16473132  0.03432320  1
  H  H38  1  0.03477774  0.33526868  0.53432320  1
  H  H39  1  0.53477774  0.66473132  0.96567680  1
  H  H40  1  0.03477774  0.16473132  0.53432320  1
  H  H41  1  0.53477774  0.83526868  0.96567680  1
  H  H42  1  0.96522226  0.66473132  0.46567680  1
  H  H43  1  0.46522226  0.33526868  0.03432320  1
