# generated using pymatgen
data_LiCoOF2
_symmetry_space_group_name_H-M   'P 1'
_cell_length_a   5.16181417
_cell_length_b   9.84681072
_cell_length_c   5.08302417
_cell_angle_alpha   105.34123684
_cell_angle_beta   60.32980510
_cell_angle_gamma   90.75988402
_symmetry_Int_Tables_number   1
_chemical_formula_structural   LiCoOF2
_chemical_formula_sum   'Li4 Co4 O4 F8'
_cell_volume   214.33823503
_cell_formula_units_Z   4
loop_
 _symmetry_equiv_pos_site_id
 _symmetry_equiv_pos_as_xyz
  1  'x, y, z'
loop_
 _atom_site_type_symbol
 _atom_site_label
 _atom_site_symmetry_multiplicity
 _atom_site_fract_x
 _atom_site_fract_y
 _atom_site_fract_z
 _atom_site_occupancy
  Li  Li0  1  0.05397495  0.79043890  0.86854573  1
  Li  Li1  1  0.44602505  0.70956110  0.13145427  1
  Li  Li2  1  0.57501344  0.29094594  0.86724704  1
  Li  Li3  1  0.92498656  0.20905406  0.13275296  1
  Co  Co4  1  0.36360845  0.02265146  0.31879442  1
  Co  Co5  1  0.13639155  0.47734854  0.68120558  1
  Co  Co6  1  0.82131557  0.52250233  0.36560561  1
  Co  Co7  1  0.67868443  0.97749767  0.63439439  1
  O  O8  1  0.60820924  0.10978055  0.04427781  1
  O  O9  1  0.66540789  0.88524784  0.28976856  1
  O  O10  1  0.83459211  0.61475216  0.71023144  1
  O  O11  1  0.89179076  0.39021945  0.95572219  1
  F  F12  1  0.12198292  0.62740327  0.06102486  1
  F  F13  1  0.18872170  0.37469142  0.25991975  1
  F  F14  1  0.06281859  0.88564491  0.55823657  1
  F  F15  1  0.43718141  0.61435509  0.44176343  1
  F  F16  1  0.31127830  0.12530858  0.74008025  1
  F  F17  1  0.55003342  0.37866724  0.56169427  1
  F  F18  1  0.37801708  0.87259673  0.93897514  1
  F  F19  1  0.94996658  0.12133276  0.43830573  1
