# generated using pymatgen
data_Fe7(AsO4)6
_symmetry_space_group_name_H-M   'P 1'
_cell_length_a   6.69731653
_cell_length_b   8.23442879
_cell_length_c   9.83169522
_cell_angle_alpha   104.84280246
_cell_angle_beta   107.78626566
_cell_angle_gamma   101.82935187
_symmetry_Int_Tables_number   1
_chemical_formula_structural   Fe7(AsO4)6
_chemical_formula_sum   'Fe7 As6 O24'
_cell_volume   474.84237761
_cell_formula_units_Z   1
loop_
 _symmetry_equiv_pos_site_id
 _symmetry_equiv_pos_as_xyz
  1  'x, y, z'
loop_
 _atom_site_type_symbol
 _atom_site_label
 _atom_site_symmetry_multiplicity
 _atom_site_fract_x
 _atom_site_fract_y
 _atom_site_fract_z
 _atom_site_occupancy
  Fe  Fe0  1  0.04586750  0.21876842  0.02442920  1
  Fe  Fe1  1  0.95413250  0.78123158  0.97557080  1
  Fe  Fe2  1  0.27995503  0.30404117  0.78918438  1
  Fe  Fe3  1  0.72004497  0.69595883  0.21081562  1
  Fe  Fe4  1  0.62049639  0.04608717  0.38954050  1
  Fe  Fe5  1  0.37950361  0.95391283  0.61045950  1
  Fe  Fe6  1  0.00000000  0.50000000  0.50000000  1
  As  As7  1  0.09947894  0.09947123  0.33437883  1
  As  As8  1  0.90052106  0.90052877  0.66562117  1
  As  As9  1  0.22771384  0.65143427  0.26940402  1
  As  As10  1  0.77228616  0.34856573  0.73059598  1
  As  As11  1  0.60462428  0.26803930  0.12888904  1
  As  As12  1  0.39537572  0.73196070  0.87111096  1
  O  O13  1  0.00633771  0.69589334  0.15454455  1
  O  O14  1  0.99366229  0.30410666  0.84545545  1
  O  O15  1  0.06894702  0.04865131  0.14474185  1
  O  O16  1  0.93105298  0.95134869  0.85525815  1
  O  O17  1  0.12895719  0.03476589  0.65522491  1
  O  O18  1  0.87104281  0.96523411  0.34477509  1
  O  O19  1  0.13741680  0.31103324  0.42702642  1
  O  O20  1  0.86258320  0.68896676  0.57297358  1
  O  O21  1  0.21160441  0.43742354  0.19754851  1
  O  O22  1  0.78839559  0.56257646  0.80245149  1
  O  O23  1  0.22138105  0.70241618  0.45106680  1
  O  O24  1  0.77861895  0.29758382  0.54893320  1
  O  O25  1  0.32337720  0.03216759  0.41786911  1
  O  O26  1  0.67662280  0.96783241  0.58213089  1
  O  O27  1  0.52581757  0.22417066  0.72360482  1
  O  O28  1  0.47418243  0.77582934  0.27639518  1
  O  O29  1  0.55481976  0.12502852  0.22113033  1
  O  O30  1  0.44518024  0.87497148  0.77886967  1
  O  O31  1  0.64549317  0.74454226  0.00195648  1
  O  O32  1  0.35450683  0.25545774  0.99804352  1
  O  O33  1  0.73810036  0.47601796  0.26430210  1
  O  O34  1  0.26189964  0.52398204  0.73569790  1
  O  O35  1  0.75723680  0.21403635  0.02466369  1
  O  O36  1  0.24276320  0.78596365  0.97533631  1
