# generated using pymatgen
data_KMnP3HO10
_symmetry_space_group_name_H-M   'P 1'
_cell_length_a   7.45295982
_cell_length_b   7.45295926
_cell_length_c   9.39454774
_cell_angle_alpha   73.28671798
_cell_angle_beta   73.28671930
_cell_angle_gamma   68.12427754
_symmetry_Int_Tables_number   1
_chemical_formula_structural   KMnP3HO10
_chemical_formula_sum   'K2 Mn2 P6 H2 O20'
_cell_volume   454.14531181
_cell_formula_units_Z   2
loop_
 _symmetry_equiv_pos_site_id
 _symmetry_equiv_pos_as_xyz
  1  'x, y, z'
loop_
 _atom_site_type_symbol
 _atom_site_label
 _atom_site_symmetry_multiplicity
 _atom_site_fract_x
 _atom_site_fract_y
 _atom_site_fract_z
 _atom_site_occupancy
  Mn  Mn0  1  0.00000000  0.50000000  0.50000000  1
  Mn  Mn1  1  0.50000000  0.00000000  0.00000000  1
  P  P2  1  0.72653099  0.85875137  0.29487511  1
  P  P3  1  0.14124863  0.27346901  0.20512489  1
  P  P4  1  0.27346901  0.14124863  0.70512489  1
  P  P5  1  0.85875137  0.72653099  0.79487511  1
  P  P6  1  0.12907831  0.87092169  0.25000000  1
  P  P7  1  0.87092169  0.12907831  0.75000000  1
  K  K8  1  0.55731013  0.44268987  0.25000000  1
  K  K9  1  0.44268987  0.55731013  0.75000000  1
  O  O10  1  0.84780373  0.62771321  0.67857544  1
  O  O11  1  0.37228679  0.15219627  0.82142456  1
  O  O12  1  0.15219627  0.37228679  0.32142456  1
  O  O13  1  0.62771321  0.84780373  0.17857544  1
  O  O14  1  0.77828355  0.65333266  0.40031393  1
  O  O15  1  0.34666734  0.22171645  0.09968607  1
  O  O16  1  0.22171645  0.34666734  0.59968607  1
  O  O17  1  0.65333266  0.77828355  0.90031393  1
  O  O18  1  0.15445064  0.71090048  0.39008188  1
  O  O19  1  0.28909952  0.84554936  0.10991812  1
  O  O20  1  0.84554936  0.28909952  0.60991812  1
  O  O21  1  0.71090048  0.15445064  0.89008188  1
  O  O22  1  0.09410715  0.07200748  0.30071961  1
  O  O23  1  0.92799252  0.90589285  0.19928039  1
  O  O24  1  0.90589285  0.92799252  0.69928039  1
  O  O25  1  0.07200748  0.09410715  0.80071961  1
  O  O26  1  0.61257145  0.02802435  0.38077835  1
  O  O27  1  0.97197565  0.38742855  0.11922165  1
  O  O28  1  0.38742855  0.97197565  0.61922165  1
  O  O29  1  0.02802435  0.61257145  0.88077835  1
  H  H30  1  0.50000000  0.00000000  0.50000000  1
  H  H31  1  0.00000000  0.50000000  0.00000000  1
