# generated using pymatgen
data_Fe2PH2CO7
_symmetry_space_group_name_H-M   'P 1'
_cell_length_a   4.90288614
_cell_length_b   8.12545086
_cell_length_c   14.31421115
_cell_angle_alpha   95.08779811
_cell_angle_beta   90.00000000
_cell_angle_gamma   90.00000000
_symmetry_Int_Tables_number   1
_chemical_formula_structural   Fe2PH2CO7
_chemical_formula_sum   'Fe8 P4 H8 C4 O28'
_cell_volume   568.00503330
_cell_formula_units_Z   4
loop_
 _symmetry_equiv_pos_site_id
 _symmetry_equiv_pos_as_xyz
  1  'x, y, z'
loop_
 _atom_site_type_symbol
 _atom_site_label
 _atom_site_symmetry_multiplicity
 _atom_site_fract_x
 _atom_site_fract_y
 _atom_site_fract_z
 _atom_site_occupancy
  Fe  Fe0  1  0.04105415  0.79309743  0.85939211  1
  Fe  Fe1  1  0.54105415  0.70690257  0.64060789  1
  Fe  Fe2  1  0.95894585  0.20690257  0.14060789  1
  Fe  Fe3  1  0.45894585  0.29309743  0.35939211  1
  Fe  Fe4  1  0.53258377  0.41059414  0.80403114  1
  Fe  Fe5  1  0.03258377  0.08940586  0.69596886  1
  Fe  Fe6  1  0.46741623  0.58940586  0.19596886  1
  Fe  Fe7  1  0.96741623  0.91059414  0.30403114  1
  P  P8  1  0.97914120  0.49911665  0.69221678  1
  P  P9  1  0.47914120  1.00088335  0.80778322  1
  P  P10  1  0.02085880  0.50088335  0.30778322  1
  P  P11  1  0.52085880  -0.00088335  0.19221678  1
  O  O12  1  0.35855501  0.95466630  0.90155246  1
  O  O13  1  0.85855501  0.54533370  0.59844754  1
  O  O14  1  0.64144499  0.04533370  0.09844754  1
  O  O15  1  0.14144499  0.45466630  0.40155246  1
  O  O16  1  0.79399131  0.98978108  0.80423755  1
  O  O17  1  0.29399131  0.51021892  0.69576245  1
  O  O18  1  0.20600869  0.01021892  0.19576245  1
  O  O19  1  0.70600869  0.48978108  0.30423755  1
  O  O20  1  0.85008571  0.78587961  0.98913504  1
  O  O21  1  0.35008571  0.71412039  0.51086496  1
  O  O22  1  0.14991429  0.21412039  0.01086496  1
  O  O23  1  0.64991429  0.28587961  0.48913504  1
  O  O24  1  0.84101907  0.62129913  0.77059102  1
  O  O25  1  0.34101907  0.87870087  0.72940898  1
  O  O26  1  0.15898093  0.37870087  0.22940898  1
  O  O27  1  0.65898093  0.12129913  0.27059102  1
  O  O28  1  0.31691152  0.57463334  0.90625897  1
  O  O29  1  0.81691152  0.92536666  0.59374103  1
  O  O30  1  0.68308848  0.42536666  0.09374103  1
  O  O31  1  0.18308848  0.07463334  0.40625897  1
  O  O32  1  0.87707060  0.32571816  0.71608667  1
  O  O33  1  0.37707060  0.17428184  0.78391333  1
  O  O34  1  0.12292940  0.67428184  0.28391333  1
  O  O35  1  0.62292940  0.82571816  0.21608667  1
  O  O36  1  0.72904074  0.36741524  0.93681397  1
  O  O37  1  0.22904074  0.13258476  0.56318603  1
  O  O38  1  0.27095926  0.63258476  0.06318603  1
  O  O39  1  0.77095926  0.86741524  0.43681397  1
  C  C40  1  0.61754583  0.44008118  0.00846064  1
  C  C41  1  0.11754583  0.05991882  0.49153936  1
  C  C42  1  0.38245417  0.55991882  0.99153936  1
  C  C43  1  0.88245417  0.94008118  0.50846064  1
  H  H44  1  0.75558831  0.88346789  0.02199743  1
  H  H45  1  0.25558831  0.61653211  0.47800257  1
  H  H46  1  0.24441169  0.11653211  0.97800257  1
  H  H47  1  0.74441169  0.38346789  0.52199743  1
  H  H48  1  0.98800550  0.74559042  0.03245610  1
  H  H49  1  0.48800550  0.75440958  0.46754390  1
  H  H50  1  0.01199450  0.25440958  0.96754390  1
  H  H51  1  0.51199450  0.24559042  0.53245610  1
