# generated using pymatgen
data_Gd3CuSnS7
_symmetry_space_group_name_H-M   'P 1'
_cell_length_a   9.89389868
_cell_length_b   9.89389835
_cell_length_c   6.22647852
_cell_angle_alpha   90.00000000
_cell_angle_beta   90.00000000
_cell_angle_gamma   120.00000108
_symmetry_Int_Tables_number   1
_chemical_formula_structural   Gd3CuSnS7
_chemical_formula_sum   'Gd6 Cu2 Sn2 S14'
_cell_volume   527.84695900
_cell_formula_units_Z   2
loop_
 _symmetry_equiv_pos_site_id
 _symmetry_equiv_pos_as_xyz
  1  'x, y, z'
loop_
 _atom_site_type_symbol
 _atom_site_label
 _atom_site_symmetry_multiplicity
 _atom_site_fract_x
 _atom_site_fract_y
 _atom_site_fract_z
 _atom_site_occupancy
  Gd  Gd0  1  0.64137570  0.85863090  0.76757080  1
  Gd  Gd1  1  0.35862430  0.14136910  0.26757080  1
  Gd  Gd2  1  0.21725520  0.35862430  0.76757080  1
  Gd  Gd3  1  0.78274480  0.64137570  0.26757080  1
  Gd  Gd4  1  0.85863090  0.21725520  0.26757080  1
  Gd  Gd5  1  0.14136910  0.78274480  0.76757080  1
  Cu  Cu6  1  0.00000000  0.00000000  0.16738790  1
  Cu  Cu7  1  0.00000000  0.00000000  0.66738790  1
  Sn  Sn8  1  0.66666700  0.33333300  0.83397964  1
  Sn  Sn9  1  0.33333300  0.66666700  0.33397964  1
  S  S10  1  0.48395687  0.56849233  0.51356429  1
  S  S11  1  0.08453546  0.51604313  0.51356429  1
  S  S12  1  0.91546454  0.48395687  0.01356429  1
  S  S13  1  0.66666700  0.33333300  0.44939187  1
  S  S14  1  0.89299794  0.15153149  0.69671177  1
  S  S15  1  0.56849233  0.08453546  0.01356429  1
  S  S16  1  0.33333300  0.66666700  0.94939187  1
  S  S17  1  0.43150767  0.91546454  0.51356429  1
  S  S18  1  0.25853355  0.10700206  0.69671177  1
  S  S19  1  0.15153149  0.25853355  0.19671177  1
  S  S20  1  0.74146645  0.89299794  0.19671177  1
  S  S21  1  0.51604313  0.43150767  0.01356429  1
  S  S22  1  0.10700206  0.84846851  0.19671177  1
  S  S23  1  0.84846851  0.74146645  0.69671177  1
