# generated using pymatgen
data_LiMnGaF6
_symmetry_space_group_name_H-M   'P 1'
_cell_length_a   8.81769767
_cell_length_b   8.81769772
_cell_length_c   4.79596425
_cell_angle_alpha   90.00000000
_cell_angle_beta   90.00000000
_cell_angle_gamma   120.00000361
_symmetry_Int_Tables_number   1
_chemical_formula_structural   LiMnGaF6
_chemical_formula_sum   'Li3 Mn3 Ga3 F18'
_cell_volume   322.93637345
_cell_formula_units_Z   3
loop_
 _symmetry_equiv_pos_site_id
 _symmetry_equiv_pos_as_xyz
  1  'x, y, z'
loop_
 _atom_site_type_symbol
 _atom_site_label
 _atom_site_symmetry_multiplicity
 _atom_site_fract_x
 _atom_site_fract_y
 _atom_site_fract_z
 _atom_site_occupancy
  Li  Li0  1  0.29841714  0.00000000  0.50000000  1
  Li  Li1  1  0.00000000  0.29841714  0.50000000  1
  Li  Li2  1  0.70158286  0.70158286  0.50000000  1
  Mn  Mn3  1  0.63942451  0.00000000  0.00000000  1
  Mn  Mn4  1  0.00000000  0.63942451  0.00000000  1
  Mn  Mn5  1  0.36057549  0.36057549  0.00000000  1
  Ga  Ga6  1  0.00000000  0.00000000  0.00000000  1
  Ga  Ga7  1  0.33333300  0.66666700  0.50306269  1
  Ga  Ga8  1  0.66666700  0.33333300  0.49693731  1
  F  F9  1  0.09901514  0.88885595  0.77788815  1
  F  F10  1  0.11114405  0.21015919  0.77788815  1
  F  F11  1  0.78984081  0.90098486  0.77788815  1
  F  F12  1  0.21015919  0.11114405  0.22211185  1
  F  F13  1  0.90098486  0.78984081  0.22211185  1
  F  F14  1  0.88885595  0.09901514  0.22211185  1
  F  F15  1  0.45346758  0.57901352  0.72885591  1
  F  F16  1  0.42098648  0.87445406  0.72885591  1
  F  F17  1  0.12554594  0.54653242  0.72885591  1
  F  F18  1  0.87445406  0.42098648  0.27114409  1
  F  F19  1  0.54653242  0.12554594  0.27114409  1
  F  F20  1  0.57901352  0.45346758  0.27114409  1
  F  F21  1  0.22359865  0.76707986  0.28190417  1
  F  F22  1  0.23292014  0.45651878  0.28190417  1
  F  F23  1  0.54348122  0.77640135  0.28190417  1
  F  F24  1  0.45651878  0.23292014  0.71809583  1
  F  F25  1  0.77640135  0.54348122  0.71809583  1
  F  F26  1  0.76707986  0.22359865  0.71809583  1
