# generated using pymatgen
data_CaCrF5
_symmetry_space_group_name_H-M   'P 1'
_cell_length_a   5.61430657
_cell_length_b   5.61430657
_cell_length_c   7.67691667
_cell_angle_alpha   69.92362510
_cell_angle_beta   69.92362510
_cell_angle_gamma   71.71564199
_symmetry_Int_Tables_number   1
_chemical_formula_structural   CaCrF5
_chemical_formula_sum   'Ca2 Cr2 F10'
_cell_volume   208.13603817
_cell_formula_units_Z   2
loop_
 _symmetry_equiv_pos_site_id
 _symmetry_equiv_pos_as_xyz
  1  'x, y, z'
loop_
 _atom_site_type_symbol
 _atom_site_label
 _atom_site_symmetry_multiplicity
 _atom_site_fract_x
 _atom_site_fract_y
 _atom_site_fract_z
 _atom_site_occupancy
  F  F0  1  0.78967567  0.74793492  0.61933374  1
  F  F1  1  0.25206508  0.21032433  0.88066626  1
  F  F2  1  0.21032433  0.25206508  0.38066626  1
  F  F3  1  0.74793492  0.78967567  0.11933374  1
  F  F4  1  0.92305077  0.07694923  0.75000000  1
  F  F5  1  0.07694923  0.92305077  0.25000000  1
  F  F6  1  0.71752065  0.30527095  0.02857961  1
  F  F7  1  0.69472905  0.28247935  0.47142039  1
  F  F8  1  0.28247935  0.69472905  0.97142039  1
  F  F9  1  0.30527095  0.71752065  0.52857961  1
  Ca  Ca10  1  0.54191418  0.45808582  0.75000000  1
  Ca  Ca11  1  0.45808582  0.54191418  0.25000000  1
  Cr  Cr12  1  0.00000000  0.00000000  0.00000000  1
  Cr  Cr13  1  0.00000000  0.00000000  0.50000000  1
