# generated using pymatgen
data_Sm3CuGeS7
_symmetry_space_group_name_H-M   'P 1'
_cell_length_a   10.07127054
_cell_length_b   10.07127072
_cell_length_c   5.87278713
_cell_angle_alpha   90.00000000
_cell_angle_beta   90.00000000
_cell_angle_gamma   119.99999942
_symmetry_Int_Tables_number   1
_chemical_formula_structural   Sm3CuGeS7
_chemical_formula_sum   'Sm6 Cu2 Ge2 S14'
_cell_volume   515.87374570
_cell_formula_units_Z   2
loop_
 _symmetry_equiv_pos_site_id
 _symmetry_equiv_pos_as_xyz
  1  'x, y, z'
loop_
 _atom_site_type_symbol
 _atom_site_label
 _atom_site_symmetry_multiplicity
 _atom_site_fract_x
 _atom_site_fract_y
 _atom_site_fract_z
 _atom_site_occupancy
  Sm  Sm0  1  0.12948904  0.77290797  0.74602071  1
  Sm  Sm1  1  0.35658107  0.12948904  0.24602071  1
  Sm  Sm2  1  0.87051096  0.22709203  0.24602071  1
  Sm  Sm3  1  0.22709203  0.35658107  0.74602071  1
  Sm  Sm4  1  0.64341893  0.87051096  0.74602071  1
  Sm  Sm5  1  0.77290797  0.64341893  0.24602071  1
  Cu  Cu6  1  0.00000000  0.00000000  0.69064204  1
  Cu  Cu7  1  0.00000000  0.00000000  0.19064204  1
  Ge  Ge8  1  0.66666700  0.33333300  0.82991371  1
  Ge  Ge9  1  0.33333300  0.66666700  0.32991371  1
  S  S10  1  0.58225028  0.10169527  0.98769204  1
  S  S11  1  0.33333300  0.66666700  0.95457611  1
  S  S12  1  0.09447496  0.83922757  0.21394330  1
  S  S13  1  0.16077243  0.25524739  0.21394330  1
  S  S14  1  0.66666700  0.33333300  0.45457611  1
  S  S15  1  0.83922757  0.74475261  0.71394330  1
  S  S16  1  0.25524739  0.09447496  0.71394330  1
  S  S17  1  0.90552504  0.16077243  0.71394330  1
  S  S18  1  0.74475261  0.90552504  0.21394330  1
  S  S19  1  0.41774972  0.89830473  0.48769204  1
  S  S20  1  0.48055501  0.58225028  0.48769204  1
  S  S21  1  0.51944499  0.41774972  0.98769204  1
  S  S22  1  0.89830473  0.48055501  0.98769204  1
  S  S23  1  0.10169527  0.51944499  0.48769204  1
