# generated using pymatgen
data_CaTa2Bi2O9
_symmetry_space_group_name_H-M   'P 1'
_cell_length_a   5.49404279
_cell_length_b   5.55636187
_cell_length_c   12.97167904
_cell_angle_alpha   90.00000000
_cell_angle_beta   102.22614134
_cell_angle_gamma   90.00000000
_symmetry_Int_Tables_number   1
_chemical_formula_structural   CaTa2Bi2O9
_chemical_formula_sum   'Ca2 Ta4 Bi4 O18'
_cell_volume   387.00382990
_cell_formula_units_Z   2
loop_
 _symmetry_equiv_pos_site_id
 _symmetry_equiv_pos_as_xyz
  1  'x, y, z'
loop_
 _atom_site_type_symbol
 _atom_site_label
 _atom_site_symmetry_multiplicity
 _atom_site_fract_x
 _atom_site_fract_y
 _atom_site_fract_z
 _atom_site_occupancy
  Ca  Ca0  1  0.75542963  0.50069460  1.00000000  1
  Ca  Ca1  1  0.24457037  0.00069460  0.00000000  1
  Ta  Ta2  1  0.82899858  0.96569177  0.16220097  1
  Ta  Ta3  1  0.17100142  0.46569177  0.83779903  1
  Ta  Ta4  1  0.33320239  0.46569177  0.16220097  1
  Ta  Ta5  1  0.66679761  0.96569177  0.83779903  1
  Bi  Bi6  1  0.01858663  0.04278914  0.60153712  1
  Bi  Bi7  1  0.41704851  0.04278914  0.39846288  1
  Bi  Bi8  1  0.58295149  0.54278914  0.60153712  1
  Bi  Bi9  1  0.98141337  0.54278914  0.39846288  1
  O  O10  1  0.67870337  0.94817276  0.69288809  1
  O  O11  1  0.53875382  0.15530919  0.17182691  1
  O  O12  1  0.67224219  0.92726581  0.00000000  1
  O  O13  1  0.32775781  0.42726581  1.00000000  1
  O  O14  1  0.36692591  0.15530919  0.82817309  1
  O  O15  1  0.26327539  0.76707495  0.50092845  1
  O  O16  1  0.01418471  0.44817276  0.69288809  1
  O  O17  1  0.97482842  0.73203348  0.87766357  1
  O  O18  1  0.09716486  0.73203348  0.12233643  1
  O  O19  1  0.63307409  0.65530919  0.17182691  1
  O  O20  1  0.32129663  0.44817276  0.30711191  1
  O  O21  1  0.02517158  0.23203348  0.12233643  1
  O  O22  1  0.73672461  0.26707495  0.49907155  1
  O  O23  1  0.46124618  0.65530919  0.82817309  1
  O  O24  1  0.23765306  0.26707495  0.50092845  1
  O  O25  1  0.90283514  0.23203348  0.87766357  1
  O  O26  1  0.98581529  0.94817276  0.30711191  1
  O  O27  1  0.76234694  0.76707495  0.49907155  1
