# generated using pymatgen
data_Na2FeO4
_symmetry_space_group_name_H-M   'P 1'
_cell_length_a   5.51133221
_cell_length_b   6.13780667
_cell_length_c   8.66211957
_cell_angle_alpha   82.55598603
_cell_angle_beta   74.96700131
_cell_angle_gamma   58.67047221
_symmetry_Int_Tables_number   1
_chemical_formula_structural   Na2FeO4
_chemical_formula_sum   'Na4 Fe2 O8'
_cell_volume   241.72225739
_cell_formula_units_Z   2
loop_
 _symmetry_equiv_pos_site_id
 _symmetry_equiv_pos_as_xyz
  1  'x, y, z'
loop_
 _atom_site_type_symbol
 _atom_site_label
 _atom_site_symmetry_multiplicity
 _atom_site_fract_x
 _atom_site_fract_y
 _atom_site_fract_z
 _atom_site_occupancy
  Na  Na0  1  0.30914527  0.27393117  0.64615586  1
  Na  Na1  1  0.02366685  0.75569074  0.92853036  1
  Na  Na2  1  0.97633315  0.24430926  0.07146964  1
  Na  Na3  1  0.69085473  0.72606883  0.35384414  1
  Fe  Fe4  1  0.40633369  0.29617533  0.24459084  1
  Fe  Fe5  1  0.59366631  0.70382467  0.75540916  1
  O  O6  1  0.13614778  0.48974935  0.15285212  1
  O  O7  1  0.27725124  0.17184768  0.40196896  1
  O  O8  1  0.67451011  0.05402556  0.12530733  1
  O  O9  1  0.54980973  0.44705834  0.29644585  1
  O  O10  1  0.45019027  0.55294166  0.70355415  1
  O  O11  1  0.32548989  0.94597444  0.87469267  1
  O  O12  1  0.72274876  0.82815232  0.59803104  1
  O  O13  1  0.86385222  0.51025065  0.84714788  1
