# generated using pymatgen
data_Y3CuGeS7
_symmetry_space_group_name_H-M   'P 1'
_cell_length_a   9.89241378
_cell_length_b   9.89241391
_cell_length_c   5.82526589
_cell_angle_alpha   90.00000000
_cell_angle_beta   90.00000000
_cell_angle_gamma   119.99999953
_symmetry_Int_Tables_number   1
_chemical_formula_structural   Y3CuGeS7
_chemical_formula_sum   'Y6 Cu2 Ge2 S14'
_cell_volume   493.68614631
_cell_formula_units_Z   2
loop_
 _symmetry_equiv_pos_site_id
 _symmetry_equiv_pos_as_xyz
  1  'x, y, z'
loop_
 _atom_site_type_symbol
 _atom_site_label
 _atom_site_symmetry_multiplicity
 _atom_site_fract_x
 _atom_site_fract_y
 _atom_site_fract_z
 _atom_site_occupancy
  Y  Y0  1  0.13379613  0.77633512  0.75138464  1
  Y  Y1  1  0.77633512  0.64253900  0.25138464  1
  Y  Y2  1  0.35746100  0.13379613  0.25138464  1
  Y  Y3  1  0.64253900  0.86620387  0.75138464  1
  Y  Y4  1  0.86620387  0.22366488  0.25138464  1
  Y  Y5  1  0.22366488  0.35746100  0.75138464  1
  Cu  Cu6  1  0.00000000  0.00000000  0.19306194  1
  Cu  Cu7  1  0.00000000  0.00000000  0.69306194  1
  Ge  Ge8  1  0.66666700  0.33333300  0.83262332  1
  Ge  Ge9  1  0.33333300  0.66666700  0.33262332  1
  S  S10  1  0.47985238  0.57779302  0.49401740  1
  S  S11  1  0.90205936  0.47985238  0.99401740  1
  S  S12  1  0.90035164  0.15953573  0.71534857  1
  S  S13  1  0.09964836  0.84046427  0.21534857  1
  S  S14  1  0.09794064  0.52014762  0.49401740  1
  S  S15  1  0.33333300  0.66666700  0.95366292  1
  S  S16  1  0.74081591  0.90035164  0.21534857  1
  S  S17  1  0.66666700  0.33333300  0.45366292  1
  S  S18  1  0.57779302  0.09794064  0.99401740  1
  S  S19  1  0.25918409  0.09964836  0.71534857  1
  S  S20  1  0.15953573  0.25918409  0.21534857  1
  S  S21  1  0.42220698  0.90205936  0.49401740  1
  S  S22  1  0.84046427  0.74081591  0.71534857  1
  S  S23  1  0.52014762  0.42220698  0.99401740  1
