# generated using pymatgen
data_Cs2MoS4
_symmetry_space_group_name_H-M   'P 1'
_cell_length_a   7.39571061
_cell_length_b   10.32629955
_cell_length_c   13.14450649
_cell_angle_alpha   90.00000000
_cell_angle_beta   90.00000000
_cell_angle_gamma   90.00000000
_symmetry_Int_Tables_number   1
_chemical_formula_structural   Cs2MoS4
_chemical_formula_sum   'Cs8 Mo4 S16'
_cell_volume   1003.85020821
_cell_formula_units_Z   4
loop_
 _symmetry_equiv_pos_site_id
 _symmetry_equiv_pos_as_xyz
  1  'x, y, z'
loop_
 _atom_site_type_symbol
 _atom_site_label
 _atom_site_symmetry_multiplicity
 _atom_site_fract_x
 _atom_site_fract_y
 _atom_site_fract_z
 _atom_site_occupancy
  Cs  Cs0  1  0.75000000  0.34385714  0.10126822  1
  Cs  Cs1  1  0.25000000  0.15614286  0.60126822  1
  Cs  Cs2  1  0.25000000  0.96616543  0.16891850  1
  Cs  Cs3  1  0.75000000  0.84385714  0.39873178  1
  Cs  Cs4  1  0.75000000  0.53383457  0.66891850  1
  Cs  Cs5  1  0.25000000  0.65614286  0.89873178  1
  Cs  Cs6  1  0.25000000  0.46616543  0.33108150  1
  Cs  Cs7  1  0.75000000  0.03383457  0.83108150  1
  Mo  Mo8  1  0.75000000  0.75268508  0.07892213  1
  Mo  Mo9  1  0.25000000  0.74731492  0.57892213  1
  Mo  Mo10  1  0.25000000  0.24731492  0.92107787  1
  Mo  Mo11  1  0.75000000  0.25268508  0.42107787  1
  S  S12  1  0.99212025  0.16682264  0.35120603  1
  S  S13  1  0.00787975  0.83317736  0.64879397  1
  S  S14  1  0.75000000  0.46396890  0.39573669  1
  S  S15  1  0.00787975  0.33317736  0.85120603  1
  S  S16  1  0.75000000  0.70911425  0.91470974  1
  S  S17  1  0.25000000  0.29088575  0.08529026  1
  S  S18  1  0.25000000  0.79088575  0.41470974  1
  S  S19  1  0.99212025  0.66682264  0.14879397  1
  S  S20  1  0.49212025  0.83317736  0.64879397  1
  S  S21  1  0.25000000  0.53603110  0.60426331  1
  S  S22  1  0.75000000  0.96396890  0.10426331  1
  S  S23  1  0.50787975  0.16682264  0.35120603  1
  S  S24  1  0.75000000  0.20911425  0.58529026  1
  S  S25  1  0.50787975  0.66682264  0.14879397  1
  S  S26  1  0.49212025  0.33317736  0.85120603  1
  S  S27  1  0.25000000  0.03603110  0.89573669  1
