# generated using pymatgen
data_Ba2Ni7F18
_symmetry_space_group_name_H-M   'P 1'
_cell_length_a   7.00401909
_cell_length_b   7.31191708
_cell_length_c   7.55517216
_cell_angle_alpha   94.43935846
_cell_angle_beta   93.10269289
_cell_angle_gamma   115.76651249
_symmetry_Int_Tables_number   1
_chemical_formula_structural   Ba2Ni7F18
_chemical_formula_sum   'Ba2 Ni7 F18'
_cell_volume   345.74172220
_cell_formula_units_Z   1
loop_
 _symmetry_equiv_pos_site_id
 _symmetry_equiv_pos_as_xyz
  1  'x, y, z'
loop_
 _atom_site_type_symbol
 _atom_site_label
 _atom_site_symmetry_multiplicity
 _atom_site_fract_x
 _atom_site_fract_y
 _atom_site_fract_z
 _atom_site_occupancy
  F  F0  1  0.31901518  0.51234441  0.97373694  1
  F  F1  1  0.68098482  0.48765559  0.02626306  1
  F  F2  1  0.50442971  0.07803127  0.81746420  1
  F  F3  1  0.49557029  0.92196873  0.18253580  1
  F  F4  1  0.90027874  0.39493603  0.71938354  1
  F  F5  1  0.09972126  0.60506397  0.28061646  1
  F  F6  1  0.29391707  0.17414353  0.11937393  1
  F  F7  1  0.70608293  0.82585647  0.88062607  1
  F  F8  1  0.09755650  0.12785002  0.75800180  1
  F  F9  1  0.47925588  0.55913151  0.32137363  1
  F  F10  1  0.52074412  0.44086849  0.67862637  1
  F  F11  1  0.10760881  0.77012897  0.92730524  1
  F  F12  1  0.89239119  0.22987103  0.07269476  1
  F  F13  1  0.71832885  0.99265861  0.55855334  1
  F  F14  1  0.28167115  0.00734139  0.44144666  1
  F  F15  1  0.92230302  0.71938355  0.57452416  1
  F  F16  1  0.07769698  0.28061645  0.42547584  1
  F  F17  1  0.90244350  0.87214998  0.24199820  1
  Ni  Ni18  1  0.39437953  0.27803525  0.88203470  1
  Ni  Ni19  1  0.60562047  0.72196475  0.11796530  1
  Ni  Ni20  1  0.18110435  0.38414322  0.19519983  1
  Ni  Ni21  1  0.81889565  0.61585678  0.80480017  1
  Ni  Ni22  1  0.81045874  0.12468911  0.81812034  1
  Ni  Ni23  1  0.18954126  0.87531089  0.18187966  1
  Ni  Ni24  1  0.00000000  0.00000000  0.50000000  1
  Ba  Ba25  1  0.68613287  0.30641757  0.36646199  1
  Ba  Ba26  1  0.31386713  0.69358243  0.63353801  1
