# generated using pymatgen
data_K2Al2B2O7
_symmetry_space_group_name_H-M   'P 1'
_cell_length_a   8.66098576
_cell_length_b   8.66098593
_cell_length_c   8.59950253
_cell_angle_alpha   90.00000000
_cell_angle_beta   90.00000000
_cell_angle_gamma   119.99999934
_symmetry_Int_Tables_number   1
_chemical_formula_structural   K2Al2B2O7
_chemical_formula_sum   'K6 Al6 B6 O21'
_cell_volume   558.64847940
_cell_formula_units_Z   3
loop_
 _symmetry_equiv_pos_site_id
 _symmetry_equiv_pos_as_xyz
  1  'x, y, z'
loop_
 _atom_site_type_symbol
 _atom_site_label
 _atom_site_symmetry_multiplicity
 _atom_site_fract_x
 _atom_site_fract_y
 _atom_site_fract_z
 _atom_site_occupancy
  K  K0  1  0.35832778  0.00000000  0.50000000  1
  K  K1  1  0.00000000  0.30994876  0.00000000  1
  K  K2  1  0.30994876  0.00000000  0.00000000  1
  K  K3  1  0.64167222  0.64167222  0.50000000  1
  K  K4  1  0.69005124  0.69005124  0.00000000  1
  K  K5  1  1.00000000  0.35832778  0.50000000  1
  Al  Al6  1  0.00000000  0.00000000  0.70070682  1
  Al  Al7  1  0.66666700  0.33333300  0.22118663  1
  Al  Al8  1  0.33333300  0.66666700  0.77881337  1
  Al  Al9  1  0.00000000  0.00000000  0.29929318  1
  Al  Al10  1  0.33333300  0.66666700  0.18264611  1
  Al  Al11  1  0.66666700  0.33333300  0.81735389  1
  B  B12  1  0.33506580  0.33398436  0.25658791  1
  B  B13  1  0.33398436  0.33506580  0.74341209  1
  B  B14  1  0.00108144  0.66601564  0.74341209  1
  B  B15  1  0.99891856  0.66493420  0.25658791  1
  B  B16  1  0.66601564  0.00108144  0.25658791  1
  B  B17  1  0.66493420  0.99891856  0.74341209  1
  O  O18  1  0.72664119  0.17832225  0.29251787  1
  O  O19  1  0.27335881  0.45168106  0.70748213  1
  O  O20  1  0.15750088  0.21379556  0.22630415  1
  O  O21  1  0.45168106  0.27335881  0.29251787  1
  O  O22  1  0.21379556  0.15750088  0.77369585  1
  O  O23  1  0.88289792  0.48465713  0.74772872  1
  O  O24  1  0.39824079  0.51534287  0.25227128  1
  O  O25  1  0.33333300  0.66666700  0.98080173  1
  O  O26  1  0.11710208  0.60175921  0.25227128  1
  O  O27  1  0.82167775  0.54831894  0.29251787  1
  O  O28  1  0.17832225  0.72664119  0.70748213  1
  O  O29  1  0.48465713  0.88289792  0.25227128  1
  O  O30  1  0.94370532  0.78620444  0.77369585  1
  O  O31  1  0.51534287  0.39824079  0.74772872  1
  O  O32  1  0.05629468  0.84249912  0.22630415  1
  O  O33  1  0.78620444  0.94370532  0.22630415  1
  O  O34  1  0.54831894  0.82167775  0.70748213  1
  O  O35  1  0.66666700  0.33333300  0.01919827  1
  O  O36  1  0.00000000  0.00000000  0.50000000  1
  O  O37  1  0.84249912  0.05629468  0.77369585  1
  O  O38  1  0.60175921  0.11710208  0.74772872  1
