# generated using pymatgen
data_Co2O3F
_symmetry_space_group_name_H-M   'P 1'
_cell_length_a   8.67499534
_cell_length_b   5.39550968
_cell_length_c   5.39550968
_cell_angle_alpha   71.39647468
_cell_angle_beta   86.68379429
_cell_angle_gamma   86.68379429
_symmetry_Int_Tables_number   1
_chemical_formula_structural   Co2O3F
_chemical_formula_sum   'Co8 O12 F4'
_cell_volume   238.73872793
_cell_formula_units_Z   4
loop_
 _symmetry_equiv_pos_site_id
 _symmetry_equiv_pos_as_xyz
  1  'x, y, z'
loop_
 _atom_site_type_symbol
 _atom_site_label
 _atom_site_symmetry_multiplicity
 _atom_site_fract_x
 _atom_site_fract_y
 _atom_site_fract_z
 _atom_site_occupancy
  Co  Co0  1  0.60965905  0.88412670  0.88412670  1
  Co  Co1  1  0.89034095  0.61587330  0.61587330  1
  Co  Co2  1  0.50839078  0.50956448  0.50956448  1
  Co  Co3  1  0.75000000  0.25000000  0.25000000  1
  Co  Co4  1  0.25000000  0.75000000  0.75000000  1
  Co  Co5  1  0.38612325  0.14639761  0.14639761  1
  Co  Co6  1  0.11387675  0.35360239  0.35360239  1
  Co  Co7  1  0.99160922  0.99043552  0.99043552  1
  O  O8  1  0.49606054  0.21322716  0.81438182  1
  O  O9  1  0.96570874  0.20814773  0.20814773  1
  O  O10  1  0.72392012  0.47378936  0.47378936  1
  O  O11  1  0.47181582  0.72529620  0.72529620  1
  O  O12  1  0.53429126  0.29185227  0.29185227  1
  O  O13  1  0.77607988  0.02621064  0.02621064  1
  O  O14  1  0.02818418  0.77470380  0.77470380  1
  O  O15  1  0.49606054  0.81438182  0.21322716  1
  O  O16  1  0.00393946  0.28677284  0.68561818  1
  O  O17  1  0.25000000  0.05509459  0.44490541  1
  O  O18  1  0.25000000  0.44490541  0.05509459  1
  O  O19  1  0.00393946  0.68561818  0.28677284  1
  F  F20  1  0.75000000  0.56003879  0.93996121  1
  F  F21  1  0.75000000  0.93996121  0.56003879  1
  F  F22  1  0.21777705  0.98119359  0.98119359  1
  F  F23  1  0.28222295  0.51880641  0.51880641  1
