# generated using pymatgen
data_Na2U2Si(O4F)2
_symmetry_space_group_name_H-M   'P 1'
_cell_length_a   7.03014677
_cell_length_b   7.03059830
_cell_length_c   10.53172029
_cell_angle_alpha   109.49841036
_cell_angle_beta   109.49662500
_cell_angle_gamma   90.00487800
_symmetry_Int_Tables_number   1
_chemical_formula_structural   Na2U2Si(O4F)2
_chemical_formula_sum   'Na4 U4 Si2 O16 F4'
_cell_volume   458.89911889
_cell_formula_units_Z   2
loop_
 _symmetry_equiv_pos_site_id
 _symmetry_equiv_pos_as_xyz
  1  'x, y, z'
loop_
 _atom_site_type_symbol
 _atom_site_label
 _atom_site_symmetry_multiplicity
 _atom_site_fract_x
 _atom_site_fract_y
 _atom_site_fract_z
 _atom_site_occupancy
  Na  Na0  1  0.50000000  0.50000000  0.50000000  1
  Na  Na1  1  0.50000000  0.00000000  0.00000000  1
  Na  Na2  1  0.50000000  0.00000000  0.50000000  1
  Na  Na3  1  0.00000000  0.00000000  0.00000000  1
  U  U4  1  0.04872071  0.79884023  0.59766166  1
  U  U5  1  0.95127929  0.20115977  0.40233834  1
  U  U6  1  0.29883919  0.54873372  0.09766045  1
  U  U7  1  0.70116081  0.45126628  0.90233955  1
  Si  Si8  1  0.12496165  0.37502152  0.74998215  1
  Si  Si9  1  0.87503835  0.62497848  0.25001785  1
  O  O10  1  0.99437092  0.56739871  0.13476001  1
  O  O11  1  0.06740073  0.49435821  0.63476276  1
  O  O12  1  0.30981318  0.79783990  0.59570331  1
  O  O13  1  0.70214797  0.71424816  0.90428976  1
  O  O14  1  0.21427583  0.20214441  0.40428319  1
  O  O15  1  0.93259927  0.50564179  0.36523724  1
  O  O16  1  0.70216048  0.19019448  0.90429762  1
  O  O17  1  0.64044234  0.56739060  0.13474323  1
  O  O18  1  0.29783952  0.80980552  0.09570238  1
  O  O19  1  0.06739133  0.14045785  0.63474494  1
  O  O20  1  0.29785203  0.28575184  0.09571024  1
  O  O21  1  0.35955766  0.43260940  0.86525677  1
  O  O22  1  0.78572417  0.79785559  0.59571681  1
  O  O23  1  0.00562908  0.43260129  0.86523999  1
  O  O24  1  0.93260867  0.85954215  0.36525506  1
  O  O25  1  0.69018682  0.20216010  0.40429669  1
  F  F26  1  0.83207834  0.08205131  0.16410647  1
  F  F27  1  0.41793980  0.66792242  0.33588850  1
  F  F28  1  0.16792166  0.91794869  0.83589353  1
  F  F29  1  0.58206020  0.33207758  0.66411150  1
