# generated using pymatgen
data_Sb2ClF17
_symmetry_space_group_name_H-M   'P 1'
_cell_length_a   8.84412422
_cell_length_b   12.39897435
_cell_length_c   12.53397041
_cell_angle_alpha   97.47683500
_cell_angle_beta   90.00000000
_cell_angle_gamma   90.00000000
_symmetry_Int_Tables_number   1
_chemical_formula_structural   Sb2ClF17
_chemical_formula_sum   'Sb8 Cl4 F68'
_cell_volume   1362.76480025
_cell_formula_units_Z   4
loop_
 _symmetry_equiv_pos_site_id
 _symmetry_equiv_pos_as_xyz
  1  'x, y, z'
loop_
 _atom_site_type_symbol
 _atom_site_label
 _atom_site_symmetry_multiplicity
 _atom_site_fract_x
 _atom_site_fract_y
 _atom_site_fract_z
 _atom_site_occupancy
  Sb  Sb0  1  0.47573121  0.30854945  0.84639209  1
  Sb  Sb1  1  0.02426879  0.80854945  0.34639209  1
  Sb  Sb2  1  0.97573121  0.19145055  0.65360791  1
  Sb  Sb3  1  0.00859555  0.72530721  0.64223887  1
  Sb  Sb4  1  0.49140445  0.22530721  0.14223887  1
  Sb  Sb5  1  0.50859555  0.77469279  0.85776113  1
  Sb  Sb6  1  0.52426879  0.69145055  0.15360791  1
  Sb  Sb7  1  0.99140445  0.27469279  0.35776113  1
  Cl  Cl8  1  0.00000000  0.50000000  0.00000000  1
  Cl  Cl9  1  0.50000000  -0.00000000  0.50000000  1
  Cl  Cl10  1  0.50000000  0.50000000  0.50000000  1
  Cl  Cl11  1  0.00000000  -0.00000000  0.00000000  1
  F  F12  1  0.55776496  0.69308046  0.30363037  1
  F  F13  1  0.12429613  0.94404851  0.38577230  1
  F  F14  1  0.37934753  0.09232067  0.47882864  1
  F  F15  1  0.64622944  0.52236675  0.43089171  1
  F  F16  1  0.36683105  0.92969347  0.54550570  1
  F  F17  1  0.29113273  0.23724000  0.87132249  1
  F  F18  1  0.03161281  0.65061721  0.76424860  1
  F  F19  1  0.51763208  0.37179839  0.46255405  1
  F  F20  1  0.16229999  0.11516250  0.65476209  1
  F  F21  1  0.20886727  0.73724000  0.37132249  1
  F  F22  1  0.29386706  0.28805862  0.15061408  1
  F  F23  1  0.80749176  0.67680957  0.61011228  1
  F  F24  1  0.06725513  0.14712809  0.27451678  1
  F  F25  1  0.57882488  0.17275057  0.82602540  1
  F  F26  1  0.39437784  0.51027014  0.39797713  1
  F  F27  1  0.01763208  0.12820161  0.03744595  1
  F  F28  1  0.98133075  0.80925581  0.50963668  1
  F  F29  1  0.60562216  0.48972986  0.60202287  1
  F  F30  1  0.93274487  0.85287191  0.72548322  1
  F  F31  1  0.97092516  0.56154328  0.11981859  1
  F  F32  1  0.48133075  0.69074419  0.99036332  1
  F  F33  1  0.87934753  0.40767933  0.02117136  1
  F  F34  1  0.44223504  0.30691954  0.69636963  1
  F  F35  1  0.79386706  0.21194138  0.34938592  1
  F  F36  1  0.12065247  0.59232067  0.97882864  1
  F  F37  1  0.87570387  0.05595149  0.61422770  1
  F  F38  1  0.43274487  0.64712809  0.77451678  1
  F  F39  1  0.42117512  0.82724943  0.17397460  1
  F  F40  1  0.69250824  0.17680957  0.11011228  1
  F  F41  1  0.56725513  0.35287191  0.22548322  1
  F  F42  1  0.47092516  0.93845672  0.38018141  1
  F  F43  1  0.85377056  0.02236675  0.93089171  1
  F  F44  1  0.98236792  0.87179839  0.96255405  1
  F  F45  1  0.33770001  0.61516250  0.15476209  1
  F  F46  1  0.14622944  0.97763325  0.06910829  1
  F  F47  1  0.70886727  0.76276000  0.12867751  1
  F  F48  1  0.62429613  0.55595149  0.11422770  1
  F  F49  1  0.19250824  0.32319043  0.38988772  1
  F  F50  1  0.58540826  0.89291085  0.95404849  1
  F  F51  1  0.13316895  0.42969347  0.04550570  1
  F  F52  1  0.79113273  0.26276000  0.62867751  1
  F  F53  1  0.01866925  0.19074419  0.49036332  1
  F  F54  1  0.83770001  0.88483750  0.34523791  1
  F  F55  1  0.52907484  0.06154328  0.61981859  1
  F  F56  1  0.66229999  0.38483750  0.84523791  1
  F  F57  1  0.20613294  0.78805862  0.65061408  1
  F  F58  1  0.89437784  0.98972986  0.10202287  1
  F  F59  1  0.35377056  0.47763325  0.56910829  1
  F  F60  1  0.96838719  0.34938279  0.23575140  1
  F  F61  1  0.92117512  0.67275057  0.32602540  1
  F  F62  1  0.51866925  0.30925581  0.00963668  1
  F  F63  1  0.46838719  0.15061721  0.26424860  1
  F  F64  1  0.07882488  0.32724943  0.67397460  1
  F  F65  1  0.53161281  0.84938279  0.73575140  1
  F  F66  1  0.91459174  0.39291085  0.45404849  1
  F  F67  1  0.02907484  0.43845672  0.88018141  1
  F  F68  1  0.70613294  0.71194138  0.84938592  1
  F  F69  1  0.10562216  0.01027014  0.89797713  1
  F  F70  1  0.30749176  0.82319043  0.88988772  1
  F  F71  1  0.08540826  0.60708915  0.54595151  1
  F  F72  1  0.86683105  0.57030653  0.95449430  1
  F  F73  1  0.48236792  0.62820161  0.53744595  1
  F  F74  1  0.63316895  0.07030653  0.45449430  1
  F  F75  1  0.05776496  0.80691954  0.19636963  1
  F  F76  1  0.41459174  0.10708915  0.04595151  1
  F  F77  1  0.37570387  0.44404851  0.88577230  1
  F  F78  1  0.94223504  0.19308046  0.80363037  1
  F  F79  1  0.62065247  0.90767933  0.52117136  1
