# generated using pymatgen
data_Na3SbP2O9
_symmetry_space_group_name_H-M   'P 1'
_cell_length_a   7.08076041
_cell_length_b   9.41568814
_cell_length_c   12.57350791
_cell_angle_alpha   90.00000000
_cell_angle_beta   90.00000000
_cell_angle_gamma   90.00000000
_symmetry_Int_Tables_number   1
_chemical_formula_structural   Na3SbP2O9
_chemical_formula_sum   'Na12 Sb4 P8 O36'
_cell_volume   838.27868708
_cell_formula_units_Z   4
loop_
 _symmetry_equiv_pos_site_id
 _symmetry_equiv_pos_as_xyz
  1  'x, y, z'
loop_
 _atom_site_type_symbol
 _atom_site_label
 _atom_site_symmetry_multiplicity
 _atom_site_fract_x
 _atom_site_fract_y
 _atom_site_fract_z
 _atom_site_occupancy
  Na  Na0  1  0.37594634  0.39369783  0.65915150  1
  Na  Na1  1  0.25538325  0.91377714  0.01634160  1
  Na  Na2  1  0.82504831  0.25668324  0.74022441  1
  Na  Na3  1  0.17495169  0.75668324  0.75977559  1
  Na  Na4  1  0.12405366  0.60630217  0.15915150  1
  Na  Na5  1  0.87594634  0.10630217  0.34084850  1
  Na  Na6  1  0.62405366  0.89369783  0.84084850  1
  Na  Na7  1  0.67495169  0.74331676  0.24022441  1
  Na  Na8  1  0.75538325  0.58622286  0.98365840  1
  Na  Na9  1  0.24461675  0.08622286  0.51634160  1
  Na  Na10  1  0.32504831  0.24331676  0.25977559  1
  Na  Na11  1  0.74461675  0.41377714  0.48365840  1
  Sb  Sb12  1  0.52093187  0.25345686  0.99530709  1
  Sb  Sb13  1  0.97906813  0.74654314  0.49530709  1
  Sb  Sb14  1  0.47906813  0.75345686  0.50469291  1
  Sb  Sb15  1  0.02093187  0.24654314  0.00469291  1
  P  P16  1  0.27059419  0.12461314  0.79947212  1
  P  P17  1  0.77059419  0.37538686  0.20052788  1
  P  P18  1  0.23750735  0.46960576  0.42168714  1
  P  P19  1  0.22940581  0.87538686  0.29947212  1
  P  P20  1  0.72940581  0.62461314  0.70052788  1
  P  P21  1  0.73750735  0.03039424  0.57831286  1
  P  P22  1  0.76249265  0.96960576  0.07831286  1
  P  P23  1  0.26249265  0.53039424  0.92168714  1
  O  O24  1  0.45160534  0.20952709  0.84391073  1
  O  O25  1  0.04978566  0.54189246  0.46953876  1
  O  O26  1  0.74512062  0.98955594  0.19704496  1
  O  O27  1  0.59243642  0.04636459  0.01407029  1
  O  O28  1  0.09243642  0.45363541  0.98592971  1
  O  O29  1  0.21112048  0.03068664  0.33094586  1
  O  O30  1  0.75860389  0.81729687  0.04017917  1
  O  O31  1  0.90756358  0.95363541  0.51407029  1
  O  O32  1  0.72493720  0.69494460  0.44296283  1
  O  O33  1  0.08817490  0.19499776  0.85432624  1
  O  O34  1  0.25860389  0.68270313  0.95982083  1
  O  O35  1  0.28887952  0.96931336  0.83094586  1
  O  O36  1  0.04839466  0.79047291  0.34391073  1
  O  O37  1  0.24139611  0.31729687  0.45982083  1
  O  O38  1  0.45021434  0.45810754  0.96953876  1
  O  O39  1  0.77506280  0.30505540  0.94296283  1
  O  O40  1  0.25527902  0.16250276  0.68349678  1
  O  O41  1  0.58817490  0.30500224  0.14567376  1
  O  O42  1  0.27506280  0.19494460  0.05703717  1
  O  O43  1  0.40756358  0.54636459  0.48592971  1
  O  O44  1  0.24512062  0.51044406  0.80295504  1
  O  O45  1  0.22493720  0.80505540  0.55703717  1
  O  O46  1  0.41182510  0.80500224  0.35432624  1
  O  O47  1  0.71112048  0.46931336  0.66905414  1
  O  O48  1  0.91182510  0.69499776  0.64567376  1
  O  O49  1  0.95021434  0.04189246  0.03046124  1
  O  O50  1  0.24472098  0.83749724  0.18349678  1
  O  O51  1  0.75487938  0.01044406  0.69704496  1
  O  O52  1  0.54839466  0.70952709  0.65608927  1
  O  O53  1  0.78887952  0.53068664  0.16905414  1
  O  O54  1  0.25487938  0.48955594  0.30295504  1
  O  O55  1  0.95160534  0.29047291  0.15608927  1
  O  O56  1  0.75527902  0.33749724  0.31650322  1
  O  O57  1  0.54978566  0.95810754  0.53046124  1
  O  O58  1  0.74139611  0.18270313  0.54017917  1
  O  O59  1  0.74472098  0.66250276  0.81650322  1
