# generated using pymatgen
data_Al2SnCl6O
_symmetry_space_group_name_H-M   'P 1'
_cell_length_a   9.68643812
_cell_length_b   9.57824367
_cell_length_c   12.62857072
_cell_angle_alpha   90.00000000
_cell_angle_beta   90.00000000
_cell_angle_gamma   96.50727364
_symmetry_Int_Tables_number   1
_chemical_formula_structural   Al2SnCl6O
_chemical_formula_sum   'Al8 Sn4 Cl24 O4'
_cell_volume   1164.11848626
_cell_formula_units_Z   4
loop_
 _symmetry_equiv_pos_site_id
 _symmetry_equiv_pos_as_xyz
  1  'x, y, z'
loop_
 _atom_site_type_symbol
 _atom_site_label
 _atom_site_symmetry_multiplicity
 _atom_site_fract_x
 _atom_site_fract_y
 _atom_site_fract_z
 _atom_site_occupancy
  Al  Al0  1  0.72545760  0.36087606  0.10822661  1
  Al  Al1  1  0.22545760  0.86087606  0.39177339  1
  Al  Al2  1  0.57736385  0.62400067  0.00744130  1
  Al  Al3  1  0.27454240  0.63912394  0.89177339  1
  Al  Al4  1  0.42263615  0.37599933  0.99255870  1
  Al  Al5  1  0.07736385  0.12400067  0.49255870  1
  Al  Al6  1  0.77454240  0.13912394  0.60822661  1
  Al  Al7  1  0.92263615  0.87599933  0.50744130  1
  Sn  Sn8  1  0.79649593  0.01620628  0.97722769  1
  Sn  Sn9  1  0.29649593  0.51620628  0.52277231  1
  Sn  Sn10  1  0.20350407  0.98379372  0.02277231  1
  Sn  Sn11  1  0.70350407  0.48379372  0.47722769  1
  Cl  Cl12  1  0.64311445  0.15834369  0.16686131  1
  Cl  Cl13  1  0.32692329  -0.00034149  0.27734391  1
  Cl  Cl14  1  0.96783160  0.97852185  0.13350522  1
  Cl  Cl15  1  0.17307671  0.50034149  0.77734391  1
  Cl  Cl16  1  0.53216840  0.52147815  0.63350522  1
  Cl  Cl17  1  0.13089271  0.68762434  0.01785558  1
  Cl  Cl18  1  0.86910729  0.31237566  0.98214442  1
  Cl  Cl19  1  0.82692329  0.49965851  0.22265609  1
  Cl  Cl20  1  0.63089271  0.18762434  0.48214442  1
  Cl  Cl21  1  0.44568472  0.21834806  0.87816703  1
  Cl  Cl22  1  0.25539637  0.30506091  0.09704432  1
  Cl  Cl23  1  0.05431528  0.28165194  0.37816703  1
  Cl  Cl24  1  0.24460363  0.19493909  0.59704432  1
  Cl  Cl25  1  0.03216840  0.02147815  0.86649478  1
  Cl  Cl26  1  0.75539637  0.80506091  0.40295568  1
  Cl  Cl27  1  0.55431528  0.78165194  0.12183297  1
  Cl  Cl28  1  0.14311445  0.65834369  0.33313869  1
  Cl  Cl29  1  0.46783160  0.47852185  0.36649478  1
  Cl  Cl30  1  0.74460363  0.69493909  0.90295568  1
  Cl  Cl31  1  0.94568472  0.71834806  0.62183297  1
  Cl  Cl32  1  0.36910729  0.81237566  0.51785558  1
  Cl  Cl33  1  0.35688555  0.84165631  0.83313869  1
  Cl  Cl34  1  0.67307671  1.00034149  0.72265609  1
  Cl  Cl35  1  0.85688555  0.34165631  0.66686131  1
  O  O36  1  0.41198689  0.55528013  0.94855903  1
  O  O37  1  0.91198689  0.05528013  0.55144097  1
  O  O38  1  0.08801311  0.94471987  0.44855903  1
  O  O39  1  0.58801311  0.44471987  0.05144097  1
