# generated using pymatgen
data_K3Al2(PO4)3
_symmetry_space_group_name_H-M   'P 1'
_cell_length_a   8.57997387
_cell_length_b   8.81422754
_cell_length_c   17.13913095
_cell_angle_alpha   90.00000000
_cell_angle_beta   90.00000000
_cell_angle_gamma   90.00000000
_symmetry_Int_Tables_number   1
_chemical_formula_structural   K3Al2(PO4)3
_chemical_formula_sum   'K12 Al8 P12 O48'
_cell_volume   1296.16120886
_cell_formula_units_Z   4
loop_
 _symmetry_equiv_pos_site_id
 _symmetry_equiv_pos_as_xyz
  1  'x, y, z'
loop_
 _atom_site_type_symbol
 _atom_site_label
 _atom_site_symmetry_multiplicity
 _atom_site_fract_x
 _atom_site_fract_y
 _atom_site_fract_z
 _atom_site_occupancy
  K  K0  1  0.10797949  0.51311192  0.40001608  1
  K  K1  1  0.33011004  0.82684087  0.50874438  1
  K  K2  1  0.13175614  0.04341887  0.85895273  1
  K  K3  1  0.33011004  0.32684087  0.99125562  1
  K  K4  1  0.83011004  0.67315913  0.00874438  1
  K  K5  1  0.63175614  0.45658113  0.35895273  1
  K  K6  1  0.60797949  0.48688808  0.59998392  1
  K  K7  1  0.63175614  0.95658113  0.14104727  1
  K  K8  1  0.13175614  0.54341887  0.64104727  1
  K  K9  1  0.10797949  0.01311192  0.09998392  1
  K  K10  1  0.83011004  0.17315913  0.49125562  1
  K  K11  1  0.60797949  0.98688808  0.90001608  1
  Al  Al12  1  0.28971547  0.63186046  0.16854416  1
  Al  Al13  1  0.29987617  0.64896000  0.83892772  1
  Al  Al14  1  0.28971547  0.13186046  0.33145584  1
  Al  Al15  1  0.79987617  0.85104000  0.33892772  1
  Al  Al16  1  0.78971547  0.36813954  0.83145584  1
  Al  Al17  1  0.79987617  0.35104000  0.16107228  1
  Al  Al18  1  0.78971547  0.86813954  0.66854416  1
  Al  Al19  1  0.29987617  0.14896000  0.66107228  1
  P  P20  1  0.36323458  0.26113514  0.49749093  1
  P  P21  1  0.43476633  0.29646418  0.18810436  1
  P  P22  1  0.94189463  0.66006932  0.21276645  1
  P  P23  1  0.93476633  0.20353582  0.68810436  1
  P  P24  1  0.44189463  0.33993068  0.78723355  1
  P  P25  1  0.93476633  0.70353582  0.81189564  1
  P  P26  1  0.94189463  0.16006932  0.28723355  1
  P  P27  1  0.36323458  0.76113514  0.00250907  1
  P  P28  1  0.43476633  0.79646418  0.31189564  1
  P  P29  1  0.86323458  0.73886486  0.50250907  1
  P  P30  1  0.86323458  0.23886486  0.99749093  1
  P  P31  1  0.44189463  0.83993068  0.71276645  1
  O  O32  1  0.53596057  0.26348460  0.47705547  1
  O  O33  1  0.39789326  0.96313614  0.33592555  1
  O  O34  1  0.10591549  0.58443438  0.20672907  1
  O  O35  1  0.29794606  0.41079619  0.52754102  1
  O  O36  1  0.03596057  0.23651540  0.97705547  1
  O  O37  1  0.60591549  0.91556562  0.70672907  1
  O  O38  1  0.83069561  0.36983547  0.06040155  1
  O  O39  1  0.91390826  0.28424082  0.34634260  1
  O  O40  1  0.79794606  0.58920381  0.47245898  1
  O  O41  1  0.29794606  0.91079619  0.97245898  1
  O  O42  1  0.61616710  0.78330233  0.30964889  1
  O  O43  1  0.39789326  0.46313614  0.16407445  1
  O  O44  1  0.36618553  0.68163746  0.36722167  1
  O  O45  1  0.61616710  0.28330233  0.19035111  1
  O  O46  1  0.86618553  0.81836254  0.86722167  1
  O  O47  1  0.33069561  0.63016453  0.93959845  1
  O  O48  1  0.43031660  0.78337211  0.79927314  1
  O  O49  1  0.89789326  0.53686386  0.83592555  1
  O  O50  1  0.26268274  0.70742552  0.07522500  1
  O  O51  1  0.83069561  0.86983547  0.43959845  1
  O  O52  1  0.36618553  0.18163746  0.13277833  1
  O  O53  1  0.10591549  0.08443438  0.29327093  1
  O  O54  1  0.11616710  0.71669767  0.80964889  1
  O  O55  1  0.93031660  0.21662789  0.20072686  1
  O  O56  1  0.76268274  0.79257448  0.57522500  1
  O  O57  1  0.33069561  0.13016453  0.56040155  1
  O  O58  1  0.53596057  0.76348460  0.02294453  1
  O  O59  1  0.91390826  0.78424082  0.15365740  1
  O  O60  1  0.88091974  0.22516959  0.77479505  1
  O  O61  1  0.26268274  0.20742552  0.42477500  1
  O  O62  1  0.43031660  0.28337211  0.70072686  1
  O  O63  1  0.60591549  0.41556562  0.79327093  1
  O  O64  1  0.31883619  0.96963822  0.70436394  1
  O  O65  1  0.38091974  0.77483041  0.22520495  1
  O  O66  1  0.89789326  0.03686386  0.66407445  1
  O  O67  1  0.31883619  0.46963822  0.79563606  1
  O  O68  1  0.11616710  0.21669767  0.69035111  1
  O  O69  1  0.41390826  0.71575918  0.65365740  1
  O  O70  1  0.86618553  0.31836254  0.63277833  1
  O  O71  1  0.38091974  0.27483041  0.27479505  1
  O  O72  1  0.79794606  0.08920381  0.02754102  1
  O  O73  1  0.88091974  0.72516959  0.72520495  1
  O  O74  1  0.93031660  0.71662789  0.29927314  1
  O  O75  1  0.81883619  0.53036178  0.20436394  1
  O  O76  1  0.41390826  0.21575918  0.84634260  1
  O  O77  1  0.03596057  0.73651540  0.52294453  1
  O  O78  1  0.81883619  0.03036178  0.29563606  1
  O  O79  1  0.76268274  0.29257448  0.92477500  1
