# generated using pymatgen
data_KUSi2O7
_symmetry_space_group_name_H-M   'P 1'
_cell_length_a   8.35931405
_cell_length_b   9.25878552
_cell_length_c   9.25878552
_cell_angle_alpha   90.00000000
_cell_angle_beta   90.00000000
_cell_angle_gamma   90.00000000
_symmetry_Int_Tables_number   1
_chemical_formula_structural   KUSi2O7
_chemical_formula_sum   'K4 U4 Si8 O28'
_cell_volume   716.60311065
_cell_formula_units_Z   4
loop_
 _symmetry_equiv_pos_site_id
 _symmetry_equiv_pos_as_xyz
  1  'x, y, z'
loop_
 _atom_site_type_symbol
 _atom_site_label
 _atom_site_symmetry_multiplicity
 _atom_site_fract_x
 _atom_site_fract_y
 _atom_site_fract_z
 _atom_site_occupancy
  K  K0  1  0.50000000  0.32122966  0.17877034  1
  K  K1  1  0.50000000  0.82122966  0.32122966  1
  K  K2  1  0.50000000  0.67877034  0.82122966  1
  K  K3  1  0.50000000  0.17877034  0.67877034  1
  U  U4  1  0.75041368  0.00000000  0.00000000  1
  U  U5  1  0.75041368  0.50000000  0.50000000  1
  U  U6  1  0.24958632  0.00000000  0.00000000  1
  U  U7  1  0.24958632  0.50000000  0.50000000  1
  Si  Si8  1  0.80559803  0.61983388  0.11983388  1
  Si  Si9  1  0.19440197  0.11983388  0.38016612  1
  Si  Si10  1  0.80559803  0.88016612  0.61983388  1
  Si  Si11  1  0.19440197  0.61983388  0.11983388  1
  Si  Si12  1  0.80559803  0.11983388  0.38016612  1
  Si  Si13  1  0.19440197  0.88016612  0.61983388  1
  Si  Si14  1  0.80559803  0.38016612  0.88016612  1
  Si  Si15  1  0.19440197  0.38016612  0.88016612  1
  O  O16  1  0.00000000  0.37846375  0.87846375  1
  O  O17  1  0.73263643  0.57296760  0.27613506  1
  O  O18  1  0.26736357  0.72386494  0.57296760  1
  O  O19  1  0.00000000  0.50000000  0.50000000  1
  O  O20  1  0.00000000  0.62153625  0.12153625  1
  O  O21  1  0.73263643  0.22386494  0.92703240  1
  O  O22  1  0.73263643  0.72386494  0.57296760  1
  O  O23  1  0.73263643  0.77613506  0.07296760  1
  O  O24  1  0.74220433  0.00000000  0.50000000  1
  O  O25  1  0.25779567  0.50000000  0.00000000  1
  O  O26  1  0.74220433  0.50000000  0.00000000  1
  O  O27  1  0.00000000  0.87846375  0.62153625  1
  O  O28  1  0.26736357  0.42703240  0.72386494  1
  O  O29  1  0.26736357  0.92703240  0.77613506  1
  O  O30  1  0.26736357  0.07296760  0.22386494  1
  O  O31  1  0.00000000  0.12153625  0.37846375  1
  O  O32  1  0.73263643  0.27613506  0.42703240  1
  O  O33  1  0.25779567  0.00000000  0.50000000  1
  O  O34  1  0.73263643  0.92703240  0.77613506  1
  O  O35  1  0.26736357  0.22386494  0.92703240  1
  O  O36  1  0.73263643  0.07296760  0.22386494  1
  O  O37  1  0.73263643  0.42703240  0.72386494  1
  O  O38  1  0.26736357  0.57296760  0.27613506  1
  O  O39  1  0.26736357  0.27613506  0.42703240  1
  O  O40  1  0.50000000  0.00000000  0.00000000  1
  O  O41  1  0.26736357  0.77613506  0.07296760  1
  O  O42  1  0.00000000  0.00000000  0.00000000  1
  O  O43  1  0.50000000  0.50000000  0.50000000  1
