# generated using pymatgen
data_Ca2GeO4
_symmetry_space_group_name_H-M   'P 1'
_cell_length_a   5.29163104
_cell_length_b   6.84948560
_cell_length_c   11.51964293
_cell_angle_alpha   90.00000000
_cell_angle_beta   90.00000000
_cell_angle_gamma   90.00000000
_symmetry_Int_Tables_number   1
_chemical_formula_structural   Ca2GeO4
_chemical_formula_sum   'Ca8 Ge4 O16'
_cell_volume   417.52888903
_cell_formula_units_Z   4
loop_
 _symmetry_equiv_pos_site_id
 _symmetry_equiv_pos_as_xyz
  1  'x, y, z'
loop_
 _atom_site_type_symbol
 _atom_site_label
 _atom_site_symmetry_multiplicity
 _atom_site_fract_x
 _atom_site_fract_y
 _atom_site_fract_z
 _atom_site_occupancy
  Ca  Ca0  1  0.00677513  0.75000000  0.27985446  1
  Ca  Ca1  1  0.99322487  0.25000000  0.72014554  1
  Ca  Ca2  1  0.50677513  0.25000000  0.22014554  1
  Ca  Ca3  1  0.49322487  0.75000000  0.77985446  1
  Ca  Ca4  1  0.50000000  0.50000000  0.50000000  1
  Ca  Ca5  1  0.00000000  0.00000000  0.00000000  1
  Ca  Ca6  1  0.00000000  0.50000000  0.00000000  1
  Ca  Ca7  1  0.50000000  0.00000000  0.50000000  1
  Ge  Ge8  1  0.43066719  0.25000000  0.90400560  1
  Ge  Ge9  1  0.93066719  0.75000000  0.59599440  1
  Ge  Ge10  1  0.56933281  0.75000000  0.09599440  1
  Ge  Ge11  1  0.06933281  0.25000000  0.40400560  1
  O  O12  1  0.78647036  0.75000000  0.45367838  1
  O  O13  1  0.78370699  0.54362109  0.66373336  1
  O  O14  1  0.71629301  0.54362109  0.16373336  1
  O  O15  1  0.73585541  0.25000000  0.40727554  1
  O  O16  1  0.71352964  0.75000000  0.95367838  1
  O  O17  1  0.28370699  0.45637891  0.83626664  1
  O  O18  1  0.21629301  0.45637891  0.33626664  1
  O  O19  1  0.26414459  0.75000000  0.59272446  1
  O  O20  1  0.78370699  0.95637891  0.66373336  1
  O  O21  1  0.23585541  0.75000000  0.09272446  1
  O  O22  1  0.21352964  0.25000000  0.54632162  1
  O  O23  1  0.71629301  0.95637891  0.16373336  1
  O  O24  1  0.21629301  0.04362109  0.33626664  1
  O  O25  1  0.28647036  0.25000000  0.04632162  1
  O  O26  1  0.28370699  0.04362109  0.83626664  1
  O  O27  1  0.76414459  0.25000000  0.90727554  1
