# generated using pymatgen
data_CaTeO3
_symmetry_space_group_name_H-M   'P 1'
_cell_length_a   11.19773002
_cell_length_b   12.27266086
_cell_length_c   12.27266086
_cell_angle_alpha   90.00000000
_cell_angle_beta   90.00000000
_cell_angle_gamma   90.00000000
_symmetry_Int_Tables_number   1
_chemical_formula_structural   CaTeO3
_chemical_formula_sum   'Ca20 Te20 O60'
_cell_volume   1686.58199104
_cell_formula_units_Z   20
loop_
 _symmetry_equiv_pos_site_id
 _symmetry_equiv_pos_as_xyz
  1  'x, y, z'
loop_
 _atom_site_type_symbol
 _atom_site_label
 _atom_site_symmetry_multiplicity
 _atom_site_fract_x
 _atom_site_fract_y
 _atom_site_fract_z
 _atom_site_occupancy
  Ca  Ca0  1  0.27368476  0.24244079  0.22746185  1
  Ca  Ca1  1  0.01448408  0.34543913  0.03816739  1
  Ca  Ca2  1  0.03638629  0.26593897  0.74136795  1
  Ca  Ca3  1  0.52368476  0.22746185  0.75755921  1
  Ca  Ca4  1  0.51792740  0.16235709  0.43465100  1
  Ca  Ca5  1  0.76448408  0.96183261  0.34543913  1
  Ca  Ca6  1  0.26792740  0.56534900  0.16235709  1
  Ca  Ca7  1  0.26804143  0.46240350  0.86328630  1
  Ca  Ca8  1  0.51448408  0.65456087  0.96183261  1
  Ca  Ca9  1  0.01804143  0.13671370  0.46240350  1
  Ca  Ca10  1  0.26448408  0.03816739  0.65456087  1
  Ca  Ca11  1  0.77368476  0.75755921  0.77253815  1
  Ca  Ca12  1  0.76804143  0.53759650  0.13671370  1
  Ca  Ca13  1  0.78638629  0.25863205  0.26593897  1
  Ca  Ca14  1  0.76792740  0.43465100  0.83764291  1
  Ca  Ca15  1  0.53638629  0.73406103  0.25863205  1
  Ca  Ca16  1  0.02368476  0.77253815  0.24244079  1
  Ca  Ca17  1  0.28638629  0.74136795  0.73406103  1
  Ca  Ca18  1  0.01792740  0.83764291  0.56534900  1
  Ca  Ca19  1  0.51804143  0.86328630  0.53759650  1
  Te  Te20  1  0.50928742  0.38407907  0.00668019  1
  Te  Te21  1  0.26815824  0.31135097  0.55549767  1
  Te  Te22  1  0.75928742  0.00668019  0.61592093  1
  Te  Te23  1  0.99545854  0.05794534  0.15819655  1
  Te  Te24  1  0.79232453  0.34092078  0.55937636  1
  Te  Te25  1  0.79057222  0.16911158  0.93747248  1
  Te  Te26  1  0.74545854  0.84180345  0.05794534  1
  Te  Te27  1  0.76815824  0.68864903  0.44450233  1
  Te  Te28  1  0.51815824  0.55549767  0.68864903  1
  Te  Te29  1  0.00928742  0.61592093  0.99331981  1
  Te  Te30  1  0.54057222  0.06252752  0.16911158  1
  Te  Te31  1  0.29057222  0.83088842  0.06252752  1
  Te  Te32  1  0.29232453  0.65907922  0.44062364  1
  Te  Te33  1  0.54232453  0.44062364  0.34092078  1
  Te  Te34  1  0.49545854  0.94205466  0.84180345  1
  Te  Te35  1  0.04057222  0.93747248  0.83088842  1
  Te  Te36  1  0.01815824  0.44450233  0.31135097  1
  Te  Te37  1  0.24545854  0.15819655  0.94205466  1
  Te  Te38  1  0.25928742  0.99331981  0.38407907  1
  Te  Te39  1  0.04232453  0.55937636  0.65907922  1
  O  O40  1  0.16421108  0.40881802  0.24125075  1
  O  O41  1  0.64068056  0.02760225  0.50401001  1
  O  O42  1  0.39068056  0.49598999  0.02760225  1
  O  O43  1  0.88315912  0.98421186  0.50897878  1
  O  O44  1  0.34489056  0.13338664  0.81724868  1
  O  O45  1  0.69974201  0.27385009  0.44702436  1
  O  O46  1  0.91421108  0.75874925  0.40881802  1
  O  O47  1  0.41184250  0.60042802  0.80121951  1
  O  O48  1  0.66506381  0.71023284  0.09854783  1
  O  O49  1  0.13315912  0.50897878  0.01578814  1
  O  O50  1  0.91184250  0.39957198  0.19878049  1
  O  O51  1  0.41421108  0.24125075  0.59118198  1
  O  O52  1  0.89847819  0.27503426  0.88388051  1
  O  O53  1  0.09489056  0.18275132  0.13338664  1
  O  O54  1  0.16506381  0.28976716  0.90145217  1
  O  O55  1  0.60133025  0.04436703  0.77794634  1
  O  O56  1  0.63315912  0.49102122  0.98421186  1
  O  O57  1  0.95967504  0.62826603  0.14182917  1
  O  O58  1  0.43530878  0.32058906  0.33434592  1
  O  O59  1  0.40534932  0.08983954  0.25503607  1
  O  O60  1  0.48605539  0.67840975  0.60124238  1
  O  O61  1  0.15534932  0.74496393  0.08983954  1
  O  O62  1  0.98605539  0.32159025  0.39875762  1
  O  O63  1  0.65534932  0.25503607  0.91016046  1
  O  O64  1  0.45967504  0.37173397  0.85817083  1
  O  O65  1  0.64249566  0.39997289  0.22326959  1
  O  O66  1  0.68530878  0.33434592  0.67941094  1
  O  O67  1  0.14249566  0.60002711  0.77673041  1
  O  O68  1  0.38315912  0.01578814  0.49102122  1
  O  O69  1  0.66184250  0.80121951  0.39957198  1
  O  O70  1  0.16184250  0.19878049  0.60042802  1
  O  O71  1  0.44974201  0.55297564  0.27385009  1
  O  O72  1  0.14068056  0.97239775  0.49598999  1
  O  O73  1  0.84489056  0.86661336  0.18275132  1
  O  O74  1  0.66421108  0.59118198  0.75874925  1
  O  O75  1  0.31981284  0.79617292  0.91575092  1
  O  O76  1  0.89068056  0.50401001  0.97239775  1
  O  O77  1  0.56981284  0.91575092  0.20382708  1
  O  O78  1  0.59489056  0.81724868  0.86661336  1
  O  O79  1  0.89249566  0.22326959  0.60002711  1
  O  O80  1  0.41506381  0.90145217  0.71023284  1
  O  O81  1  0.64847819  0.11611949  0.27503426  1
  O  O82  1  0.93530878  0.67941094  0.66565408  1
  O  O83  1  0.06981284  0.08424908  0.79617292  1
  O  O84  1  0.91506381  0.09854783  0.28976716  1
  O  O85  1  0.19974201  0.72614991  0.55297564  1
  O  O86  1  0.10133025  0.95563297  0.22205366  1
  O  O87  1  0.90534932  0.91016046  0.74496393  1
  O  O88  1  0.35133025  0.22205366  0.04436703  1
  O  O89  1  0.85133025  0.77794634  0.95563297  1
  O  O90  1  0.73605539  0.60124238  0.32159025  1
  O  O91  1  0.39847819  0.72496574  0.11611949  1
  O  O92  1  0.18530878  0.66565408  0.32058906  1
  O  O93  1  0.39249566  0.77673041  0.39997289  1
  O  O94  1  0.23605539  0.39875762  0.67840975  1
  O  O95  1  0.81981284  0.20382708  0.08424908  1
  O  O96  1  0.70967504  0.85817083  0.62826603  1
  O  O97  1  0.14847819  0.88388051  0.72496574  1
  O  O98  1  0.94974201  0.44702436  0.72614991  1
  O  O99  1  0.20967504  0.14182917  0.37173397  1
