# generated using pymatgen
data_KLa(PS3)2
_symmetry_space_group_name_H-M   'P 1'
_cell_length_a   7.66184100
_cell_length_b   11.48706692
_cell_length_c   12.18850561
_cell_angle_alpha   109.68038729
_cell_angle_beta   90.00000000
_cell_angle_gamma   90.00000000
_symmetry_Int_Tables_number   1
_chemical_formula_structural   KLa(PS3)2
_chemical_formula_sum   'K4 La4 P8 S24'
_cell_volume   1010.07281948
_cell_formula_units_Z   4
loop_
 _symmetry_equiv_pos_site_id
 _symmetry_equiv_pos_as_xyz
  1  'x, y, z'
loop_
 _atom_site_type_symbol
 _atom_site_label
 _atom_site_symmetry_multiplicity
 _atom_site_fract_x
 _atom_site_fract_y
 _atom_site_fract_z
 _atom_site_occupancy
  K  K0  1  0.90579347  0.62539101  0.86949341  1
  K  K1  1  0.40579347  0.87460899  0.13050659  1
  K  K2  1  0.09420653  0.37460899  0.13050659  1
  K  K3  1  0.59420653  0.12539101  0.86949341  1
  La  La4  1  0.39289160  0.40282802  0.64842006  1
  La  La5  1  0.10710840  0.90282802  0.64842006  1
  La  La6  1  0.89289160  0.09717198  0.35157994  1
  La  La7  1  0.60710840  0.59717198  0.35157994  1
  P  P8  1  0.60015449  0.74628848  0.67069229  1
  P  P9  1  0.89984551  0.24628848  0.67069229  1
  P  P10  1  0.11821190  0.23325139  0.78885107  1
  P  P11  1  0.10015449  0.75371152  0.32930771  1
  P  P12  1  0.88178810  0.76674861  0.21114893  1
  P  P13  1  0.61821190  0.26674861  0.21114893  1
  P  P14  1  0.39984551  0.25371152  0.32930771  1
  P  P15  1  0.38178810  0.73325139  0.78885107  1
  S  S16  1  0.80498574  0.36156228  0.32544527  1
  S  S17  1  0.28647354  0.64482222  0.22680533  1
  S  S18  1  0.71352646  0.35517778  0.77319467  1
  S  S19  1  0.47409751  0.63324539  0.88333389  1
  S  S20  1  0.48263924  0.81604611  0.55469941  1
  S  S21  1  0.98263924  0.68395389  0.44530059  1
  S  S22  1  0.79619025  0.59160755  0.13155018  1
  S  S23  1  0.21352646  0.14482222  0.22680533  1
  S  S24  1  0.18191315  0.93106024  0.41141440  1
  S  S25  1  0.31808685  0.43106024  0.41141440  1
  S  S26  1  0.02590249  0.13324539  0.88333389  1
  S  S27  1  0.01736076  0.31604611  0.55469941  1
  S  S28  1  0.69501426  0.86156228  0.32544527  1
  S  S29  1  0.78647354  0.85517778  0.77319467  1
  S  S30  1  0.30498574  0.13843772  0.67455473  1
  S  S31  1  0.51736076  0.18395389  0.44530059  1
  S  S32  1  0.81808685  0.06893976  0.58858560  1
  S  S33  1  0.20380975  0.40839245  0.86844982  1
  S  S34  1  0.19501426  0.63843772  0.67455473  1
  S  S35  1  0.29619025  0.90839245  0.86844982  1
  S  S36  1  0.97409751  0.86675461  0.11666611  1
  S  S37  1  0.70380975  0.09160755  0.13155018  1
  S  S38  1  0.52590249  0.36675461  0.11666611  1
  S  S39  1  0.68191315  0.56893976  0.58858560  1
