# generated using pymatgen
data_K4Nb2Se11O
_symmetry_space_group_name_H-M   'P 1'
_cell_length_a   14.13239765
_cell_length_b   16.39589826
_cell_length_c   18.98224611
_cell_angle_alpha   90.00000000
_cell_angle_beta   90.00000000
_cell_angle_gamma   90.00000000
_symmetry_Int_Tables_number   1
_chemical_formula_structural   K4Nb2Se11O
_chemical_formula_sum   'K32 Nb16 Se88 O8'
_cell_volume   4398.43991335
_cell_formula_units_Z   8
loop_
 _symmetry_equiv_pos_site_id
 _symmetry_equiv_pos_as_xyz
  1  'x, y, z'
loop_
 _atom_site_type_symbol
 _atom_site_label
 _atom_site_symmetry_multiplicity
 _atom_site_fract_x
 _atom_site_fract_y
 _atom_site_fract_z
 _atom_site_occupancy
  K  K0  1  0.23470594  0.90729285  0.80397394  1
  K  K1  1  0.97760693  0.37444835  0.40447866  1
  K  K2  1  0.74738433  0.67510451  0.54748591  1
  K  K3  1  0.25261567  0.32489549  0.45251409  1
  K  K4  1  0.76529406  0.59270715  0.30397394  1
  K  K5  1  0.52239307  0.87444835  0.59552134  1
  K  K6  1  0.02239307  0.12555165  0.90447866  1
  K  K7  1  0.74738433  0.17510451  0.95251409  1
  K  K8  1  0.76529406  0.09270715  0.19602606  1
  K  K9  1  0.02239307  0.62555165  0.59552134  1
  K  K10  1  0.26529406  0.90729285  0.30397394  1
  K  K11  1  0.09568981  0.08430543  0.62266713  1
  K  K12  1  0.59568981  0.41569457  0.62266713  1
  K  K13  1  0.40431019  0.08430543  0.12266713  1
  K  K14  1  0.52239307  0.37444835  0.90447866  1
  K  K15  1  0.75261567  0.17510451  0.45251409  1
  K  K16  1  0.75261567  0.67510451  0.04748591  1
  K  K17  1  0.26529406  0.40729285  0.19602606  1
  K  K18  1  0.25261567  0.82489549  0.04748591  1
  K  K19  1  0.90431019  0.41569457  0.12266713  1
  K  K20  1  0.24738433  0.82489549  0.54748591  1
  K  K21  1  0.47760693  0.12555165  0.40447866  1
  K  K22  1  0.90431019  0.91569457  0.37733287  1
  K  K23  1  0.97760693  0.87444835  0.09552134  1
  K  K24  1  0.73470594  0.09270715  0.69602606  1
  K  K25  1  0.47760693  0.62555165  0.09552134  1
  K  K26  1  0.09568981  0.58430543  0.87733287  1
  K  K27  1  0.24738433  0.32489549  0.95251409  1
  K  K28  1  0.73470594  0.59270715  0.80397394  1
  K  K29  1  0.59568981  0.91569457  0.87733287  1
  K  K30  1  0.40431019  0.58430543  0.37733287  1
  K  K31  1  0.23470594  0.40729285  0.69602606  1
  Nb  Nb32  1  0.10687354  0.17229782  0.32426327  1
  Nb  Nb33  1  0.10687354  0.67229782  0.17573673  1
  Nb  Nb34  1  0.60687354  0.32770218  0.32426327  1
  Nb  Nb35  1  0.07500272  0.62310419  0.37075033  1
  Nb  Nb36  1  0.42499728  0.12310419  0.62924967  1
  Nb  Nb37  1  0.89312646  0.82770218  0.67573673  1
  Nb  Nb38  1  0.57500272  0.37689581  0.12924967  1
  Nb  Nb39  1  0.60687354  0.82770218  0.17573673  1
  Nb  Nb40  1  0.07500272  0.12310419  0.12924967  1
  Nb  Nb41  1  0.89312646  0.32770218  0.82426327  1
  Nb  Nb42  1  0.39312646  0.67229782  0.67573673  1
  Nb  Nb43  1  0.57500272  0.87689581  0.37075033  1
  Nb  Nb44  1  0.39312646  0.17229782  0.82426327  1
  Nb  Nb45  1  0.42499728  0.62310419  0.87075033  1
  Nb  Nb46  1  0.92499728  0.37689581  0.62924967  1
  Nb  Nb47  1  0.92499728  0.87689581  0.87075033  1
  Se  Se48  1  0.77542466  0.80372239  0.78094530  1
  Se  Se49  1  0.76787266  0.97415454  0.52359328  1
  Se  Se50  1  0.07500936  0.36249139  0.82716940  1
  Se  Se51  1  0.22457534  0.69627761  0.28094530  1
  Se  Se52  1  0.66831663  0.01205449  0.35452142  1
  Se  Se53  1  0.77687032  0.88768102  0.18275138  1
  Se  Se54  1  0.72457534  0.30372239  0.21905470  1
  Se  Se55  1  0.19937679  0.15044943  0.02898774  1
  Se  Se56  1  0.40396533  0.78065283  0.88581825  1
  Se  Se57  1  0.44733669  0.52188091  0.76447964  1
  Se  Se58  1  0.92499064  0.13750861  0.32716940  1
  Se  Se59  1  0.91897217  0.42983314  0.93369852  1
  Se  Se60  1  0.83168337  0.01205449  0.85452142  1
  Se  Se61  1  0.94733669  0.47811909  0.73552036  1
  Se  Se62  1  0.06672954  0.40482432  0.56419489  1
  Se  Se63  1  0.58102783  0.92983314  0.06630148  1
  Se  Se64  1  0.19937679  0.65044943  0.47101226  1
  Se  Se65  1  0.23212734  0.52584546  0.02359328  1
  Se  Se66  1  0.40396533  0.28065283  0.61418175  1
  Se  Se67  1  0.27687032  0.11231898  0.31724862  1
  Se  Se68  1  0.41897217  0.07016686  0.93369852  1
  Se  Se69  1  0.48971195  0.77651708  0.27765439  1
  Se  Se70  1  0.33168337  0.48794551  0.85452142  1
  Se  Se71  1  0.91897217  0.92983314  0.56630148  1
  Se  Se72  1  0.73212734  0.47415454  0.47640672  1
  Se  Se73  1  0.93327046  0.59517568  0.43580511  1
  Se  Se74  1  0.26787266  0.02584546  0.97640672  1
  Se  Se75  1  0.43327046  0.90482432  0.43580511  1
  Se  Se76  1  0.27542466  0.69627761  0.78094530  1
  Se  Se77  1  0.05266331  0.52188091  0.26447964  1
  Se  Se78  1  0.55266331  0.47811909  0.23552036  1
  Se  Se79  1  0.30062321  0.65044943  0.97101226  1
  Se  Se80  1  0.26787266  0.52584546  0.52359328  1
  Se  Se81  1  0.08102783  0.07016686  0.43369852  1
  Se  Se82  1  0.07500936  0.86249139  0.67283060  1
  Se  Se83  1  0.72312968  0.38768102  0.81724862  1
  Se  Se84  1  0.22312968  0.11231898  0.81724862  1
  Se  Se85  1  0.48971195  0.27651708  0.22234561  1
  Se  Se86  1  0.33168337  0.98794551  0.64547858  1
  Se  Se87  1  0.90396533  0.71934717  0.88581825  1
  Se  Se88  1  0.01028805  0.77651708  0.77765439  1
  Se  Se89  1  0.01028805  0.27651708  0.72234561  1
  Se  Se90  1  0.76787266  0.47415454  0.97640672  1
  Se  Se91  1  0.22457534  0.19627761  0.21905470  1
  Se  Se92  1  0.59603467  0.71934717  0.38581825  1
  Se  Se93  1  0.72457534  0.80372239  0.28094530  1
  Se  Se94  1  0.41897217  0.57016686  0.56630148  1
  Se  Se95  1  0.73212734  0.97415454  0.02359328  1
  Se  Se96  1  0.09603467  0.28065283  0.11418175  1
  Se  Se97  1  0.27542466  0.19627761  0.71905470  1
  Se  Se98  1  0.69937679  0.34955057  0.02898774  1
  Se  Se99  1  0.44733669  0.02188091  0.73552036  1
  Se  Se100  1  0.98971195  0.72348292  0.27765439  1
  Se  Se101  1  0.30062321  0.15044943  0.52898774  1
  Se  Se102  1  0.51028805  0.22348292  0.72234561  1
  Se  Se103  1  0.56672954  0.59517568  0.93580511  1
  Se  Se104  1  0.55266331  0.97811909  0.26447964  1
  Se  Se105  1  0.51028805  0.72348292  0.77765439  1
  Se  Se106  1  0.77542466  0.30372239  0.71905470  1
  Se  Se107  1  0.69937679  0.84955057  0.47101226  1
  Se  Se108  1  0.05266331  0.02188091  0.23552036  1
  Se  Se109  1  0.27687032  0.61231898  0.18275138  1
  Se  Se110  1  0.23212734  0.02584546  0.47640672  1
  Se  Se111  1  0.22312968  0.61231898  0.68275138  1
  Se  Se112  1  0.93327046  0.09517568  0.06419489  1
  Se  Se113  1  0.83168337  0.51205449  0.64547858  1
  Se  Se114  1  0.16831663  0.98794551  0.14547858  1
  Se  Se115  1  0.77687032  0.38768102  0.31724862  1
  Se  Se116  1  0.58102783  0.42983314  0.43369852  1
  Se  Se117  1  0.06672954  0.90482432  0.93580511  1
  Se  Se118  1  0.42499064  0.86249139  0.17283060  1
  Se  Se119  1  0.72312968  0.88768102  0.68275138  1
  Se  Se120  1  0.42499064  0.36249139  0.32716940  1
  Se  Se121  1  0.57500936  0.13750861  0.82716940  1
  Se  Se122  1  0.56672954  0.09517568  0.56419489  1
  Se  Se123  1  0.57500936  0.63750861  0.67283060  1
  Se  Se124  1  0.80062321  0.34955057  0.52898774  1
  Se  Se125  1  0.98971195  0.22348292  0.22234561  1
  Se  Se126  1  0.08102783  0.57016686  0.06630148  1
  Se  Se127  1  0.92499064  0.63750861  0.17283060  1
  Se  Se128  1  0.59603467  0.21934717  0.11418175  1
  Se  Se129  1  0.66831663  0.51205449  0.14547858  1
  Se  Se130  1  0.43327046  0.40482432  0.06419489  1
  Se  Se131  1  0.90396533  0.21934717  0.61418175  1
  Se  Se132  1  0.09603467  0.78065283  0.38581825  1
  Se  Se133  1  0.80062321  0.84955057  0.97101226  1
  Se  Se134  1  0.94733669  0.97811909  0.76447964  1
  Se  Se135  1  0.16831663  0.48794551  0.35452142  1
  O  O136  1  0.61611059  0.73547030  0.12659357  1
  O  O137  1  0.38388941  0.26452970  0.87340643  1
  O  O138  1  0.11611059  0.76452970  0.12659357  1
  O  O139  1  0.11611059  0.26452970  0.37340643  1
  O  O140  1  0.88388941  0.73547030  0.62659357  1
  O  O141  1  0.38388941  0.76452970  0.62659357  1
  O  O142  1  0.61611059  0.23547030  0.37340643  1
  O  O143  1  0.88388941  0.23547030  0.87340643  1
