# generated using pymatgen
data_RbNaLi6(SiO4)2
_symmetry_space_group_name_H-M   'P 1'
_cell_length_a   6.38494979
_cell_length_b   7.90874829
_cell_length_c   8.57741019
_cell_angle_alpha   90.54090277
_cell_angle_beta   111.85108975
_cell_angle_gamma   90.00000093
_symmetry_Int_Tables_number   1
_chemical_formula_structural   RbNaLi6(SiO4)2
_chemical_formula_sum   'Rb2 Na2 Li12 Si4 O16'
_cell_volume   401.99360305
_cell_formula_units_Z   2
loop_
 _symmetry_equiv_pos_site_id
 _symmetry_equiv_pos_as_xyz
  1  'x, y, z'
loop_
 _atom_site_type_symbol
 _atom_site_label
 _atom_site_symmetry_multiplicity
 _atom_site_fract_x
 _atom_site_fract_y
 _atom_site_fract_z
 _atom_site_occupancy
  Rb  Rb0  1  0.24453214  0.46885669  0.48906428  1
  Rb  Rb1  1  0.75546786  0.53114331  0.51093572  1
  Na  Na2  1  0.74836653  0.00000000  1.00000000  1
  Na  Na3  1  0.25163347  1.00000000  0.00000000  1
  Li  Li4  1  0.64094274  0.86561590  0.28188547  1
  Li  Li5  1  0.67680052  0.37334290  0.86126232  1
  Li  Li6  1  0.44468077  0.13379316  0.37384676  1
  Li  Li7  1  0.92916599  0.13379316  0.37384676  1
  Li  Li8  1  0.07083401  0.86620684  0.62615324  1
  Li  Li9  1  0.55531923  0.86620684  0.62615324  1
  Li  Li10  1  0.93297605  0.71682002  0.86595211  1
  Li  Li11  1  0.81553820  0.62665710  0.13873768  1
  Li  Li12  1  0.35905726  0.13438410  0.71811453  1
  Li  Li13  1  0.18446180  0.37334290  0.86126232  1
  Li  Li14  1  0.32319948  0.62665710  0.13873768  1
  Li  Li15  1  0.06702395  0.28317998  0.13404789  1
  Si  Si16  1  0.85398776  0.14042804  0.70797552  1
  Si  Si17  1  0.14601224  0.85957196  0.29202448  1
  Si  Si18  1  0.42930765  0.70858093  0.85861531  1
  Si  Si19  1  0.57069235  0.29141907  0.14138469  1
  O  O20  1  0.02337668  0.19552215  0.61001286  1
  O  O21  1  0.18262692  0.60971315  0.80156027  1
  O  O22  1  0.41336382  0.80447785  0.38998714  1
  O  O23  1  0.86971971  0.93342783  0.73943943  1
  O  O24  1  0.61893335  0.60971315  0.80156027  1
  O  O25  1  0.94680850  0.23835740  0.89361699  1
  O  O26  1  0.53189039  0.74449258  0.06378078  1
  O  O27  1  0.61617877  0.10350273  0.23235755  1
  O  O28  1  0.58663618  0.19552215  0.61001286  1
  O  O29  1  0.46810961  0.25550742  0.93621922  1
  O  O30  1  0.38106665  0.39028685  0.19843973  1
  O  O31  1  0.81737308  0.39028685  0.19843973  1
  O  O32  1  0.13028029  0.06657217  0.26056057  1
  O  O33  1  0.05319150  0.76164260  0.10638301  1
  O  O34  1  0.38382123  0.89649727  0.76764245  1
  O  O35  1  0.97662332  0.80447785  0.38998714  1
