# generated using pymatgen
data_K2Zn3(P2O7)2
_symmetry_space_group_name_H-M   'P 1'
_cell_length_a   10.13104683
_cell_length_b   10.25464468
_cell_length_c   13.09655816
_cell_angle_alpha   90.00000000
_cell_angle_beta   90.00000000
_cell_angle_gamma   90.00000000
_symmetry_Int_Tables_number   1
_chemical_formula_structural   K2Zn3(P2O7)2
_chemical_formula_sum   'K8 Zn12 P16 O56'
_cell_volume   1360.60516602
_cell_formula_units_Z   4
loop_
 _symmetry_equiv_pos_site_id
 _symmetry_equiv_pos_as_xyz
  1  'x, y, z'
loop_
 _atom_site_type_symbol
 _atom_site_label
 _atom_site_symmetry_multiplicity
 _atom_site_fract_x
 _atom_site_fract_y
 _atom_site_fract_z
 _atom_site_occupancy
  K  K0  1  0.22681861  0.34339077  0.77805495  1
  K  K1  1  0.27318139  0.65660923  0.27805495  1
  K  K2  1  0.90299320  0.48108465  0.00409628  1
  K  K3  1  0.09700680  0.98108465  0.49590372  1
  K  K4  1  0.72681861  0.15660923  0.22194505  1
  K  K5  1  0.59700680  0.51891535  0.50409628  1
  K  K6  1  0.40299320  0.01891535  0.99590372  1
  K  K7  1  0.77318139  0.84339077  0.72194505  1
  Zn  Zn8  1  0.79909019  0.09763280  0.92193039  1
  Zn  Zn9  1  0.34931706  0.01424520  0.29740412  1
  Zn  Zn10  1  0.84931706  0.48575480  0.70259588  1
  Zn  Zn11  1  0.65068294  0.51424520  0.20259588  1
  Zn  Zn12  1  0.29909019  0.40236720  0.07806961  1
  Zn  Zn13  1  0.97788406  0.81423123  0.13461458  1
  Zn  Zn14  1  0.15068294  0.98575480  0.79740412  1
  Zn  Zn15  1  0.47788406  0.68576877  0.86538542  1
  Zn  Zn16  1  0.52211594  0.18576877  0.63461458  1
  Zn  Zn17  1  0.02211594  0.31423123  0.36538542  1
  Zn  Zn18  1  0.70090981  0.90236720  0.42193039  1
  Zn  Zn19  1  0.20090981  0.59763280  0.57806961  1
  P  P20  1  0.55830582  0.41321522  0.79823721  1
  P  P21  1  0.72313888  0.79786907  0.99851330  1
  P  P22  1  0.42700569  0.32718048  0.30306053  1
  P  P23  1  0.05830582  0.08678478  0.20176279  1
  P  P24  1  0.94169418  0.58678478  0.29823721  1
  P  P25  1  0.44169418  0.91321522  0.70176279  1
  P  P26  1  0.07299431  0.67281952  0.80306053  1
  P  P27  1  0.90510958  0.69119996  0.50532141  1
  P  P28  1  0.59489042  0.30880004  0.00532141  1
  P  P29  1  0.22313888  0.70213093  0.00148670  1
  P  P30  1  0.27686112  0.29786907  0.50148670  1
  P  P31  1  0.40510958  0.80880004  0.49467859  1
  P  P32  1  0.92700569  0.17281952  0.69693947  1
  P  P33  1  0.77686112  0.20213093  0.49851330  1
  P  P34  1  0.57299431  0.82718048  0.19693947  1
  P  P35  1  0.09489042  0.19119996  0.99467859  1
  O  O36  1  0.73672778  0.08967436  0.42829666  1
  O  O37  1  0.43904799  0.89764941  0.19800130  1
  O  O38  1  0.55563571  0.80811551  0.48885012  1
  O  O39  1  0.14416127  0.12050710  0.09922193  1
  O  O40  1  0.17323605  0.61733412  0.72711392  1
  O  O41  1  0.67323605  0.88266588  0.27288608  1
  O  O42  1  0.66220226  0.26714737  0.55500257  1
  O  O43  1  0.26327222  0.58967436  0.07170334  1
  O  O44  1  0.12811453  0.63288423  0.91599716  1
  O  O45  1  0.14369269  0.80596143  0.05714400  1
  O  O46  1  0.44580448  0.17890390  0.29666860  1
  O  O47  1  0.06095201  0.10235059  0.69800130  1
  O  O48  1  0.76327222  0.91032564  0.92829666  1
  O  O49  1  0.05419552  0.82109610  0.79666860  1
  O  O50  1  0.35630731  0.19403857  0.55714400  1
  O  O51  1  0.64416127  0.37949290  0.90077807  1
  O  O52  1  0.65834520  0.47702750  0.72684363  1
  O  O53  1  0.85457602  0.83252774  0.49881122  1
  O  O54  1  0.94580448  0.32109610  0.70333140  1
  O  O55  1  0.14542398  0.33252774  0.00118878  1
  O  O56  1  0.05563571  0.69188449  0.51114988  1
  O  O57  1  0.85583873  0.62050710  0.40077807  1
  O  O58  1  0.84165480  0.52297250  0.22684363  1
  O  O59  1  0.94436429  0.19188449  0.98885012  1
  O  O60  1  0.16552555  0.11473491  0.91062490  1
  O  O61  1  0.93904799  0.60235059  0.80199870  1
  O  O62  1  0.37188547  0.36711577  0.41599716  1
  O  O63  1  0.05392579  0.49527835  0.33005983  1
  O  O64  1  0.66552555  0.38526509  0.08937510  1
  O  O65  1  0.33447445  0.88526509  0.41062490  1
  O  O66  1  0.32676395  0.38266588  0.22711392  1
  O  O67  1  0.64369269  0.69403857  0.94285600  1
  O  O68  1  0.83447445  0.61473491  0.58937510  1
  O  O69  1  0.49753368  0.28591175  0.76017053  1
  O  O70  1  0.87188547  0.13288423  0.58400284  1
  O  O71  1  0.99753368  0.21408825  0.23982947  1
  O  O72  1  0.34165480  0.97702750  0.77315637  1
  O  O73  1  0.15834520  0.02297250  0.27315637  1
  O  O74  1  0.35583873  0.87949290  0.59922193  1
  O  O75  1  0.64542398  0.16747226  0.99881122  1
  O  O76  1  0.50246632  0.78591175  0.73982947  1
  O  O77  1  0.83779774  0.73285263  0.05500257  1
  O  O78  1  0.44607421  0.50472165  0.83005983  1
  O  O79  1  0.55392579  0.00472165  0.66994017  1
  O  O80  1  0.44436429  0.30811551  0.01114988  1
  O  O81  1  0.35457602  0.66747226  0.50118878  1
  O  O82  1  0.94607421  0.99527835  0.16994017  1
  O  O83  1  0.82676395  0.11733412  0.77288608  1
  O  O84  1  0.85630731  0.30596143  0.44285600  1
  O  O85  1  0.00246632  0.71408825  0.26017053  1
  O  O86  1  0.16220226  0.23285263  0.44499743  1
  O  O87  1  0.23672778  0.41032564  0.57170334  1
  O  O88  1  0.56095201  0.39764941  0.30199870  1
  O  O89  1  0.55419552  0.67890390  0.20333140  1
  O  O90  1  0.33779774  0.76714737  0.94499743  1
  O  O91  1  0.62811453  0.86711577  0.08400284  1
