# generated using pymatgen
data_NaPr2S2O8F3
_symmetry_space_group_name_H-M   'P 1'
_cell_length_a   6.99456577
_cell_length_b   8.30391993
_cell_length_c   8.65380389
_cell_angle_alpha   113.43073430
_cell_angle_beta   113.83677395
_cell_angle_gamma   89.99999678
_symmetry_Int_Tables_number   1
_chemical_formula_structural   NaPr2S2O8F3
_chemical_formula_sum   'Na2 Pr4 S4 O16 F6'
_cell_volume   414.04244453
_cell_formula_units_Z   2
loop_
 _symmetry_equiv_pos_site_id
 _symmetry_equiv_pos_as_xyz
  1  'x, y, z'
loop_
 _atom_site_type_symbol
 _atom_site_label
 _atom_site_symmetry_multiplicity
 _atom_site_fract_x
 _atom_site_fract_y
 _atom_site_fract_z
 _atom_site_occupancy
  Na  Na0  1  0.38219749  0.25000000  1.00000000  1
  Na  Na1  1  0.61780251  0.75000000  0.00000000  1
  Pr  Pr2  1  0.21099229  0.96213829  0.23969104  1
  Pr  Pr3  1  0.97130125  0.53786171  0.76030896  1
  Pr  Pr4  1  0.02869875  0.46213829  0.23969104  1
  Pr  Pr5  1  0.78900771  0.03786171  0.76030896  1
  S  S6  1  0.59243740  0.66121079  0.35846391  1
  S  S7  1  0.40756260  0.33878921  0.64153609  1
  S  S8  1  0.23397349  0.83878921  0.64153609  1
  S  S9  1  0.76602651  0.16121079  0.35846391  1
  O  O10  1  0.15421184  0.65554862  0.61060595  1
  O  O11  1  0.60569796  0.47373008  0.73576063  1
  O  O12  1  0.13006267  0.97373008  0.73576063  1
  O  O13  1  0.17652328  0.82051923  0.44907005  1
  O  O14  1  0.29269232  0.38881697  0.76012318  1
  O  O15  1  0.84578816  0.34445138  0.38939405  1
  O  O16  1  0.54360589  0.84445138  0.38939405  1
  O  O17  1  0.70730768  0.61118303  0.23987682  1
  O  O18  1  0.86993733  0.02626992  0.26423937  1
  O  O19  1  0.27254677  0.32051923  0.44907005  1
  O  O20  1  0.53256915  0.11118303  0.23987682  1
  O  O21  1  0.72745323  0.67948077  0.55092995  1
  O  O22  1  0.46743085  0.88881697  0.76012318  1
  O  O23  1  0.39430204  0.52626992  0.26423937  1
  O  O24  1  0.45639411  0.15554862  0.61060595  1
  O  O25  1  0.82347672  0.17948077  0.55092995  1
  F  F26  1  0.10262331  0.16009162  0.09020795  1
  F  F27  1  0.98758464  0.66009162  0.09020795  1
  F  F28  1  0.89737669  0.83990838  0.90979205  1
  F  F29  1  0.01241536  0.33990838  0.90979205  1
  F  F30  1  0.71613237  0.25000000  1.00000000  1
  F  F31  1  0.28386763  0.75000000  0.00000000  1
