# generated using pymatgen
data_Na5Bi2As5O18
_symmetry_space_group_name_H-M   'P 1'
_cell_length_a   7.18485547
_cell_length_b   10.24580128
_cell_length_c   12.31278077
_cell_angle_alpha   97.39371770
_cell_angle_beta   92.21293728
_cell_angle_gamma   90.91537023
_symmetry_Int_Tables_number   1
_chemical_formula_structural   Na5Bi2As5O18
_chemical_formula_sum   'Na10 Bi4 As10 O36'
_cell_volume   897.99298187
_cell_formula_units_Z   2
loop_
 _symmetry_equiv_pos_site_id
 _symmetry_equiv_pos_as_xyz
  1  'x, y, z'
loop_
 _atom_site_type_symbol
 _atom_site_label
 _atom_site_symmetry_multiplicity
 _atom_site_fract_x
 _atom_site_fract_y
 _atom_site_fract_z
 _atom_site_occupancy
  Na  Na0  1  0.01507269  0.06494729  0.87320108  1
  Na  Na1  1  0.77228021  0.12346910  0.35813869  1
  Na  Na2  1  0.98492731  0.93505271  0.12679892  1
  Na  Na3  1  0.47101172  0.72991993  0.40258789  1
  Na  Na4  1  0.66471376  0.60798125  0.11947532  1
  Na  Na5  1  0.91153749  0.77638773  0.34483844  1
  Na  Na6  1  0.52898828  0.27008007  0.59741211  1
  Na  Na7  1  0.22771979  0.87653090  0.64186131  1
  Na  Na8  1  0.08846251  0.22361227  0.65516156  1
  Na  Na9  1  0.33528624  0.39201875  0.88052468  1
  Bi  Bi10  1  0.23035688  0.37287174  0.39437580  1
  Bi  Bi11  1  0.67357589  0.23499790  0.06073003  1
  Bi  Bi12  1  0.76964312  0.62712826  0.60562420  1
  Bi  Bi13  1  0.32642411  0.76500210  0.93926997  1
  As  As14  1  0.16946910  0.58128891  0.15900388  1
  As  As15  1  0.51030967  0.93614094  0.19577076  1
  As  As16  1  0.82316687  0.73551501  0.89200713  1
  As  As17  1  0.17683313  0.26448499  0.10799287  1
  As  As18  1  0.71667733  0.42577233  0.34066054  1
  As  As19  1  0.28332267  0.57422767  0.65933946  1
  As  As20  1  0.77485274  0.97949666  0.60832676  1
  As  As21  1  0.83053090  0.41871109  0.84099612  1
  As  As22  1  0.22514726  0.02050334  0.39167324  1
  As  As23  1  0.48969033  0.06385906  0.80422924  1
  O  O24  1  0.35485876  0.25141687  0.01864914  1
  O  O25  1  0.98771616  0.68338828  0.16220185  1
  O  O26  1  0.39413479  0.19677858  0.75774904  1
  O  O27  1  0.23028930  0.17543947  0.46881337  1
  O  O28  1  0.76971070  0.82456053  0.53118663  1
  O  O29  1  0.93418731  0.58075347  0.89157625  1
  O  O30  1  0.73433120  0.75452510  0.76526663  1
  O  O31  1  0.24244412  0.41352693  0.60217114  1
  O  O32  1  0.26611260  0.56773673  0.28640087  1
  O  O33  1  0.97156289  0.00827331  0.68837440  1
  O  O34  1  0.01228384  0.31661172  0.83779815  1
  O  O35  1  0.06581269  0.41924653  0.10842375  1
  O  O36  1  0.67202444  0.39874797  0.93995710  1
  O  O37  1  0.26245975  0.89429015  0.46451468  1
  O  O38  1  1.00278935  0.84168333  0.93843278  1
  O  O39  1  0.73388740  0.43226327  0.71359913  1
  O  O40  1  0.67516763  0.09186181  0.89690956  1
  O  O41  1  -0.00278935  0.15831667  0.06156722  1
  O  O42  1  0.90915537  0.32972005  0.35313148  1
  O  O43  1  0.73754025  0.10570985  0.53548532  1
  O  O44  1  0.55097243  0.35661113  0.41664153  1
  O  O45  1  0.35115482  0.58337811  0.79574711  1
  O  O46  1  0.64884518  0.41662189  0.20425289  1
  O  O47  1  0.56686655  0.96465180  0.68425413  1
  O  O48  1  0.75755588  0.58647307  0.39782886  1
  O  O49  1  0.43313345  0.03534820  0.31574587  1
  O  O50  1  0.09084463  0.67027995  0.64686852  1
  O  O51  1  0.02843711  0.99172669  0.31162560  1
  O  O52  1  0.26566880  0.24547490  0.23473337  1
  O  O53  1  0.32483237  0.90813819  0.10309044  1
  O  O54  1  0.32453063  0.95630441  0.84148731  1
  O  O55  1  0.44902757  0.64338887  0.58335847  1
  O  O56  1  0.60586521  0.80322142  0.24225096  1
  O  O57  1  0.32797556  0.60125203  0.06004290  1
  O  O58  1  0.67546937  0.04369559  0.15851269  1
  O  O59  1  0.64514124  0.74858313  0.98135086  1
