# generated using pymatgen
data_Li4Ti3V2Cu3O16
_symmetry_space_group_name_H-M   'P 1'
_cell_length_a   5.91576303
_cell_length_b   5.91886835
_cell_length_c   9.73557460
_cell_angle_alpha   89.99981531
_cell_angle_beta   90.88651634
_cell_angle_gamma   120.01816318
_symmetry_Int_Tables_number   1
_chemical_formula_structural   Li4Ti3V2Cu3O16
_chemical_formula_sum   'Li4 Ti3 V2 Cu3 O16'
_cell_volume   295.11604587
_cell_formula_units_Z   1
loop_
 _symmetry_equiv_pos_site_id
 _symmetry_equiv_pos_as_xyz
  1  'x, y, z'
loop_
 _atom_site_type_symbol
 _atom_site_label
 _atom_site_symmetry_multiplicity
 _atom_site_fract_x
 _atom_site_fract_y
 _atom_site_fract_z
 _atom_site_occupancy
  Li  Li0  1  0.34677417  0.67339338  0.90649564  1
  Li  Li1  1  0.98607369  0.99302553  0.98379005  1
  Li  Li2  1  0.99387954  0.99695767  0.49364613  1
  Li  Li3  1  0.67081428  0.33541767  0.40618381  1
  Ti  Ti4  1  0.19153713  0.84609828  0.22245395  1
  Ti  Ti5  1  0.19152872  0.34544403  0.22246313  1
  Ti  Ti6  1  0.36311105  0.18156246  0.73707568  1
  V  V7  1  0.32337452  0.66171053  0.49916510  1
  V  V8  1  0.72329887  0.36165063  0.98618317  1
  Cu  Cu9  1  0.65751345  0.82875251  0.20894178  1
  Cu  Cu10  1  0.83483796  0.66220497  0.70317713  1
  Cu  Cu11  1  0.83485731  0.17272231  0.70317782  1
  O  O12  1  0.17713172  0.82674364  0.58672554  1
  O  O13  1  0.03436134  0.51717842  0.33417876  1
  O  O14  1  0.32392924  0.66196834  0.10919514  1
  O  O15  1  0.99018031  0.99508898  0.30277746  1
  O  O16  1  0.00081155  0.00043315  0.78987198  1
  O  O17  1  0.17711584  0.35042422  0.58673039  1
  O  O18  1  0.45879035  0.96277330  0.34759420  1
  O  O19  1  0.45878686  0.49603147  0.34759301  1
  O  O20  1  0.31995268  0.15996772  0.10487994  1
  O  O21  1  0.63500969  0.81752081  0.57013603  1
  O  O22  1  0.50746377  0.47091587  0.85040888  1
  O  O23  1  0.50747555  0.03656442  0.85040179  1
  O  O24  1  0.65858651  0.32932368  0.61170549  1
  O  O25  1  0.83240941  0.65090132  0.08810861  1
  O  O26  1  0.96795230  0.48401557  0.86668704  1
  O  O27  1  0.83244121  0.18150812  0.08809235  1
