# generated using pymatgen
data_RbLa9(IrO6)4
_symmetry_space_group_name_H-M   'P 1'
_cell_length_a   7.82485796
_cell_length_b   7.82342321
_cell_length_c   10.51172718
_cell_angle_alpha   111.84613886
_cell_angle_beta   111.85089751
_cell_angle_gamma   90.00360900
_symmetry_Int_Tables_number   1
_chemical_formula_structural   RbLa9(IrO6)4
_chemical_formula_sum   'Rb1 La9 Ir4 O24'
_cell_volume   547.15722629
_cell_formula_units_Z   1
loop_
 _symmetry_equiv_pos_site_id
 _symmetry_equiv_pos_as_xyz
  1  'x, y, z'
loop_
 _atom_site_type_symbol
 _atom_site_label
 _atom_site_symmetry_multiplicity
 _atom_site_fract_x
 _atom_site_fract_y
 _atom_site_fract_z
 _atom_site_occupancy
  Rb  Rb0  1  0.50000000  0.50000000  0.00000000  1
  La  La1  1  0.54085986  0.67492323  0.71075399  1
  La  La2  1  0.03583788  0.54086234  0.71078895  1
  La  La3  1  0.67495321  0.16993094  0.71079312  1
  La  La4  1  0.96416212  0.45913766  0.28921105  1
  La  La5  1  0.45914014  0.32507677  0.28924601  1
  La  La6  1  0.32504679  0.83006906  0.28920688  1
  La  La7  1  0.16990563  0.03585146  0.71076265  1
  La  La8  1  0.00000000  0.00000000  0.00000000  1
  La  La9  1  0.83009437  0.96414854  0.28923735  1
  Ir  Ir10  1  0.50000000  0.00000000  0.00000000  1
  Ir  Ir11  1  0.24051423  0.24051880  0.48102051  1
  Ir  Ir12  1  0.75948577  0.75948120  0.51897949  1
  Ir  Ir13  1  0.00000000  0.50000000  0.00000000  1
  O  O14  1  0.50840474  0.04655733  0.82346119  1
  O  O15  1  0.04656115  0.31503016  0.82340121  1
  O  O16  1  0.98918834  0.29595590  0.46904321  1
  O  O17  1  0.82691386  0.01084926  0.53095435  1
  O  O18  1  0.13095433  0.71271958  1.00001490  1
  O  O19  1  0.29596015  0.47990501  0.46904337  1
  O  O20  1  0.77684068  0.50838425  0.82341116  1
  O  O21  1  0.28742760  0.13093639  0.99999337  1
  O  O22  1  0.52013352  0.82689879  0.53094369  1
  O  O23  1  0.68494361  0.22308175  0.17654733  1
  O  O24  1  0.31505639  0.77691825  0.82345267  1
  O  O25  1  0.12762864  0.12762684  0.25520919  1
  O  O26  1  0.95343885  0.68496984  0.17659879  1
  O  O27  1  0.01081166  0.70404410  0.53095679  1
  O  O28  1  0.49159526  0.95344267  0.17653881  1
  O  O29  1  0.87237136  0.87237316  0.74479081  1
  O  O30  1  0.71257240  0.86906361  0.00000663  1
  O  O31  1  0.86904567  0.28728042  -0.00001490  1
  O  O32  1  0.17308614  0.98915074  0.46904565  1
  O  O33  1  0.70403985  0.52009499  0.53095663  1
  O  O34  1  0.65030580  0.65029473  0.30061111  1
  O  O35  1  0.34969420  0.34970527  0.69938889  1
  O  O36  1  0.22315932  0.49161575  0.17658884  1
  O  O37  1  0.47986648  0.17310121  0.46905631  1
