# generated using pymatgen
data_Nb3Te8I7O
_symmetry_space_group_name_H-M   'P 1'
_cell_length_a   9.21300665
_cell_length_b   16.60345021
_cell_length_c   20.40071897
_cell_angle_alpha   90.00000000
_cell_angle_beta   101.45923818
_cell_angle_gamma   90.00000000
_symmetry_Int_Tables_number   1
_chemical_formula_structural   Nb3Te8I7O
_chemical_formula_sum   'Nb12 Te32 I28 O4'
_cell_volume   3058.44485832
_cell_formula_units_Z   4
loop_
 _symmetry_equiv_pos_site_id
 _symmetry_equiv_pos_as_xyz
  1  'x, y, z'
loop_
 _atom_site_type_symbol
 _atom_site_label
 _atom_site_symmetry_multiplicity
 _atom_site_fract_x
 _atom_site_fract_y
 _atom_site_fract_z
 _atom_site_occupancy
  Nb  Nb0  1  0.56261184  0.14368940  0.37914966  1
  Nb  Nb1  1  0.78414731  0.79445139  0.05120161  1
  Nb  Nb2  1  0.93738816  0.64368940  0.12085034  1
  Nb  Nb3  1  0.71585269  0.29445139  0.44879839  1
  Nb  Nb4  1  0.97293408  0.86938258  0.17641197  1
  Nb  Nb5  1  0.43738816  0.85631060  0.62085034  1
  Nb  Nb6  1  0.47293408  0.63061742  0.67641197  1
  Nb  Nb7  1  0.02706592  0.13061742  0.82358803  1
  Nb  Nb8  1  0.28414731  0.70554861  0.55120161  1
  Nb  Nb9  1  0.21585269  0.20554861  0.94879839  1
  Nb  Nb10  1  0.52706592  0.36938258  0.32358803  1
  Nb  Nb11  1  0.06261184  0.35631060  0.87914966  1
  Te  Te12  1  0.16962806  0.62892229  0.24450058  1
  Te  Te13  1  0.89701763  0.79659185  0.29483151  1
  Te  Te14  1  0.36825321  0.86855962  0.75398312  1
  Te  Te15  1  0.72943161  0.13615983  0.51008793  1
  Te  Te16  1  0.13174679  0.36855962  0.74601688  1
  Te  Te17  1  0.66962806  0.87107771  0.74450058  1
  Te  Te18  1  0.33037194  0.12892229  0.25549942  1
  Te  Te19  1  0.15696387  0.61563654  0.64753611  1
  Te  Te20  1  0.82090633  0.96665489  0.07227025  1
  Te  Te21  1  0.10298237  0.20340815  0.70516849  1
  Te  Te22  1  0.63174679  0.13144038  0.24601688  1
  Te  Te23  1  0.32090633  0.53334511  0.57227025  1
  Te  Te24  1  0.34303613  0.11563654  0.85246389  1
  Te  Te25  1  0.87902235  0.15995645  0.40920070  1
  Te  Te26  1  0.39701763  0.70340815  0.79483151  1
  Te  Te27  1  0.27056839  0.86384017  0.48991207  1
  Te  Te28  1  0.69826894  0.70626978  0.78429756  1
  Te  Te29  1  0.83037194  0.37107771  0.75549942  1
  Te  Te30  1  0.22943161  0.36384017  0.01008793  1
  Te  Te31  1  0.86825321  0.63144038  0.25398312  1
  Te  Te32  1  0.60298237  0.29659185  0.20516849  1
  Te  Te33  1  0.19826894  0.79373022  0.28429756  1
  Te  Te34  1  0.67909367  0.46665489  0.42772975  1
  Te  Te35  1  0.77056839  0.63615983  0.98991207  1
  Te  Te36  1  0.30173106  0.29373022  0.21570244  1
  Te  Te37  1  0.17909367  0.03334511  0.92772975  1
  Te  Te38  1  0.37902235  0.34004355  0.90920070  1
  Te  Te39  1  0.84303613  0.38436346  0.35246389  1
  Te  Te40  1  0.62097765  0.65995645  0.09079930  1
  Te  Te41  1  0.80173106  0.20626978  0.71570244  1
  Te  Te42  1  0.12097765  0.84004355  0.59079930  1
  Te  Te43  1  0.65696387  0.88436346  0.14753611  1
  I  I44  1  0.32635047  0.12613352  0.44364621  1
  I  I45  1  0.46363207  0.27094741  0.75120788  1
  I  I46  1  0.01110898  0.98460164  0.28465692  1
  I  I47  1  0.82635047  0.37386648  0.94364621  1
  I  I48  1  0.92906869  0.47577951  0.15388161  1
  I  I49  1  0.98359957  0.33350434  0.53925652  1
  I  I50  1  0.46680953  0.67672041  0.46039681  1
  I  I51  1  0.28139093  0.42292494  0.37053833  1
  I  I52  1  0.07093131  0.52422049  0.84611839  1
  I  I53  1  0.96680953  0.82327959  0.96039681  1
  I  I54  1  0.53319047  0.32327959  0.53960319  1
  I  I55  1  0.57093131  0.97577951  0.34611839  1
  I  I56  1  0.03636793  0.77094741  0.74879212  1
  I  I57  1  0.48359957  0.16649566  0.03925652  1
  I  I58  1  0.78139093  0.07707506  0.87053833  1
  I  I59  1  0.53636793  0.72905259  0.24879212  1
  I  I60  1  0.01640043  0.66649566  0.46074348  1
  I  I61  1  0.51640043  0.83350434  0.96074348  1
  I  I62  1  0.21860907  0.92292494  0.12946167  1
  I  I63  1  0.03319047  0.17672041  0.03960319  1
  I  I64  1  0.96363207  0.22905259  0.25120788  1
  I  I65  1  0.17364953  0.62613352  0.05635379  1
  I  I66  1  0.51110898  0.51539836  0.78465692  1
  I  I67  1  0.71860907  0.57707506  0.62946167  1
  I  I68  1  0.48889102  0.48460164  0.21534308  1
  I  I69  1  0.98889102  0.01539836  0.71534308  1
  I  I70  1  0.42906869  0.02422049  0.65388161  1
  I  I71  1  0.67364953  0.87386648  0.55635379  1
  O  O72  1  0.45683246  0.73869800  0.63552178  1
  O  O73  1  0.54316754  0.26130200  0.36447822  1
  O  O74  1  0.95683246  0.76130200  0.13552178  1
  O  O75  1  0.04316754  0.23869800  0.86447822  1
