# generated using pymatgen
data_Y9C4I8O
_symmetry_space_group_name_H-M   'P 1'
_cell_length_a   3.86181084
_cell_length_b   11.36699380
_cell_length_c   29.16767856
_cell_angle_alpha   90.00000000
_cell_angle_beta   90.00000000
_cell_angle_gamma   90.00000000
_symmetry_Int_Tables_number   1
_chemical_formula_structural   Y9C4I8O
_chemical_formula_sum   'Y18 C8 I16 O2'
_cell_volume   1280.37883229
_cell_formula_units_Z   2
loop_
 _symmetry_equiv_pos_site_id
 _symmetry_equiv_pos_as_xyz
  1  'x, y, z'
loop_
 _atom_site_type_symbol
 _atom_site_label
 _atom_site_symmetry_multiplicity
 _atom_site_fract_x
 _atom_site_fract_y
 _atom_site_fract_z
 _atom_site_occupancy
  Y  Y0  1  0.75000000  0.26356095  0.31577340  1
  Y  Y1  1  0.25000000  0.60085570  0.02925486  1
  Y  Y2  1  0.75000000  0.54606084  0.75000000  1
  Y  Y3  1  0.25000000  0.73643905  0.81577340  1
  Y  Y4  1  0.75000000  0.39914430  0.52925486  1
  Y  Y5  1  0.25000000  0.60085570  0.47074514  1
  Y  Y6  1  0.25000000  0.45393916  0.25000000  1
  Y  Y7  1  0.75000000  0.52983457  0.13590903  1
  Y  Y8  1  0.75000000  0.39914430  0.97074514  1
  Y  Y9  1  0.25000000  0.47016543  0.63590903  1
  Y  Y10  1  0.75000000  0.52983457  0.36409097  1
  Y  Y11  1  0.25000000  0.47016543  0.86409097  1
  Y  Y12  1  0.75000000  0.67390156  0.57872889  1
  Y  Y13  1  0.75000000  0.67390156  0.92127111  1
  Y  Y14  1  0.75000000  0.26356095  0.18422660  1
  Y  Y15  1  0.25000000  0.73643905  0.68422660  1
  Y  Y16  1  0.25000000  0.32609844  0.42127111  1
  Y  Y17  1  0.25000000  0.32609844  0.07872889  1
  C  C18  1  0.75000000  0.46351879  0.44483155  1
  C  C19  1  0.25000000  0.53648121  0.55516845  1
  C  C20  1  0.25000000  0.39010998  0.33817454  1
  C  C21  1  0.25000000  0.39010998  0.16182546  1
  C  C22  1  0.75000000  0.60989002  0.66182546  1
  C  C23  1  0.75000000  0.46351879  0.05516845  1
  C  C24  1  0.75000000  0.60989002  0.83817454  1
  C  C25  1  0.25000000  0.53648121  0.94483155  1
  I  I26  1  0.25000000  0.89703666  0.60277348  1
  I  I27  1  0.25000000  0.74002176  0.12693221  1
  I  I28  1  0.25000000  0.18667810  0.98803251  1
  I  I29  1  0.25000000  0.74002176  0.37306779  1
  I  I30  1  0.75000000  0.25997824  0.62693221  1
  I  I31  1  0.75000000  0.81332190  0.01196749  1
  I  I32  1  0.25000000  0.33438153  0.75000000  1
  I  I33  1  0.25000000  0.89703666  0.89722652  1
  I  I34  1  0.75000000  0.81332190  0.48803251  1
  I  I35  1  0.75000000  0.25997824  0.87306779  1
  I  I36  1  0.75000000  0.10296334  0.39722652  1
  I  I37  1  0.75000000  0.10296334  0.10277348  1
  I  I38  1  0.25000000  0.18667810  0.51196749  1
  I  I39  1  0.75000000  0.66561847  0.25000000  1
  I  I40  1  0.25000000  0.09324070  0.25000000  1
  I  I41  1  0.75000000  0.90675930  0.75000000  1
  O  O42  1  0.75000000  0.35666130  0.25000000  1
  O  O43  1  0.25000000  0.64333870  0.75000000  1
