# generated using pymatgen
data_Cr2Te4O11
_symmetry_space_group_name_H-M   'P 1'
_cell_length_a   7.12130184
_cell_length_b   7.74054794
_cell_length_c   9.92650855
_cell_angle_alpha   90.00000000
_cell_angle_beta   99.49926551
_cell_angle_gamma   90.00000000
_symmetry_Int_Tables_number   1
_chemical_formula_structural   Cr2Te4O11
_chemical_formula_sum   'Cr4 Te8 O22'
_cell_volume   539.67368771
_cell_formula_units_Z   2
loop_
 _symmetry_equiv_pos_site_id
 _symmetry_equiv_pos_as_xyz
  1  'x, y, z'
loop_
 _atom_site_type_symbol
 _atom_site_label
 _atom_site_symmetry_multiplicity
 _atom_site_fract_x
 _atom_site_fract_y
 _atom_site_fract_z
 _atom_site_occupancy
  Te  Te0  1  0.14346278  0.85466321  0.17457281  1
  Te  Te1  1  0.85653722  0.35466321  0.32542719  1
  Te  Te2  1  0.85653722  0.14533679  0.82542719  1
  Te  Te3  1  0.14346278  0.64533679  0.67457281  1
  Te  Te4  1  0.67233615  0.86001402  0.41354650  1
  Te  Te5  1  0.32766385  0.36001402  0.08645350  1
  Te  Te6  1  0.32766385  0.13998598  0.58645350  1
  Te  Te7  1  0.67233615  0.63998598  0.91354650  1
  Cr  Cr8  1  0.31773418  0.50091894  0.38464586  1
  Cr  Cr9  1  0.68226582  0.00091894  0.11535414  1
  Cr  Cr10  1  0.68226582  0.49908106  0.61535414  1
  Cr  Cr11  1  0.31773418  0.99908106  0.88464586  1
  O  O12  1  0.15817564  0.64952599  0.48604549  1
  O  O13  1  0.84182436  0.14952599  0.01395451  1
  O  O14  1  0.84182436  0.35047401  0.51395451  1
  O  O15  1  0.15817564  0.85047401  0.98604549  1
  O  O16  1  0.56282910  0.63966380  0.44963570  1
  O  O17  1  0.43717090  0.13966380  0.05036430  1
  O  O18  1  0.43717090  0.36033620  0.55036430  1
  O  O19  1  0.56282910  0.86033620  0.94963570  1
  O  O20  1  0.46978428  0.36895765  0.26349481  1
  O  O21  1  0.53021572  0.86895765  0.23650519  1
  O  O22  1  0.53021572  0.63104235  0.73650519  1
  O  O23  1  0.46978428  0.13104235  0.76349481  1
  O  O24  1  0.12513981  0.31231176  0.34536298  1
  O  O25  1  0.87486019  0.81231176  0.15463702  1
  O  O26  1  0.87486019  0.68768824  0.65463702  1
  O  O27  1  0.12513981  0.18768824  0.84536298  1
  O  O28  1  0.20435269  0.61718563  0.20847462  1
  O  O29  1  0.79564731  0.11718563  0.29152538  1
  O  O30  1  0.79564731  0.38281437  0.79152538  1
  O  O31  1  0.20435269  0.88281437  0.70847462  1
  O  O32  1  0.50000000  0.00000000  0.50000000  1
  O  O33  1  0.50000000  0.50000000  0.00000000  1
