# generated using pymatgen
data_TeH14C3S3(N3F2)2
_symmetry_space_group_name_H-M   'P 1'
_cell_length_a   6.23826097
_cell_length_b   20.94692274
_cell_length_c   11.53130581
_cell_angle_alpha   90.00000000
_cell_angle_beta   95.78674426
_cell_angle_gamma   90.00000000
_symmetry_Int_Tables_number   1
_chemical_formula_structural   TeH14C3S3(N3F2)2
_chemical_formula_sum   'Te4 H56 C12 S12 N24 F16'
_cell_volume   1499.14438853
_cell_formula_units_Z   4
loop_
 _symmetry_equiv_pos_site_id
 _symmetry_equiv_pos_as_xyz
  1  'x, y, z'
loop_
 _atom_site_type_symbol
 _atom_site_label
 _atom_site_symmetry_multiplicity
 _atom_site_fract_x
 _atom_site_fract_y
 _atom_site_fract_z
 _atom_site_occupancy
  Te  Te0  1  0.12598929  0.90671436  0.95620216  1
  Te  Te1  1  0.12598929  0.59328564  0.45620216  1
  Te  Te2  1  0.87401071  0.40671436  0.54379784  1
  Te  Te3  1  0.87401071  0.09328564  0.04379784  1
  H  H4  1  0.03406605  0.02355081  0.61304668  1
  H  H5  1  0.02710854  0.14884557  0.50530868  1
  H  H6  1  0.03406605  0.47644919  0.11304668  1
  H  H7  1  0.02710854  0.35115443  0.00530868  1
  H  H8  1  0.23721486  0.50342205  0.93093447  1
  H  H9  1  0.19271256  0.35325538  0.71624537  1
  H  H10  1  0.19487384  0.69873389  0.78833164  1
  H  H11  1  0.24267088  0.86843983  0.54117840  1
  H  H12  1  0.10301714  0.12277106  0.72958796  1
  H  H13  1  0.27868365  0.34960895  0.86622219  1
  H  H14  1  0.23721486  0.99657795  0.43093447  1
  H  H15  1  0.19271256  0.14674462  0.21624537  1
  H  H16  1  0.19487384  0.80126611  0.28833164  1
  H  H17  1  0.30321157  0.18864082  0.82291943  1
  H  H18  1  0.24267088  0.63156017  0.04117840  1
  H  H19  1  0.10301714  0.37722894  0.22958796  1
  H  H20  1  0.27868365  0.15039105  0.36622219  1
  H  H21  1  0.39863071  0.16338296  0.98287372  1
  H  H22  1  0.30321157  0.31135918  0.32291943  1
  H  H23  1  0.37407285  0.52375772  0.63632413  1
  H  H24  1  0.39863071  0.33661704  0.48287372  1
  H  H25  1  0.46756672  0.68822887  0.83196695  1
  H  H26  1  0.40110302  0.08282957  0.54218687  1
  H  H27  1  0.37407285  0.97624228  0.13632413  1
  H  H28  1  0.48450782  0.51054904  0.78147590  1
  H  H29  1  0.46756672  0.81177113  0.33196695  1
  H  H30  1  0.51549218  0.01054904  0.71852410  1
  H  H31  1  0.59889698  0.58282957  0.95781313  1
  H  H32  1  0.40110302  0.41717043  0.04218687  1
  H  H33  1  0.48450782  0.98945096  0.28147590  1
  H  H34  1  0.53243328  0.18822887  0.66803305  1
  H  H35  1  0.51549218  0.48945096  0.21852410  1
  H  H36  1  0.62592715  0.02375772  0.86367587  1
  H  H37  1  0.59889698  0.91717043  0.45781313  1
  H  H38  1  0.53243328  0.31177113  0.16803305  1
  H  H39  1  0.60136929  0.66338296  0.51712628  1
  H  H40  1  0.62592715  0.47624228  0.36367587  1
  H  H41  1  0.69678743  0.68864082  0.67708057  1
  H  H42  1  0.60136929  0.83661704  0.01712628  1
  H  H43  1  0.72131635  0.84960895  0.63377781  1
  H  H44  1  0.89698286  0.62277106  0.77041204  1
  H  H45  1  0.75732912  0.36843983  0.95882160  1
  H  H46  1  0.69678743  0.81135918  0.17708057  1
  H  H47  1  0.80512616  0.19873389  0.71166836  1
  H  H48  1  0.80728744  0.85325538  0.78375463  1
  H  H49  1  0.76278514  0.00342205  0.56906553  1
  H  H50  1  0.72131635  0.65039105  0.13377781  1
  H  H51  1  0.89698286  0.87722894  0.27041204  1
  H  H52  1  0.75732912  0.13156017  0.45882160  1
  H  H53  1  0.80512616  0.30126611  0.21166836  1
  H  H54  1  0.80728744  0.64674462  0.28375463  1
  H  H55  1  0.76278514  0.49657795  0.06906553  1
  H  H56  1  0.97289146  0.64884557  0.99469132  1
  H  H57  1  0.96593395  0.52355081  0.88695332  1
  H  H58  1  0.97289146  0.85115443  0.49469132  1
  H  H59  1  0.96593395  0.97644919  0.38695332  1
  C  C60  1  0.04563398  0.86121311  0.67232092  1
  C  C61  1  0.04563398  0.63878689  0.17232092  1
  C  C62  1  0.15769354  0.52588471  0.75599628  1
  C  C63  1  0.15769354  0.97411529  0.25599628  1
  C  C64  1  0.38154687  0.69175185  0.65304287  1
  C  C65  1  0.38154687  0.80824815  0.15304287  1
  C  C66  1  0.61845313  0.19175185  0.84695713  1
  C  C67  1  0.61845313  0.30824815  0.34695713  1
  C  C68  1  0.84230646  0.02588471  0.74400372  1
  C  C69  1  0.84230646  0.47411529  0.24400372  1
  C  C70  1  0.95436602  0.36121311  0.82767908  1
  C  C71  1  0.95436602  0.13878689  0.32767908  1
  S  S72  1  0.06155408  0.04906166  0.84079191  1
  S  S73  1  0.06155408  0.45093834  0.34079191  1
  S  S74  1  0.14164474  0.69730298  0.55369877  1
  S  S75  1  0.14164474  0.80269702  0.05369877  1
  S  S76  1  0.27334169  0.87008493  0.77271473  1
  S  S77  1  0.27334169  0.62991507  0.27271473  1
  S  S78  1  0.72665831  0.37008493  0.72728527  1
  S  S79  1  0.72665831  0.12991507  0.22728527  1
  S  S80  1  0.85835526  0.19730298  0.94630123  1
  S  S81  1  0.85835526  0.30269702  0.44630123  1
  S  S82  1  0.93844592  0.54906166  0.65920809  1
  S  S83  1  0.93844592  0.95093834  0.15920809  1
  N  N84  1  0.12134568  0.51793279  0.86674885  1
  N  N85  1  0.08749289  0.86241994  0.56121060  1
  N  N86  1  0.15439662  0.35123103  0.80062833  1
  N  N87  1  0.12134568  0.98206721  0.36674885  1
  N  N88  1  0.08749289  0.63758006  0.06121060  1
  N  N89  1  0.15439662  0.14876897  0.30062833  1
  N  N90  1  0.34782536  0.69569016  0.76606051  1
  N  N91  1  0.35273197  0.51731842  0.72204303  1
  N  N92  1  0.43028187  0.18722762  0.88627320  1
  N  N93  1  0.34782536  0.80430984  0.26606051  1
  N  N94  1  0.35273197  0.98268158  0.22204303  1
  N  N95  1  0.43028187  0.31277238  0.38627320  1
  N  N96  1  0.56971813  0.68722762  0.61372680  1
  N  N97  1  0.64726803  0.01731842  0.77795697  1
  N  N98  1  0.65217464  0.19569016  0.73393949  1
  N  N99  1  0.56971813  0.81277238  0.11372680  1
  N  N100  1  0.64726803  0.48268158  0.27795697  1
  N  N101  1  0.65217464  0.30430984  0.23393949  1
  N  N102  1  0.84560338  0.85123103  0.69937167  1
  N  N103  1  0.91250711  0.36241994  0.93878940  1
  N  N104  1  0.87865432  0.01793279  0.63325115  1
  N  N105  1  0.84560338  0.64876897  0.19937167  1
  N  N106  1  0.91250711  0.13758006  0.43878940  1
  N  N107  1  0.87865432  0.48206721  0.13325115  1
  F  F108  1  0.10351544  0.16060358  0.67784579  1
  F  F109  1  0.10351544  0.33939642  0.17784579  1
  F  F110  1  0.36335380  0.36317229  0.56853152  1
  F  F111  1  0.32642504  0.03478873  0.57591731  1
  F  F112  1  0.36335380  0.13682771  0.06853152  1
  F  F113  1  0.32642504  0.46521127  0.07591731  1
  F  F114  1  0.53125656  0.62838628  0.99094399  1
  F  F115  1  0.46874344  0.12838628  0.50905601  1
  F  F116  1  0.53125656  0.87161372  0.49094399  1
  F  F117  1  0.46874344  0.37161372  0.00905601  1
  F  F118  1  0.67357496  0.53478873  0.92408269  1
  F  F119  1  0.63664620  0.86317229  0.93146848  1
  F  F120  1  0.67357496  0.96521127  0.42408269  1
  F  F121  1  0.63664620  0.63682771  0.43146848  1
  F  F122  1  0.89648456  0.66060358  0.82215421  1
  F  F123  1  0.89648456  0.83939642  0.32215421  1
