# generated using pymatgen
data_K4Nb6O17
_symmetry_space_group_name_H-M   'P 1'
_cell_length_a   6.60406809
_cell_length_b   7.93895238
_cell_length_c   33.70333568
_cell_angle_alpha   90.00000000
_cell_angle_beta   90.00000000
_cell_angle_gamma   90.00000000
_symmetry_Int_Tables_number   1
_chemical_formula_structural   K4Nb6O17
_chemical_formula_sum   'K16 Nb24 O68'
_cell_volume   1767.04506376
_cell_formula_units_Z   4
loop_
 _symmetry_equiv_pos_site_id
 _symmetry_equiv_pos_as_xyz
  1  'x, y, z'
loop_
 _atom_site_type_symbol
 _atom_site_label
 _atom_site_symmetry_multiplicity
 _atom_site_fract_x
 _atom_site_fract_y
 _atom_site_fract_z
 _atom_site_occupancy
  K  K0  1  0.84676778  0.75545927  0.71756713  1
  K  K1  1  0.34846881  0.75434787  0.78112386  1
  K  K2  1  0.21944230  0.25953441  0.98066498  1
  K  K3  1  0.66933820  0.25618209  0.91686090  1
  K  K4  1  0.78055770  0.75953441  0.01933502  1
  K  K5  1  0.16933820  0.75618209  0.58313910  1
  K  K6  1  0.71944230  0.75953441  0.51933502  1
  K  K7  1  0.34676778  0.25545927  0.78243287  1
  K  K8  1  0.33066180  0.75618209  0.08313910  1
  K  K9  1  0.65323222  0.75545927  0.21756713  1
  K  K10  1  0.15323222  0.25545927  0.28243287  1
  K  K11  1  0.15153119  0.75434787  0.28112386  1
  K  K12  1  0.65153119  0.25434787  0.21887614  1
  K  K13  1  0.28055770  0.25953441  0.48066498  1
  K  K14  1  0.84846881  0.25434787  0.71887614  1
  K  K15  1  0.83066180  0.25618209  0.41686090  1
  Nb  Nb16  1  0.13887906  0.25795196  0.09448819  1
  Nb  Nb17  1  0.18236164  0.76036597  0.45134455  1
  Nb  Nb18  1  0.73597561  0.51431227  0.62595757  1
  Nb  Nb19  1  0.26402439  0.01431227  0.37404243  1
  Nb  Nb20  1  0.70517695  0.50400189  0.32599812  1
  Nb  Nb21  1  0.81763836  0.26036597  0.54865545  1
  Nb  Nb22  1  0.23597561  0.01431227  0.87404243  1
  Nb  Nb23  1  0.76402439  0.51431227  0.12595757  1
  Nb  Nb24  1  0.68236164  0.26036597  0.04865545  1
  Nb  Nb25  1  0.20517695  0.00400189  0.17400188  1
  Nb  Nb26  1  0.73843015  0.00115202  0.62531040  1
  Nb  Nb27  1  0.76156985  0.00115202  0.12531040  1
  Nb  Nb28  1  0.36112094  0.25795196  0.59448819  1
  Nb  Nb29  1  0.79482305  0.50400189  0.82599812  1
  Nb  Nb30  1  0.31763836  0.76036597  0.95134455  1
  Nb  Nb31  1  0.29254355  0.50870466  0.67441362  1
  Nb  Nb32  1  0.86112094  0.75795196  0.90551181  1
  Nb  Nb33  1  0.23843015  0.50115202  0.87468960  1
  Nb  Nb34  1  0.29482305  0.00400189  0.67400188  1
  Nb  Nb35  1  0.79254355  0.00870466  0.82558638  1
  Nb  Nb36  1  0.70745645  0.00870466  0.32558638  1
  Nb  Nb37  1  0.63887906  0.75795196  0.40551181  1
  Nb  Nb38  1  0.26156985  0.50115202  0.37468960  1
  Nb  Nb39  1  0.20745645  0.50870466  0.17441362  1
  O  O40  1  0.87533067  0.26248091  0.49651383  1
  O  O41  1  0.69084360  0.02112317  0.06769765  1
  O  O42  1  0.58788755  0.99584522  0.39163482  1
  O  O43  1  0.49421279  0.00967333  0.85073078  1
  O  O44  1  0.78400394  0.75799806  0.11964940  1
  O  O45  1  0.59178313  0.00821437  0.67867696  1
  O  O46  1  0.50578721  0.50967333  0.14926922  1
  O  O47  1  0.30828063  0.99782848  0.93190670  1
  O  O48  1  0.28764479  0.48212050  0.22531624  1
  O  O49  1  0.21599606  0.25799806  0.88035060  1
  O  O50  1  0.90998374  0.50723058  0.17918082  1
  O  O51  1  0.21497326  0.25752101  0.15704319  1
  O  O52  1  0.77325128  0.25673986  0.83103031  1
  O  O53  1  0.00578721  0.00967333  0.35073078  1
  O  O54  1  0.89049015  0.75963653  0.42980027  1
  O  O55  1  0.72674872  0.25673986  0.33103031  1
  O  O56  1  0.90821687  0.00821437  0.17867696  1
  O  O57  1  0.69739160  0.25831523  0.61952324  1
  O  O58  1  0.71497326  0.75752101  0.34295681  1
  O  O59  1  0.19084360  0.52112317  0.43230235  1
  O  O60  1  0.59001626  0.50723058  0.67918082  1
  O  O61  1  0.71235521  0.98212050  0.77468376  1
  O  O62  1  0.49693076  0.50532631  0.85162963  1
  O  O63  1  0.28633381  0.03178324  0.22480447  1
  O  O64  1  0.91211245  0.99584522  0.89163482  1
  O  O65  1  0.91253176  0.51994441  0.89200513  1
  O  O66  1  0.51465676  0.25900639  0.54507865  1
  O  O67  1  0.27325128  0.75673986  0.66896969  1
  O  O68  1  0.41211245  0.49584522  0.60836518  1
  O  O69  1  0.28400394  0.25799806  0.38035060  1
  O  O70  1  0.78764479  0.98212050  0.27468376  1
  O  O71  1  0.71599606  0.75799806  0.61964940  1
  O  O72  1  -0.00306924  0.00532631  0.64837037  1
  O  O73  1  0.10950985  0.25963653  0.57019973  1
  O  O74  1  0.80828063  0.49782848  0.56809330  1
  O  O75  1  0.78502674  0.75752101  0.84295681  1
  O  O76  1  0.98534324  0.25900639  0.04507865  1
  O  O77  1  0.80260840  0.25831523  0.11952324  1
  O  O78  1  0.37533067  0.76248091  0.00348617  1
  O  O79  1  0.58746824  0.51994441  0.39200513  1
  O  O80  1  0.21366619  0.03178324  0.72480447  1
  O  O81  1  0.80915640  0.02112317  0.56769765  1
  O  O82  1  0.09001626  0.00723058  0.82081918  1
  O  O83  1  0.08746824  0.01994441  0.10799487  1
  O  O84  1  0.01465676  0.75900639  0.95492135  1
  O  O85  1  0.08788755  0.49584522  0.10836518  1
  O  O86  1  0.62466933  0.26248091  0.99651383  1
  O  O87  1  0.40821687  0.50821437  0.32132304  1
  O  O88  1  0.19739160  0.75831523  0.88047676  1
  O  O89  1  0.30915640  0.52112317  0.93230235  1
  O  O90  1  0.39049015  0.25963653  0.07019973  1
  O  O91  1  0.78633381  0.53178324  0.27519553  1
  O  O92  1  0.21235521  0.48212050  0.72531624  1
  O  O93  1  0.30260840  0.75831523  0.38047676  1
  O  O94  1  0.28502674  0.25752101  0.65704319  1
  O  O95  1  0.12466933  0.76248091  0.50348617  1
  O  O96  1  0.50306924  0.00532631  0.14837037  1
  O  O97  1  0.69171937  0.49782848  0.06809330  1
  O  O98  1  1.00306924  0.50532631  0.35162963  1
  O  O99  1  0.48534324  0.75900639  0.45492135  1
  O  O100  1  0.41253176  0.01994441  0.60799487  1
  O  O101  1  0.19171937  0.99782848  0.43190670  1
  O  O102  1  0.60950985  0.75963653  0.92980027  1
  O  O103  1  0.40998374  0.00723058  0.32081918  1
  O  O104  1  0.71366619  0.53178324  0.77519553  1
  O  O105  1  0.09178313  0.50821437  0.82132304  1
  O  O106  1  0.22674872  0.75673986  0.16896969  1
  O  O107  1  0.99421279  0.50967333  0.64926922  1
