# generated using pymatgen
data_K6Cu(SiO4)2
_symmetry_space_group_name_H-M   'P 1'
_cell_length_a   6.27948195
_cell_length_b   6.74770634
_cell_length_c   7.61876090
_cell_angle_alpha   83.47899051
_cell_angle_beta   87.68344583
_cell_angle_gamma   69.92723463
_symmetry_Int_Tables_number   1
_chemical_formula_structural   K6Cu(SiO4)2
_chemical_formula_sum   'K6 Si2 Cu1 O8'
_cell_volume   301.25176071
_cell_formula_units_Z   1
loop_
 _symmetry_equiv_pos_site_id
 _symmetry_equiv_pos_as_xyz
  1  'x, y, z'
loop_
 _atom_site_type_symbol
 _atom_site_label
 _atom_site_symmetry_multiplicity
 _atom_site_fract_x
 _atom_site_fract_y
 _atom_site_fract_z
 _atom_site_occupancy
  K  K0  1  0.65362800  0.82755334  0.16729496  1
  K  K1  1  0.79973284  0.30416671  0.97549210  1
  K  K2  1  0.27493130  0.81396847  0.55898572  1
  K  K3  1  0.72506870  0.18603153  0.44101428  1
  K  K4  1  0.20026716  0.69583329  0.02450790  1
  K  K5  1  0.34637200  0.17244666  0.83270504  1
  Si  Si6  1  0.78058904  0.75960433  0.73189975  1
  Si  Si7  1  0.21941096  0.24039567  0.26810025  1
  Cu  Cu8  1  0.00000000  0.50000000  0.50000000  1
  O  O9  1  0.56420773  0.72522843  0.84204196  1
  O  O10  1  0.83261382  0.96744687  0.78495078  1
  O  O11  1  0.16738618  0.03255313  0.21504922  1
  O  O12  1  0.01635606  0.54160406  0.75332685  1
  O  O13  1  0.43579227  0.27477157  0.15795804  1
  O  O14  1  0.98364394  0.45839594  0.24667315  1
  O  O15  1  0.74395508  0.76952353  0.51209586  1
  O  O16  1  0.25604492  0.23047647  0.48790414  1
