# generated using pymatgen
data_Ba8Ce3(SbO6)4
_symmetry_space_group_name_H-M   'P 1'
_cell_length_a   8.57489089
_cell_length_b   8.57489095
_cell_length_c   10.53582055
_cell_angle_alpha   114.01274450
_cell_angle_beta   114.01274465
_cell_angle_gamma   90.00000349
_symmetry_Int_Tables_number   1
_chemical_formula_structural   Ba8Ce3(SbO6)4
_chemical_formula_sum   'Ba8 Ce3 Sb4 O24'
_cell_volume   633.53947196
_cell_formula_units_Z   1
loop_
 _symmetry_equiv_pos_site_id
 _symmetry_equiv_pos_as_xyz
  1  'x, y, z'
loop_
 _atom_site_type_symbol
 _atom_site_label
 _atom_site_symmetry_multiplicity
 _atom_site_fract_x
 _atom_site_fract_y
 _atom_site_fract_z
 _atom_site_occupancy
  Ba  Ba0  1  0.34579225  0.34579225  0.23232821  1
  Ba  Ba1  1  0.34579225  0.88653596  0.23232821  1
  Ba  Ba2  1  0.11346404  0.11346404  0.76767179  1
  Ba  Ba3  1  0.65420775  0.11346404  0.76767179  1
  Ba  Ba4  1  0.88653596  0.34579225  0.23232821  1
  Ba  Ba5  1  0.65420775  0.65420775  0.76767179  1
  Ba  Ba6  1  0.11346404  0.65420775  0.76767179  1
  Ba  Ba7  1  0.88653596  0.88653596  0.23232821  1
  Ce  Ce8  1  0.25000000  0.75000000  0.50000000  1
  Ce  Ce9  1  0.75000000  0.25000000  0.50000000  1
  Ce  Ce10  1  0.50000000  0.50000000  0.00000000  1
  Sb  Sb11  1  0.74471898  0.74471898  0.48943796  1
  Sb  Sb12  1  0.25528102  0.25528102  0.51056204  1
  Sb  Sb13  1  0.50000000  0.00000000  0.00000000  1
  Sb  Sb14  1  0.00000000  0.50000000  0.00000000  1
  O  O15  1  0.23953889  0.50000000  0.00000000  1
  O  O16  1  0.37090814  0.37090814  0.74181628  1
  O  O17  1  0.98509258  0.74624546  0.49249091  1
  O  O18  1  0.01490742  0.25375454  0.50750909  1
  O  O19  1  0.74624546  0.50739834  0.49249091  1
  O  O20  1  0.76046111  0.50000000  1.00000000  1
  O  O21  1  0.88025203  0.38025203  0.76050405  1
  O  O22  1  0.00000000  0.27254102  1.00000000  1
  O  O23  1  0.25375454  0.49260166  0.50750909  1
  O  O24  1  0.50000000  0.76046111  1.00000000  1
  O  O25  1  0.11974797  0.61974797  0.23949595  1
  O  O26  1  0.25375454  0.01490742  0.50750909  1
  O  O27  1  0.50739834  0.74624546  0.49249091  1
  O  O28  1  0.62909186  0.62909186  0.25818372  1
  O  O29  1  1.00000000  0.72745898  0.00000000  1
  O  O30  1  0.50000000  0.23953889  0.00000000  1
  O  O31  1  0.72745898  1.00000000  0.00000000  1
  O  O32  1  0.74624546  0.98509258  0.49249091  1
  O  O33  1  0.14100682  0.14100682  0.28201364  1
  O  O34  1  0.61974797  0.11974797  0.23949595  1
  O  O35  1  0.85899318  0.85899318  0.71798636  1
  O  O36  1  0.27254102  0.00000000  1.00000000  1
  O  O37  1  0.49260166  0.25375454  0.50750909  1
  O  O38  1  0.38025203  0.88025203  0.76050405  1
