# generated using pymatgen
data_Cs8Tl8O
_symmetry_space_group_name_H-M   'P 1'
_cell_length_a   12.14200991
_cell_length_b   12.14200942
_cell_length_c   12.14201040
_cell_angle_alpha   44.45692034
_cell_angle_beta   44.45692258
_cell_angle_gamma   44.45692160
_symmetry_Int_Tables_number   1
_chemical_formula_structural   Cs8Tl8O
_chemical_formula_sum   'Cs8 Tl8 O1'
_cell_volume   798.28949599
_cell_formula_units_Z   1
loop_
 _symmetry_equiv_pos_site_id
 _symmetry_equiv_pos_as_xyz
  1  'x, y, z'
loop_
 _atom_site_type_symbol
 _atom_site_label
 _atom_site_symmetry_multiplicity
 _atom_site_fract_x
 _atom_site_fract_y
 _atom_site_fract_z
 _atom_site_occupancy
  Cs  Cs0  1  0.67143286  0.67143286  0.67143286  1
  Cs  Cs1  1  0.32856714  0.32856714  0.32856714  1
  Cs  Cs2  1  0.33151880  0.46197820  0.85197148  1
  Cs  Cs3  1  0.85197148  0.33151880  0.46197820  1
  Cs  Cs4  1  0.53802180  0.14802852  0.66848120  1
  Cs  Cs5  1  0.46197820  0.85197148  0.33151880  1
  Cs  Cs6  1  0.14802852  0.66848120  0.53802180  1
  Cs  Cs7  1  0.66848120  0.53802180  0.14802852  1
  Tl  Tl8  1  0.11919393  0.11919393  0.11919393  1
  Tl  Tl9  1  0.95809840  0.75185250  0.17116999  1
  Tl  Tl10  1  0.75185250  0.17116999  0.95809840  1
  Tl  Tl11  1  0.17116999  0.95809840  0.75185250  1
  Tl  Tl12  1  0.24814750  0.82883001  0.04190160  1
  Tl  Tl13  1  0.04190160  0.24814750  0.82883001  1
  Tl  Tl14  1  0.88080607  0.88080607  0.88080607  1
  Tl  Tl15  1  0.82883001  0.04190160  0.24814750  1
  O  O16  1  0.50000000  0.50000000  0.50000000  1
