# generated using pymatgen
data_BaHgRuO5
_symmetry_space_group_name_H-M   'P 1'
_cell_length_a   10.36590763
_cell_length_b   10.36590808
_cell_length_c   8.62070103
_cell_angle_alpha   90.00000000
_cell_angle_beta   90.00000000
_cell_angle_gamma   119.99999852
_symmetry_Int_Tables_number   1
_chemical_formula_structural   BaHgRuO5
_chemical_formula_sum   'Ba6 Hg6 Ru6 O30'
_cell_volume   802.20970135
_cell_formula_units_Z   6
loop_
 _symmetry_equiv_pos_site_id
 _symmetry_equiv_pos_as_xyz
  1  'x, y, z'
loop_
 _atom_site_type_symbol
 _atom_site_label
 _atom_site_symmetry_multiplicity
 _atom_site_fract_x
 _atom_site_fract_y
 _atom_site_fract_z
 _atom_site_occupancy
  Ba  Ba0  1  0.33333300  0.66666700  0.48335938  1
  Ba  Ba1  1  0.66666700  0.33333300  0.51664062  1
  Ba  Ba2  1  0.66666700  0.33333300  0.98335938  1
  Ba  Ba3  1  0.00000000  0.00000000  0.00000000  1
  Ba  Ba4  1  0.33333300  0.66666700  0.01664062  1
  Ba  Ba5  1  0.00000000  0.00000000  0.50000000  1
  Hg  Hg6  1  0.66673335  0.98718747  0.75000000  1
  Hg  Hg7  1  0.01281253  0.67954587  0.75000000  1
  Hg  Hg8  1  0.67954587  0.66673335  0.25000000  1
  Hg  Hg9  1  0.32045413  0.33326665  0.75000000  1
  Hg  Hg10  1  0.98718747  0.32045413  0.25000000  1
  Hg  Hg11  1  0.33326665  0.01281253  0.25000000  1
  Ru  Ru12  1  0.65766413  0.98738364  0.25000000  1
  Ru  Ru13  1  0.98738364  0.32971951  0.75000000  1
  Ru  Ru14  1  0.34233587  0.01261636  0.75000000  1
  Ru  Ru15  1  0.01261636  0.67028049  0.25000000  1
  Ru  Ru16  1  0.32971951  0.34233587  0.25000000  1
  Ru  Ru17  1  0.67028049  0.65766413  0.75000000  1
  O  O18  1  0.09078901  0.20816452  0.75000000  1
  O  O19  1  0.24304151  0.35094461  0.42633932  1
  O  O20  1  0.57063142  0.11971339  0.75000000  1
  O  O21  1  0.33673961  0.83641496  0.75000000  1
  O  O22  1  0.64905539  0.89209690  0.07366068  1
  O  O23  1  0.64905539  0.89209690  0.42633932  1
  O  O24  1  0.75695849  0.64905539  0.92633932  1
  O  O25  1  0.16358504  0.50032465  0.75000000  1
  O  O26  1  0.50032465  0.33673961  0.25000000  1
  O  O27  1  0.79183548  0.88262449  0.75000000  1
  O  O28  1  0.35094461  0.10790310  0.92633932  1
  O  O29  1  0.89209690  0.24304151  0.57366068  1
  O  O30  1  0.89209690  0.24304151  0.92633932  1
  O  O31  1  0.10790310  0.75695849  0.42633932  1
  O  O32  1  0.90921099  0.79183548  0.25000000  1
  O  O33  1  0.83641496  0.49967535  0.25000000  1
  O  O34  1  0.88262449  0.09078901  0.25000000  1
  O  O35  1  0.88028661  0.45091804  0.75000000  1
  O  O36  1  0.35094461  0.10790310  0.57366068  1
  O  O37  1  0.42936858  0.88028661  0.25000000  1
  O  O38  1  0.11737551  0.90921099  0.75000000  1
  O  O39  1  0.49967535  0.66326039  0.75000000  1
  O  O40  1  0.45091804  0.57063142  0.25000000  1
  O  O41  1  0.75695849  0.64905539  0.57366068  1
  O  O42  1  0.24304151  0.35094461  0.07366068  1
  O  O43  1  0.10790310  0.75695849  0.07366068  1
  O  O44  1  0.54908196  0.42936858  0.75000000  1
  O  O45  1  0.66326039  0.16358504  0.25000000  1
  O  O46  1  0.11971339  0.54908196  0.25000000  1
  O  O47  1  0.20816452  0.11737551  0.25000000  1
