# generated using pymatgen
data_CoF3
_symmetry_space_group_name_H-M   'P 1'
_cell_length_a   5.26814026
_cell_length_b   5.26814046
_cell_length_c   5.26814056
_cell_angle_alpha   58.96662619
_cell_angle_beta   58.96662462
_cell_angle_gamma   58.96662161
_symmetry_Int_Tables_number   1
_chemical_formula_structural   CoF3
_chemical_formula_sum   'Co2 F6'
_cell_volume   100.94743992
_cell_formula_units_Z   2
loop_
 _symmetry_equiv_pos_site_id
 _symmetry_equiv_pos_as_xyz
  1  'x, y, z'
loop_
 _atom_site_type_symbol
 _atom_site_label
 _atom_site_symmetry_multiplicity
 _atom_site_fract_x
 _atom_site_fract_y
 _atom_site_fract_z
 _atom_site_occupancy
  Co  Co0  1  0.50000000  0.50000000  0.50000000  1
  Co  Co1  1  0.00000000  0.00000000  0.00000000  1
  F  F2  1  0.36047370  0.75000000  0.13952630  1
  F  F3  1  0.75000000  0.13952630  0.36047370  1
  F  F4  1  0.86047370  0.63952630  0.25000000  1
  F  F5  1  0.25000000  0.86047370  0.63952630  1
  F  F6  1  0.63952630  0.25000000  0.86047370  1
  F  F7  1  0.13952630  0.36047370  0.75000000  1
