# generated using pymatgen
data_Sn5(PO5)2
_symmetry_space_group_name_H-M   'P 1'
_cell_length_a   7.28952691
_cell_length_b   7.32344881
_cell_length_c   13.23587286
_cell_angle_alpha   87.91509407
_cell_angle_beta   86.08414629
_cell_angle_gamma   61.81678850
_symmetry_Int_Tables_number   1
_chemical_formula_structural   Sn5(PO5)2
_chemical_formula_sum   'Sn10 P4 O20'
_cell_volume   621.35729070
_cell_formula_units_Z   2
loop_
 _symmetry_equiv_pos_site_id
 _symmetry_equiv_pos_as_xyz
  1  'x, y, z'
loop_
 _atom_site_type_symbol
 _atom_site_label
 _atom_site_symmetry_multiplicity
 _atom_site_fract_x
 _atom_site_fract_y
 _atom_site_fract_z
 _atom_site_occupancy
  Sn  Sn0  1  0.99435829  0.69726766  0.16825679  1
  Sn  Sn1  1  0.43685900  0.78365381  0.14044109  1
  Sn  Sn2  1  0.67352064  0.30524787  0.37641158  1
  Sn  Sn3  1  0.00564171  0.30273234  0.83174321  1
  Sn  Sn4  1  0.93243061  0.23906158  0.13143757  1
  Sn  Sn5  1  0.56314100  0.21634619  0.85955891  1
  Sn  Sn6  1  0.19310112  0.19679685  0.37881958  1
  Sn  Sn7  1  0.32647936  0.69475213  0.62358842  1
  Sn  Sn8  1  0.06756939  0.76093842  0.86856243  1
  Sn  Sn9  1  0.80689888  0.80320315  0.62118042  1
  P  P10  1  0.93833366  0.19847706  0.60385774  1
  P  P11  1  0.06166634  0.80152294  0.39614226  1
  P  P12  1  0.47087710  0.24288267  0.12266260  1
  P  P13  1  0.52912290  0.75711733  0.87733740  1
  O  O14  1  0.08324091  0.70581881  0.50613712  1
  O  O15  1  0.10814158  0.91279015  0.14636723  1
  O  O16  1  0.68820419  0.52348969  0.88702316  1
  O  O17  1  0.31179581  0.47651031  0.11297684  1
  O  O18  1  0.22312232  0.88195941  0.37817150  1
  O  O19  1  0.77687768  0.11804059  0.62182850  1
  O  O20  1  0.10847636  0.62620258  0.31956477  1
  O  O21  1  0.35558079  0.78371824  0.80531026  1
  O  O22  1  0.64441921  0.21628176  0.19468974  1
  O  O23  1  0.16760418  0.02814358  0.61230894  1
  O  O24  1  0.58477208  0.15305212  0.01945469  1
  O  O25  1  0.35449799  0.12208293  0.16665550  1
  O  O26  1  0.83239582  0.97185642  0.38769106  1
  O  O27  1  0.93205218  0.29869434  0.28731417  1
  O  O28  1  0.64550201  0.87791707  0.83334450  1
  O  O29  1  0.06794782  0.70130566  0.71268583  1
  O  O30  1  0.89152364  0.37379742  0.68043523  1
  O  O31  1  0.41522792  0.84694788  0.98054531  1
  O  O32  1  0.89185842  0.08720985  0.85363277  1
  O  O33  1  0.91675909  0.29418119  0.49386288  1
