# generated using pymatgen
data_Na3Ga(PO4)2
_symmetry_space_group_name_H-M   'P 1'
_cell_length_a   8.98073960
_cell_length_b   9.00895558
_cell_length_c   9.37548150
_cell_angle_alpha   89.24145002
_cell_angle_beta   70.94802166
_cell_angle_gamma   87.75131778
_symmetry_Int_Tables_number   1
_chemical_formula_structural   Na3Ga(PO4)2
_chemical_formula_sum   'Na12 Ga4 P8 O32'
_cell_volume   716.43983965
_cell_formula_units_Z   4
loop_
 _symmetry_equiv_pos_site_id
 _symmetry_equiv_pos_as_xyz
  1  'x, y, z'
loop_
 _atom_site_type_symbol
 _atom_site_label
 _atom_site_symmetry_multiplicity
 _atom_site_fract_x
 _atom_site_fract_y
 _atom_site_fract_z
 _atom_site_occupancy
  Na  Na0  1  0.65492264  0.75013028  0.87084216  1
  Na  Na1  1  0.30803562  0.90792220  0.06910197  1
  Na  Na2  1  0.04952786  0.58212673  0.81722708  1
  Na  Na3  1  0.69196438  0.09207780  0.93089803  1
  Na  Na4  1  0.10079216  0.70062177  0.41223078  1
  Na  Na5  1  0.35066606  0.76111105  0.67728644  1
  Na  Na6  1  0.34507736  0.24986972  0.12915784  1
  Na  Na7  1  0.92661115  0.83640209  0.10815639  1
  Na  Na8  1  0.07338885  0.16359791  0.89184361  1
  Na  Na9  1  0.95047214  0.41787327  0.18277292  1
  Na  Na10  1  0.89920784  0.29937823  0.58776922  1
  Na  Na11  1  0.64933394  0.23888895  0.32271356  1
  Ga  Ga12  1  0.47905682  0.58163054  0.24568030  1
  Ga  Ga13  1  0.74803480  0.92008142  0.48888837  1
  Ga  Ga14  1  0.52094318  0.41836946  0.75431970  1
  Ga  Ga15  1  0.25196520  0.07991858  0.51111163  1
  P  P16  1  0.03063831  0.09147768  0.28948458  1
  P  P17  1  0.27825993  0.59078959  0.01607169  1
  P  P18  1  0.53437546  0.92622216  0.26598122  1
  P  P19  1  0.46562454  0.07377784  0.73401878  1
  P  P20  1  0.71524813  0.58632693  0.45361053  1
  P  P21  1  0.72174007  0.40921041  0.98392831  1
  P  P22  1  0.96936169  0.90852232  0.71051542  1
  P  P23  1  0.28475187  0.41367307  0.54638947  1
  O  O24  1  0.96199610  0.93541068  0.35694663  1
  O  O25  1  0.90455716  0.92574196  0.88319331  1
  O  O26  1  0.55406401  0.41725443  0.11469609  1
  O  O27  1  0.09593744  0.78470446  0.65284206  1
  O  O28  1  0.30230863  0.52605045  0.41264097  1
  O  O29  1  0.88907597  0.60474003  0.36598278  1
  O  O30  1  0.69769137  0.47394955  0.58735903  1
  O  O31  1  0.36844468  0.48130766  0.65054442  1
  O  O32  1  0.63366320  0.73875083  0.52338015  1
  O  O33  1  0.44593599  0.58274557  0.88530391  1
  O  O34  1  0.09544284  0.07425804  0.11680669  1
  O  O35  1  0.43094952  0.23022741  0.81084444  1
  O  O36  1  0.31264817  0.65621852  0.15674947  1
  O  O37  1  0.61430400  0.08482080  0.58894303  1
  O  O38  1  0.49312781  0.95822249  0.84421217  1
  O  O39  1  0.50687219  0.04177751  0.15578783  1
  O  O40  1  0.20888437  0.43699557  0.04541551  1
  O  O41  1  0.31632330  0.03327645  0.69442680  1
  O  O42  1  0.11092403  0.39525997  0.63401722  1
  O  O43  1  0.82780770  0.29310573  0.03039009  1
  O  O44  1  0.17219230  0.70689427  0.96960991  1
  O  O45  1  0.38569600  0.91517920  0.41105697  1
  O  O46  1  0.36633680  0.26124917  0.47661985  1
  O  O47  1  0.63155532  0.51869234  0.34945558  1
  O  O48  1  0.82368170  0.87806885  0.65911289  1
  O  O49  1  0.68735183  0.34378148  0.84325053  1
  O  O50  1  0.68367670  0.96672355  0.30557320  1
  O  O51  1  0.03800390  0.06458932  0.64305337  1
  O  O52  1  0.90406256  0.21529554  0.34715794  1
  O  O53  1  0.56905048  0.76977259  0.18915556  1
  O  O54  1  0.79111563  0.56300443  0.95458449  1
  O  O55  1  0.17631830  0.12193115  0.34088711  1
