# generated using pymatgen
data_Na3Bi(PO4)2
_symmetry_space_group_name_H-M   'P 1'
_cell_length_a   5.42055202
_cell_length_b   14.14678035
_cell_length_c   20.03795741
_cell_angle_alpha   110.52038299
_cell_angle_beta   90.00000000
_cell_angle_gamma   90.00000000
_symmetry_Int_Tables_number   1
_chemical_formula_structural   Na3Bi(PO4)2
_chemical_formula_sum   'Na24 Bi8 P16 O64'
_cell_volume   1439.07823683
_cell_formula_units_Z   8
loop_
 _symmetry_equiv_pos_site_id
 _symmetry_equiv_pos_as_xyz
  1  'x, y, z'
loop_
 _atom_site_type_symbol
 _atom_site_label
 _atom_site_symmetry_multiplicity
 _atom_site_fract_x
 _atom_site_fract_y
 _atom_site_fract_z
 _atom_site_occupancy
  Na  Na0  1  0.70848502  0.94555315  0.19843005  1
  Na  Na1  1  0.75419366  0.66799283  0.36051789  1
  Na  Na2  1  0.24871842  0.80698772  0.13727758  1
  Na  Na3  1  0.74766532  0.68911750  0.03540092  1
  Na  Na4  1  0.20848502  0.55444685  0.80156995  1
  Na  Na5  1  0.24580634  0.33200717  0.63948211  1
  Na  Na6  1  0.25526731  0.25050550  0.30305185  1
  Na  Na7  1  0.25180380  0.15505122  0.46516645  1
  Na  Na8  1  0.25419366  0.83200717  0.63948211  1
  Na  Na9  1  0.29151498  0.05444685  0.80156995  1
  Na  Na10  1  0.74473269  0.74949450  0.69694815  1
  Na  Na11  1  0.24473269  0.75050550  0.30305185  1
  Na  Na12  1  0.75180380  0.34494878  0.53483355  1
  Na  Na13  1  0.24819620  0.65505122  0.46516645  1
  Na  Na14  1  0.75233468  0.18911750  0.03540092  1
  Na  Na15  1  0.74819620  0.84494878  0.53483355  1
  Na  Na16  1  0.74871842  0.69301228  0.86272242  1
  Na  Na17  1  0.25233468  0.31088250  0.96459908  1
  Na  Na18  1  0.75128158  0.19301228  0.86272242  1
  Na  Na19  1  0.75526731  0.24949450  0.69694815  1
  Na  Na20  1  0.25128158  0.30698772  0.13727758  1
  Na  Na21  1  0.79151498  0.44555315  0.19843005  1
  Na  Na22  1  0.74580634  0.16799283  0.36051789  1
  Na  Na23  1  0.24766532  0.81088250  0.96459908  1
  Bi  Bi24  1  0.80701577  0.95504951  0.88098012  1
  Bi  Bi25  1  0.79190446  0.42690117  0.38255741  1
  Bi  Bi26  1  0.20809554  0.57309883  0.61744259  1
  Bi  Bi27  1  0.70809554  0.92690117  0.38255741  1
  Bi  Bi28  1  0.19298423  0.04495049  0.11901988  1
  Bi  Bi29  1  0.30701577  0.54495049  0.11901988  1
  Bi  Bi30  1  0.69298423  0.45504951  0.88098012  1
  Bi  Bi31  1  0.29190446  0.07309883  0.61744259  1
  P  P32  1  0.73089282  0.91761587  0.03960485  1
  P  P33  1  0.76406792  0.12039435  0.53771231  1
  P  P34  1  0.23593208  0.87960565  0.46228769  1
  P  P35  1  0.27484967  0.78836839  0.79220744  1
  P  P36  1  0.27687988  0.50468510  0.29259277  1
  P  P37  1  0.77484967  0.71163161  0.20779256  1
  P  P38  1  0.77687988  0.99531490  0.70740723  1
  P  P39  1  0.26910718  0.08238413  0.96039515  1
  P  P40  1  0.22312012  0.00468510  0.29259277  1
  P  P41  1  0.22515033  0.28836839  0.79220744  1
  P  P42  1  0.72312012  0.49531490  0.70740723  1
  P  P43  1  0.76910718  0.41761587  0.03960485  1
  P  P44  1  0.72515033  0.21163161  0.20779256  1
  P  P45  1  0.23089282  0.58238413  0.96039515  1
  P  P46  1  0.73593208  0.62039435  0.53771231  1
  P  P47  1  0.26406792  0.37960565  0.46228769  1
  O  O48  1  0.54764075  0.40062151  0.08604500  1
  O  O49  1  0.26058692  0.99122519  0.46977669  1
  O  O50  1  0.13559739  0.41754546  0.30714933  1
  O  O51  1  0.48754488  0.91217210  0.08024993  1
  O  O52  1  0.49895537  0.66953515  0.58067506  1
  O  O53  1  0.55587747  0.80760696  0.80963192  1
  O  O54  1  0.45235925  0.59937849  0.91395500  1
  O  O55  1  0.00104463  0.16953515  0.58067506  1
  O  O56  1  0.82313881  0.39140724  0.66115890  1
  O  O57  1  0.76703803  0.32928597  0.96749599  1
  O  O58  1  0.76453464  0.02175639  0.03252112  1
  O  O59  1  0.34200155  0.23357465  0.83821077  1
  O  O60  1  0.23175074  0.86427926  0.53500265  1
  O  O61  1  0.86440261  0.58245454  0.69285067  1
  O  O62  1  0.26726471  0.98406559  0.21082921  1
  O  O63  1  0.46355312  0.81837066  0.41846299  1
  O  O64  1  0.24461764  0.22677435  0.70989109  1
  O  O65  1  0.94412253  0.30760696  0.80963192  1
  O  O66  1  0.74461764  0.27322565  0.29010891  1
  O  O67  1  0.99895537  0.83046485  0.41932494  1
  O  O68  1  0.26703803  0.17071403  0.03250401  1
  O  O69  1  0.76824926  0.13572074  0.46499735  1
  O  O70  1  0.26453464  0.47824361  0.96747888  1
  O  O71  1  0.86051901  0.10965626  0.19727457  1
  O  O72  1  0.25538236  0.72677435  0.70989109  1
  O  O73  1  0.65799845  0.76642535  0.16178923  1
  O  O74  1  0.50104463  0.33046485  0.41932494  1
  O  O75  1  0.23296197  0.67071403  0.03250401  1
  O  O76  1  0.98754488  0.58782790  0.91975007  1
  O  O77  1  0.26824926  0.36427926  0.53500265  1
  O  O78  1  0.75538236  0.77322565  0.29010891  1
  O  O79  1  0.73175074  0.63572074  0.46499735  1
  O  O80  1  0.17686119  0.60859276  0.33884110  1
  O  O81  1  0.32313881  0.10859276  0.33884110  1
  O  O82  1  0.23273529  0.48406559  0.21082921  1
  O  O83  1  0.73273529  0.01593441  0.78917079  1
  O  O84  1  0.84200155  0.26642535  0.16178923  1
  O  O85  1  0.76058692  0.50877481  0.53022331  1
  O  O86  1  0.67686119  0.89140724  0.66115890  1
  O  O87  1  0.95235925  0.90062151  0.08604500  1
  O  O88  1  0.36051901  0.39034374  0.80272543  1
  O  O89  1  0.73546536  0.52175639  0.03252112  1
  O  O90  1  0.76726471  0.51593441  0.78917079  1
  O  O91  1  0.44057607  0.50396239  0.69471468  1
  O  O92  1  0.04764075  0.09937849  0.91395500  1
  O  O93  1  0.55942393  0.49603761  0.30528532  1
  O  O94  1  0.51245512  0.08782790  0.91975007  1
  O  O95  1  0.36440261  0.91754546  0.30714933  1
  O  O96  1  0.13948099  0.89034374  0.80272543  1
  O  O97  1  0.96355312  0.68162934  0.58153701  1
  O  O98  1  0.53644688  0.18162934  0.58153701  1
  O  O99  1  0.01245512  0.41217210  0.08024993  1
  O  O100  1  0.73941308  0.00877481  0.53022331  1
  O  O101  1  0.94057607  0.99603761  0.30528532  1
  O  O102  1  0.03644688  0.31837066  0.41846299  1
  O  O103  1  0.63559739  0.08245454  0.69285067  1
  O  O104  1  0.63948099  0.60965626  0.19727457  1
  O  O105  1  0.44412253  0.19239304  0.19036808  1
  O  O106  1  0.73296197  0.82928597  0.96749599  1
  O  O107  1  0.05942393  0.00396239  0.69471468  1
  O  O108  1  0.05587747  0.69239304  0.19036808  1
  O  O109  1  0.23941308  0.49122519  0.46977669  1
  O  O110  1  0.15799845  0.73357465  0.83821077  1
  O  O111  1  0.23546536  0.97824361  0.96747888  1
