# generated using pymatgen
data_NaCe(PO3)4
_symmetry_space_group_name_H-M   'P 1'
_cell_length_a   7.33986131
_cell_length_b   10.10763759
_cell_length_c   13.33945452
_cell_angle_alpha   90.00000000
_cell_angle_beta   90.00000000
_cell_angle_gamma   90.17697558
_symmetry_Int_Tables_number   1
_chemical_formula_structural   NaCe(PO3)4
_chemical_formula_sum   'Na4 Ce4 P16 O48'
_cell_volume   989.63150980
_cell_formula_units_Z   4
loop_
 _symmetry_equiv_pos_site_id
 _symmetry_equiv_pos_as_xyz
  1  'x, y, z'
loop_
 _atom_site_type_symbol
 _atom_site_label
 _atom_site_symmetry_multiplicity
 _atom_site_fract_x
 _atom_site_fract_y
 _atom_site_fract_z
 _atom_site_occupancy
  Na  Na0  1  0.50078091  0.93474206  0.77981529  1
  Na  Na1  1  0.49921909  0.06525794  0.22018471  1
  Na  Na2  1  0.99921909  0.56525794  0.27981529  1
  Na  Na3  1  0.00078091  0.43474206  0.72018471  1
  Ce  Ce4  1  0.98601907  0.02346740  0.78168871  1
  Ce  Ce5  1  0.48601907  0.52346740  0.71831129  1
  Ce  Ce6  1  0.51398093  0.47653260  0.28168871  1
  Ce  Ce7  1  0.01398093  0.97653260  0.21831129  1
  P  P8  1  0.24938993  0.74299852  0.40034355  1
  P  P9  1  0.88186805  0.26424275  0.38582941  1
  P  P10  1  0.61813195  0.23575725  0.88582941  1
  P  P11  1  0.77086127  0.69767584  0.08991409  1
  P  P12  1  0.14335822  0.30590151  0.12711000  1
  P  P13  1  0.74938993  0.24299852  0.09965645  1
  P  P14  1  0.38186805  0.76424275  0.11417059  1
  P  P15  1  0.25061007  0.75700148  0.90034355  1
  P  P16  1  0.85664178  0.69409849  0.87289000  1
  P  P17  1  0.72913873  0.80232416  0.58991409  1
  P  P18  1  0.75061007  0.25700148  0.59965645  1
  P  P19  1  0.64335822  0.80590151  0.37289000  1
  P  P20  1  0.35664178  0.19409849  0.62711000  1
  P  P21  1  0.11813195  0.73575725  0.61417059  1
  P  P22  1  0.22913873  0.30232416  0.91008591  1
  P  P23  1  0.27086127  0.19767584  0.41008591  1
  O  O24  1  0.09601633  0.79438036  0.33585023  1
  O  O25  1  0.71108955  0.89764826  0.29230872  1
  O  O26  1  0.42655483  0.83184909  0.37851412  1
  O  O27  1  0.90981492  0.71204139  0.57993920  1
  O  O28  1  0.36901795  0.65312294  0.18805283  1
  O  O29  1  0.71365116  0.86496026  0.47865406  1
  O  O30  1  0.63098205  0.34687706  0.81194717  1
  O  O31  1  0.40981492  0.21204139  0.92006080  1
  O  O32  1  0.81913188  0.83971260  0.86580330  1
  O  O33  1  0.13098205  0.84687706  0.68805283  1
  O  O34  1  0.21296227  0.78860037  0.51384740  1
  O  O35  1  0.28703773  0.71139963  0.01384740  1
  O  O36  1  0.92655483  0.33184909  0.12148588  1
  O  O37  1  0.07344517  0.66815091  0.87851412  1
  O  O38  1  0.59018508  0.78795861  0.07993920  1
  O  O39  1  0.24271265  0.08360043  0.33954007  1
  O  O40  1  0.92746481  0.78993235  0.11036025  1
  O  O41  1  0.19060520  0.60264648  0.64464155  1
  O  O42  1  0.57253519  0.71006765  0.61036025  1
  O  O43  1  0.25728735  0.41639957  0.83954007  1
  O  O44  1  0.80939480  0.39735352  0.35535845  1
  O  O45  1  0.18086812  0.16028740  0.13419670  1
  O  O46  1  0.78703773  0.21139963  0.48615260  1
  O  O47  1  0.28663242  0.59681810  0.39291615  1
  O  O48  1  0.40398367  0.70561964  0.83585023  1
  O  O49  1  0.30939480  0.89735352  0.14464155  1
  O  O50  1  0.31913188  0.33971260  0.63419670  1
  O  O51  1  0.68086812  0.66028740  0.36580330  1
  O  O52  1  0.78634884  0.63503974  0.97865406  1
  O  O53  1  0.28891045  0.10235174  0.70769128  1
  O  O54  1  0.21108955  0.39764826  0.20769128  1
  O  O55  1  0.74271265  0.58360043  0.16045993  1
  O  O56  1  0.21336758  0.90318190  0.89291615  1
  O  O57  1  0.69060520  0.10264648  0.85535845  1
  O  O58  1  0.71336758  0.40318190  0.60708385  1
  O  O59  1  0.57344517  0.16815091  0.62148588  1
  O  O60  1  0.90398367  0.20561964  0.66414977  1
  O  O61  1  0.78663242  0.09681810  0.10708385  1
  O  O62  1  0.71296227  0.28860037  0.98615260  1
  O  O63  1  0.75728735  0.91639957  0.66045993  1
  O  O64  1  0.42746481  0.28993235  0.38963975  1
  O  O65  1  0.78891045  0.60235174  0.79230872  1
  O  O66  1  0.28634884  0.13503974  0.52134594  1
  O  O67  1  0.09018508  0.28795861  0.42006080  1
  O  O68  1  0.59601633  0.29438036  0.16414977  1
  O  O69  1  0.07253519  0.21006765  0.88963975  1
  O  O70  1  0.21365116  0.36496026  0.02134594  1
  O  O71  1  0.86901795  0.15312294  0.31194717  1
