# generated using pymatgen
data_MgTi2(PO5)2
_symmetry_space_group_name_H-M   'P 1'
_cell_length_a   7.43299127
_cell_length_b   7.47314681
_cell_length_c   7.47015918
_cell_angle_alpha   90.00000000
_cell_angle_beta   90.00000000
_cell_angle_gamma   120.04941151
_symmetry_Int_Tables_number   1
_chemical_formula_structural   MgTi2(PO5)2
_chemical_formula_sum   'Mg2 Ti4 P4 O20'
_cell_volume   359.17919515
_cell_formula_units_Z   2
loop_
 _symmetry_equiv_pos_site_id
 _symmetry_equiv_pos_as_xyz
  1  'x, y, z'
loop_
 _atom_site_type_symbol
 _atom_site_label
 _atom_site_symmetry_multiplicity
 _atom_site_fract_x
 _atom_site_fract_y
 _atom_site_fract_z
 _atom_site_occupancy
  Mg  Mg0  1  0.00000000  0.00000000  0.00000000  1
  Mg  Mg1  1  0.50000000  0.50000000  0.50000000  1
  Ti  Ti2  1  0.02777781  0.29441757  0.72149930  1
  Ti  Ti3  1  0.97222219  0.70558243  0.27850070  1
  Ti  Ti4  1  0.52777781  0.79441757  0.77850070  1
  Ti  Ti5  1  0.47222219  0.20558243  0.22149930  1
  P  P6  1  0.25019620  0.00558851  0.62022436  1
  P  P7  1  0.75019620  0.50558851  0.87977564  1
  P  P8  1  0.74980380  0.99441149  0.37977564  1
  P  P9  1  0.24980380  0.49441149  0.12022436  1
  O  O10  1  0.12900986  0.57177669  0.23286655  1
  O  O11  1  0.64491744  0.58579105  0.74961359  1
  O  O12  1  0.14491744  0.08579105  0.75038641  1
  O  O13  1  0.08572685  0.82469738  0.50655464  1
  O  O14  1  0.62900986  0.07177669  0.26713345  1
  O  O15  1  0.39967399  0.18596530  0.49577723  1
  O  O16  1  0.85508256  0.91420895  0.24961359  1
  O  O17  1  0.60032601  0.81403470  0.50422277  1
  O  O18  1  0.26851897  0.49986678  0.65784304  1
  O  O19  1  0.76851897  -0.00013322  0.84215696  1
  O  O20  1  0.10032601  0.31403470  0.99577723  1
  O  O21  1  0.58572685  0.32469738  0.99344536  1
  O  O22  1  0.73148103  0.50013322  0.34215696  1
  O  O23  1  0.91427315  0.17530262  0.49344536  1
  O  O24  1  0.87099014  0.42822331  0.76713345  1
  O  O25  1  0.23148103  1.00013322  0.15784304  1
  O  O26  1  0.89967399  0.68596530  0.00422277  1
  O  O27  1  0.37099014  0.92822331  0.73286655  1
  O  O28  1  0.35508256  0.41420895  0.25038641  1
  O  O29  1  0.41427315  0.67530262  0.00655464  1
