# generated using pymatgen
data_Sr6(RhO3)5
_symmetry_space_group_name_H-M   'P 1'
_cell_length_a   12.11729618
_cell_length_b   12.11729628
_cell_length_c   12.11729606
_cell_angle_alpha   107.30858578
_cell_angle_beta   107.30858590
_cell_angle_gamma   107.30858243
_symmetry_Int_Tables_number   1
_chemical_formula_structural   Sr6(RhO3)5
_chemical_formula_sum   'Sr24 Rh20 O60'
_cell_volume   1469.05760421
_cell_formula_units_Z   4
loop_
 _symmetry_equiv_pos_site_id
 _symmetry_equiv_pos_as_xyz
  1  'x, y, z'
loop_
 _atom_site_type_symbol
 _atom_site_label
 _atom_site_symmetry_multiplicity
 _atom_site_fract_x
 _atom_site_fract_y
 _atom_site_fract_z
 _atom_site_occupancy
  Sr  Sr0  1  0.65740784  1.00000000  0.34259216  1
  Sr  Sr1  1  1.00258401  0.67630981  0.82375316  1
  Sr  Sr2  1  0.15817952  1.00000000  0.84182048  1
  Sr  Sr3  1  0.67630981  0.82375316  1.00258401  1
  Sr  Sr4  1  0.50000000  0.17626162  0.82373838  1
  Sr  Sr5  1  0.83511457  0.65850256  0.49855680  1
  Sr  Sr6  1  0.16488543  0.50144320  0.34149744  1
  Sr  Sr7  1  0.00000000  0.84182048  0.15817952  1
  Sr  Sr8  1  0.34149744  0.16488543  0.50144320  1
  Sr  Sr9  1  0.17626162  0.82373838  0.50000000  1
  Sr  Sr10  1  0.32315774  0.50000000  0.67684226  1
  Sr  Sr11  1  -0.00258401  0.17624684  0.32369019  1
  Sr  Sr12  1  0.17624684  0.32369019  -0.00258401  1
  Sr  Sr13  1  0.34259216  0.65740784  1.00000000  1
  Sr  Sr14  1  0.82373838  0.50000000  0.17626162  1
  Sr  Sr15  1  0.49855680  0.83511457  0.65850256  1
  Sr  Sr16  1  0.32369019  -0.00258401  0.17624684  1
  Sr  Sr17  1  0.50144320  0.34149744  0.16488543  1
  Sr  Sr18  1  0.65850256  0.49855680  0.83511457  1
  Sr  Sr19  1  0.84182048  0.15817952  1.00000000  1
  Sr  Sr20  1  0.00000000  0.34259216  0.65740784  1
  Sr  Sr21  1  0.67684226  0.32315774  0.50000000  1
  Sr  Sr22  1  0.82375316  1.00258401  0.67630981  1
  Sr  Sr23  1  0.50000000  0.67684226  0.32315774  1
  Rh  Rh24  1  0.40392555  0.40216413  0.90413926  1
  Rh  Rh25  1  0.59607445  0.09586074  0.59783587  1
  Rh  Rh26  1  0.29253932  0.29253932  0.29253932  1
  Rh  Rh27  1  0.20667636  0.70582940  0.20682175  1
  Rh  Rh28  1  0.99979043  0.00020957  0.50000000  1
  Rh  Rh29  1  0.40216413  0.90413926  0.40392555  1
  Rh  Rh30  1  0.70582940  0.20682175  0.20667636  1
  Rh  Rh31  1  0.79332364  0.79317825  0.29417060  1
  Rh  Rh32  1  0.20682175  0.20667636  0.70582940  1
  Rh  Rh33  1  0.79317825  0.29417060  0.79332364  1
  Rh  Rh34  1  0.90413926  0.40392555  0.40216413  1
  Rh  Rh35  1  0.70746068  0.70746068  0.70746068  1
  Rh  Rh36  1  0.50000000  0.99979043  0.00020957  1
  Rh  Rh37  1  0.00020957  0.50000000  0.99979043  1
  Rh  Rh38  1  0.09638191  0.09638191  0.09638191  1
  Rh  Rh39  1  0.09586074  0.59783587  0.59607445  1
  Rh  Rh40  1  0.90361809  0.90361809  0.90361809  1
  Rh  Rh41  1  0.50000000  0.50000000  0.50000000  1
  Rh  Rh42  1  0.59783587  0.59607445  0.09586074  1
  Rh  Rh43  1  0.29417060  0.79332364  0.79317825  1
  O  O44  1  0.92088920  0.45625787  0.80817011  1
  O  O45  1  0.61573694  0.77977283  0.18301768  1
  O  O46  1  0.38691023  0.31778602  0.72330120  1
  O  O47  1  0.91982484  0.95512333  0.30783382  1
  O  O48  1  0.10722853  0.27191234  0.19693966  1
  O  O49  1  0.04487667  0.08017516  0.69216618  1
  O  O50  1  0.49925621  0.08551407  0.41962995  1
  O  O51  1  0.78141295  0.68397012  0.11805334  1
  O  O52  1  0.45625787  0.80817011  0.92088920  1
  O  O53  1  0.57796851  0.19229850  0.04504485  1
  O  O54  1  0.21858705  0.88194666  0.31602988  1
  O  O55  1  0.11805334  0.78141295  0.68397012  1
  O  O56  1  0.22022717  0.38426306  0.81698232  1
  O  O57  1  0.31778602  0.72330120  0.38691023  1
  O  O58  1  0.66949017  0.52027225  0.63119974  1
  O  O59  1  0.95512333  0.30783382  0.91982484  1
  O  O60  1  0.38426306  0.81698232  0.22022717  1
  O  O61  1  0.54374213  0.07911080  0.19182989  1
  O  O62  1  0.30783382  0.91982484  0.95512333  1
  O  O63  1  0.91745876  1.00000000  0.08254124  1
  O  O64  1  0.91448593  0.50074379  0.58037005  1
  O  O65  1  0.00000000  0.08254124  0.91745876  1
  O  O66  1  0.08551407  0.41962995  0.49925621  1
  O  O67  1  0.47972775  0.33050983  0.36880026  1
  O  O68  1  0.18301768  0.61573694  0.77977283  1
  O  O69  1  0.19182989  0.54374213  0.07911080  1
  O  O70  1  0.08254124  0.91745876  1.00000000  1
  O  O71  1  0.27191234  0.19693966  0.10722853  1
  O  O72  1  0.50074379  0.58037005  0.91448593  1
  O  O73  1  0.31602988  0.21858705  0.88194666  1
  O  O74  1  0.58271798  0.41728202  0.00000000  1
  O  O75  1  0.80770150  0.42203149  0.95495515  1
  O  O76  1  0.19693966  0.10722853  0.27191234  1
  O  O77  1  0.04504485  0.57796851  0.19229850  1
  O  O78  1  0.68397012  0.11805334  0.78141295  1
  O  O79  1  0.07911080  0.19182989  0.54374213  1
  O  O80  1  0.08017516  0.69216618  0.04487667  1
  O  O81  1  1.00000000  0.58271798  0.41728202  1
  O  O82  1  0.69216618  0.04487667  0.08017516  1
  O  O83  1  0.80306034  0.72808766  0.89277147  1
  O  O84  1  0.88194666  0.31602988  0.21858705  1
  O  O85  1  0.33050983  0.36880026  0.47972775  1
  O  O86  1  0.89277147  0.80306034  0.72808766  1
  O  O87  1  0.68221398  0.61308977  0.27669880  1
  O  O88  1  0.52027225  0.63119974  0.66949017  1
  O  O89  1  0.80817011  0.92088920  0.45625787  1
  O  O90  1  0.61308977  0.27669880  0.68221398  1
  O  O91  1  0.41962995  0.49925621  0.08551407  1
  O  O92  1  0.36880026  0.47972775  0.33050983  1
  O  O93  1  0.27669880  0.68221398  0.61308977  1
  O  O94  1  0.72808766  0.89277147  0.80306034  1
  O  O95  1  0.58037005  0.91448593  0.50074379  1
  O  O96  1  0.63119974  0.66949017  0.52027225  1
  O  O97  1  0.41728202  0.00000000  0.58271798  1
  O  O98  1  0.72330120  0.38691023  0.31778602  1
  O  O99  1  0.42203149  0.95495515  0.80770150  1
  O  O100  1  0.19229850  0.04504485  0.57796851  1
  O  O101  1  0.77977283  0.18301768  0.61573694  1
  O  O102  1  0.81698232  0.22022717  0.38426306  1
  O  O103  1  0.95495515  0.80770150  0.42203149  1
