# generated using pymatgen
data_Rb2Sb4S7
_symmetry_space_group_name_H-M   'P 1'
_cell_length_a   7.60847267
_cell_length_b   9.84806249
_cell_length_c   11.92028780
_cell_angle_alpha   79.61724061
_cell_angle_beta   87.79996256
_cell_angle_gamma   77.30299786
_symmetry_Int_Tables_number   1
_chemical_formula_structural   Rb2Sb4S7
_chemical_formula_sum   'Rb4 Sb8 S14'
_cell_volume   857.06217415
_cell_formula_units_Z   2
loop_
 _symmetry_equiv_pos_site_id
 _symmetry_equiv_pos_as_xyz
  1  'x, y, z'
loop_
 _atom_site_type_symbol
 _atom_site_label
 _atom_site_symmetry_multiplicity
 _atom_site_fract_x
 _atom_site_fract_y
 _atom_site_fract_z
 _atom_site_occupancy
  Rb  Rb0  1  0.72617036  0.34019448  0.89590466  1
  Rb  Rb1  1  0.57905137  0.73736691  0.43522703  1
  Rb  Rb2  1  0.42094863  0.26263309  0.56477297  1
  Rb  Rb3  1  0.27382964  0.65980552  0.10409534  1
  Sb  Sb4  1  0.96898293  0.94798495  0.65519652  1
  Sb  Sb5  1  0.84321973  0.43242035  0.19073900  1
  Sb  Sb6  1  0.27254282  0.13626927  0.94833169  1
  Sb  Sb7  1  0.50389919  0.18513228  0.22929033  1
  Sb  Sb8  1  0.72745718  0.86373073  0.05166831  1
  Sb  Sb9  1  0.03101707  0.05201505  0.34480348  1
  Sb  Sb10  1  0.15678027  0.56757965  0.80926100  1
  Sb  Sb11  1  0.49610081  0.81486772  0.77070967  1
  S  S12  1  0.18874156  0.87155667  0.84620375  1
  S  S13  1  0.34605611  0.32493022  0.04843865  1
  S  S14  1  0.55217023  0.42119437  0.28866938  1
  S  S15  1  0.76736170  0.01998284  0.46168334  1
  S  S16  1  0.95492693  0.69815279  0.64662342  1
  S  S17  1  0.65394389  0.67506978  0.95156135  1
  S  S18  1  0.55886978  0.06746736  0.85051465  1
  S  S19  1  0.04507307  0.30184721  0.35337658  1
  S  S20  1  0.44113022  0.93253264  0.14948535  1
  S  S21  1  0.13002265  0.33152015  0.77213096  1
  S  S22  1  0.86997735  0.66847985  0.22786904  1
  S  S23  1  0.23263830  0.98001716  0.53831666  1
  S  S24  1  0.44782977  0.57880563  0.71133062  1
  S  S25  1  0.81125844  0.12844333  0.15379625  1
