# generated using pymatgen
data_Sr2DySbO6
_symmetry_space_group_name_H-M   'P 1'
_cell_length_a   5.86820467
_cell_length_b   5.92359763
_cell_length_c   8.32859109
_cell_angle_alpha   90.00000000
_cell_angle_beta   90.22021265
_cell_angle_gamma   90.00000000
_symmetry_Int_Tables_number   1
_chemical_formula_structural   Sr2DySbO6
_chemical_formula_sum   'Sr4 Dy2 Sb2 O12'
_cell_volume   289.50704480
_cell_formula_units_Z   2
loop_
 _symmetry_equiv_pos_site_id
 _symmetry_equiv_pos_as_xyz
  1  'x, y, z'
loop_
 _atom_site_type_symbol
 _atom_site_label
 _atom_site_symmetry_multiplicity
 _atom_site_fract_x
 _atom_site_fract_y
 _atom_site_fract_z
 _atom_site_occupancy
  Sr  Sr0  1  0.50766044  0.46697370  0.74947683  1
  Sr  Sr1  1  0.00766044  0.03302630  0.24947683  1
  Sr  Sr2  1  0.49233956  0.53302630  0.25052317  1
  Sr  Sr3  1  0.99233956  0.96697370  0.75052317  1
  Dy  Dy4  1  0.00000000  0.50000000  0.50000000  1
  Dy  Dy5  1  0.50000000  0.00000000  0.00000000  1
  Sb  Sb6  1  0.50000000  0.00000000  0.50000000  1
  Sb  Sb7  1  0.00000000  0.50000000  0.00000000  1
  O  O8  1  0.92334619  0.47903924  0.23568356  1
  O  O9  1  0.80260446  0.22629192  0.95827036  1
  O  O10  1  0.27241325  0.29952483  0.03951048  1
  O  O11  1  0.69739554  0.72629192  0.54172964  1
  O  O12  1  0.72758675  0.70047517  0.96048952  1
  O  O13  1  0.07665381  0.52096076  0.76431644  1
  O  O14  1  0.77241325  0.20047517  0.53951048  1
  O  O15  1  0.30260446  0.27370808  0.45827036  1
  O  O16  1  0.19739554  0.77370808  0.04172964  1
  O  O17  1  0.57665381  0.97903924  0.26431644  1
  O  O18  1  0.42334619  0.02096076  0.73568356  1
  O  O19  1  0.22758675  0.79952483  0.46048952  1
