# generated using pymatgen
data_NaSb3(PO5)2
_symmetry_space_group_name_H-M   'P 1'
_cell_length_a   6.77785000
_cell_length_b   14.24831721
_cell_length_c   21.37760163
_cell_angle_alpha   90.00000000
_cell_angle_beta   90.00000000
_cell_angle_gamma   90.00000000
_symmetry_Int_Tables_number   1
_chemical_formula_structural   NaSb3(PO5)2
_chemical_formula_sum   'Na8 Sb24 P16 O80'
_cell_volume   2064.49819874
_cell_formula_units_Z   8
loop_
 _symmetry_equiv_pos_site_id
 _symmetry_equiv_pos_as_xyz
  1  'x, y, z'
loop_
 _atom_site_type_symbol
 _atom_site_label
 _atom_site_symmetry_multiplicity
 _atom_site_fract_x
 _atom_site_fract_y
 _atom_site_fract_z
 _atom_site_occupancy
  Na  Na0  1  0.18395033  0.88657263  0.43811436  1
  Na  Na1  1  0.69828758  0.36975450  0.63409361  1
  Na  Na2  1  0.30171242  0.63024550  0.13409361  1
  Na  Na3  1  0.69828758  0.13024550  0.13409361  1
  Na  Na4  1  0.81604967  0.11342737  0.93811436  1
  Na  Na5  1  0.30171242  0.86975450  0.63409361  1
  Na  Na6  1  0.18395033  0.61342737  0.93811436  1
  Na  Na7  1  0.81604967  0.38657263  0.43811436  1
  Sb  Sb8  1  0.46502181  0.64049401  0.79171297  1
  Sb  Sb9  1  0.29481423  0.26788694  0.49698698  1
  Sb  Sb10  1  0.98935427  0.10802506  0.28156734  1
  Sb  Sb11  1  0.64109329  0.48985114  0.91515378  1
  Sb  Sb12  1  0.29481423  0.23211306  0.99698698  1
  Sb  Sb13  1  0.70518577  0.73211306  0.99698698  1
  Sb  Sb14  1  0.98935427  0.39197494  0.78156734  1
  Sb  Sb15  1  0.53497819  0.35950599  0.29171297  1
  Sb  Sb16  1  0.46502181  0.85950599  0.29171297  1
  Sb  Sb17  1  0.01064573  0.60802506  0.28156734  1
  Sb  Sb18  1  0.78744783  0.98961681  0.57417721  1
  Sb  Sb19  1  0.21255217  0.01038319  0.07417721  1
  Sb  Sb20  1  0.01064573  0.89197494  0.78156734  1
  Sb  Sb21  1  0.78744783  0.51038319  0.07417721  1
  Sb  Sb22  1  0.35890671  0.98985114  0.91515378  1
  Sb  Sb23  1  0.84034604  0.74394166  0.65589389  1
  Sb  Sb24  1  0.53497819  0.14049401  0.79171297  1
  Sb  Sb25  1  0.21255217  0.48961681  0.57417721  1
  Sb  Sb26  1  0.15965396  0.25605834  0.15589389  1
  Sb  Sb27  1  0.84034604  0.75605834  0.15589389  1
  Sb  Sb28  1  0.70518577  0.76788694  0.49698698  1
  Sb  Sb29  1  0.64109329  0.01014886  0.41515378  1
  Sb  Sb30  1  0.35890671  0.51014886  0.41515378  1
  Sb  Sb31  1  0.15965396  0.24394166  0.65589389  1
  P  P32  1  0.30488435  0.03653222  0.53762976  1
  P  P33  1  0.96544626  0.60524467  0.80882472  1
  P  P34  1  0.51589924  0.64376011  0.26404407  1
  P  P35  1  0.18948473  0.78050251  0.03407199  1
  P  P36  1  0.48410076  0.14376011  0.26404407  1
  P  P37  1  0.81051527  0.28050251  0.03407199  1
  P  P38  1  0.03455374  0.10524467  0.80882472  1
  P  P39  1  0.48410076  0.35623989  0.76404407  1
  P  P40  1  0.69511565  0.96346778  0.03762976  1
  P  P41  1  0.51589924  0.85623989  0.76404407  1
  P  P42  1  0.96544626  0.89475533  0.30882472  1
  P  P43  1  0.30488435  0.46346778  0.03762976  1
  P  P44  1  0.69511565  0.53653222  0.53762976  1
  P  P45  1  0.18948473  0.71949749  0.53407199  1
  P  P46  1  0.03455374  0.39475533  0.30882472  1
  P  P47  1  0.81051527  0.21949749  0.53407199  1
  O  O48  1  0.55891540  0.80709514  0.70049605  1
  O  O49  1  0.07716648  0.44786619  0.37093359  1
  O  O50  1  0.12477201  0.72606809  0.60366849  1
  O  O51  1  0.87522799  0.22606809  0.60366849  1
  O  O52  1  0.46732044  0.72105455  0.31483909  1
  O  O53  1  0.24710730  0.17421423  0.08278798  1
  O  O54  1  0.66611983  0.42099216  0.75690454  1
  O  O55  1  0.02771674  0.75728109  0.48855912  1
  O  O56  1  0.50491517  0.10064354  0.88012486  1
  O  O57  1  0.97228326  0.25728109  0.48855912  1
  O  O58  1  0.87522799  0.27393191  0.10366849  1
  O  O59  1  0.44108460  0.30709514  0.70049605  1
  O  O60  1  1.00070357  0.96997433  0.25571326  1
  O  O61  1  0.84511832  0.33536602  0.31754491  1
  O  O62  1  0.46601937  0.99794300  0.58283801  1
  O  O63  1  0.69117707  0.91590478  0.78748467  1
  O  O64  1  0.00836925  0.14860189  0.19299357  1
  O  O65  1  0.26070699  0.06820437  0.98813633  1
  O  O66  1  0.24710730  0.32578577  0.58278798  1
  O  O67  1  0.99163075  0.64860189  0.19299357  1
  O  O68  1  0.63398587  0.52756997  0.46770202  1
  O  O69  1  0.33388017  0.92099216  0.75690454  1
  O  O70  1  0.15488168  0.83536602  0.31754491  1
  O  O71  1  0.79569482  0.82891658  0.28938279  1
  O  O72  1  -0.00070357  0.46997433  0.25571326  1
  O  O73  1  0.62463260  0.21927731  0.02412518  1
  O  O74  1  0.30882293  0.41590478  0.78748467  1
  O  O75  1  0.92283352  0.55213381  0.87093359  1
  O  O76  1  0.26894690  0.14239649  0.55315290  1
  O  O77  1  0.23380857  0.61437293  0.51728233  1
  O  O78  1  0.69117707  0.58409522  0.28748467  1
  O  O79  1  0.79569482  0.67108342  0.78938279  1
  O  O80  1  1.00070357  0.53002567  0.75571326  1
  O  O81  1  0.37536740  0.78072269  0.52412518  1
  O  O82  1  0.49508483  0.60064354  0.88012486  1
  O  O83  1  0.84511832  0.16463398  0.81754491  1
  O  O84  1  0.26894690  0.35760351  0.05315290  1
  O  O85  1  0.20430518  0.32891658  0.28938279  1
  O  O86  1  0.11727971  0.52280598  0.04835965  1
  O  O87  1  0.23380857  0.88562707  0.01728233  1
  O  O88  1  0.62463260  0.28072269  0.52412518  1
  O  O89  1  0.02771674  0.74271891  0.98855912  1
  O  O90  1  0.73929301  0.56820437  0.98813633  1
  O  O91  1  0.37536740  0.71927731  0.02412518  1
  O  O92  1  0.75289270  0.82578577  0.58278798  1
  O  O93  1  0.50491517  0.39935646  0.38012486  1
  O  O94  1  0.49508483  0.89935646  0.38012486  1
  O  O95  1  0.11727971  0.97719402  0.54835965  1
  O  O96  1  0.53267956  0.27894545  0.81483909  1
  O  O97  1  0.26070699  0.43179563  0.48813633  1
  O  O98  1  0.44108460  0.19290486  0.20049605  1
  O  O99  1  0.46732044  0.77894545  0.81483909  1
  O  O100  1  0.00836925  0.35139811  0.69299357  1
  O  O101  1  0.73105310  0.64239649  0.55315290  1
  O  O102  1  0.30882293  0.08409522  0.28748467  1
  O  O103  1  0.99163075  0.85139811  0.69299357  1
  O  O104  1  0.66611983  0.07900784  0.25690454  1
  O  O105  1  -0.00070357  0.03002567  0.75571326  1
  O  O106  1  0.36601413  0.02756997  0.46770202  1
  O  O107  1  0.63398587  0.97243003  0.96770202  1
  O  O108  1  0.20430518  0.17108342  0.78938279  1
  O  O109  1  0.88272029  0.02280598  0.04835965  1
  O  O110  1  0.88272029  0.47719402  0.54835965  1
  O  O111  1  0.53398063  0.49794300  0.58283801  1
  O  O112  1  0.46601937  0.50205700  0.08283801  1
  O  O113  1  0.36601413  0.47243003  0.96770202  1
  O  O114  1  0.97228326  0.24271891  0.98855912  1
  O  O115  1  0.53398063  0.00205700  0.08283801  1
  O  O116  1  0.53267956  0.22105455  0.31483909  1
  O  O117  1  0.73929301  0.93179563  0.48813633  1
  O  O118  1  0.55891540  0.69290486  0.20049605  1
  O  O119  1  0.76619143  0.38562707  0.01728233  1
  O  O120  1  0.92283352  0.94786619  0.37093359  1
  O  O121  1  0.33388017  0.57900784  0.25690454  1
  O  O122  1  0.12477201  0.77393191  0.10366849  1
  O  O123  1  0.15488168  0.66463398  0.81754491  1
  O  O124  1  0.76619143  0.11437293  0.51728233  1
  O  O125  1  0.75289270  0.67421423  0.08278798  1
  O  O126  1  0.07716648  0.05213381  0.87093359  1
  O  O127  1  0.73105310  0.85760351  0.05315290  1
