# generated using pymatgen
data_La3GaS5O
_symmetry_space_group_name_H-M   'P 1'
_cell_length_a   4.04931251
_cell_length_b   10.85557112
_cell_length_c   20.06910776
_cell_angle_alpha   90.00000000
_cell_angle_beta   90.00000000
_cell_angle_gamma   90.00000000
_symmetry_Int_Tables_number   1
_chemical_formula_structural   La3GaS5O
_chemical_formula_sum   'La12 Ga4 S20 O4'
_cell_volume   882.18981006
_cell_formula_units_Z   4
loop_
 _symmetry_equiv_pos_site_id
 _symmetry_equiv_pos_as_xyz
  1  'x, y, z'
loop_
 _atom_site_type_symbol
 _atom_site_label
 _atom_site_symmetry_multiplicity
 _atom_site_fract_x
 _atom_site_fract_y
 _atom_site_fract_z
 _atom_site_occupancy
  La  La0  1  0.75000000  0.59941800  0.83684556  1
  La  La1  1  0.25000000  0.52032853  0.39703812  1
  La  La2  1  0.25000000  0.14734827  0.49032258  1
  La  La3  1  0.75000000  0.85265173  0.50967742  1
  La  La4  1  0.25000000  0.64734827  0.00967742  1
  La  La5  1  0.75000000  0.97967147  0.89703812  1
  La  La6  1  0.75000000  0.35265173  0.99032258  1
  La  La7  1  0.25000000  0.90058200  0.33684556  1
  La  La8  1  0.75000000  0.09941800  0.66315444  1
  La  La9  1  0.25000000  0.40058200  0.16315444  1
  La  La10  1  0.75000000  0.47967147  0.60296188  1
  La  La11  1  0.25000000  0.02032853  0.10296188  1
  Ga  Ga12  1  0.25000000  0.79351341  0.71059864  1
  Ga  Ga13  1  0.75000000  0.20648659  0.28940136  1
  Ga  Ga14  1  0.75000000  0.70648659  0.21059864  1
  Ga  Ga15  1  0.25000000  0.29351341  0.78940136  1
  S  S16  1  0.75000000  0.37266728  0.46546195  1
  S  S17  1  0.75000000  0.08475807  0.37996764  1
  S  S18  1  0.25000000  0.14769269  0.23818795  1
  S  S19  1  0.75000000  0.22155744  0.11538126  1
  S  S20  1  0.25000000  0.58794674  0.71199743  1
  S  S21  1  0.25000000  0.77844256  0.88461874  1
  S  S22  1  0.25000000  0.41524193  0.87996764  1
  S  S23  1  0.25000000  0.12733272  0.96546195  1
  S  S24  1  0.25000000  0.64769269  0.26181205  1
  S  S25  1  0.25000000  0.08794674  0.78800257  1
  S  S26  1  0.25000000  0.62733272  0.53453805  1
  S  S27  1  0.25000000  0.27844256  0.61538126  1
  S  S28  1  0.75000000  0.58475807  0.12003236  1
  S  S29  1  0.75000000  0.72155744  0.38461874  1
  S  S30  1  0.75000000  0.87266728  0.03453805  1
  S  S31  1  0.75000000  0.41205326  0.28800257  1
  S  S32  1  0.25000000  0.91524193  0.62003236  1
  S  S33  1  0.75000000  0.85230731  0.76181205  1
  S  S34  1  0.75000000  0.35230731  0.73818795  1
  S  S35  1  0.75000000  0.91205326  0.21199743  1
  O  O36  1  0.25000000  0.92516628  0.45790477  1
  O  O37  1  0.75000000  0.07483372  0.54209523  1
  O  O38  1  0.75000000  0.57483372  0.95790477  1
  O  O39  1  0.25000000  0.42516628  0.04209523  1
