# generated using pymatgen
data_Na3NiO3
_symmetry_space_group_name_H-M   'P 1'
_cell_length_a   9.18150479
_cell_length_b   9.19112797
_cell_length_c   4.45453836
_cell_angle_alpha   90.00000000
_cell_angle_beta   90.00000000
_cell_angle_gamma   90.00766419
_symmetry_Int_Tables_number   1
_chemical_formula_structural   Na3NiO3
_chemical_formula_sum   'Na12 Ni4 O12'
_cell_volume   375.91129695
_cell_formula_units_Z   4
loop_
 _symmetry_equiv_pos_site_id
 _symmetry_equiv_pos_as_xyz
  1  'x, y, z'
loop_
 _atom_site_type_symbol
 _atom_site_label
 _atom_site_symmetry_multiplicity
 _atom_site_fract_x
 _atom_site_fract_y
 _atom_site_fract_z
 _atom_site_occupancy
  Na  Na0  1  0.12946437  0.62651346  0.00000000  1
  Na  Na1  1  0.12644168  0.37073788  0.50000000  1
  Na  Na2  1  0.14899856  0.85093979  0.50000000  1
  Na  Na3  1  0.35099220  0.35104548  0.00000000  1
  Na  Na4  1  0.37358140  0.87061403  0.00000000  1
  Na  Na5  1  0.37043689  0.12647167  0.50000000  1
  Na  Na6  1  0.62938674  0.87340494  0.50000000  1
  Na  Na7  1  0.62641354  0.12926202  0.00000000  1
  Na  Na8  1  0.64889191  0.64904520  0.00000000  1
  Na  Na9  1  0.85117795  0.14893077  0.50000000  1
  Na  Na10  1  0.87371488  0.62942451  0.50000000  1
  Na  Na11  1  0.87068201  0.37350243  0.00000000  1
  Ni  Ni12  1  0.10887515  0.10876151  0.00000000  1
  Ni  Ni13  1  0.39114603  0.60876819  0.50000000  1
  Ni  Ni14  1  0.60896509  0.39112358  0.50000000  1
  Ni  Ni15  1  0.89112042  0.89129050  0.00000000  1
  O  O16  1  0.09324369  0.90670493  0.00000000  1
  O  O17  1  0.10539504  0.30750482  0.00000000  1
  O  O18  1  0.19226522  0.60544503  0.50000000  1
  O  O19  1  0.30753265  0.10543349  0.00000000  1
  O  O20  1  0.39462298  0.80749183  0.50000000  1
  O  O21  1  0.40663398  0.40674485  0.50000000  1
  O  O22  1  0.59341996  0.59321451  0.50000000  1
  O  O23  1  0.60535671  0.19268532  0.50000000  1
  O  O24  1  0.69245296  0.89455319  0.00000000  1
  O  O25  1  0.80755801  0.39460524  0.50000000  1
  O  O26  1  0.89458487  0.69250692  0.00000000  1
  O  O27  1  0.90668611  0.09331590  0.00000000  1
