# generated using pymatgen
data_Mn(NO3)2
_symmetry_space_group_name_H-M   'P 1'
_cell_length_a   7.82310544
_cell_length_b   7.82310544
_cell_length_c   7.82310544
_cell_angle_alpha   90.00000000
_cell_angle_beta   90.00000000
_cell_angle_gamma   90.00000000
_symmetry_Int_Tables_number   1
_chemical_formula_structural   Mn(NO3)2
_chemical_formula_sum   'Mn4 N8 O24'
_cell_volume   478.78170960
_cell_formula_units_Z   4
loop_
 _symmetry_equiv_pos_site_id
 _symmetry_equiv_pos_as_xyz
  1  'x, y, z'
loop_
 _atom_site_type_symbol
 _atom_site_label
 _atom_site_symmetry_multiplicity
 _atom_site_fract_x
 _atom_site_fract_y
 _atom_site_fract_z
 _atom_site_occupancy
  Mn  Mn0  1  0.50000000  0.50000000  0.00000000  1
  Mn  Mn1  1  0.00000000  0.50000000  0.50000000  1
  Mn  Mn2  1  0.50000000  0.00000000  0.50000000  1
  Mn  Mn3  1  0.00000000  0.00000000  0.00000000  1
  N  N4  1  0.33103188  0.16896812  0.83103188  1
  N  N5  1  0.83103188  0.33103188  0.16896812  1
  N  N6  1  0.16896812  0.83103188  0.33103188  1
  N  N7  1  0.66896812  0.66896812  0.66896812  1
  N  N8  1  0.66896812  0.83103188  0.16896812  1
  N  N9  1  0.16896812  0.66896812  0.83103188  1
  N  N10  1  0.83103188  0.16896812  0.66896812  1
  N  N11  1  0.33103188  0.33103188  0.33103188  1
  O  O12  1  0.44827885  0.28006570  0.82483025  1
  O  O13  1  0.82483025  0.44827885  0.28006570  1
  O  O14  1  0.28006570  0.82483025  0.44827885  1
  O  O15  1  0.21993430  0.17516975  0.94827885  1
  O  O16  1  0.32483025  0.05172115  0.71993430  1
  O  O17  1  0.71993430  0.32483025  0.05172115  1
  O  O18  1  0.67516975  0.55172115  0.78006570  1
  O  O19  1  0.17516975  0.94827885  0.21993430  1
  O  O20  1  0.78006570  0.67516975  0.55172115  1
  O  O21  1  0.94827885  0.21993430  0.17516975  1
  O  O22  1  0.55172115  0.78006570  0.67516975  1
  O  O23  1  0.05172115  0.71993430  0.32483025  1
  O  O24  1  0.55172115  0.71993430  0.17516975  1
  O  O25  1  0.17516975  0.55172115  0.71993430  1
  O  O26  1  0.71993430  0.17516975  0.55172115  1
  O  O27  1  0.78006570  0.82483025  0.05172115  1
  O  O28  1  0.67516975  0.94827885  0.28006570  1
  O  O29  1  0.28006570  0.67516975  0.94827885  1
  O  O30  1  0.32483025  0.44827885  0.21993430  1
  O  O31  1  0.82483025  0.05172115  0.78006570  1
  O  O32  1  0.21993430  0.32483025  0.44827885  1
  O  O33  1  0.05172115  0.78006570  0.82483025  1
  O  O34  1  0.44827885  0.21993430  0.32483025  1
  O  O35  1  0.94827885  0.28006570  0.67516975  1
