# generated using pymatgen
data_LiMn2PO6
_symmetry_space_group_name_H-M   'P 1'
_cell_length_a   11.84115204
_cell_length_b   5.18252433
_cell_length_c   7.77773574
_cell_angle_alpha   90.00000000
_cell_angle_beta   90.00000000
_cell_angle_gamma   90.00000000
_symmetry_Int_Tables_number   1
_chemical_formula_structural   LiMn2PO6
_chemical_formula_sum   'Li4 Mn8 P4 O24'
_cell_volume   477.29676448
_cell_formula_units_Z   4
loop_
 _symmetry_equiv_pos_site_id
 _symmetry_equiv_pos_as_xyz
  1  'x, y, z'
loop_
 _atom_site_type_symbol
 _atom_site_label
 _atom_site_symmetry_multiplicity
 _atom_site_fract_x
 _atom_site_fract_y
 _atom_site_fract_z
 _atom_site_occupancy
  Li  Li0  1  0.06046192  0.25000000  0.01604016  1
  Li  Li1  1  0.43953808  0.75000000  0.51604016  1
  Li  Li2  1  0.56046192  0.25000000  0.48395984  1
  Li  Li3  1  0.93953808  0.75000000  0.98395984  1
  Mn  Mn4  1  0.07515597  0.75000000  0.28975641  1
  Mn  Mn5  1  0.09004363  0.75000000  0.68754909  1
  Mn  Mn6  1  0.40995637  0.25000000  0.18754909  1
  Mn  Mn7  1  0.42484403  0.25000000  0.78975641  1
  Mn  Mn8  1  0.57515597  0.75000000  0.21024359  1
  Mn  Mn9  1  0.59004363  0.75000000  0.81245091  1
  Mn  Mn10  1  0.90995637  0.25000000  0.31245091  1
  Mn  Mn11  1  0.92484403  0.25000000  0.71024359  1
  P  P12  1  0.20473940  0.25000000  0.47040933  1
  P  P13  1  0.29526060  0.75000000  0.97040933  1
  P  P14  1  0.70473940  0.25000000  0.02959067  1
  P  P15  1  0.79526060  0.75000000  0.52959067  1
  O  O16  1  0.01517593  0.49939898  0.82032537  1
  O  O17  1  0.01517593  0.00060102  0.82032537  1
  O  O18  1  0.12414526  0.00367923  0.48633438  1
  O  O19  1  0.12414526  0.49632077  0.48633438  1
  O  O20  1  0.21006615  0.75000000  0.11500112  1
  O  O21  1  0.25004583  0.25000000  0.28764702  1
  O  O22  1  0.24995417  0.75000000  0.78764702  1
  O  O23  1  0.28993385  0.25000000  0.61500112  1
  O  O24  1  0.37585474  0.50367923  0.98633438  1
  O  O25  1  0.37585474  0.99632077  0.98633438  1
  O  O26  1  0.48482407  0.99939898  0.32032537  1
  O  O27  1  0.48482407  0.50060102  0.32032537  1
  O  O28  1  0.51517593  0.49939898  0.67967463  1
  O  O29  1  0.51517593  0.00060102  0.67967463  1
  O  O30  1  0.62414526  0.00367923  0.01366562  1
  O  O31  1  0.62414526  0.49632077  0.01366562  1
  O  O32  1  0.71006615  0.75000000  0.38499888  1
  O  O33  1  0.75004583  0.25000000  0.21235298  1
  O  O34  1  0.74995417  0.75000000  0.71235298  1
  O  O35  1  0.78993385  0.25000000  0.88499888  1
  O  O36  1  0.87585474  0.50367923  0.51366562  1
  O  O37  1  0.87585474  0.99632077  0.51366562  1
  O  O38  1  0.98482407  0.99939898  0.17967463  1
  O  O39  1  0.98482407  0.50060102  0.17967463  1
