# generated using pymatgen
data_Ba5P3BrO12
_symmetry_space_group_name_H-M   'P 1'
_cell_length_a   10.52349238
_cell_length_b   10.52349263
_cell_length_c   7.76466418
_cell_angle_alpha   90.00000000
_cell_angle_beta   90.00000000
_cell_angle_gamma   119.99999920
_symmetry_Int_Tables_number   1
_chemical_formula_structural   Ba5P3BrO12
_chemical_formula_sum   'Ba10 P6 Br2 O24'
_cell_volume   744.68585523
_cell_formula_units_Z   2
loop_
 _symmetry_equiv_pos_site_id
 _symmetry_equiv_pos_as_xyz
  1  'x, y, z'
loop_
 _atom_site_type_symbol
 _atom_site_label
 _atom_site_symmetry_multiplicity
 _atom_site_fract_x
 _atom_site_fract_y
 _atom_site_fract_z
 _atom_site_occupancy
  Ba  Ba0  1  0.66666700  0.33333300  0.50048183  1
  Ba  Ba1  1  0.01213144  0.26602953  0.25000000  1
  Ba  Ba2  1  0.26602953  0.25389809  0.75000000  1
  Ba  Ba3  1  0.73397047  0.74610191  0.25000000  1
  Ba  Ba4  1  0.33333300  0.66666700  0.00048183  1
  Ba  Ba5  1  0.98786856  0.73397047  0.75000000  1
  Ba  Ba6  1  0.74610191  0.01213144  0.75000000  1
  Ba  Ba7  1  0.25389809  0.98786856  0.25000000  1
  Ba  Ba8  1  0.33333300  0.66666700  0.49951817  1
  Ba  Ba9  1  0.66666700  0.33333300  0.99951817  1
  P  P10  1  0.62898754  0.03727656  0.25000000  1
  P  P11  1  0.37101246  0.96272344  0.75000000  1
  P  P12  1  0.59171098  0.62898754  0.75000000  1
  P  P13  1  0.03727656  0.40828902  0.75000000  1
  P  P14  1  0.96272344  0.59171098  0.25000000  1
  P  P15  1  0.40828902  0.37101246  0.25000000  1
  Br  Br16  1  0.00000000  0.00000000  0.00000000  1
  Br  Br17  1  0.00000000  0.00000000  0.50000000  1
  O  O18  1  0.35859888  0.27157950  0.08664811  1
  O  O19  1  0.65386967  0.52162205  0.75000000  1
  O  O20  1  0.34613033  0.47837795  0.25000000  1
  O  O21  1  0.58047425  0.46021002  0.25000000  1
  O  O22  1  0.72842050  0.08701938  0.41335189  1
  O  O23  1  0.35859888  0.27157950  0.41335189  1
  O  O24  1  0.53978998  0.12026423  0.25000000  1
  O  O25  1  0.27157950  0.91298062  0.91335189  1
  O  O26  1  0.52162205  0.86775238  0.25000000  1
  O  O27  1  0.08701938  0.35859888  0.58664811  1
  O  O28  1  0.27157950  0.91298062  0.58664811  1
  O  O29  1  0.13224762  0.65386967  0.25000000  1
  O  O30  1  0.91298062  0.64140112  0.41335189  1
  O  O31  1  0.87973577  0.41952575  0.25000000  1
  O  O32  1  0.12026423  0.58047425  0.75000000  1
  O  O33  1  0.64140112  0.72842050  0.91335189  1
  O  O34  1  0.41952575  0.53978998  0.75000000  1
  O  O35  1  0.08701938  0.35859888  0.91335189  1
  O  O36  1  0.46021002  0.87973577  0.75000000  1
  O  O37  1  0.64140112  0.72842050  0.58664811  1
  O  O38  1  0.86775238  0.34613033  0.75000000  1
  O  O39  1  0.72842050  0.08701938  0.08664811  1
  O  O40  1  0.47837795  0.13224762  0.75000000  1
  O  O41  1  0.91298062  0.64140112  0.08664811  1
