# generated using pymatgen
data_SiPb4(ClO)4
_symmetry_space_group_name_H-M   'P 1'
_cell_length_a   8.43866814
_cell_length_b   8.91091437
_cell_length_c   15.89886612
_cell_angle_alpha   90.00000000
_cell_angle_beta   90.00000000
_cell_angle_gamma   92.10354493
_symmetry_Int_Tables_number   1
_chemical_formula_structural   SiPb4(ClO)4
_chemical_formula_sum   'Si4 Pb16 Cl16 O16'
_cell_volume   1194.72945726
_cell_formula_units_Z   4
loop_
 _symmetry_equiv_pos_site_id
 _symmetry_equiv_pos_as_xyz
  1  'x, y, z'
loop_
 _atom_site_type_symbol
 _atom_site_label
 _atom_site_symmetry_multiplicity
 _atom_site_fract_x
 _atom_site_fract_y
 _atom_site_fract_z
 _atom_site_occupancy
  Si  Si0  1  0.35164715  0.36633206  0.64846310  1
  Si  Si1  1  0.85164715  0.36633206  0.85153690  1
  Si  Si2  1  0.64835285  0.63366794  0.35153690  1
  Si  Si3  1  0.14835285  0.63366794  0.14846310  1
  Pb  Pb4  1  0.50414738  0.56962241  0.79792965  1
  Pb  Pb5  1  0.70444498  0.15571782  0.99164381  1
  Pb  Pb6  1  0.79555502  0.84428218  0.49164381  1
  Pb  Pb7  1  0.92950197  0.89246753  0.24366912  1
  Pb  Pb8  1  0.57049803  0.10753247  0.74366912  1
  Pb  Pb9  1  0.84608395  0.65473375  0.96975823  1
  Pb  Pb10  1  0.15391605  0.34526625  0.03024177  1
  Pb  Pb11  1  0.00414738  0.56962241  0.70207035  1
  Pb  Pb12  1  0.99585262  0.43037759  0.29792965  1
  Pb  Pb13  1  0.20444498  0.15571782  0.50835619  1
  Pb  Pb14  1  0.49585262  0.43037759  0.20207035  1
  Pb  Pb15  1  0.29555502  0.84428218  0.00835619  1
  Pb  Pb16  1  0.65391605  0.34526625  0.46975823  1
  Pb  Pb17  1  0.34608395  0.65473375  0.53024177  1
  Pb  Pb18  1  0.42950197  0.89246753  0.25633088  1
  Pb  Pb19  1  0.07049803  0.10753247  0.75633088  1
  Cl  Cl20  1  0.83091865  0.16118281  0.62416709  1
  Cl  Cl21  1  0.88334551  0.12839004  0.39113830  1
  Cl  Cl22  1  0.38046803  0.27281240  0.34633126  1
  Cl  Cl23  1  0.11665449  0.87160996  0.60886170  1
  Cl  Cl24  1  0.11953197  0.72718760  0.84633126  1
  Cl  Cl25  1  0.61953197  0.72718760  0.65366874  1
  Cl  Cl26  1  0.00000000  0.00000000  0.00000000  1
  Cl  Cl27  1  0.61665449  0.87160996  0.89113830  1
  Cl  Cl28  1  0.33091865  0.16118281  0.87583291  1
  Cl  Cl29  1  0.50000000  0.50000000  0.00000000  1
  Cl  Cl30  1  0.66908135  0.83881719  0.12416709  1
  Cl  Cl31  1  0.16908135  0.83881719  0.37583291  1
  Cl  Cl32  1  0.88046803  0.27281240  0.15366874  1
  Cl  Cl33  1  0.38334551  0.12839004  0.10886170  1
  Cl  Cl34  1  0.00000000  0.50000000  0.50000000  1
  Cl  Cl35  1  0.50000000  0.00000000  0.50000000  1
  O  O36  1  0.23095052  0.47398671  0.17120812  1
  O  O37  1  0.10433857  0.62482940  0.04667139  1
  O  O38  1  0.39566143  0.37517060  0.54667139  1
  O  O39  1  0.60433857  0.62482940  0.45332861  1
  O  O40  1  0.00655512  0.35296352  0.78947559  1
  O  O41  1  0.73095052  0.47398671  0.32879188  1
  O  O42  1  0.50655512  0.35296352  0.71052441  1
  O  O43  1  0.23668814  0.21282205  0.65589540  1
  O  O44  1  0.76904948  0.52601329  0.82879188  1
  O  O45  1  0.49344488  0.64703648  0.28947559  1
  O  O46  1  0.89566143  0.37517060  0.95332861  1
  O  O47  1  0.99344488  0.64703648  0.21052441  1
  O  O48  1  0.26331186  0.78717795  0.15589540  1
  O  O49  1  0.73668814  0.21282205  0.84410460  1
  O  O50  1  0.76331186  0.78717795  0.34410460  1
  O  O51  1  0.26904948  0.52601329  0.67120812  1
