# generated using pymatgen
data_GdMoO4F
_symmetry_space_group_name_H-M   'P 1'
_cell_length_a   5.32279242
_cell_length_b   6.82078850
_cell_length_c   12.56852566
_cell_angle_alpha   90.00000000
_cell_angle_beta   90.00000000
_cell_angle_gamma   112.96343730
_symmetry_Int_Tables_number   1
_chemical_formula_structural   GdMoO4F
_chemical_formula_sum   'Gd4 Mo4 O16 F4'
_cell_volume   420.14777335
_cell_formula_units_Z   4
loop_
 _symmetry_equiv_pos_site_id
 _symmetry_equiv_pos_as_xyz
  1  'x, y, z'
loop_
 _atom_site_type_symbol
 _atom_site_label
 _atom_site_symmetry_multiplicity
 _atom_site_fract_x
 _atom_site_fract_y
 _atom_site_fract_z
 _atom_site_occupancy
  Gd  Gd0  1  0.36149832  0.70063697  0.55239408  1
  Gd  Gd1  1  0.36149832  0.20063697  0.94760592  1
  Gd  Gd2  1  0.63850168  0.79936303  0.05239408  1
  Gd  Gd3  1  0.63850168  0.29936303  0.44760592  1
  Mo  Mo4  1  0.92212931  0.86975295  0.35690339  1
  Mo  Mo5  1  0.07787069  0.63024705  0.85690339  1
  Mo  Mo6  1  0.07787069  0.13024705  0.64309661  1
  Mo  Mo7  1  0.92212931  0.36975295  0.14309661  1
  O  O8  1  0.23585212  0.08942734  0.34683949  1
  O  O9  1  0.69420986  0.46060072  0.06582912  1
  O  O10  1  0.80742648  0.79411576  0.22455658  1
  O  O11  1  0.19257352  0.70588424  0.72455658  1
  O  O12  1  0.80742648  0.29411576  0.27544342  1
  O  O13  1  0.00593787  0.33570778  0.56936906  1
  O  O14  1  0.99406213  0.16429222  0.06936906  1
  O  O15  1  0.69420986  0.96060072  0.43417088  1
  O  O16  1  0.30579014  0.53939928  0.93417088  1
  O  O17  1  0.00593787  0.83570778  0.93063094  1
  O  O18  1  0.99406213  0.66429222  0.43063094  1
  O  O19  1  0.23585212  0.58942734  0.15316051  1
  O  O20  1  0.19257352  0.20588424  0.77544342  1
  O  O21  1  0.30579014  0.03939928  0.56582912  1
  O  O22  1  0.76414788  0.41057266  0.84683949  1
  O  O23  1  0.76414788  0.91057266  0.65316051  1
  F  F24  1  0.45088538  0.53510263  0.40192903  1
  F  F25  1  0.54911462  0.96489737  0.90192903  1
  F  F26  1  0.45088538  0.03510263  0.09807097  1
  F  F27  1  0.54911462  0.46489737  0.59807097  1
