# generated using pymatgen
data_Nd4Al2O9
_symmetry_space_group_name_H-M   'P 1'
_cell_length_a   7.79194796
_cell_length_b   10.95350314
_cell_length_c   11.45141545
_cell_angle_alpha   90.00000000
_cell_angle_beta   109.35986278
_cell_angle_gamma   90.00000000
_symmetry_Int_Tables_number   1
_chemical_formula_structural   Nd4Al2O9
_chemical_formula_sum   'Nd16 Al8 O36'
_cell_volume   922.10312513
_cell_formula_units_Z   4
loop_
 _symmetry_equiv_pos_site_id
 _symmetry_equiv_pos_as_xyz
  1  'x, y, z'
loop_
 _atom_site_type_symbol
 _atom_site_label
 _atom_site_symmetry_multiplicity
 _atom_site_fract_x
 _atom_site_fract_y
 _atom_site_fract_z
 _atom_site_occupancy
  Nd  Nd0  1  0.66585644  0.62425287  0.07055632  1
  Nd  Nd1  1  0.47605653  0.60105862  0.71192767  1
  Nd  Nd2  1  0.52394347  0.10105862  0.78807233  1
  Nd  Nd3  1  0.83561656  0.37691663  0.91314564  1
  Nd  Nd4  1  0.02584160  0.08613869  0.81015106  1
  Nd  Nd5  1  0.47605653  0.89894138  0.21192767  1
  Nd  Nd6  1  0.33414356  0.12425287  0.42944368  1
  Nd  Nd7  1  0.97415840  0.91386131  0.18984894  1
  Nd  Nd8  1  0.52394347  0.39894138  0.28807233  1
  Nd  Nd9  1  0.16438344  0.87691663  0.58685436  1
  Nd  Nd10  1  0.02584160  0.41386131  0.31015106  1
  Nd  Nd11  1  0.66585644  0.87574713  0.57055632  1
  Nd  Nd12  1  0.83561656  0.12308337  0.41314564  1
  Nd  Nd13  1  0.33414356  0.37574713  0.92944368  1
  Nd  Nd14  1  0.16438344  0.62308337  0.08685436  1
  Nd  Nd15  1  0.97415840  0.58613869  0.68984894  1
  Al  Al16  1  0.34822917  0.81104287  0.88088500  1
  Al  Al17  1  0.22355763  0.19096497  0.12901692  1
  Al  Al18  1  0.65177083  0.18895713  0.11911500  1
  Al  Al19  1  0.77644237  0.80903503  0.87098308  1
  Al  Al20  1  0.22355763  0.30903503  0.62901692  1
  Al  Al21  1  0.34822917  0.68895713  0.38088500  1
  Al  Al22  1  0.65177083  0.31104287  0.61911500  1
  Al  Al23  1  0.77644237  0.69096497  0.37098308  1
  O  O24  1  0.43229466  0.99107940  0.60340634  1
  O  O25  1  0.92366298  0.00356949  0.60633091  1
  O  O26  1  0.35905271  0.72764733  0.53234356  1
  O  O27  1  0.21730925  0.77810841  0.25307667  1
  O  O28  1  0.43439567  0.25818707  0.61740156  1
  O  O29  1  0.07633702  0.99643051  0.39366909  1
  O  O30  1  0.78269075  0.27810841  0.24692333  1
  O  O31  1  0.64094729  0.22764733  0.96765644  1
  O  O32  1  0.70139395  0.46298403  0.67340598  1
  O  O33  1  0.92046996  0.73364357  0.51887763  1
  O  O34  1  0.56560433  0.74181293  0.38259844  1
  O  O35  1  0.78191818  0.96463620  0.83408137  1
  O  O36  1  0.56560433  0.75818707  0.88259844  1
  O  O37  1  0.43229466  0.50892060  0.10340634  1
  O  O38  1  0.21808182  0.46463620  0.66591863  1
  O  O39  1  0.64094729  0.27235267  0.46765644  1
  O  O40  1  0.43439567  0.24181293  0.11740156  1
  O  O41  1  0.23182162  0.27572097  0.26370230  1
  O  O42  1  0.76817838  0.77572097  0.23629770  1
  O  O43  1  0.07953004  0.23364357  0.98112237  1
  O  O44  1  0.78269075  0.22189159  0.74692333  1
  O  O45  1  0.35905271  0.77235267  0.03234356  1
  O  O46  1  0.07633702  0.50356949  0.89366909  1
  O  O47  1  0.56770534  0.00892060  0.39659366  1
  O  O48  1  0.29860605  0.96298403  0.82659402  1
  O  O49  1  0.07953004  0.26635643  0.48112237  1
  O  O50  1  0.56770534  0.49107940  0.89659366  1
  O  O51  1  0.29860605  0.53701597  0.32659402  1
  O  O52  1  0.21730925  0.72189159  0.75307667  1
  O  O53  1  0.21808182  0.03536380  0.16591863  1
  O  O54  1  0.92366298  0.49643051  0.10633091  1
  O  O55  1  0.92046996  0.76635643  0.01887763  1
  O  O56  1  0.78191818  0.53536380  0.33408137  1
  O  O57  1  0.23182162  0.22427903  0.76370230  1
  O  O58  1  0.70139395  0.03701597  0.17340598  1
  O  O59  1  0.76817838  0.72427903  0.73629770  1
