# generated using pymatgen
data_CsTi3P5O19
_symmetry_space_group_name_H-M   'P 1'
_cell_length_a   6.40188225
_cell_length_b   8.58149504
_cell_length_c   8.58149458
_cell_angle_alpha   113.20110494
_cell_angle_beta   98.60593111
_cell_angle_gamma   98.60593006
_symmetry_Int_Tables_number   1
_chemical_formula_structural   CsTi3P5O19
_chemical_formula_sum   'Cs1 Ti3 P5 O19'
_cell_volume   417.00354194
_cell_formula_units_Z   1
loop_
 _symmetry_equiv_pos_site_id
 _symmetry_equiv_pos_as_xyz
  1  'x, y, z'
loop_
 _atom_site_type_symbol
 _atom_site_label
 _atom_site_symmetry_multiplicity
 _atom_site_fract_x
 _atom_site_fract_y
 _atom_site_fract_z
 _atom_site_occupancy
  Cs  Cs0  1  0.52409537  0.09752406  0.09752406  1
  Ti  Ti1  1  0.18177788  0.24392532  0.49067290  1
  Ti  Ti2  1  0.84314971  0.76536838  0.76536838  1
  Ti  Ti3  1  0.18177788  0.49067290  0.24392532  1
  P  P4  1  0.99965413  0.81511428  0.18485503  1
  P  P5  1  0.99965413  0.18485503  0.81511428  1
  P  P6  1  0.30266765  0.66988528  0.66988528  1
  P  P7  1  0.73022117  0.61028210  0.31709941  1
  P  P8  1  0.73022117  0.31709941  0.61028210  1
  O  O9  1  0.26196306  0.66310695  0.48500462  1
  O  O10  1  0.49044040  0.23480485  0.52503527  1
  O  O11  1  0.86552918  0.25021929  0.47542091  1
  O  O12  1  0.14149580  0.68525560  0.16601006  1
  O  O13  1  0.11253690  0.32211277  0.99782221  1
  O  O14  1  0.15159583  0.77281509  0.77281509  1
  O  O15  1  0.77952940  0.51528894  0.70615505  1
  O  O16  1  0.53856651  0.76987669  0.76987669  1
  O  O17  1  0.18622238  0.31649248  0.31649248  1
  O  O18  1  0.77952940  0.70615505  0.51528894  1
  O  O19  1  0.14149580  0.16601006  0.68525560  1
  O  O20  1  0.78628678  0.24711983  0.75663451  1
  O  O21  1  0.90411157  0.01387647  0.82265166  1
  O  O22  1  0.86552918  0.47542091  0.25021929  1
  O  O23  1  0.49044040  0.52503527  0.23480485  1
  O  O24  1  0.26196306  0.48500462  0.66310695  1
  O  O25  1  0.11253690  0.99782221  0.32211277  1
  O  O26  1  0.90411157  0.82265166  0.01387647  1
  O  O27  1  0.78628678  0.75663451  0.24711983  1
