# generated using pymatgen
data_BaTa2O6
_symmetry_space_group_name_H-M   'P 1'
_cell_length_a   21.43814386
_cell_length_b   21.43814382
_cell_length_c   3.97948051
_cell_angle_alpha   90.00000000
_cell_angle_beta   90.00000000
_cell_angle_gamma   120.00000006
_symmetry_Int_Tables_number   1
_chemical_formula_structural   BaTa2O6
_chemical_formula_sum   'Ba12 Ta24 O72'
_cell_volume   1583.91318694
_cell_formula_units_Z   12
loop_
 _symmetry_equiv_pos_site_id
 _symmetry_equiv_pos_as_xyz
  1  'x, y, z'
loop_
 _atom_site_type_symbol
 _atom_site_label
 _atom_site_symmetry_multiplicity
 _atom_site_fract_x
 _atom_site_fract_y
 _atom_site_fract_z
 _atom_site_occupancy
  Ba  Ba0  1  0.81780586  0.63561172  0.00000000  1
  Ba  Ba1  1  0.33333300  0.66666700  0.00000000  1
  Ba  Ba2  1  0.50000000  0.50000000  0.00000000  1
  Ba  Ba3  1  0.66666700  0.33333300  0.00000000  1
  Ba  Ba4  1  0.81780586  0.18219414  0.00000000  1
  Ba  Ba5  1  0.18219414  0.36438828  0.00000000  1
  Ba  Ba6  1  0.50000000  0.00000000  0.00000000  1
  Ba  Ba7  1  0.63561172  0.81780586  0.00000000  1
  Ba  Ba8  1  0.00000000  0.00000000  0.50000000  1
  Ba  Ba9  1  0.18219414  0.81780586  0.00000000  1
  Ba  Ba10  1  0.00000000  0.50000000  0.00000000  1
  Ba  Ba11  1  0.36438828  0.18219414  0.00000000  1
  Ta  Ta12  1  0.16376034  0.50725375  0.50000000  1
  Ta  Ta13  1  0.30822461  0.00000000  0.50000000  1
  Ta  Ta14  1  0.00000000  0.30822461  0.50000000  1
  Ta  Ta15  1  0.69177539  0.69177539  0.50000000  1
  Ta  Ta16  1  0.20349065  0.10174533  0.50000000  1
  Ta  Ta17  1  0.83623966  0.49274625  0.50000000  1
  Ta  Ta18  1  0.69177539  0.00000000  0.50000000  1
  Ta  Ta19  1  0.16376034  0.65650659  0.50000000  1
  Ta  Ta20  1  0.79650935  0.89825467  0.50000000  1
  Ta  Ta21  1  0.89825467  0.10174533  0.50000000  1
  Ta  Ta22  1  1.00000000  0.69177539  0.50000000  1
  Ta  Ta23  1  0.50725375  0.34349341  0.50000000  1
  Ta  Ta24  1  0.65650659  0.49274625  0.50000000  1
  Ta  Ta25  1  0.65650659  0.16376034  0.50000000  1
  Ta  Ta26  1  0.34349341  0.83623966  0.50000000  1
  Ta  Ta27  1  0.34349341  0.50725375  0.50000000  1
  Ta  Ta28  1  0.49274625  0.65650659  0.50000000  1
  Ta  Ta29  1  0.49274625  0.83623966  0.50000000  1
  Ta  Ta30  1  0.10174533  0.20349065  0.50000000  1
  Ta  Ta31  1  0.83623966  0.34349341  0.50000000  1
  Ta  Ta32  1  0.89825467  0.79650935  0.50000000  1
  Ta  Ta33  1  0.30822461  0.30822461  0.50000000  1
  Ta  Ta34  1  0.10174533  0.89825467  0.50000000  1
  Ta  Ta35  1  0.50725375  0.16376034  0.50000000  1
  O  O36  1  0.49317014  0.66175310  0.00000000  1
  O  O37  1  0.83141704  0.49317014  0.00000000  1
  O  O38  1  0.10522331  0.89477669  0.00000000  1
  O  O39  1  0.20580524  0.28387486  0.50000000  1
  O  O40  1  0.89477669  0.78955338  0.00000000  1
  O  O41  1  0.07806962  0.79419476  0.50000000  1
  O  O42  1  0.23747703  0.76252297  0.50000000  1
  O  O43  1  0.92084560  0.58726470  0.50000000  1
  O  O44  1  1.00000000  0.87373147  0.50000000  1
  O  O45  1  0.10522331  0.21044662  0.00000000  1
  O  O46  1  1.00000000  0.31085077  0.00000000  1
  O  O47  1  0.23747703  0.47495406  0.50000000  1
  O  O48  1  0.38369742  0.61630258  0.50000000  1
  O  O49  1  0.07806962  0.28387486  0.50000000  1
  O  O50  1  0.41273530  0.07915440  0.50000000  1
  O  O51  1  0.33358091  0.41273530  0.50000000  1
  O  O52  1  0.66641909  0.58726470  0.50000000  1
  O  O53  1  0.83141704  0.33824690  0.00000000  1
  O  O54  1  0.58726470  0.66641909  0.50000000  1
  O  O55  1  0.76252297  0.23747703  0.50000000  1
  O  O56  1  0.79419476  0.71612514  0.50000000  1
  O  O57  1  0.09505940  0.54752970  0.50000000  1
  O  O58  1  0.71612514  0.79419476  0.50000000  1
  O  O59  1  0.33358091  0.92084560  0.50000000  1
  O  O60  1  0.31085077  0.31085077  0.00000000  1
  O  O61  1  0.49317014  0.83141704  0.00000000  1
  O  O62  1  0.45247030  0.54752970  0.50000000  1
  O  O63  1  0.89477669  0.10522331  0.00000000  1
  O  O64  1  0.92084560  0.33358091  0.50000000  1
  O  O65  1  0.79419476  0.07806962  0.50000000  1
  O  O66  1  0.71612514  0.92193038  0.50000000  1
  O  O67  1  0.07915440  0.41273530  0.50000000  1
  O  O68  1  0.33824690  0.50682986  0.00000000  1
  O  O69  1  0.41273530  0.33358091  0.50000000  1
  O  O70  1  0.00000000  0.12626853  0.50000000  1
  O  O71  1  0.16858296  0.66175310  0.00000000  1
  O  O72  1  0.54752970  0.45247030  0.50000000  1
  O  O73  1  0.38369742  0.76739484  0.50000000  1
  O  O74  1  0.87373147  0.00000000  0.50000000  1
  O  O75  1  0.16858296  0.50682986  0.00000000  1
  O  O76  1  0.68914923  0.68914923  0.00000000  1
  O  O77  1  0.28387486  0.20580524  0.50000000  1
  O  O78  1  0.23260516  0.61630258  0.50000000  1
  O  O79  1  0.28387486  0.07806962  0.50000000  1
  O  O80  1  0.68914923  0.00000000  0.00000000  1
  O  O81  1  0.76739484  0.38369742  0.50000000  1
  O  O82  1  0.47495406  0.23747703  0.50000000  1
  O  O83  1  0.45247030  0.90494060  0.50000000  1
  O  O84  1  0.66641909  0.07915440  0.50000000  1
  O  O85  1  0.58726470  0.92084560  0.50000000  1
  O  O86  1  0.90494060  0.45247030  0.50000000  1
  O  O87  1  0.87373147  0.87373147  0.50000000  1
  O  O88  1  0.50682986  0.33824690  0.00000000  1
  O  O89  1  0.76252297  0.52504594  0.50000000  1
  O  O90  1  0.66175310  0.16858296  0.00000000  1
  O  O91  1  0.12626853  0.12626853  0.50000000  1
  O  O92  1  0.92193038  0.71612514  0.50000000  1
  O  O93  1  0.61630258  0.38369742  0.50000000  1
  O  O94  1  0.92193038  0.20580524  0.50000000  1
  O  O95  1  0.00000000  0.68914923  0.00000000  1
  O  O96  1  0.61630258  0.23260516  0.50000000  1
  O  O97  1  0.78955338  0.89477669  0.00000000  1
  O  O98  1  0.31085077  0.00000000  0.00000000  1
  O  O99  1  0.52504594  0.76252297  0.50000000  1
  O  O100  1  0.54752970  0.09505940  0.50000000  1
  O  O101  1  0.20580524  0.92193038  0.50000000  1
  O  O102  1  0.12626853  0.00000000  0.50000000  1
  O  O103  1  0.66175310  0.49317014  0.00000000  1
  O  O104  1  0.07915440  0.66641909  0.50000000  1
  O  O105  1  0.21044662  0.10522331  0.00000000  1
  O  O106  1  0.50682986  0.16858296  0.00000000  1
  O  O107  1  0.33824690  0.83141704  0.00000000  1
