# generated using pymatgen
data_KEr(WO4)2
_symmetry_space_group_name_H-M   'P 1'
_cell_length_a   7.60231009
_cell_length_b   7.60231040
_cell_length_c   7.45118124
_cell_angle_alpha   62.09072501
_cell_angle_beta   62.09072396
_cell_angle_gamma   87.90527824
_symmetry_Int_Tables_number   1
_chemical_formula_structural   KEr(WO4)2
_chemical_formula_sum   'K2 Er2 W4 O16'
_cell_volume   326.97490017
_cell_formula_units_Z   2
loop_
 _symmetry_equiv_pos_site_id
 _symmetry_equiv_pos_as_xyz
  1  'x, y, z'
loop_
 _atom_site_type_symbol
 _atom_site_label
 _atom_site_symmetry_multiplicity
 _atom_site_fract_x
 _atom_site_fract_y
 _atom_site_fract_z
 _atom_site_occupancy
  K  K0  1  0.79225664  0.20774336  0.75000000  1
  K  K1  1  0.20774336  0.79225664  0.25000000  1
  Er  Er2  1  0.77573702  0.22426298  0.25000000  1
  Er  Er3  1  0.22426298  0.77573702  0.75000000  1
  W  W4  1  0.70112461  0.69262053  0.28271577  1
  W  W5  1  0.69262053  0.70112461  0.78271577  1
  W  W6  1  0.29887539  0.30737947  0.71728423  1
  W  W7  1  0.30737947  0.29887539  0.21728423  1
  O  O8  1  0.37742428  0.24371400  0.94422429  1
  O  O9  1  0.05523920  0.36457550  0.88055537  1
  O  O10  1  0.22477220  0.03859903  0.81094777  1
  O  O11  1  0.03859903  0.22477220  0.31094777  1
  O  O12  1  0.94476080  0.63542450  0.11944463  1
  O  O13  1  0.37144851  0.59421398  0.96406200  1
  O  O14  1  0.62257572  0.75628600  0.05577571  1
  O  O15  1  0.75628600  0.62257572  0.55577571  1
  O  O16  1  0.24371400  0.37742428  0.44422429  1
  O  O17  1  0.40578602  0.62855149  0.53593800  1
  O  O18  1  0.96140097  0.77522780  0.68905223  1
  O  O19  1  0.36457550  0.05523920  0.38055537  1
  O  O20  1  0.77522780  0.96140097  0.18905223  1
  O  O21  1  0.62855149  0.40578602  0.03593800  1
  O  O22  1  0.63542450  0.94476080  0.61944463  1
  O  O23  1  0.59421398  0.37144851  0.46406200  1
