# generated using pymatgen
data_Pb3WCl2O5
_symmetry_space_group_name_H-M   'P 1'
_cell_length_a   5.72422972
_cell_length_b   7.23000063
_cell_length_c   11.27935253
_cell_angle_alpha   90.00000000
_cell_angle_beta   90.00000000
_cell_angle_gamma   113.32002483
_symmetry_Int_Tables_number   1
_chemical_formula_structural   Pb3WCl2O5
_chemical_formula_sum   'Pb6 W2 Cl4 O10'
_cell_volume   428.67481221
_cell_formula_units_Z   2
loop_
 _symmetry_equiv_pos_site_id
 _symmetry_equiv_pos_as_xyz
  1  'x, y, z'
loop_
 _atom_site_type_symbol
 _atom_site_label
 _atom_site_symmetry_multiplicity
 _atom_site_fract_x
 _atom_site_fract_y
 _atom_site_fract_z
 _atom_site_occupancy
  Pb  Pb0  1  0.09666453  0.19332905  0.75000000  1
  Pb  Pb1  1  0.34649521  0.69299042  0.53226513  1
  Pb  Pb2  1  0.65350479  0.30700958  0.46773487  1
  Pb  Pb3  1  0.34649521  0.69299042  0.96773487  1
  Pb  Pb4  1  0.65350479  0.30700958  0.03226513  1
  Pb  Pb5  1  0.90333547  0.80667095  0.25000000  1
  W  W6  1  0.23681814  0.47363628  0.25000000  1
  W  W7  1  0.76318186  0.52636372  0.75000000  1
  Cl  Cl8  1  0.47352982  0.94705963  0.25000000  1
  Cl  Cl9  1  0.52647018  0.05294037  0.75000000  1
  Cl  Cl10  1  0.00000000  0.00000000  0.50000000  1
  Cl  Cl11  1  0.00000000  0.00000000  0.00000000  1
  O  O12  1  0.89526591  0.79053182  0.75000000  1
  O  O13  1  0.49582126  0.45796492  0.63030924  1
  O  O14  1  0.03785634  0.54203508  0.36969076  1
  O  O15  1  0.96214366  0.45796492  0.63030924  1
  O  O16  1  0.50417874  0.54203508  0.36969076  1
  O  O17  1  0.10473409  0.20946818  0.25000000  1
  O  O18  1  0.49582126  0.45796492  0.86969076  1
  O  O19  1  0.96214366  0.45796492  0.86969076  1
  O  O20  1  0.50417874  0.54203508  0.13030924  1
  O  O21  1  0.03785634  0.54203508  0.13030924  1
