# generated using pymatgen
data_LiMn3(BO3)3
_symmetry_space_group_name_H-M   'P 1'
_cell_length_a   7.76104908
_cell_length_b   5.24570500
_cell_length_c   9.83107321
_cell_angle_alpha   75.75891102
_cell_angle_beta   73.74198475
_cell_angle_gamma   89.51803406
_symmetry_Int_Tables_number   1
_chemical_formula_structural   LiMn3(BO3)3
_chemical_formula_sum   'Li2 Mn6 B6 O18'
_cell_volume   371.64390640
_cell_formula_units_Z   2
loop_
 _symmetry_equiv_pos_site_id
 _symmetry_equiv_pos_as_xyz
  1  'x, y, z'
loop_
 _atom_site_type_symbol
 _atom_site_label
 _atom_site_symmetry_multiplicity
 _atom_site_fract_x
 _atom_site_fract_y
 _atom_site_fract_z
 _atom_site_occupancy
  Li  Li0  1  0.42657675  0.21905736  0.75294523  1
  Li  Li1  1  0.57342325  0.78094264  0.24705477  1
  Mn  Mn2  1  0.35443108  0.77743756  0.61675397  1
  Mn  Mn3  1  0.05303626  0.43802955  0.29907158  1
  Mn  Mn4  1  0.29108493  0.86100964  0.03258692  1
  Mn  Mn5  1  0.70891507  0.13899036  0.96741308  1
  Mn  Mn6  1  0.94696374  0.56197045  0.70092842  1
  Mn  Mn7  1  0.64556892  0.22256244  0.38324603  1
  B  B8  1  0.07390144  0.00528255  0.83137762  1
  B  B9  1  0.57425461  0.66376659  0.83366311  1
  B  B10  1  0.24672144  0.31329808  0.51478053  1
  B  B11  1  0.75327856  0.68670192  0.48521947  1
  B  B12  1  0.42574539  0.33623341  0.16633689  1
  B  B13  1  0.92609856  0.99471745  0.16862238  1
  O  O14  1  0.10151248  0.79162384  0.77573692  1
  O  O15  1  0.19024720  0.09459611  0.89655015  1
  O  O16  1  0.06957760  0.83418075  0.18960014  1
  O  O17  1  0.53215338  0.89397361  0.88510756  1
  O  O18  1  0.18320459  0.53437020  0.56488454  1
  O  O19  1  0.47397479  0.56281112  0.76677558  1
  O  O20  1  0.17018097  0.21438861  0.42871427  1
  O  O21  1  0.72098721  0.52734451  0.86804315  1
  O  O22  1  0.39250385  0.19658924  0.55927346  1
  O  O23  1  0.60749615  0.80341076  0.44072654  1
  O  O24  1  0.27901279  0.47265549  0.13195685  1
  O  O25  1  0.82981903  0.78561139  0.57128573  1
  O  O26  1  0.52602521  0.43718888  0.23322442  1
  O  O27  1  0.81679541  0.46562980  0.43511546  1
  O  O28  1  0.46784662  0.10602639  0.11489244  1
  O  O29  1  0.93042240  0.16581925  0.81039986  1
  O  O30  1  0.80975280  0.90540389  0.10344985  1
  O  O31  1  0.89848752  0.20837616  0.22426308  1
