# generated using pymatgen
data_Mn2PClO4
_symmetry_space_group_name_H-M   'P 1'
_cell_length_a   4.98726277
_cell_length_b   8.18690098
_cell_length_c   11.54403089
_cell_angle_alpha   90.00000000
_cell_angle_beta   90.00000000
_cell_angle_gamma   90.00000000
_symmetry_Int_Tables_number   1
_chemical_formula_structural   Mn2PClO4
_chemical_formula_sum   'Mn8 P4 Cl4 O16'
_cell_volume   471.34539549
_cell_formula_units_Z   4
loop_
 _symmetry_equiv_pos_site_id
 _symmetry_equiv_pos_as_xyz
  1  'x, y, z'
loop_
 _atom_site_type_symbol
 _atom_site_label
 _atom_site_symmetry_multiplicity
 _atom_site_fract_x
 _atom_site_fract_y
 _atom_site_fract_z
 _atom_site_occupancy
  Mn  Mn0  1  0.99922181  0.89572346  0.87982131  1
  Mn  Mn1  1  0.99594109  0.34557136  0.87598161  1
  Mn  Mn2  1  0.49594109  0.84557136  0.62401839  1
  Mn  Mn3  1  0.49922181  0.10427654  0.12017869  1
  Mn  Mn4  1  0.99922181  0.60427654  0.37982131  1
  Mn  Mn5  1  0.99594109  0.15442864  0.37598161  1
  Mn  Mn6  1  0.49594109  0.65442864  0.12401839  1
  Mn  Mn7  1  0.49922181  0.39572346  0.62017869  1
  P  P8  1  0.54610867  0.37816463  0.33623700  1
  P  P9  1  0.04610867  0.87816463  0.16376300  1
  P  P10  1  0.54610867  0.12183537  0.83623700  1
  P  P11  1  0.04610867  0.62183537  0.66376300  1
  Cl  Cl12  1  0.73875379  0.62049314  0.93533920  1
  Cl  Cl13  1  0.23875379  0.12049314  0.56466080  1
  Cl  Cl14  1  0.23875379  0.37950686  0.06466080  1
  Cl  Cl15  1  0.73875379  0.87950686  0.43533920  1
  O  O16  1  0.64590235  0.22350430  0.27110817  1
  O  O17  1  0.14512948  0.03590699  0.22538503  1
  O  O18  1  0.14590235  0.72350430  0.22889183  1
  O  O19  1  0.19849719  0.62487422  0.54462465  1
  O  O20  1  0.64512948  0.53590699  0.27461497  1
  O  O21  1  0.64512948  0.96409301  0.77461497  1
  O  O22  1  0.73764563  0.87860230  0.14962944  1
  O  O23  1  0.14512948  0.46409301  0.72538503  1
  O  O24  1  0.14590235  0.77649570  0.72889183  1
  O  O25  1  0.23764563  0.12139770  0.85037056  1
  O  O26  1  0.19849719  0.87512578  0.04462465  1
  O  O27  1  0.23764563  0.37860230  0.35037056  1
  O  O28  1  0.73764563  0.62139770  0.64962944  1
  O  O29  1  0.69849719  0.37512578  0.45537535  1
  O  O30  1  0.64590235  0.27649570  0.77110817  1
  O  O31  1  0.69849719  0.12487422  0.95537535  1
