# generated using pymatgen
data_BaFe2(SeO3)4
_symmetry_space_group_name_H-M   'P 1'
_cell_length_a   5.30941987
_cell_length_b   10.34760081
_cell_length_c   10.79873676
_cell_angle_alpha   95.71806482
_cell_angle_beta   90.00000000
_cell_angle_gamma   90.00000000
_symmetry_Int_Tables_number   1
_chemical_formula_structural   BaFe2(SeO3)4
_chemical_formula_sum   'Ba2 Fe4 Se8 O24'
_cell_volume   590.32793824
_cell_formula_units_Z   2
loop_
 _symmetry_equiv_pos_site_id
 _symmetry_equiv_pos_as_xyz
  1  'x, y, z'
loop_
 _atom_site_type_symbol
 _atom_site_label
 _atom_site_symmetry_multiplicity
 _atom_site_fract_x
 _atom_site_fract_y
 _atom_site_fract_z
 _atom_site_occupancy
  Ba  Ba0  1  0.93868563  0.25000000  0.25000000  1
  Ba  Ba1  1  0.06131437  0.75000000  0.75000000  1
  Fe  Fe2  1  0.00000000  0.00000000  0.50000000  1
  Fe  Fe3  1  0.50000000  0.00000000  0.00000000  1
  Fe  Fe4  1  0.50000000  0.50000000  0.50000000  1
  Fe  Fe5  1  0.00000000  0.50000000  0.00000000  1
  Se  Se6  1  0.50294184  0.47570134  0.81660294  1
  Se  Se7  1  0.99218030  0.65920411  0.40594483  1
  Se  Se8  1  0.99218030  0.84079589  0.09405517  1
  Se  Se9  1  0.00781970  0.34079589  0.59405517  1
  Se  Se10  1  0.49705816  0.97570134  0.31660294  1
  Se  Se11  1  0.49705816  0.52429866  0.18339706  1
  Se  Se12  1  0.50294184  0.02429866  0.68339706  1
  Se  Se13  1  0.00781970  0.15920411  0.90594483  1
  O  O14  1  0.78799640  0.94715479  0.65025097  1
  O  O15  1  0.70665215  0.15652521  0.96759557  1
  O  O16  1  0.21200360  0.44715479  0.15025097  1
  O  O17  1  0.18580378  0.11990904  0.03342855  1
  O  O18  1  0.29334785  0.65652521  0.46759557  1
  O  O19  1  0.69733778  0.06820467  0.41660767  1
  O  O20  1  0.81419622  0.88009096  0.96657145  1
  O  O21  1  0.30266222  0.56820467  0.91660767  1
  O  O22  1  0.21200360  0.05284521  0.34974903  1
  O  O23  1  0.41412808  0.54691613  0.68353668  1
  O  O24  1  0.30266222  0.93179533  0.58339233  1
  O  O25  1  0.70665215  0.34347479  0.53240443  1
  O  O26  1  0.41412808  0.95308387  0.81646332  1
  O  O27  1  0.18580378  0.38009096  0.46657145  1
  O  O28  1  0.58587192  0.04691613  0.18353668  1
  O  O29  1  0.94496912  0.67645613  0.09535101  1
  O  O30  1  0.29334785  0.84347479  0.03240443  1
  O  O31  1  0.05503088  0.17645613  0.59535101  1
  O  O32  1  0.94496912  0.82354387  0.40464899  1
  O  O33  1  0.58587192  0.45308387  0.31646332  1
  O  O34  1  0.69733778  0.43179533  0.08339233  1
  O  O35  1  0.81419622  0.61990904  0.53342855  1
  O  O36  1  0.05503088  0.32354387  0.90464899  1
  O  O37  1  0.78799640  0.55284521  0.84974903  1
