# generated using pymatgen
data_Ba4CeMn3O12
_symmetry_space_group_name_H-M   'P 1'
_cell_length_a   10.32576633
_cell_length_b   10.32576607
_cell_length_c   10.32576598
_cell_angle_alpha   33.13733891
_cell_angle_beta   33.13734113
_cell_angle_gamma   33.13733981
_symmetry_Int_Tables_number   1
_chemical_formula_structural   Ba4CeMn3O12
_chemical_formula_sum   'Ba4 Ce1 Mn3 O12'
_cell_volume   292.83754440
_cell_formula_units_Z   1
loop_
 _symmetry_equiv_pos_site_id
 _symmetry_equiv_pos_as_xyz
  1  'x, y, z'
loop_
 _atom_site_type_symbol
 _atom_site_label
 _atom_site_symmetry_multiplicity
 _atom_site_fract_x
 _atom_site_fract_y
 _atom_site_fract_z
 _atom_site_occupancy
  Ba  Ba0  1  0.28148730  0.28148730  0.28148730  1
  Ba  Ba1  1  0.13083405  0.13083405  0.13083405  1
  Ba  Ba2  1  0.71851270  0.71851270  0.71851270  1
  Ba  Ba3  1  0.86916595  0.86916595  0.86916595  1
  Ce  Ce4  1  0.00000000  0.00000000  0.00000000  1
  Mn  Mn5  1  0.41253974  0.41253974  0.41253974  1
  Mn  Mn6  1  0.58746026  0.58746026  0.58746026  1
  Mn  Mn7  1  0.50000000  0.50000000  0.50000000  1
  O  O8  1  0.77948330  0.77948330  0.30769837  1
  O  O9  1  0.22051670  0.22051670  0.69230163  1
  O  O10  1  0.30769837  0.77948330  0.77948330  1
  O  O11  1  0.39563292  0.83514749  0.39563292  1
  O  O12  1  0.69230163  0.22051670  0.22051670  1
  O  O13  1  0.83514749  0.39563292  0.39563292  1
  O  O14  1  0.39563292  0.39563292  0.83514749  1
  O  O15  1  0.16485251  0.60436708  0.60436708  1
  O  O16  1  0.60436708  0.60436708  0.16485251  1
  O  O17  1  0.77948330  0.30769837  0.77948330  1
  O  O18  1  0.60436708  0.16485251  0.60436708  1
  O  O19  1  0.22051670  0.69230163  0.22051670  1
