# generated using pymatgen
data_K2NiP2WO10
_symmetry_space_group_name_H-M   'P 1'
_cell_length_a   9.30495309
_cell_length_b   9.30495309
_cell_length_c   10.82662429
_cell_angle_alpha   90.00000000
_cell_angle_beta   90.00000000
_cell_angle_gamma   90.00000000
_symmetry_Int_Tables_number   1
_chemical_formula_structural   K2NiP2WO10
_chemical_formula_sum   'K8 Ni4 P8 W4 O40'
_cell_volume   937.39243000
_cell_formula_units_Z   4
loop_
 _symmetry_equiv_pos_site_id
 _symmetry_equiv_pos_as_xyz
  1  'x, y, z'
loop_
 _atom_site_type_symbol
 _atom_site_label
 _atom_site_symmetry_multiplicity
 _atom_site_fract_x
 _atom_site_fract_y
 _atom_site_fract_z
 _atom_site_occupancy
  K  K0  1  0.99846344  0.71252403  0.04394775  1
  K  K1  1  0.28747597  0.00153756  0.45605225  1
  K  K2  1  0.78747597  0.49846344  0.29394775  1
  K  K3  1  0.50153656  0.21252403  0.20605225  1
  K  K4  1  0.49846344  0.78747597  0.70605225  1
  K  K5  1  0.00153756  0.28747597  0.54394775  1
  K  K6  1  0.71252403  0.99846344  0.95605225  1
  K  K7  1  0.21252403  0.50153656  0.79394775  1
  Ni  Ni8  1  0.63566208  0.63566208  0.00000000  1
  Ni  Ni9  1  0.86433792  0.13566208  0.25000000  1
  Ni  Ni10  1  0.36433792  0.36433792  0.50000000  1
  Ni  Ni11  1  0.13566208  0.86433792  0.75000000  1
  P  P12  1  0.32975754  0.82278771  0.00216953  1
  P  P13  1  0.67721229  0.82975754  0.25216953  1
  P  P14  1  0.17721229  0.67024246  0.49783047  1
  P  P15  1  0.67024246  0.17721229  0.50216953  1
  P  P16  1  0.82975754  0.67721229  0.74783047  1
  P  P17  1  0.82278771  0.32975754  0.99783047  1
  P  P18  1  0.32278771  0.17024246  0.75216953  1
  P  P19  1  0.17024246  0.32278771  0.24783047  1
  W  W20  1  0.11149422  0.11149422  0.00000000  1
  W  W21  1  0.88850578  0.88850578  0.50000000  1
  W  W22  1  0.61149422  0.38850578  0.75000000  1
  W  W23  1  0.38850578  0.61149422  0.25000000  1
  O  O24  1  0.45616967  0.49298934  0.36899194  1
  O  O25  1  0.78129011  0.76065607  0.62885781  1
  O  O26  1  0.25563750  0.26255007  0.35765220  1
  O  O27  1  0.21870989  0.23934393  0.12885781  1
  O  O28  1  0.21734571  0.48419954  0.22096965  1
  O  O29  1  0.71734571  0.01580046  0.52903035  1
  O  O30  1  0.23745093  0.75563750  0.60765220  1
  O  O31  1  0.98419954  0.28265429  0.97096965  1
  O  O32  1  0.78265429  0.51580046  0.72096965  1
  O  O33  1  0.73934393  0.28129011  0.87885781  1
  O  O34  1  0.31677178  0.00832764  0.73211395  1
  O  O35  1  0.50701066  0.54383033  0.13100806  1
  O  O36  1  0.26255007  0.25563750  0.64234780  1
  O  O37  1  0.28265429  0.98419954  0.02903035  1
  O  O38  1  0.95616967  0.00701066  0.38100806  1
  O  O39  1  0.49298934  0.45616967  0.63100806  1
  O  O40  1  0.71870989  0.26065607  0.62114219  1
  O  O41  1  0.76255007  0.24436250  0.10765220  1
  O  O42  1  0.49167236  0.81677178  0.98211395  1
  O  O43  1  0.04383033  0.99298934  0.88100806  1
  O  O44  1  0.00701066  0.95616967  0.61899194  1
  O  O45  1  0.48419954  0.21734571  0.77903035  1
  O  O46  1  0.68322822  0.99167236  0.23211395  1
  O  O47  1  0.54383033  0.50701066  0.86899194  1
  O  O48  1  0.01580046  0.71734571  0.47096965  1
  O  O49  1  0.75563750  0.23745093  0.39234780  1
  O  O50  1  0.26065607  0.71870989  0.37885781  1
  O  O51  1  0.18322822  0.50832764  0.51788605  1
  O  O52  1  0.81677178  0.49167236  0.01788605  1
  O  O53  1  0.76065607  0.78129011  0.37114219  1
  O  O54  1  0.28129011  0.73934393  0.12114219  1
  O  O55  1  0.99167236  0.68322822  0.76788605  1
  O  O56  1  0.51580046  0.78265429  0.27903035  1
  O  O57  1  0.99298934  0.04383033  0.11899194  1
  O  O58  1  0.24436250  0.76255007  0.89234780  1
  O  O59  1  0.23934393  0.21870989  0.87114219  1
  O  O60  1  0.74436250  0.73744993  0.85765220  1
  O  O61  1  0.73744993  0.74436250  0.14234780  1
  O  O62  1  0.00832764  0.31677178  0.26788605  1
  O  O63  1  0.50832764  0.18322822  0.48211395  1
