# generated using pymatgen
data_NdCu(MoO4)2
_symmetry_space_group_name_H-M   'P 1'
_cell_length_a   10.05556039
_cell_length_b   10.49166389
_cell_length_c   14.96714215
_cell_angle_alpha   90.00000000
_cell_angle_beta   90.00000000
_cell_angle_gamma   90.00000000
_symmetry_Int_Tables_number   1
_chemical_formula_structural   NdCu(MoO4)2
_chemical_formula_sum   'Nd8 Cu8 Mo16 O64'
_cell_volume   1579.02690885
_cell_formula_units_Z   8
loop_
 _symmetry_equiv_pos_site_id
 _symmetry_equiv_pos_as_xyz
  1  'x, y, z'
loop_
 _atom_site_type_symbol
 _atom_site_label
 _atom_site_symmetry_multiplicity
 _atom_site_fract_x
 _atom_site_fract_y
 _atom_site_fract_z
 _atom_site_occupancy
  Nd  Nd0  1  0.77736756  0.03496966  0.10366508  1
  Nd  Nd1  1  0.77736756  0.53496966  0.39633492  1
  Nd  Nd2  1  0.22263244  0.46503034  0.60366508  1
  Nd  Nd3  1  0.72263244  0.03496966  0.60366508  1
  Nd  Nd4  1  0.72263244  0.53496966  0.89633492  1
  Nd  Nd5  1  0.27736756  0.46503034  0.10366508  1
  Nd  Nd6  1  0.27736756  0.96503034  0.39633492  1
  Nd  Nd7  1  0.22263244  0.96503034  0.89633492  1
  Cu  Cu8  1  0.69351346  0.68149425  0.69437322  1
  Cu  Cu9  1  0.19351346  0.31850575  0.80562678  1
  Cu  Cu10  1  0.69351346  0.18149425  0.80562678  1
  Cu  Cu11  1  0.30648654  0.31850575  0.30562678  1
  Cu  Cu12  1  0.80648654  0.18149425  0.30562678  1
  Cu  Cu13  1  0.30648654  0.81850575  0.19437322  1
  Cu  Cu14  1  0.80648654  0.68149425  0.19437322  1
  Cu  Cu15  1  0.19351346  0.81850575  0.69437322  1
  Mo  Mo16  1  0.32894745  0.60262478  0.84664582  1
  Mo  Mo17  1  0.99810344  0.22077419  0.44183671  1
  Mo  Mo18  1  0.00189656  0.77922581  0.55816329  1
  Mo  Mo19  1  0.82894745  0.89737522  0.84664582  1
  Mo  Mo20  1  0.67105255  0.39737522  0.15335418  1
  Mo  Mo21  1  0.17105255  0.60262478  0.34664582  1
  Mo  Mo22  1  0.67105255  0.89737522  0.34664582  1
  Mo  Mo23  1  0.82894745  0.39737522  0.65335418  1
  Mo  Mo24  1  0.32894745  0.10262478  0.65335418  1
  Mo  Mo25  1  0.50189656  0.22077419  0.94183671  1
  Mo  Mo26  1  0.99810344  0.72077419  0.05816329  1
  Mo  Mo27  1  0.17105255  0.10262478  0.15335418  1
  Mo  Mo28  1  0.50189656  0.72077419  0.55816329  1
  Mo  Mo29  1  0.49810344  0.27922581  0.44183671  1
  Mo  Mo30  1  0.49810344  0.77922581  0.05816329  1
  Mo  Mo31  1  0.00189656  0.27922581  0.94183671  1
  O  O32  1  0.78631854  0.42291281  0.53957599  1
  O  O33  1  0.59299004  0.13427128  0.02411917  1
  O  O34  1  0.61367545  0.31641720  0.86840011  1
  O  O35  1  0.60546201  0.66761976  0.00428166  1
  O  O36  1  0.10546201  0.33238024  0.49571834  1
  O  O37  1  0.38632455  0.18358280  0.36840011  1
  O  O38  1  0.71368146  0.42291281  0.03957599  1
  O  O39  1  0.09850594  0.11491302  0.37583791  1
  O  O40  1  0.90149406  0.38508698  0.87583791  1
  O  O41  1  0.27419987  0.76184060  0.81661573  1
  O  O42  1  0.49555594  0.91237248  0.33463492  1
  O  O43  1  0.49555594  0.41237248  0.16536508  1
  O  O44  1  0.90700996  0.13427128  0.52411917  1
  O  O45  1  0.11367545  0.18358280  0.86840011  1
  O  O46  1  0.39453799  0.33238024  0.99571834  1
  O  O47  1  0.00444406  0.41237248  0.66536508  1
  O  O48  1  0.59299004  0.63427128  0.47588083  1
  O  O49  1  0.25555838  0.48718579  0.27343645  1
  O  O50  1  0.24444162  0.98718579  0.72656355  1
  O  O51  1  0.90700996  0.63427128  0.97588083  1
  O  O52  1  0.89453799  0.66761976  0.50428166  1
  O  O53  1  0.99555594  0.08762752  0.16536508  1
  O  O54  1  0.09299004  0.36572872  0.02411917  1
  O  O55  1  0.88632455  0.81641720  0.13159989  1
  O  O56  1  0.74444162  0.51281421  0.72656355  1
  O  O57  1  0.11367545  0.68358280  0.63159989  1
  O  O58  1  0.50444406  0.58762752  0.83463492  1
  O  O59  1  0.40700996  0.36572872  0.52411917  1
  O  O60  1  0.72580013  0.23815940  0.18338427  1
  O  O61  1  0.88632455  0.31641720  0.36840011  1
  O  O62  1  0.72580013  0.73815940  0.31661573  1
  O  O63  1  0.21368146  0.07708719  0.03957599  1
  O  O64  1  0.22580013  0.26184060  0.18338427  1
  O  O65  1  0.28631854  0.57708719  0.96042401  1
  O  O66  1  0.89453799  0.16761976  0.99571834  1
  O  O67  1  0.77419987  0.73815940  0.81661573  1
  O  O68  1  0.39453799  0.83238024  0.50428166  1
  O  O69  1  0.59850594  0.88508698  0.12416209  1
  O  O70  1  0.60546201  0.16761976  0.49571834  1
  O  O71  1  0.99555594  0.58762752  0.33463492  1
  O  O72  1  0.25555838  0.98718579  0.22656355  1
  O  O73  1  0.09850594  0.61491302  0.12416209  1
  O  O74  1  0.75555838  0.51281421  0.22656355  1
  O  O75  1  0.40700996  0.86572872  0.97588083  1
  O  O76  1  0.38632455  0.68358280  0.13159989  1
  O  O77  1  0.21368146  0.57708719  0.46042401  1
  O  O78  1  0.61367545  0.81641720  0.63159989  1
  O  O79  1  0.00444406  0.91237248  0.83463492  1
  O  O80  1  0.59850594  0.38508698  0.37583791  1
  O  O81  1  0.10546201  0.83238024  0.00428166  1
  O  O82  1  0.28631854  0.07708719  0.53957599  1
  O  O83  1  0.78631854  0.92291281  0.96042401  1
  O  O84  1  0.75555838  0.01281421  0.27343645  1
  O  O85  1  0.90149406  0.88508698  0.62416209  1
  O  O86  1  0.40149406  0.61491302  0.62416209  1
  O  O87  1  0.71368146  0.92291281  0.46042401  1
  O  O88  1  0.22580013  0.76184060  0.31661573  1
  O  O89  1  0.40149406  0.11491302  0.87583791  1
  O  O90  1  0.77419987  0.23815940  0.68338427  1
  O  O91  1  0.27419987  0.26184060  0.68338427  1
  O  O92  1  0.24444162  0.48718579  0.77343645  1
  O  O93  1  0.74444162  0.01281421  0.77343645  1
  O  O94  1  0.50444406  0.08762752  0.66536508  1
  O  O95  1  0.09299004  0.86572872  0.47588083  1
