# generated using pymatgen
data_SrFe3(PO4)3
_symmetry_space_group_name_H-M   'P 1'
_cell_length_a   6.61887905
_cell_length_b   9.23694543
_cell_length_c   9.23694584
_cell_angle_alpha   69.93456672
_cell_angle_beta   69.00521905
_cell_angle_gamma   69.00522158
_symmetry_Int_Tables_number   1
_chemical_formula_structural   SrFe3(PO4)3
_chemical_formula_sum   'Sr2 Fe6 P6 O24'
_cell_volume   477.06767152
_cell_formula_units_Z   2
loop_
 _symmetry_equiv_pos_site_id
 _symmetry_equiv_pos_as_xyz
  1  'x, y, z'
loop_
 _atom_site_type_symbol
 _atom_site_label
 _atom_site_symmetry_multiplicity
 _atom_site_fract_x
 _atom_site_fract_y
 _atom_site_fract_z
 _atom_site_occupancy
  Sr  Sr0  1  0.14976553  0.25000000  0.25000000  1
  Sr  Sr1  1  0.85023447  0.75000000  0.75000000  1
  Fe  Fe2  1  0.61755760  0.38244240  0.88244240  1
  Fe  Fe3  1  0.38244240  0.61755760  0.11755760  1
  Fe  Fe4  1  0.61755760  0.88244240  0.38244240  1
  Fe  Fe5  1  0.38244240  0.11755760  0.61755760  1
  Fe  Fe6  1  0.00000000  0.00000000  0.00000000  1
  Fe  Fe7  1  0.50000000  0.50000000  0.50000000  1
  P  P8  1  0.82349019  0.67650981  0.17650981  1
  P  P9  1  0.65560110  0.25000000  0.25000000  1
  P  P10  1  0.17650981  0.82349019  0.32349019  1
  P  P11  1  0.17650981  0.32349019  0.82349019  1
  P  P12  1  0.34439890  0.75000000  0.75000000  1
  P  P13  1  0.82349019  0.17650981  0.67650981  1
  O  O14  1  0.93167683  0.42649828  0.84587668  1
  O  O15  1  0.29594821  0.92649828  0.34587668  1
  O  O16  1  0.88389650  0.15753067  0.15753067  1
  O  O17  1  0.70405179  0.65412332  0.07350172  1
  O  O18  1  0.20431832  0.86053898  0.13787967  1
  O  O19  1  0.30104216  0.65753067  0.65753067  1
  O  O20  1  0.70273697  0.36212033  0.63946102  1
  O  O21  1  0.79568168  0.13946102  0.86212033  1
  O  O22  1  0.48957505  0.63382963  0.86617037  1
  O  O23  1  0.93167683  0.84587668  0.42649828  1
  O  O24  1  0.29726303  0.36053898  0.63787967  1
  O  O25  1  0.51042495  0.36617037  0.13382963  1
  O  O26  1  0.20431832  0.13787967  0.86053898  1
  O  O27  1  0.06832317  0.15412332  0.57350172  1
  O  O28  1  0.70273697  0.63946102  0.36212033  1
  O  O29  1  0.29726303  0.63787967  0.36053898  1
  O  O30  1  0.69895784  0.34246933  0.34246933  1
  O  O31  1  0.70405179  0.07350172  0.65412332  1
  O  O32  1  0.11610350  0.84246933  0.84246933  1
  O  O33  1  0.51042495  0.13382963  0.36617037  1
  O  O34  1  0.48957505  0.86617037  0.63382963  1
  O  O35  1  0.79568168  0.86212033  0.13946102  1
  O  O36  1  0.29594821  0.34587668  0.92649828  1
  O  O37  1  0.06832317  0.57350172  0.15412332  1
