# generated using pymatgen
data_Sr9YbV7O28
_symmetry_space_group_name_H-M   'P 1'
_cell_length_a   14.95423928
_cell_length_b   14.95423909
_cell_length_c   14.95423935
_cell_angle_alpha   44.65909830
_cell_angle_beta   44.65909901
_cell_angle_gamma   44.65909808
_symmetry_Int_Tables_number   1
_chemical_formula_structural   Sr9YbV7O28
_chemical_formula_sum   'Sr18 Yb2 V14 O56'
_cell_volume   1502.72228845
_cell_formula_units_Z   2
loop_
 _symmetry_equiv_pos_site_id
 _symmetry_equiv_pos_as_xyz
  1  'x, y, z'
loop_
 _atom_site_type_symbol
 _atom_site_label
 _atom_site_symmetry_multiplicity
 _atom_site_fract_x
 _atom_site_fract_y
 _atom_site_fract_z
 _atom_site_occupancy
  Yb  Yb0  1  0.99990972  0.99990972  0.99990972  1
  Yb  Yb1  1  0.49990972  0.49990972  0.49990972  1
  Sr  Sr2  1  0.45503510  0.47280635  0.04997702  1
  Sr  Sr3  1  0.90970157  0.93658147  0.34926881  1
  Sr  Sr4  1  0.57556548  0.15596514  0.56678310  1
  Sr  Sr5  1  0.07556548  0.06678310  0.65596514  1
  Sr  Sr6  1  0.15596514  0.56678310  0.57556548  1
  Sr  Sr7  1  0.47280635  0.04997702  0.45503510  1
  Sr  Sr8  1  0.06678310  0.65596514  0.07556548  1
  Sr  Sr9  1  0.40970157  0.84926881  0.43658147  1
  Sr  Sr10  1  0.65596514  0.07556548  0.06678310  1
  Sr  Sr11  1  0.97280635  0.95503510  0.54997702  1
  Sr  Sr12  1  0.34926881  0.90970157  0.93658147  1
  Sr  Sr13  1  0.95503510  0.54997702  0.97280635  1
  Sr  Sr14  1  0.84926881  0.43658147  0.40970157  1
  Sr  Sr15  1  0.54997702  0.97280635  0.95503510  1
  Sr  Sr16  1  0.04997702  0.45503510  0.47280635  1
  Sr  Sr17  1  0.43658147  0.40970157  0.84926881  1
  Sr  Sr18  1  0.56678310  0.57556548  0.15596514  1
  Sr  Sr19  1  0.93658147  0.34926881  0.90970157  1
  V  V20  1  0.77617430  0.80765441  0.31958734  1
  V  V21  1  0.72006066  0.18738069  0.68888733  1
  V  V22  1  0.80765441  0.31958734  0.77617430  1
  V  V23  1  0.68738069  0.22006066  0.18888733  1
  V  V24  1  0.18738069  0.68888733  0.72006066  1
  V  V25  1  0.31958734  0.77617430  0.80765441  1
  V  V26  1  0.30765441  0.27617430  0.81958734  1
  V  V27  1  0.27617430  0.81958734  0.30765441  1
  V  V28  1  0.22006066  0.18888733  0.68738069  1
  V  V29  1  0.68888733  0.72006066  0.18738069  1
  V  V30  1  0.81958734  0.30765441  0.27617430  1
  V  V31  1  0.18888733  0.68738069  0.22006066  1
  V  V32  1  0.27058983  0.27058983  0.27058983  1
  V  V33  1  0.77058983  0.77058983  0.77058983  1
  O  O34  1  0.33788316  0.60528291  0.89450558  1
  O  O35  1  0.76772723  0.85940365  0.39847034  1
  O  O36  1  0.62659122  0.37877095  0.85611852  1
  O  O37  1  0.77492265  0.89819909  0.60369460  1
  O  O38  1  0.39450558  0.10528291  0.83788316  1
  O  O39  1  0.10528291  0.83788316  0.39450558  1
  O  O40  1  0.60369460  0.77492265  0.89819909  1
  O  O41  1  0.85940365  0.39847034  0.76772723  1
  O  O42  1  0.61545530  0.63355360  0.36928404  1
  O  O43  1  0.60528291  0.89450558  0.33788316  1
  O  O44  1  0.13355360  0.11545530  0.86928404  1
  O  O45  1  0.39927460  0.09425623  0.64304835  1
  O  O46  1  0.60807503  0.18735430  0.17504547  1
  O  O47  1  0.18735430  0.17504547  0.60807503  1
  O  O48  1  0.39819909  0.27492265  0.10369460  1
  O  O49  1  0.36928404  0.61545530  0.63355360  1
  O  O50  1  0.35940365  0.26772723  0.89847034  1
  O  O51  1  0.68735430  0.10807503  0.67504547  1
  O  O52  1  0.83788316  0.39450558  0.10528291  1
  O  O53  1  0.63355360  0.36928404  0.61545530  1
  O  O54  1  0.13714276  0.87394898  0.87497062  1
  O  O55  1  0.15414078  0.36595621  0.63280595  1
  O  O56  1  0.13280595  0.86595621  0.65414078  1
  O  O57  1  0.67504547  0.68735430  0.10807503  1
  O  O58  1  0.26772723  0.89847034  0.35940365  1
  O  O59  1  0.10369460  0.39819909  0.27492265  1
  O  O60  1  0.81400957  0.81400957  0.81400957  1
  O  O61  1  0.10807503  0.67504547  0.68735430  1
  O  O62  1  0.11545530  0.86928404  0.13355360  1
  O  O63  1  0.65414078  0.13280595  0.86595621  1
  O  O64  1  0.35611852  0.87877095  0.12659122  1
  O  O65  1  0.86595621  0.65414078  0.13280595  1
  O  O66  1  0.87497062  0.13714276  0.87394898  1
  O  O67  1  0.85611852  0.62659122  0.37877095  1
  O  O68  1  0.39847034  0.76772723  0.85940365  1
  O  O69  1  0.86928404  0.13355360  0.11545530  1
  O  O70  1  0.37497062  0.37394898  0.63714276  1
  O  O71  1  0.64304835  0.39927460  0.09425623  1
  O  O72  1  0.17504547  0.60807503  0.18735430  1
  O  O73  1  0.59425623  0.89927460  0.14304835  1
  O  O74  1  0.63714276  0.37497062  0.37394898  1
  O  O75  1  0.12659122  0.35611852  0.87877095  1
  O  O76  1  0.37877095  0.85611852  0.62659122  1
  O  O77  1  0.31400957  0.31400957  0.31400957  1
  O  O78  1  0.37394898  0.63714276  0.37497062  1
  O  O79  1  0.27492265  0.10369460  0.39819909  1
  O  O80  1  0.09425623  0.64304835  0.39927460  1
  O  O81  1  0.63280595  0.15414078  0.36595621  1
  O  O82  1  0.87394898  0.87497062  0.13714276  1
  O  O83  1  0.89847034  0.35940365  0.26772723  1
  O  O84  1  0.36595621  0.63280595  0.15414078  1
  O  O85  1  0.89927460  0.14304835  0.59425623  1
  O  O86  1  0.89450558  0.33788316  0.60528291  1
  O  O87  1  0.89819909  0.60369460  0.77492265  1
  O  O88  1  0.14304835  0.59425623  0.89927460  1
  O  O89  1  0.87877095  0.12659122  0.35611852  1
