# generated using pymatgen
data_Na2CaVP2O9
_symmetry_space_group_name_H-M   'P 1'
_cell_length_a   6.65540547
_cell_length_b   10.17962076
_cell_length_c   10.67729922
_cell_angle_alpha   90.00000000
_cell_angle_beta   90.00000000
_cell_angle_gamma   90.00000000
_symmetry_Int_Tables_number   1
_chemical_formula_structural   Na2CaVP2O9
_chemical_formula_sum   'Na8 Ca4 V4 P8 O36'
_cell_volume   723.38172289
_cell_formula_units_Z   4
loop_
 _symmetry_equiv_pos_site_id
 _symmetry_equiv_pos_as_xyz
  1  'x, y, z'
loop_
 _atom_site_type_symbol
 _atom_site_label
 _atom_site_symmetry_multiplicity
 _atom_site_fract_x
 _atom_site_fract_y
 _atom_site_fract_z
 _atom_site_occupancy
  Na  Na0  1  0.50301032  0.13382178  0.28595317  1
  Na  Na1  1  0.00301032  0.86617822  0.71404683  1
  Na  Na2  1  0.99698968  0.13382178  0.28595317  1
  Na  Na3  1  0.99698968  0.36617822  0.78595317  1
  Na  Na4  1  0.00301032  0.63382178  0.21404683  1
  Na  Na5  1  0.50301032  0.36617822  0.78595317  1
  Na  Na6  1  0.49698968  0.63382178  0.21404683  1
  Na  Na7  1  0.49698968  0.86617822  0.71404683  1
  Ca  Ca8  1  0.25000000  0.91243964  0.06046233  1
  Ca  Ca9  1  0.75000000  0.08756036  0.93953767  1
  Ca  Ca10  1  0.75000000  0.41243964  0.43953767  1
  Ca  Ca11  1  0.25000000  0.58756036  0.56046233  1
  V  V12  1  0.75000000  0.69151418  0.96674461  1
  V  V13  1  0.25000000  0.19151418  0.53325539  1
  V  V14  1  0.25000000  0.30848582  0.03325539  1
  V  V15  1  0.75000000  0.80848582  0.46674461  1
  P  P16  1  0.25000000  0.63577385  0.90985875  1
  P  P17  1  0.75000000  0.91684523  0.17777302  1
  P  P18  1  0.75000000  0.36422615  0.09014125  1
  P  P19  1  0.25000000  0.86422615  0.40985875  1
  P  P20  1  0.25000000  0.41684523  0.32222698  1
  P  P21  1  0.25000000  0.08315477  0.82222698  1
  P  P22  1  0.75000000  0.58315477  0.67777302  1
  P  P23  1  0.75000000  0.13577385  0.59014125  1
  O  O24  1  0.25000000  0.01628708  0.40914110  1
  O  O25  1  0.43444886  0.69093811  0.98714748  1
  O  O26  1  0.56555114  0.19093811  0.51285252  1
  O  O27  1  0.56555114  0.30906189  0.01285252  1
  O  O28  1  0.93444886  0.30906189  0.01285252  1
  O  O29  1  0.93527320  0.51313072  0.62337798  1
  O  O30  1  0.75000000  0.73104581  0.64331827  1
  O  O31  1  0.75000000  0.19210140  0.72493153  1
  O  O32  1  0.25000000  0.80789860  0.27506847  1
  O  O33  1  0.56472680  0.98686928  0.12337798  1
  O  O34  1  0.25000000  0.43457224  0.17695533  1
  O  O35  1  0.75000000  0.98371292  0.59085890  1
  O  O36  1  0.06472680  0.48686928  0.37662202  1
  O  O37  1  0.75000000  0.30789860  0.22493153  1
  O  O38  1  0.75000000  0.76895419  0.14331827  1
  O  O39  1  0.93527320  0.98686928  0.12337798  1
  O  O40  1  0.75000000  0.56542776  0.82304467  1
  O  O41  1  0.25000000  0.48371292  0.90914110  1
  O  O42  1  0.25000000  0.16722518  0.11121136  1
  O  O43  1  0.06472680  0.01313072  0.87662202  1
  O  O44  1  0.25000000  0.33277482  0.61121136  1
  O  O45  1  0.06555114  0.69093811  0.98714748  1
  O  O46  1  0.93444886  0.19093811  0.51285252  1
  O  O47  1  0.43527320  0.01313072  0.87662202  1
  O  O48  1  0.25000000  0.26895419  0.35668173  1
  O  O49  1  0.56472680  0.51313072  0.62337798  1
  O  O50  1  0.75000000  0.66722518  0.38878864  1
  O  O51  1  0.25000000  0.06542776  0.67695533  1
  O  O52  1  0.75000000  0.83277482  0.88878864  1
  O  O53  1  0.25000000  0.69210140  0.77506847  1
  O  O54  1  0.43444886  0.80906189  0.48714748  1
  O  O55  1  0.25000000  0.23104581  0.85668173  1
  O  O56  1  0.43527320  0.48686928  0.37662202  1
  O  O57  1  0.75000000  0.51628708  0.09085890  1
  O  O58  1  0.06555114  0.80906189  0.48714748  1
  O  O59  1  0.75000000  0.93457224  0.32304467  1
