# generated using pymatgen
data_Mo2P2PbO12
_symmetry_space_group_name_H-M   'P 1'
_cell_length_a   6.43462022
_cell_length_b   12.07097435
_cell_length_c   12.58085952
_cell_angle_alpha   90.00000000
_cell_angle_beta   90.00000000
_cell_angle_gamma   91.68400924
_symmetry_Int_Tables_number   1
_chemical_formula_structural   Mo2P2PbO12
_chemical_formula_sum   'Mo8 P8 Pb4 O48'
_cell_volume   976.76018311
_cell_formula_units_Z   4
loop_
 _symmetry_equiv_pos_site_id
 _symmetry_equiv_pos_as_xyz
  1  'x, y, z'
loop_
 _atom_site_type_symbol
 _atom_site_label
 _atom_site_symmetry_multiplicity
 _atom_site_fract_x
 _atom_site_fract_y
 _atom_site_fract_z
 _atom_site_occupancy
  Mo  Mo0  1  0.75112906  0.90445666  0.87117985  1
  Mo  Mo1  1  0.24887094  0.59554334  0.37117985  1
  Mo  Mo2  1  0.74731930  0.90186054  0.38482487  1
  Mo  Mo3  1  0.75112906  0.40445666  0.62882015  1
  Mo  Mo4  1  0.25268070  0.09813946  0.61517513  1
  Mo  Mo5  1  0.24887094  0.09554334  0.12882015  1
  Mo  Mo6  1  0.25268070  0.59813946  0.88482487  1
  Mo  Mo7  1  0.74731930  0.40186054  0.11517513  1
  P  P8  1  0.75582180  0.61231508  0.43643780  1
  P  P9  1  0.24419640  0.96019009  0.37548239  1
  P  P10  1  0.75582180  0.11231508  0.06356220  1
  P  P11  1  0.24417820  0.88768492  0.93643780  1
  P  P12  1  0.75580360  0.03980991  0.62451761  1
  P  P13  1  0.24419640  0.46019009  0.12451761  1
  P  P14  1  0.75580360  0.53980991  0.87548239  1
  P  P15  1  0.24417820  0.38768492  0.56356220  1
  Pb  Pb16  1  0.99022230  0.76832756  0.62277752  1
  Pb  Pb17  1  0.99022230  0.26832756  0.87722248  1
  Pb  Pb18  1  0.00977770  0.23167244  0.37722248  1
  Pb  Pb19  1  0.00977770  0.73167244  0.12277752  1
  O  O20  1  0.76399539  0.83099198  0.99043678  1
  O  O21  1  0.55602613  0.60178459  0.90821040  1
  O  O22  1  0.76328321  0.02450952  0.74493499  1
  O  O23  1  0.93319747  0.58626379  0.35716283  1
  O  O24  1  0.78119237  0.04447307  0.36503455  1
  O  O25  1  0.23600461  0.66900802  0.49043678  1
  O  O26  1  0.75569329  0.84681424  0.25754656  1
  O  O27  1  0.79418045  0.56118396  0.54634801  1
  O  O28  1  0.20581955  0.43881604  0.45365199  1
  O  O29  1  0.55350012  0.56806143  0.38278933  1
  O  O30  1  0.21880763  0.45552693  0.86503455  1
  O  O31  1  0.06680253  0.41373621  0.64283717  1
  O  O32  1  0.73207981  0.29965043  0.72495868  1
  O  O33  1  0.44649988  0.93193857  0.88278933  1
  O  O34  1  0.79418045  0.06118396  0.95365199  1
  O  O35  1  0.44397387  0.89821541  0.40821040  1
  O  O36  1  0.23671679  0.97549048  0.25506501  1
  O  O37  1  0.74904281  0.23910182  0.04208619  1
  O  O38  1  0.55602613  0.10178459  0.59178960  1
  O  O39  1  0.94104728  0.11727427  0.58729481  1
  O  O40  1  0.76192461  0.92809116  0.56402327  1
  O  O41  1  0.94104728  0.61727427  0.91270519  1
  O  O42  1  0.23600461  0.16900802  0.00956322  1
  O  O43  1  0.06680253  0.91373621  0.85716283  1
  O  O44  1  0.76192461  0.42809116  0.93597673  1
  O  O45  1  0.74904281  0.73910182  0.45791381  1
  O  O46  1  0.23671679  0.47549048  0.24493499  1
  O  O47  1  0.73207981  0.79965043  0.77504132  1
  O  O48  1  0.26792019  0.20034957  0.22495868  1
  O  O49  1  0.93319747  0.08626379  0.14283717  1
  O  O50  1  0.44397387  0.39821541  0.09178960  1
  O  O51  1  0.23807539  0.07190884  0.43597673  1
  O  O52  1  0.20581955  0.93881604  0.04634801  1
  O  O53  1  0.55350012  0.06806143  0.11721067  1
  O  O54  1  0.21880763  0.95552693  0.63496545  1
  O  O55  1  0.23807539  0.57190884  0.06402327  1
  O  O56  1  0.24430671  0.15318576  0.74245344  1
  O  O57  1  0.25095719  0.76089818  0.95791381  1
  O  O58  1  0.24430671  0.65318576  0.75754656  1
  O  O59  1  0.44649988  0.43193857  0.61721067  1
  O  O60  1  0.26792019  0.70034957  0.27504132  1
  O  O61  1  0.76399539  0.33099198  0.50956322  1
  O  O62  1  0.76328321  0.52450952  0.75506501  1
  O  O63  1  0.78119237  0.54447307  0.13496545  1
  O  O64  1  0.25095719  0.26089818  0.54208619  1
  O  O65  1  0.75569329  0.34681424  0.24245344  1
  O  O66  1  0.05895272  0.88272573  0.41270519  1
  O  O67  1  0.05895272  0.38272573  0.08729481  1
