# generated using pymatgen
data_LiMn(PO3)4
_symmetry_space_group_name_H-M   'P 1'
_cell_length_a   7.60155908
_cell_length_b   9.00571358
_cell_length_c   8.97477104
_cell_angle_alpha   112.18992035
_cell_angle_beta   115.05550152
_cell_angle_gamma   65.03649423
_symmetry_Int_Tables_number   1
_chemical_formula_structural   LiMn(PO3)4
_chemical_formula_sum   'Li2 Mn2 P8 O24'
_cell_volume   489.54928496
_cell_formula_units_Z   2
loop_
 _symmetry_equiv_pos_site_id
 _symmetry_equiv_pos_as_xyz
  1  'x, y, z'
loop_
 _atom_site_type_symbol
 _atom_site_label
 _atom_site_symmetry_multiplicity
 _atom_site_fract_x
 _atom_site_fract_y
 _atom_site_fract_z
 _atom_site_occupancy
  Li  Li0  1  0.83002338  0.75000000  0.75000000  1
  Li  Li1  1  0.16997662  0.25000000  0.25000000  1
  Mn  Mn2  1  0.28875355  0.75000000  0.75000000  1
  Mn  Mn3  1  0.71124645  0.25000000  0.25000000  1
  P  P4  1  0.96081308  0.88803478  0.16084090  1
  P  P5  1  0.56788930  0.84769888  0.13251625  1
  P  P6  1  0.28307193  0.65230112  0.36748375  1
  P  P7  1  0.68800696  0.61196522  0.33915910  1
  P  P8  1  0.31199304  0.38803478  0.66084090  1
  P  P9  1  0.71692807  0.34769888  0.63251625  1
  P  P10  1  0.43211070  0.15230112  0.86748375  1
  P  P11  1  0.03918692  0.11196522  0.83915910  1
  O  O12  1  0.40887821  0.97143022  0.21007595  1
  O  O13  1  0.76927729  0.90776308  0.21186029  1
  O  O14  1  0.97806839  0.77019694  0.99748118  1
  O  O15  1  0.14904373  0.83421879  0.32248457  1
  O  O16  1  0.05950550  0.92518028  0.81030813  1
  O  O17  1  0.66077795  0.66578121  0.17751543  1
  O  O18  1  0.75078415  0.72980306  0.50251882  1
  O  O19  1  0.38014024  0.70074563  0.56057457  1
  O  O20  1  0.52031030  0.79925437  0.93942543  1
  O  O21  1  0.46518009  0.59223692  0.28813971  1
  O  O22  1  0.17023248  0.52856978  0.28992405  1
  O  O23  1  0.17437766  0.57481972  0.68969187  1
  O  O24  1  0.82562234  0.42518028  0.31030813  1
  O  O25  1  0.82976752  0.47143022  0.71007595  1
  O  O26  1  0.53481991  0.40776308  0.71186029  1
  O  O27  1  0.47968970  0.20074563  0.06057457  1
  O  O28  1  0.61985976  0.29925437  0.43942543  1
  O  O29  1  0.24921585  0.27019694  0.49748118  1
  O  O30  1  0.33922205  0.33421879  0.82248457  1
  O  O31  1  0.94049450  0.07481972  0.18969187  1
  O  O32  1  0.85095627  0.16578121  0.67751543  1
  O  O33  1  0.02193161  0.22980306  0.00251882  1
  O  O34  1  0.23072271  0.09223692  0.78813971  1
  O  O35  1  0.59112179  0.02856978  0.78992405  1
