# generated using pymatgen
data_Na5Er(MoO4)4
_symmetry_space_group_name_H-M   'P 1'
_cell_length_a   9.99204560
_cell_length_b   9.99204566
_cell_length_c   9.99204578
_cell_angle_alpha   109.46824814
_cell_angle_beta   109.47271056
_cell_angle_gamma   109.47270671
_symmetry_Int_Tables_number   1
_chemical_formula_structural   Na5Er(MoO4)4
_chemical_formula_sum   'Na10 Er2 Mo8 O32'
_cell_volume   767.96481357
_cell_formula_units_Z   2
loop_
 _symmetry_equiv_pos_site_id
 _symmetry_equiv_pos_as_xyz
  1  'x, y, z'
loop_
 _atom_site_type_symbol
 _atom_site_label
 _atom_site_symmetry_multiplicity
 _atom_site_fract_x
 _atom_site_fract_y
 _atom_site_fract_z
 _atom_site_occupancy
  Na  Na0  1  0.66556913  0.20199923  0.77642263  1
  Na  Na1  1  0.33443087  0.79800077  0.22357737  1
  Na  Na2  1  0.16556913  0.38914650  0.46356990  1
  Na  Na3  1  0.92557660  0.03643010  0.70199923  1
  Na  Na4  1  0.57442340  0.27642263  0.11085350  1
  Na  Na5  1  0.83443087  0.61085350  0.53643010  1
  Na  Na6  1  0.07442340  0.96356990  0.29800077  1
  Na  Na7  1  0.25000000  0.87500000  0.62500000  1
  Na  Na8  1  0.42557660  0.72357737  0.88914650  1
  Na  Na9  1  0.75000000  0.12500000  0.37500000  1
  Er  Er10  1  0.25000000  0.37500000  0.12500000  1
  Er  Er11  1  0.75000000  0.62500000  0.87500000  1
  Mo  Mo12  1  0.02414804  0.45610949  0.79477222  1
  Mo  Mo13  1  0.33866273  0.29477222  0.77062418  1
  Mo  Mo14  1  0.52414804  0.72937582  0.56803855  1
  Mo  Mo15  1  0.83866273  0.06803855  0.04389051  1
  Mo  Mo16  1  0.97585196  0.54389051  0.20522778  1
  Mo  Mo17  1  0.66133727  0.70522778  0.22937582  1
  Mo  Mo18  1  0.47585196  0.27062418  0.43196145  1
  Mo  Mo19  1  0.16133727  0.93196145  0.95610949  1
  O  O20  1  0.14269835  0.48759715  0.69815626  1
  O  O21  1  0.79866032  0.72564986  0.14673236  1
  O  O22  1  0.98966871  0.13558621  0.98089306  1
  O  O23  1  0.07163616  0.87695733  0.74396119  1
  O  O24  1  0.01033129  0.86441379  0.01910694  1
  O  O25  1  0.86700386  0.24396119  0.67232503  1
  O  O26  1  0.51033129  0.49122435  0.14591749  1
  O  O27  1  0.42836384  0.17232503  0.80532117  1
  O  O28  1  0.20133968  0.27435014  0.85326764  1
  O  O29  1  0.34530685  0.35408251  0.36441379  1
  O  O30  1  0.42108250  0.64673236  0.34807204  1
  O  O31  1  0.85730165  0.51240285  0.30184374  1
  O  O32  1  0.71055912  0.15510121  0.01240285  1
  O  O33  1  0.63299614  0.30532117  0.37695733  1
  O  O34  1  0.57163616  0.82767497  0.19467883  1
  O  O35  1  0.84530685  0.48089306  0.99122435  1
  O  O36  1  0.92108250  0.57301046  0.77435014  1
  O  O37  1  0.15469315  0.51910694  0.00877565  1
  O  O38  1  0.78944088  0.80184374  0.44454209  1
  O  O39  1  0.29866032  0.15192796  0.07301046  1
  O  O40  1  0.57891750  0.35326764  0.65192796  1
  O  O41  1  0.13299614  0.75603881  0.32767497  1
  O  O42  1  0.70133968  0.84807204  0.92698954  1
  O  O43  1  0.92836384  0.12304267  0.25603881  1
  O  O44  1  0.35730165  0.05545791  0.34489879  1
  O  O45  1  0.64269835  0.94454209  0.65510121  1
  O  O46  1  0.36700386  0.69467883  0.62304267  1
  O  O47  1  0.65469315  0.64591749  0.63558621  1
  O  O48  1  0.48966871  0.50877565  0.85408251  1
  O  O49  1  0.21055912  0.19815626  0.55545791  1
  O  O50  1  0.28944088  0.84489879  0.98759715  1
  O  O51  1  0.07891750  0.42698954  0.22564986  1
