# generated using pymatgen
data_CaFeSbAs2O7
_symmetry_space_group_name_H-M   'P 1'
_cell_length_a   10.91781816
_cell_length_b   12.84812518
_cell_length_c   12.84812517
_cell_angle_alpha   79.59978454
_cell_angle_beta   64.85694573
_cell_angle_gamma   64.85694590
_symmetry_Int_Tables_number   1
_chemical_formula_structural   CaFeSbAs2O7
_chemical_formula_sum   'Ca8 Fe8 Sb8 As16 O56'
_cell_volume   1476.90389147
_cell_formula_units_Z   8
loop_
 _symmetry_equiv_pos_site_id
 _symmetry_equiv_pos_as_xyz
  1  'x, y, z'
loop_
 _atom_site_type_symbol
 _atom_site_label
 _atom_site_symmetry_multiplicity
 _atom_site_fract_x
 _atom_site_fract_y
 _atom_site_fract_z
 _atom_site_occupancy
  Ca  Ca0  1  0.17323502  0.41008359  0.28936116  1
  Ca  Ca1  1  0.08331862  0.28936116  0.08991641  1
  Ca  Ca2  1  0.53740381  0.78936116  0.58991641  1
  Ca  Ca3  1  0.91668138  0.71063884  0.91008359  1
  Ca  Ca4  1  0.82676498  0.58991641  0.71063884  1
  Ca  Ca5  1  0.12732022  0.91008359  0.78936116  1
  Ca  Ca6  1  0.46259619  0.21063884  0.41008359  1
  Ca  Ca7  1  0.87267978  0.08991641  0.21063884  1
  Fe  Fe8  1  0.73471711  0.49535880  0.52161809  1
  Fe  Fe9  1  0.75169400  0.00464120  0.97838191  1
  Fe  Fe10  1  0.74366480  0.02161809  0.50464120  1
  Fe  Fe11  1  0.73007591  0.52161809  0.00464120  1
  Fe  Fe12  1  0.25633520  0.97838191  0.49535880  1
  Fe  Fe13  1  0.26528289  0.50464120  0.47838191  1
  Fe  Fe14  1  0.26992409  0.47838191  0.99535880  1
  Fe  Fe15  1  0.24830600  0.99535880  0.02161809  1
  Sb  Sb16  1  0.31012344  0.60111008  0.74900818  1
  Sb  Sb17  1  0.66024170  0.89888992  0.75099182  1
  Sb  Sb18  1  0.68987656  0.39888992  0.25099182  1
  Sb  Sb19  1  0.94086838  0.24900818  0.39888992  1
  Sb  Sb20  1  0.33975830  0.10111008  0.24900818  1
  Sb  Sb21  1  0.05913162  0.75099182  0.60111008  1
  Sb  Sb22  1  0.58876648  0.25099182  0.10111008  1
  Sb  Sb23  1  0.41123352  0.74900818  0.89888992  1
  As  As24  1  0.64481604  0.41637670  0.81897684  1
  As  As25  1  0.90190991  0.58163878  0.21117324  1
  As  As26  1  0.30527806  0.08163878  0.71117324  1
  As  As27  1  0.46379287  0.68102316  0.41637670  1
  As  As28  1  0.11308315  0.28882676  0.58163878  1
  As  As29  1  0.88016957  0.08362330  0.68102316  1
  As  As30  1  0.43880726  0.18102316  0.91637670  1
  As  As31  1  0.88691685  0.71117324  0.41836122  1
  As  As32  1  0.56119274  0.81897684  0.08362330  1
  As  As33  1  0.11983043  0.91637670  0.31897684  1
  As  As34  1  0.09809009  0.41836122  0.78882676  1
  As  As35  1  0.98354870  0.21117324  0.91836122  1
  As  As36  1  0.35518396  0.58362330  0.18102316  1
  As  As37  1  0.69472194  0.91836122  0.28882676  1
  As  As38  1  0.01645130  0.78882676  0.08163878  1
  As  As39  1  0.53620713  0.31897684  0.58362330  1
  O  O40  1  0.95779040  0.86965660  0.97215528  1
  O  O41  1  0.10516359  0.11384469  0.79358016  1
  O  O42  1  0.67275671  0.90385808  0.58894326  1
  O  O43  1  0.13096497  0.98043196  0.18007098  1
  O  O44  1  0.07661479  0.58894326  0.59614192  1
  O  O45  1  0.73830003  0.08894326  0.09614192  1
  O  O46  1  0.44797500  0.49051159  0.85735692  1
  O  O47  1  0.70853210  0.48043196  0.68007098  1
  O  O48  1  0.11629997  0.73555693  0.73421034  1
  O  O49  1  0.31103594  0.31992902  0.98043196  1
  O  O50  1  0.64814310  0.26578966  0.23555693  1
  O  O51  1  0.38860308  0.81992902  0.48043196  1
  O  O52  1  0.89483641  0.88615531  0.20641984  1
  O  O53  1  0.26169997  0.91105674  0.90385808  1
  O  O54  1  0.92994568  0.52784472  0.86965660  1
  O  O55  1  0.07126887  0.98824287  0.61554533  1
  O  O56  1  0.98741157  0.61384469  0.29358016  1
  O  O57  1  0.20415649  0.99051159  0.35735692  1
  O  O58  1  0.07005432  0.47215528  0.13034340  1
  O  O59  1  0.04220960  0.13034340  0.02784472  1
  O  O60  1  0.56151341  0.14264308  0.99051159  1
  O  O61  1  0.01258843  0.38615531  0.70641984  1
  O  O62  1  0.86903503  0.01956804  0.81992902  1
  O  O63  1  0.20039772  0.36965660  0.47215528  1
  O  O64  1  0.32494293  0.48824287  0.11554533  1
  O  O65  1  0.35185690  0.73421034  0.76444307  1
  O  O66  1  0.58606724  0.76444307  0.76578966  1
  O  O67  1  0.55951174  0.61554533  0.51175713  1
  O  O68  1  0.14948969  0.23421034  0.26444307  1
  O  O69  1  0.89874375  0.70641984  0.11384469  1
  O  O70  1  0.88370003  0.26444307  0.26578966  1
  O  O71  1  0.43848659  0.85735692  0.00948841  1
  O  O72  1  0.44048826  0.38445467  0.48824287  1
  O  O73  1  0.71900827  0.79358016  0.38615531  1
  O  O74  1  0.61139692  0.18007098  0.51956804  1
  O  O75  1  0.69466808  0.35735692  0.50948841  1
  O  O76  1  0.32724329  0.09614192  0.41105674  1
  O  O77  1  0.31318580  0.11554533  0.01175713  1
  O  O78  1  0.68681420  0.88445467  0.98824287  1
  O  O79  1  0.83444195  0.40385808  0.08894326  1
  O  O80  1  0.55202500  0.50948841  0.14264308  1
  O  O81  1  0.16555805  0.59614192  0.91105674  1
  O  O82  1  0.85051031  0.76578966  0.73555693  1
  O  O83  1  0.30533192  0.64264308  0.49051159  1
  O  O84  1  0.92873113  0.01175713  0.38445467  1
  O  O85  1  0.79960228  0.63034340  0.52784472  1
  O  O86  1  0.67505707  0.51175713  0.88445467  1
  O  O87  1  0.28099173  0.20641984  0.61384469  1
  O  O88  1  0.29146790  0.51956804  0.31992902  1
  O  O89  1  0.79584351  0.00948841  0.64264308  1
  O  O90  1  0.32744700  0.97215528  0.63034340  1
  O  O91  1  0.67255300  0.02784472  0.36965660  1
  O  O92  1  0.92338521  0.41105674  0.40385808  1
  O  O93  1  0.10125625  0.29358016  0.88615531  1
  O  O94  1  0.41393276  0.23555693  0.23421034  1
  O  O95  1  0.68896406  0.68007098  0.01956804  1
