# generated using pymatgen
data_Nd2Mo(SeO5)2
_symmetry_space_group_name_H-M   'P 1'
_cell_length_a   5.45685157
_cell_length_b   6.97035594
_cell_length_c   12.76402040
_cell_angle_alpha   85.58831602
_cell_angle_beta   83.70154472
_cell_angle_gamma   69.94050308
_symmetry_Int_Tables_number   1
_chemical_formula_structural   Nd2Mo(SeO5)2
_chemical_formula_sum   'Nd4 Mo2 Se4 O20'
_cell_volume   452.88889918
_cell_formula_units_Z   2
loop_
 _symmetry_equiv_pos_site_id
 _symmetry_equiv_pos_as_xyz
  1  'x, y, z'
loop_
 _atom_site_type_symbol
 _atom_site_label
 _atom_site_symmetry_multiplicity
 _atom_site_fract_x
 _atom_site_fract_y
 _atom_site_fract_z
 _atom_site_occupancy
  Nd  Nd0  1  0.91449066  0.11321414  0.64776203  1
  Nd  Nd1  1  0.83210732  0.30343165  0.95245984  1
  Nd  Nd2  1  0.16789268  0.69656835  0.04754016  1
  Nd  Nd3  1  0.08550934  0.88678586  0.35223797  1
  Mo  Mo4  1  0.63647892  0.72231889  0.55884745  1
  Mo  Mo5  1  0.36352108  0.27768111  0.44115255  1
  Se  Se6  1  0.39449810  0.10290403  0.13121046  1
  Se  Se7  1  0.73826789  0.57690255  0.22306921  1
  Se  Se8  1  0.26173211  0.42309745  0.77693079  1
  Se  Se9  1  0.60550190  0.89709597  0.86878954  1
  O  O10  1  0.81926760  0.83530357  0.75812204  1
  O  O11  1  0.41280773  0.71797691  0.20259478  1
  O  O12  1  0.14255763  0.49189752  0.90491133  1
  O  O13  1  0.85308996  0.87529468  0.52996508  1
  O  O14  1  0.17336513  0.52611884  0.39401165  1
  O  O15  1  0.47914233  0.28657228  0.56612311  1
  O  O16  1  0.64487144  0.15834266  0.35309504  1
  O  O17  1  0.56114988  0.66730246  0.91907235  1
  O  O18  1  0.43885012  0.33269754  0.08092765  1
  O  O19  1  0.18323907  0.05830148  0.04490621  1
  O  O20  1  0.58719227  0.28202309  0.79740522  1
  O  O21  1  0.18073240  0.16469643  0.24187796  1
  O  O22  1  0.11894763  0.23271465  0.78026320  1
  O  O23  1  0.85744237  0.50810248  0.09508867  1
  O  O24  1  0.88105237  0.76728535  0.21973680  1
  O  O25  1  0.81676093  0.94169852  0.95509379  1
  O  O26  1  0.82663487  0.47388116  0.60598835  1
  O  O27  1  0.52085767  0.71342772  0.43387689  1
  O  O28  1  0.14691004  0.12470532  0.47003492  1
  O  O29  1  0.35512856  0.84165734  0.64690496  1
