# generated using pymatgen
data_Sr5Cr3ClO12
_symmetry_space_group_name_H-M   'P 1'
_cell_length_a   10.30686753
_cell_length_b   10.30686734
_cell_length_c   7.37518247
_cell_angle_alpha   90.00000000
_cell_angle_beta   90.00000000
_cell_angle_gamma   120.00000063
_symmetry_Int_Tables_number   1
_chemical_formula_structural   Sr5Cr3ClO12
_chemical_formula_sum   'Sr10 Cr6 Cl2 O24'
_cell_volume   678.51082220
_cell_formula_units_Z   2
loop_
 _symmetry_equiv_pos_site_id
 _symmetry_equiv_pos_as_xyz
  1  'x, y, z'
loop_
 _atom_site_type_symbol
 _atom_site_label
 _atom_site_symmetry_multiplicity
 _atom_site_fract_x
 _atom_site_fract_y
 _atom_site_fract_z
 _atom_site_occupancy
  Sr  Sr0  1  0.00108237  0.74758439  0.75340146  1
  Sr  Sr1  1  0.33333300  0.66666700  0.50122830  1
  Sr  Sr2  1  0.74758439  0.74650201  0.25340146  1
  Sr  Sr3  1  0.66666700  0.33333300  0.50388312  1
  Sr  Sr4  1  0.25349799  0.00108237  0.25340146  1
  Sr  Sr5  1  0.25241561  0.25349799  0.75340146  1
  Sr  Sr6  1  0.99891763  0.25241561  0.25340146  1
  Sr  Sr7  1  0.66666700  0.33333300  0.00122830  1
  Sr  Sr8  1  0.74650201  0.99891763  0.75340146  1
  Sr  Sr9  1  0.33333300  0.66666700  0.00388312  1
  Cr  Cr10  1  0.03171808  0.40585221  0.75398897  1
  Cr  Cr11  1  0.37413413  0.96828192  0.75398897  1
  Cr  Cr12  1  0.59414779  0.62586587  0.75398897  1
  Cr  Cr13  1  0.96828192  0.59414779  0.25398897  1
  Cr  Cr14  1  0.62586587  0.03171808  0.25398897  1
  Cr  Cr15  1  0.40585221  0.37413413  0.25398897  1
  Cl  Cl16  1  0.00000000  0.00000000  0.50155753  1
  Cl  Cl17  1  0.00000000  0.00000000  0.00155753  1
  O  O18  1  0.16137458  0.68023090  0.25361816  1
  O  O19  1  0.73956522  0.09662324  0.44181691  1
  O  O20  1  0.09352740  0.35226001  0.56722721  1
  O  O21  1  0.26043478  0.90337676  0.94181691  1
  O  O22  1  0.13101626  0.60031825  0.75155764  1
  O  O23  1  0.25873260  0.90647260  0.56722721  1
  O  O24  1  0.51885632  0.83862542  0.25361816  1
  O  O25  1  0.48114368  0.16137458  0.75361816  1
  O  O26  1  0.64773999  0.74126740  0.56722721  1
  O  O27  1  0.39968175  0.53069801  0.75155764  1
  O  O28  1  0.31976910  0.48114368  0.25361816  1
  O  O29  1  0.35705803  0.26043478  0.44181691  1
  O  O30  1  0.90647260  0.64773999  0.06722721  1
  O  O31  1  0.83862542  0.31976910  0.75361816  1
  O  O32  1  0.86898374  0.39968175  0.25155764  1
  O  O33  1  0.09662324  0.35705803  0.94181691  1
  O  O34  1  0.90337676  0.64294197  0.44181691  1
  O  O35  1  0.60031825  0.46930199  0.25155764  1
  O  O36  1  0.35226001  0.25873260  0.06722721  1
  O  O37  1  0.68023090  0.51885632  0.75361816  1
  O  O38  1  0.64294197  0.73956522  0.94181691  1
  O  O39  1  0.74126740  0.09352740  0.06722721  1
  O  O40  1  0.46930199  0.86898374  0.75155764  1
  O  O41  1  0.53069801  0.13101626  0.25155764  1
