# generated using pymatgen
data_Na3LiWO5
_symmetry_space_group_name_H-M   'P 1'
_cell_length_a   5.71891331
_cell_length_b   6.10872039
_cell_length_c   7.67428646
_cell_angle_alpha   76.51347516
_cell_angle_beta   71.50331600
_cell_angle_gamma   73.42931826
_symmetry_Int_Tables_number   1
_chemical_formula_structural   Na3LiWO5
_chemical_formula_sum   'Na6 Li2 W2 O10'
_cell_volume   240.67041314
_cell_formula_units_Z   2
loop_
 _symmetry_equiv_pos_site_id
 _symmetry_equiv_pos_as_xyz
  1  'x, y, z'
loop_
 _atom_site_type_symbol
 _atom_site_label
 _atom_site_symmetry_multiplicity
 _atom_site_fract_x
 _atom_site_fract_y
 _atom_site_fract_z
 _atom_site_occupancy
  Na  Na0  1  0.70254176  0.04854422  0.59636865  1
  Na  Na1  1  0.32280842  0.44620125  0.38699273  1
  Na  Na2  1  0.51966878  0.74521935  0.98947849  1
  Na  Na3  1  0.67719158  0.55379875  0.61300727  1
  Na  Na4  1  0.29745824  0.95145578  0.40363135  1
  Na  Na5  1  0.48033122  0.25478065  0.01052151  1
  Li  Li6  1  0.88596239  0.35995255  0.15518117  1
  Li  Li7  1  0.11403761  0.64004745  0.84481883  1
  W  W8  1  0.10138336  0.15963030  0.79673086  1
  W  W9  1  0.89861664  0.84036970  0.20326914  1
  O  O10  1  0.01208725  0.22830666  0.57260045  1
  O  O11  1  0.84934155  0.94740516  0.92764278  1
  O  O12  1  0.84489852  0.42143966  0.89318482  1
  O  O13  1  0.64633747  0.66571753  0.27224076  1
  O  O14  1  0.98791275  0.77169334  0.42739955  1
  O  O15  1  0.35028258  0.87936588  0.72607616  1
  O  O16  1  0.64971742  0.12063412  0.27392384  1
  O  O17  1  0.15065845  0.05259484  0.07235722  1
  O  O18  1  0.15510148  0.57856034  0.10681518  1
  O  O19  1  0.35366253  0.33428247  0.72775924  1
