# generated using pymatgen
data_FeP2PbO7
_symmetry_space_group_name_H-M   'P 1'
_cell_length_a   5.46259625
_cell_length_b   8.44761432
_cell_length_c   13.01982776
_cell_angle_alpha   90.00000000
_cell_angle_beta   90.71517805
_cell_angle_gamma   90.00000000
_symmetry_Int_Tables_number   1
_chemical_formula_structural   FeP2PbO7
_chemical_formula_sum   'Fe4 P8 Pb4 O28'
_cell_volume   600.76494751
_cell_formula_units_Z   4
loop_
 _symmetry_equiv_pos_site_id
 _symmetry_equiv_pos_as_xyz
  1  'x, y, z'
loop_
 _atom_site_type_symbol
 _atom_site_label
 _atom_site_symmetry_multiplicity
 _atom_site_fract_x
 _atom_site_fract_y
 _atom_site_fract_z
 _atom_site_occupancy
  Fe  Fe0  1  0.18019610  0.34991732  0.10573282  1
  Fe  Fe1  1  0.31980390  0.84991732  0.39426718  1
  Fe  Fe2  1  0.81980390  0.65008268  0.89426718  1
  Fe  Fe3  1  0.68019610  0.15008268  0.60573282  1
  P  P4  1  0.74945744  0.53926697  0.66403441  1
  P  P5  1  0.68547899  0.30028493  0.98172436  1
  P  P6  1  0.18547899  0.19971507  0.48172436  1
  P  P7  1  0.25054256  0.46073303  0.33596559  1
  P  P8  1  0.24945744  0.96073303  0.16403441  1
  P  P9  1  0.31452101  0.69971507  0.01827564  1
  P  P10  1  0.75054256  0.03926697  0.83596559  1
  P  P11  1  0.81452101  0.80028493  0.51827564  1
  Pb  Pb12  1  0.78758326  0.67531167  0.22163137  1
  Pb  Pb13  1  0.28758326  0.82468833  0.72163137  1
  Pb  Pb14  1  0.21241674  0.32468833  0.77836863  1
  Pb  Pb15  1  0.71241674  0.17531167  0.27836863  1
  O  O16  1  0.48733052  0.56335507  0.70174117  1
  O  O17  1  0.17464398  0.59582509  0.09574561  1
  O  O18  1  0.55959029  0.12122567  0.76551030  1
  O  O19  1  0.32535602  0.09582509  0.40425439  1
  O  O20  1  0.68257657  0.86489059  0.84895333  1
  O  O21  1  0.01266948  0.06335507  0.79825883  1
  O  O22  1  0.18257657  0.63510941  0.34895333  1
  O  O23  1  0.94040971  0.62122567  0.73448970  1
  O  O24  1  0.67464398  0.90417491  0.59574561  1
  O  O25  1  0.81742343  0.36489059  0.65104667  1
  O  O26  1  0.73329731  0.11715667  0.94900223  1
  O  O27  1  0.59186271  0.67141348  0.02485379  1
  O  O28  1  0.29603266  0.18845757  0.59056789  1
  O  O29  1  0.76670269  0.61715667  0.55099777  1
  O  O30  1  0.51266948  0.43664493  0.29825883  1
  O  O31  1  0.44040971  0.87877433  0.23448970  1
  O  O32  1  0.70396734  0.81154243  0.40943211  1
  O  O33  1  0.05959029  0.37877433  0.26551030  1
  O  O34  1  0.09186271  0.82858652  0.52485379  1
  O  O35  1  0.90813729  0.17141348  0.47514621  1
  O  O36  1  0.98733052  0.93664493  0.20174117  1
  O  O37  1  0.26670269  0.88284333  0.05099777  1
  O  O38  1  0.82535602  0.40417491  0.90425439  1
  O  O39  1  0.40813729  0.32858652  0.97514621  1
  O  O40  1  0.20396734  0.68845757  0.90943211  1
  O  O41  1  0.79603266  0.31154243  0.09056789  1
  O  O42  1  0.23329731  0.38284333  0.44900223  1
  O  O43  1  0.31742343  0.13510941  0.15104667  1
