# generated using pymatgen
data_Rb2Mo(IO3)6
_symmetry_space_group_name_H-M   'P 1'
_cell_length_a   7.84244635
_cell_length_b   7.84244625
_cell_length_c   7.84244575
_cell_angle_alpha   97.13758179
_cell_angle_beta   97.13758174
_cell_angle_gamma   97.13758726
_symmetry_Int_Tables_number   1
_chemical_formula_structural   Rb2Mo(IO3)6
_chemical_formula_sum   'Rb2 Mo1 I6 O18'
_cell_volume   470.09059592
_cell_formula_units_Z   1
loop_
 _symmetry_equiv_pos_site_id
 _symmetry_equiv_pos_as_xyz
  1  'x, y, z'
loop_
 _atom_site_type_symbol
 _atom_site_label
 _atom_site_symmetry_multiplicity
 _atom_site_fract_x
 _atom_site_fract_y
 _atom_site_fract_z
 _atom_site_occupancy
  Rb  Rb0  1  0.83134506  0.83134506  0.83134506  1
  Rb  Rb1  1  0.16865494  0.16865494  0.16865494  1
  Mo  Mo2  1  0.50000000  0.50000000  0.50000000  1
  I  I3  1  0.66829615  0.29597243  0.86758878  1
  I  I4  1  0.86758878  0.66829615  0.29597243  1
  I  I5  1  0.13241122  0.33170385  0.70402757  1
  I  I6  1  0.33170385  0.70402757  0.13241122  1
  I  I7  1  0.29597243  0.86758878  0.66829615  1
  I  I8  1  0.70402757  0.13241122  0.33170385  1
  O  O9  1  0.09594238  0.71384706  0.61048585  1
  O  O10  1  0.90344492  0.30998239  0.91109637  1
  O  O11  1  0.90405762  0.28615294  0.38951415  1
  O  O12  1  0.55361850  0.30484216  0.32205182  1
  O  O13  1  0.44638150  0.69515784  0.67794818  1
  O  O14  1  0.67794818  0.44638150  0.69515784  1
  O  O15  1  0.71384706  0.61048585  0.09594238  1
  O  O16  1  0.32205182  0.55361850  0.30484216  1
  O  O17  1  0.28615294  0.38951415  0.90405762  1
  O  O18  1  0.91109637  0.90344492  0.30998239  1
  O  O19  1  0.61048585  0.09594238  0.71384706  1
  O  O20  1  0.38951415  0.90405762  0.28615294  1
  O  O21  1  0.30998239  0.91109637  0.90344492  1
  O  O22  1  0.30484216  0.32205182  0.55361850  1
  O  O23  1  0.08890363  0.09655508  0.69001761  1
  O  O24  1  0.69515784  0.67794818  0.44638150  1
  O  O25  1  0.09655508  0.69001761  0.08890363  1
  O  O26  1  0.69001761  0.08890363  0.09655508  1
