# generated using pymatgen
data_Ba2VP2O9
_symmetry_space_group_name_H-M   'P 1'
_cell_length_a   5.55948221
_cell_length_b   9.35394777
_cell_length_c   9.59976571
_cell_angle_alpha   108.87550965
_cell_angle_beta   90.00000000
_cell_angle_gamma   107.28788824
_symmetry_Int_Tables_number   1
_chemical_formula_structural   Ba2VP2O9
_chemical_formula_sum   'Ba4 V2 P4 O18'
_cell_volume   448.47071935
_cell_formula_units_Z   2
loop_
 _symmetry_equiv_pos_site_id
 _symmetry_equiv_pos_as_xyz
  1  'x, y, z'
loop_
 _atom_site_type_symbol
 _atom_site_label
 _atom_site_symmetry_multiplicity
 _atom_site_fract_x
 _atom_site_fract_y
 _atom_site_fract_z
 _atom_site_occupancy
  Ba  Ba0  1  0.70855170  0.32653936  0.57817940  1
  Ba  Ba1  1  0.34763013  0.67361924  0.92204522  1
  Ba  Ba2  1  0.67401089  0.32638076  0.07795478  1
  Ba  Ba3  1  0.38201233  0.67346064  0.42182060  1
  V  V4  1  0.96488951  0.00000000  0.00000000  1
  V  V5  1  0.09234624  0.00000000  0.50000000  1
  P  P6  1  0.12976010  0.26152573  0.82370981  1
  P  P7  1  0.92687826  0.73945438  0.67685704  1
  P  P8  1  0.86823437  0.73847427  0.17629019  1
  P  P9  1  0.18742388  0.26054562  0.32314296  1
  O  O10  1  0.06974397  0.88629732  0.81500280  1
  O  O11  1  0.97717609  0.38034250  0.85087176  1
  O  O12  1  0.91480291  0.79368394  0.03718502  1
  O  O13  1  0.12111897  0.20631606  0.96281498  1
  O  O14  1  0.06782548  0.65942675  0.19112914  1
  O  O15  1  0.87642443  0.88616184  0.31431896  1
  O  O16  1  0.64865003  0.66163716  0.69325047  1
  O  O17  1  0.98701287  0.33836284  0.30674953  1
  O  O18  1  0.99026258  0.11383816  0.68568104  1
  O  O19  1  0.13823541  0.20496087  0.46193353  1
  O  O20  1  0.66397584  0.00000000  0.00000000  1
  O  O21  1  0.18344665  0.11370268  0.18499720  1
  O  O22  1  0.93327454  0.79503913  0.53806647  1
  O  O23  1  0.40839873  0.34057325  0.80887086  1
  O  O24  1  0.45825980  0.38039489  0.35249465  1
  O  O25  1  0.07786492  0.61960511  0.64750535  1
  O  O26  1  0.39339579  0.00000000  0.50000000  1
  O  O27  1  0.59683359  0.61965750  0.14912824  1
