# generated using pymatgen
data_KNb(AgSe2)2
_symmetry_space_group_name_H-M   'P 1'
_cell_length_a   6.13859951
_cell_length_b   8.32436306
_cell_length_c   10.44310888
_cell_angle_alpha   90.00000000
_cell_angle_beta   107.09198714
_cell_angle_gamma   90.00000000
_symmetry_Int_Tables_number   1
_chemical_formula_structural   KNb(AgSe2)2
_chemical_formula_sum   'K2 Nb2 Ag4 Se8'
_cell_volume   510.07337185
_cell_formula_units_Z   2
loop_
 _symmetry_equiv_pos_site_id
 _symmetry_equiv_pos_as_xyz
  1  'x, y, z'
loop_
 _atom_site_type_symbol
 _atom_site_label
 _atom_site_symmetry_multiplicity
 _atom_site_fract_x
 _atom_site_fract_y
 _atom_site_fract_z
 _atom_site_occupancy
  K  K0  1  0.83123804  0.25000000  0.36407303  1
  K  K1  1  0.46716501  0.75000000  0.63592697  1
  Nb  Nb2  1  0.99570972  0.75000000  0.22532947  1
  Nb  Nb3  1  0.77038026  0.25000000  0.77467053  1
  Ag  Ag4  1  0.91874985  0.50000000  0.00000000  1
  Ag  Ag5  1  0.91874985  0.00000000  0.00000000  1
  Ag  Ag6  1  0.49749384  0.75000000  0.22918430  1
  Ag  Ag7  1  0.26830954  0.25000000  0.77081570  1
  Se  Se8  1  0.63972589  0.25000000  0.98027452  1
  Se  Se9  1  0.22614880  0.99612559  0.23723737  1
  Se  Se10  1  0.22614880  0.50387441  0.23723737  1
  Se  Se11  1  0.88064343  0.75000000  0.42872072  1
  Se  Se12  1  0.45192271  0.25000000  0.57127928  1
  Se  Se13  1  0.98891144  0.00387441  0.76276263  1
  Se  Se14  1  0.65945137  0.75000000  0.01972548  1
  Se  Se15  1  0.98891144  0.49612559  0.76276263  1
