# generated using pymatgen
data_Sm2B5
_symmetry_space_group_name_H-M   'P 1'
_cell_length_a   7.24964863
_cell_length_b   7.21330347
_cell_length_c   7.22120749
_cell_angle_alpha   90.00000000
_cell_angle_beta   90.00000000
_cell_angle_gamma   102.06412190
_symmetry_Int_Tables_number   1
_chemical_formula_structural   Sm2B5
_chemical_formula_sum   'Sm8 B20'
_cell_volume   369.28510023
_cell_formula_units_Z   4
loop_
 _symmetry_equiv_pos_site_id
 _symmetry_equiv_pos_as_xyz
  1  'x, y, z'
loop_
 _atom_site_type_symbol
 _atom_site_label
 _atom_site_symmetry_multiplicity
 _atom_site_fract_x
 _atom_site_fract_y
 _atom_site_fract_z
 _atom_site_occupancy
  Sm  Sm0  1  0.24288781  0.75878925  0.81559710  1
  Sm  Sm1  1  0.75711219  0.24121075  0.18440290  1
  Sm  Sm2  1  0.74288781  0.75878925  0.68440290  1
  Sm  Sm3  1  0.86876436  0.76629310  0.19143211  1
  Sm  Sm4  1  0.36876436  0.76629310  0.30856789  1
  Sm  Sm5  1  0.25711219  0.24121075  0.31559710  1
  Sm  Sm6  1  0.63123564  0.23370690  0.69143211  1
  Sm  Sm7  1  0.13123564  0.23370690  0.80856789  1
  B  B8  1  0.03958351  0.50253852  0.32737506  1
  B  B9  1  0.82683843  0.49712159  0.46162822  1
  B  B10  1  0.46041649  0.49746148  0.82737506  1
  B  B11  1  0.53958351  0.50253852  0.17262494  1
  B  B12  1  0.41003432  0.50090914  0.58998328  1
  B  B13  1  0.03767810  0.68370320  0.50172811  1
  B  B14  1  0.93107127  0.07844631  0.49244364  1
  B  B15  1  0.96232190  0.31629680  0.49827189  1
  B  B16  1  0.17316157  0.50287841  0.53837178  1
  B  B17  1  0.56892873  0.92155369  0.99244364  1
  B  B18  1  0.06892873  0.92155369  0.50755636  1
  B  B19  1  0.43107127  0.07844631  0.00755636  1
  B  B20  1  0.91003432  0.50090914  0.91001672  1
  B  B21  1  0.58996568  0.49909086  0.41001672  1
  B  B22  1  0.67316157  0.50287841  0.96162822  1
  B  B23  1  0.32683843  0.49712159  0.03837178  1
  B  B24  1  0.46232190  0.31629680  0.00172811  1
  B  B25  1  0.53767810  0.68370320  0.99827189  1
  B  B26  1  0.08996568  0.49909086  0.08998328  1
  B  B27  1  0.96041649  0.49746148  0.67262494  1
