# generated using pymatgen
data_Ca2VBiO6
_symmetry_space_group_name_H-M   'P 1'
_cell_length_a   5.60718244
_cell_length_b   7.53600595
_cell_length_c   7.53600569
_cell_angle_alpha   106.49353293
_cell_angle_beta   90.00000000
_cell_angle_gamma   90.00000000
_symmetry_Int_Tables_number   1
_chemical_formula_structural   Ca2VBiO6
_chemical_formula_sum   'Ca4 V2 Bi2 O12'
_cell_volume   305.33642663
_cell_formula_units_Z   2
loop_
 _symmetry_equiv_pos_site_id
 _symmetry_equiv_pos_as_xyz
  1  'x, y, z'
loop_
 _atom_site_type_symbol
 _atom_site_label
 _atom_site_symmetry_multiplicity
 _atom_site_fract_x
 _atom_site_fract_y
 _atom_site_fract_z
 _atom_site_occupancy
  Ca  Ca0  1  0.75846375  0.69540661  0.90921983  1
  Ca  Ca1  1  0.25846375  0.30459339  0.09078017  1
  Ca  Ca2  1  0.25846375  0.90921983  0.69540661  1
  Ca  Ca3  1  0.75846375  0.09078017  0.30459339  1
  V  V4  1  0.30463159  0.81585901  0.18414099  1
  V  V5  1  0.80463159  0.18414099  0.81585901  1
  Bi  Bi6  1  0.74304149  0.58957342  0.41042658  1
  Bi  Bi7  1  0.24304149  0.41042658  0.58957342  1
  O  O8  1  0.00434423  0.35133235  0.34170959  1
  O  O9  1  0.99185030  0.81613219  0.18386781  1
  O  O10  1  0.42561914  0.59563417  0.09229784  1
  O  O11  1  0.92561914  0.40436583  0.90770216  1
  O  O12  1  0.50434423  0.34170959  0.35133235  1
  O  O13  1  0.43562237  0.94697028  0.05302972  1
  O  O14  1  0.00434423  0.65829041  0.64866765  1
  O  O15  1  0.50434423  0.64866765  0.65829041  1
  O  O16  1  0.93562237  0.05302972  0.94697028  1
  O  O17  1  0.49185030  0.18386781  0.81613219  1
  O  O18  1  0.92561914  0.09229784  0.59563417  1
  O  O19  1  0.42561914  0.90770216  0.40436583  1
