# generated using pymatgen
data_Ce2Ga12Pd
_symmetry_space_group_name_H-M   'P 1'
_cell_length_a   6.12417856
_cell_length_b   6.12417856
_cell_length_c   15.66401779
_cell_angle_alpha   90.00000000
_cell_angle_beta   90.00000000
_cell_angle_gamma   90.00000000
_symmetry_Int_Tables_number   1
_chemical_formula_structural   Ce2Ga12Pd
_chemical_formula_sum   'Ce4 Ga24 Pd2'
_cell_volume   587.48780660
_cell_formula_units_Z   2
loop_
 _symmetry_equiv_pos_site_id
 _symmetry_equiv_pos_as_xyz
  1  'x, y, z'
loop_
 _atom_site_type_symbol
 _atom_site_label
 _atom_site_symmetry_multiplicity
 _atom_site_fract_x
 _atom_site_fract_y
 _atom_site_fract_z
 _atom_site_occupancy
  Ce  Ce0  1  0.25000000  0.75000000  0.24571511  1
  Ce  Ce1  1  0.75000000  0.25000000  0.24571511  1
  Ce  Ce2  1  0.25000000  0.75000000  0.75428489  1
  Ce  Ce3  1  0.75000000  0.25000000  0.75428489  1
  Ga  Ga4  1  0.25000000  0.25000000  0.34088671  1
  Ga  Ga5  1  0.49979552  0.50020448  0.91083415  1
  Ga  Ga6  1  0.57360067  0.42639933  0.57203040  1
  Ga  Ga7  1  0.49979552  0.99979552  0.08916585  1
  Ga  Ga8  1  0.92639933  0.07360067  0.57203040  1
  Ga  Ga9  1  0.25000000  0.25000000  0.81470886  1
  Ga  Ga10  1  0.57360067  0.07360067  0.42796960  1
  Ga  Ga11  1  0.25000000  0.25000000  0.18529114  1
  Ga  Ga12  1  0.75000000  0.75000000  0.34088671  1
  Ga  Ga13  1  0.50020448  0.49979552  0.08916585  1
  Ga  Ga14  1  0.99979552  0.00020448  0.08916585  1
  Ga  Ga15  1  0.25000000  0.25000000  0.65911329  1
  Ga  Ga16  1  0.07360067  0.92639933  0.42796960  1
  Ga  Ga17  1  0.07360067  0.57360067  0.57203040  1
  Ga  Ga18  1  0.75000000  0.75000000  0.18529114  1
  Ga  Ga19  1  0.50020448  0.00020448  0.91083415  1
  Ga  Ga20  1  0.75000000  0.75000000  0.65911329  1
  Ga  Ga21  1  0.00020448  0.99979552  0.91083415  1
  Ga  Ga22  1  0.92639933  0.42639933  0.42796960  1
  Ga  Ga23  1  0.42639933  0.57360067  0.42796960  1
  Ga  Ga24  1  0.75000000  0.75000000  0.81470886  1
  Ga  Ga25  1  0.99979552  0.49979552  0.91083415  1
  Ga  Ga26  1  0.00020448  0.50020448  0.08916585  1
  Ga  Ga27  1  0.42639933  0.92639933  0.57203040  1
  Pd  Pd28  1  0.25000000  0.75000000  0.00000000  1
  Pd  Pd29  1  0.75000000  0.25000000  0.00000000  1
