# generated using pymatgen
data_LiMn3(BO3)3
_symmetry_space_group_name_H-M   'P 1'
_cell_length_a   9.31096658
_cell_length_b   7.93390379
_cell_length_c   5.91996288
_cell_angle_alpha   81.39334175
_cell_angle_beta   77.38766509
_cell_angle_gamma   115.40365898
_symmetry_Int_Tables_number   1
_chemical_formula_structural   LiMn3(BO3)3
_chemical_formula_sum   'Li2 Mn6 B6 O18'
_cell_volume   370.52648732
_cell_formula_units_Z   2
loop_
 _symmetry_equiv_pos_site_id
 _symmetry_equiv_pos_as_xyz
  1  'x, y, z'
loop_
 _atom_site_type_symbol
 _atom_site_label
 _atom_site_symmetry_multiplicity
 _atom_site_fract_x
 _atom_site_fract_y
 _atom_site_fract_z
 _atom_site_occupancy
  Li  Li0  1  0.95490565  0.82917484  0.48736229  1
  Li  Li1  1  0.37842735  0.83749116  0.84597171  1
  Mn  Mn2  1  0.26831540  0.16258008  0.08340188  1
  Mn  Mn3  1  0.41353216  0.21006269  0.52215235  1
  Mn  Mn4  1  0.06501760  0.50408592  0.24993112  1
  Mn  Mn5  1  0.91980084  0.45660331  0.81118065  1
  Mn  Mn6  1  0.58805874  0.80923295  0.44377211  1
  Mn  Mn7  1  0.74527426  0.85743405  0.88956089  1
  B  B8  1  0.93934619  0.12759404  0.13082919  1
  B  B9  1  0.72033059  0.18997716  0.56216982  1
  B  B10  1  0.39398681  0.53907296  0.20250381  1
  B  B11  1  0.61300341  0.47668884  0.77116318  1
  B  B12  1  0.26177667  0.80816771  0.45139604  1
  B  B13  1  0.07155733  0.85849929  0.88193696  1
  O  O14  1  0.02204070  0.04333425  0.22150187  1
  O  O15  1  0.77583514  0.01583702  0.13031092  1
  O  O16  1  0.64157152  0.98763490  0.67596173  1
  O  O17  1  0.32264488  0.33797517  0.29388004  1
  O  O18  1  0.64704783  0.27164610  0.44777238  1
  O  O19  1  0.31129230  0.62333275  0.11183113  1
  O  O20  1  0.88783610  0.30280238  0.55727634  1
  O  O21  1  0.55749886  0.65082898  0.20302208  1
  O  O22  1  0.00781649  0.66123940  0.98892103  1
  O  O23  1  0.01068912  0.32869183  0.03945296  1
  O  O24  1  0.44549690  0.36386462  0.77605666  1
  O  O25  1  0.09486952  0.68364760  0.46065079  1
  O  O26  1  0.68628517  0.39502090  0.88556162  1
  O  O27  1  0.34513296  0.73783407  0.56488376  1
  O  O28  1  0.69176148  0.67903210  0.65737227  1
  O  O29  1  0.32551751  0.00542760  0.34441197  1
  O  O30  1  0.23846448  0.98301940  0.87268321  1
  O  O31  1  0.98820004  0.92883293  0.76844924  1
