# generated using pymatgen
data_Ca2Zn2CuP3
_symmetry_space_group_name_H-M   'P 1'
_cell_length_a   4.04433952
_cell_length_b   4.04433966
_cell_length_c   21.53438310
_cell_angle_alpha   90.00000000
_cell_angle_beta   90.00000000
_cell_angle_gamma   119.99999884
_symmetry_Int_Tables_number   1
_chemical_formula_structural   Ca2Zn2CuP3
_chemical_formula_sum   'Ca4 Zn4 Cu2 P6'
_cell_volume   305.04106002
_cell_formula_units_Z   2
loop_
 _symmetry_equiv_pos_site_id
 _symmetry_equiv_pos_as_xyz
  1  'x, y, z'
loop_
 _atom_site_type_symbol
 _atom_site_label
 _atom_site_symmetry_multiplicity
 _atom_site_fract_x
 _atom_site_fract_y
 _atom_site_fract_z
 _atom_site_occupancy
  Ca  Ca0  1  0.00000000  0.00000000  0.65864706  1
  Ca  Ca1  1  0.00000000  0.00000000  0.34135294  1
  Ca  Ca2  1  0.00000000  0.00000000  0.15864706  1
  Ca  Ca3  1  0.00000000  0.00000000  0.84135294  1
  Zn  Zn4  1  0.33333300  0.66666700  0.95772076  1
  Zn  Zn5  1  0.66666700  0.33333300  0.45772076  1
  Zn  Zn6  1  0.66666700  0.33333300  0.04227924  1
  Zn  Zn7  1  0.33333300  0.66666700  0.54227924  1
  Cu  Cu8  1  0.66666700  0.33333300  0.75000000  1
  Cu  Cu9  1  0.33333300  0.66666700  0.25000000  1
  P  P10  1  0.66666700  0.33333300  0.57556417  1
  P  P11  1  0.33333300  0.66666700  0.42443583  1
  P  P12  1  0.33333300  0.66666700  0.75000000  1
  P  P13  1  0.66666700  0.33333300  0.92443583  1
  P  P14  1  0.33333300  0.66666700  0.07556417  1
  P  P15  1  0.66666700  0.33333300  0.25000000  1
