# generated using pymatgen
data_CNCl
_symmetry_space_group_name_H-M   'P 1'
_cell_length_a   7.65954642
_cell_length_b   7.65954644
_cell_length_c   8.27558327
_cell_angle_alpha   65.75907336
_cell_angle_beta   65.75907326
_cell_angle_gamma   60.06696612
_symmetry_Int_Tables_number   1
_chemical_formula_structural   CNCl
_chemical_formula_sum   'C6 N6 Cl6'
_cell_volume   370.42735682
_cell_formula_units_Z   6
loop_
 _symmetry_equiv_pos_site_id
 _symmetry_equiv_pos_as_xyz
  1  'x, y, z'
loop_
 _atom_site_type_symbol
 _atom_site_label
 _atom_site_symmetry_multiplicity
 _atom_site_fract_x
 _atom_site_fract_y
 _atom_site_fract_z
 _atom_site_occupancy
  C  C0  1  0.84327749  0.15672251  0.25000000  1
  C  C1  1  0.50432951  0.32207929  0.25910443  1
  C  C2  1  0.49567049  0.67792071  0.74089557  1
  C  C3  1  0.67792071  0.49567049  0.24089557  1
  C  C4  1  0.15672251  0.84327749  0.75000000  1
  C  C5  1  0.32207929  0.50432951  0.75910443  1
  N  N6  1  0.50466895  0.49533105  0.75000000  1
  N  N7  1  0.49533105  0.50466895  0.25000000  1
  N  N8  1  0.14229906  0.67232901  0.75929160  1
  N  N9  1  0.85770094  0.32767099  0.24070840  1
  N  N10  1  0.67232901  0.14229906  0.25929160  1
  N  N11  1  0.32767099  0.85770094  0.74070840  1
  Cl  Cl12  1  0.06652982  0.93347018  0.25000000  1
  Cl  Cl13  1  0.93347018  0.06652982  0.75000000  1
  Cl  Cl14  1  0.31927819  0.27728462  0.77046799  1
  Cl  Cl15  1  0.72271538  0.68072181  0.72953201  1
  Cl  Cl16  1  0.68072181  0.72271538  0.22953201  1
  Cl  Cl17  1  0.27728462  0.31927819  0.27046799  1
