# generated using pymatgen
data_Hf(SeCl6)2
_symmetry_space_group_name_H-M   'P 1'
_cell_length_a   9.00547740
_cell_length_b   9.00547775
_cell_length_c   12.86770191
_cell_angle_alpha   109.12612237
_cell_angle_beta   109.12612306
_cell_angle_gamma   93.65003604
_symmetry_Int_Tables_number   1
_chemical_formula_structural   Hf(SeCl6)2
_chemical_formula_sum   'Hf2 Se4 Cl24'
_cell_volume   914.26858323
_cell_formula_units_Z   2
loop_
 _symmetry_equiv_pos_site_id
 _symmetry_equiv_pos_as_xyz
  1  'x, y, z'
loop_
 _atom_site_type_symbol
 _atom_site_label
 _atom_site_symmetry_multiplicity
 _atom_site_fract_x
 _atom_site_fract_y
 _atom_site_fract_z
 _atom_site_occupancy
  Hf  Hf0  1  0.62628000  0.12628000  0.25256000  1
  Hf  Hf1  1  0.37628000  0.37628000  0.75256000  1
  Se  Se2  1  0.56261347  0.01375307  0.58891344  1
  Se  Se3  1  0.26375307  0.31261347  0.08891344  1
  Se  Se4  1  0.02629997  0.57516037  0.58891344  1
  Se  Se5  1  0.82516037  0.77629997  0.08891344  1
  Cl  Cl6  1  0.83016025  0.53561256  0.09603150  1
  Cl  Cl7  1  0.10476418  0.41581190  0.74649410  1
  Cl  Cl8  1  0.99684786  0.67059309  0.44680998  1
  Cl  Cl9  1  0.50219169  0.64415918  0.90155438  1
  Cl  Cl10  1  0.26977384  0.10401634  0.59553584  1
  Cl  Cl11  1  0.35401634  0.01977384  0.09553584  1
  Cl  Cl12  1  0.74151950  0.07576200  0.09553584  1
  Cl  Cl13  1  0.39936270  0.25739521  0.90155438  1
  Cl  Cl14  1  0.32576200  0.49151950  0.59553584  1
  Cl  Cl15  1  0.44996212  0.77621689  0.44680998  1
  Cl  Cl16  1  0.05289280  0.89693165  0.23658076  1
  Cl  Cl17  1  0.02621689  0.19996212  0.94680998  1
  Cl  Cl18  1  0.50739521  0.14936270  0.40155438  1
  Cl  Cl19  1  0.89415918  0.25219169  0.40155438  1
  Cl  Cl20  1  0.58068221  0.39172992  0.24649410  1
  Cl  Cl21  1  0.92059309  0.74684786  0.94680998  1
  Cl  Cl22  1  0.14693165  0.80289280  0.73658076  1
  Cl  Cl23  1  0.18368796  0.33964910  0.23658076  1
  Cl  Cl24  1  0.81041895  0.01587125  0.59603150  1
  Cl  Cl25  1  0.78561256  0.58016025  0.59603150  1
  Cl  Cl26  1  0.64172992  0.33068221  0.74649410  1
  Cl  Cl27  1  0.26587125  0.56041895  0.09603150  1
  Cl  Cl28  1  0.66581190  0.85476418  0.24649410  1
  Cl  Cl29  1  0.58964910  0.93368796  0.73658076  1
