# generated using pymatgen
data_Li3Bi(PO4)2
_symmetry_space_group_name_H-M   'P 1'
_cell_length_a   9.52471434
_cell_length_b   5.34843418
_cell_length_c   6.75749913
_cell_angle_alpha   90.00000000
_cell_angle_beta   96.10016392
_cell_angle_gamma   90.00000000
_symmetry_Int_Tables_number   1
_chemical_formula_structural   Li3Bi(PO4)2
_chemical_formula_sum   'Li6 Bi2 P4 O16'
_cell_volume   342.29337487
_cell_formula_units_Z   2
loop_
 _symmetry_equiv_pos_site_id
 _symmetry_equiv_pos_as_xyz
  1  'x, y, z'
loop_
 _atom_site_type_symbol
 _atom_site_label
 _atom_site_symmetry_multiplicity
 _atom_site_fract_x
 _atom_site_fract_y
 _atom_site_fract_z
 _atom_site_occupancy
  Li  Li0  1  0.04748820  0.75000000  0.30359782  1
  Li  Li1  1  0.22938183  0.25000000  0.53006766  1
  Li  Li2  1  0.46321759  0.75000000  0.73908931  1
  Li  Li3  1  0.53678241  0.25000000  0.26091069  1
  Li  Li4  1  0.77061817  0.75000000  0.46993234  1
  Li  Li5  1  0.95251180  0.25000000  0.69640218  1
  Bi  Bi6  1  0.23390296  0.25000000  0.98767247  1
  Bi  Bi7  1  0.76609704  0.75000000  0.01232753  1
  P  P8  1  0.05167077  0.75000000  0.78553844  1
  P  P9  1  0.44320916  0.75000000  0.26882889  1
  P  P10  1  0.55679084  0.25000000  0.73117111  1
  P  P11  1  0.94832923  0.25000000  0.21446156  1
  O  O12  1  0.08317643  0.75000000  0.01562890  1
  O  O13  1  0.11302969  0.25000000  0.27672744  1
  O  O14  1  0.11224195  0.50903364  0.69687149  1
  O  O15  1  0.11224195  0.99096636  0.69687149  1
  O  O16  1  0.39390886  0.50824568  0.15015563  1
  O  O17  1  0.39390886  0.99175432  0.15015563  1
  O  O18  1  0.39041919  0.75000000  0.47345226  1
  O  O19  1  0.39161854  0.25000000  0.72595354  1
  O  O20  1  0.60838146  0.75000000  0.27404646  1
  O  O21  1  0.60958081  0.25000000  0.52654774  1
  O  O22  1  0.60609114  0.00824568  0.84984437  1
  O  O23  1  0.60609114  0.49175432  0.84984437  1
  O  O24  1  0.88775805  0.00903364  0.30312851  1
  O  O25  1  0.88775805  0.49096636  0.30312851  1
  O  O26  1  0.88697031  0.75000000  0.72327256  1
  O  O27  1  0.91682357  0.25000000  0.98437110  1
