# generated using pymatgen
data_Pr3CuGeSe7
_symmetry_space_group_name_H-M   'P 1'
_cell_length_a   10.70549771
_cell_length_b   10.70549750
_cell_length_c   6.18185454
_cell_angle_alpha   90.00000000
_cell_angle_beta   90.00000000
_cell_angle_gamma   120.00000066
_symmetry_Int_Tables_number   1
_chemical_formula_structural   Pr3CuGeSe7
_chemical_formula_sum   'Pr6 Cu2 Ge2 Se14'
_cell_volume   613.56860245
_cell_formula_units_Z   2
loop_
 _symmetry_equiv_pos_site_id
 _symmetry_equiv_pos_as_xyz
  1  'x, y, z'
loop_
 _atom_site_type_symbol
 _atom_site_label
 _atom_site_symmetry_multiplicity
 _atom_site_fract_x
 _atom_site_fract_y
 _atom_site_fract_z
 _atom_site_occupancy
  Pr  Pr0  1  0.13037909  0.35544878  0.74848396  1
  Pr  Pr1  1  0.22506969  0.86962091  0.74848396  1
  Pr  Pr2  1  0.64455122  0.77493031  0.74848396  1
  Pr  Pr3  1  0.35544878  0.22506969  0.24848396  1
  Pr  Pr4  1  0.77493031  0.13037909  0.24848396  1
  Pr  Pr5  1  0.86962091  0.64455122  0.24848396  1
  Cu  Cu6  1  0.00000000  0.00000000  0.21702540  1
  Cu  Cu7  1  0.00000000  0.00000000  0.71702540  1
  Ge  Ge8  1  0.66666700  0.33333300  0.83213059  1
  Ge  Ge9  1  0.33333300  0.66666700  0.33213059  1
  Se  Se10  1  0.16155011  0.90585018  0.23014418  1
  Se  Se11  1  0.25569993  0.16155011  0.73014418  1
  Se  Se12  1  0.51922775  0.09886974  0.98943829  1
  Se  Se13  1  0.33333300  0.66666700  0.95044474  1
  Se  Se14  1  0.90585018  0.74430007  0.73014418  1
  Se  Se15  1  0.66666700  0.33333300  0.45044474  1
  Se  Se16  1  0.57964199  0.48077225  0.98943829  1
  Se  Se17  1  0.09886974  0.57964199  0.48943829  1
  Se  Se18  1  0.42035801  0.51922775  0.48943829  1
  Se  Se19  1  0.74430007  0.83844989  0.23014418  1
  Se  Se20  1  0.90113026  0.42035801  0.98943829  1
  Se  Se21  1  0.83844989  0.09414982  0.73014418  1
  Se  Se22  1  0.09414982  0.25569993  0.23014418  1
  Se  Se23  1  0.48077225  0.90113026  0.48943829  1
