# generated using pymatgen
data_Nd12C6I17
_symmetry_space_group_name_H-M   'P 1'
_cell_length_a   11.93452306
_cell_length_b   11.93452319
_cell_length_c   19.35605278
_cell_angle_alpha   89.25034137
_cell_angle_beta   89.25034135
_cell_angle_gamma   63.97618075
_symmetry_Int_Tables_number   1
_chemical_formula_structural   Nd12C6I17
_chemical_formula_sum   'Nd24 C12 I34'
_cell_volume   2477.12168919
_cell_formula_units_Z   2
loop_
 _symmetry_equiv_pos_site_id
 _symmetry_equiv_pos_as_xyz
  1  'x, y, z'
loop_
 _atom_site_type_symbol
 _atom_site_label
 _atom_site_symmetry_multiplicity
 _atom_site_fract_x
 _atom_site_fract_y
 _atom_site_fract_z
 _atom_site_occupancy
  Nd  Nd0  1  0.07677735  0.01968238  0.15227175  1
  Nd  Nd1  1  0.66194988  0.19210827  0.71134700  1
  Nd  Nd2  1  0.29704673  0.70964754  0.02098812  1
  Nd  Nd3  1  0.33805012  0.80789173  0.28865300  1
  Nd  Nd4  1  0.42325608  0.89784324  0.11698324  1
  Nd  Nd5  1  0.10215676  0.57674392  0.38301676  1
  Nd  Nd6  1  0.35946933  0.35825373  0.05017268  1
  Nd  Nd7  1  0.64053067  0.64174627  0.94982732  1
  Nd  Nd8  1  0.89784324  0.42325608  0.61698324  1
  Nd  Nd9  1  0.53383262  0.54823294  0.62759555  1
  Nd  Nd10  1  0.54823294  0.53383262  0.12759555  1
  Nd  Nd11  1  0.01968238  0.07677735  0.65227175  1
  Nd  Nd12  1  0.35825373  0.35946933  0.55017268  1
  Nd  Nd13  1  0.80789173  0.33805012  0.78865300  1
  Nd  Nd14  1  0.57674392  0.10215676  0.88301676  1
  Nd  Nd15  1  0.29035246  0.70295327  0.47901188  1
  Nd  Nd16  1  0.70964754  0.29704673  0.52098812  1
  Nd  Nd17  1  0.92322265  0.98031762  0.84772825  1
  Nd  Nd18  1  0.64174627  0.64053067  0.44982732  1
  Nd  Nd19  1  0.46616738  0.45176706  0.37240445  1
  Nd  Nd20  1  0.98031762  0.92322265  0.34772825  1
  Nd  Nd21  1  0.19210827  0.66194988  0.21134700  1
  Nd  Nd22  1  0.70295327  0.29035246  0.97901188  1
  Nd  Nd23  1  0.45176706  0.46616738  0.87240445  1
  C  C24  1  0.46671074  0.46801075  0.51168056  1
  C  C25  1  0.53198925  0.53328926  0.98831944  1
  C  C26  1  0.83124583  0.25615232  0.65295915  1
  C  C27  1  0.53328926  0.53198925  0.48831944  1
  C  C28  1  0.71980735  0.36616681  0.64982607  1
  C  C29  1  0.63383319  0.28019265  0.85017393  1
  C  C30  1  0.74384768  0.16875417  0.84704085  1
  C  C31  1  0.46801075  0.46671074  0.01168056  1
  C  C32  1  0.16875417  0.74384768  0.34704085  1
  C  C33  1  0.25615232  0.83124583  0.15295915  1
  C  C34  1  0.28019265  0.63383319  0.35017393  1
  C  C35  1  0.36616681  0.71980735  0.14982607  1
  I  I36  1  0.60252827  0.09541906  0.04872025  1
  I  I37  1  0.82012079  0.78738510  0.39892363  1
  I  I38  1  0.10516610  0.60246233  0.06011545  1
  I  I39  1  0.00000000  0.00000000  0.00000000  1
  I  I40  1  0.39747173  0.90458094  0.95127975  1
  I  I41  1  0.28353170  0.80666574  0.63750266  1
  I  I42  1  0.50182741  0.03388441  0.74625669  1
  I  I43  1  0.90655752  0.88796541  0.19690730  1
  I  I44  1  0.90458094  0.39747173  0.45127975  1
  I  I45  1  0.71646830  0.19333426  0.36249734  1
  I  I46  1  0.62585858  0.57617343  0.29201748  1
  I  I47  1  0.49817259  0.96611559  0.25374331  1
  I  I48  1  0.09541906  0.60252827  0.54872025  1
  I  I49  1  0.60246233  0.10516610  0.56011545  1
  I  I50  1  0.57617343  0.62585858  0.79201748  1
  I  I51  1  0.11203459  0.09344248  0.30309270  1
  I  I52  1  0.39753767  0.89483390  0.43988455  1
  I  I53  1  0.03388441  0.50182741  0.24625669  1
  I  I54  1  0.78738510  0.82012079  0.89892363  1
  I  I55  1  0.89483390  0.39753767  0.93988455  1
  I  I56  1  0.80666574  0.28353170  0.13750266  1
  I  I57  1  0.29167951  0.31010404  0.89978765  1
  I  I58  1  0.96611559  0.49817259  0.75374331  1
  I  I59  1  0.17987921  0.21261490  0.60107637  1
  I  I60  1  0.70832049  0.68989596  0.10021235  1
  I  I61  1  0.37414142  0.42382657  0.70798252  1
  I  I62  1  0.21261490  0.17987921  0.10107637  1
  I  I63  1  0.31010404  0.29167951  0.39978765  1
  I  I64  1  0.19333426  0.71646830  0.86249734  1
  I  I65  1  0.68989596  0.70832049  0.60021235  1
  I  I66  1  0.09344248  0.11203459  0.80309270  1
  I  I67  1  0.88796541  0.90655752  0.69690730  1
  I  I68  1  0.42382657  0.37414142  0.20798252  1
  I  I69  1  0.00000000  0.00000000  0.50000000  1
