# generated using pymatgen
data_LiMn3(BO3)3
_symmetry_space_group_name_H-M   'P 1'
_cell_length_a   5.78512772
_cell_length_b   5.33488366
_cell_length_c   12.45207719
_cell_angle_alpha   75.50759900
_cell_angle_beta   92.44586295
_cell_angle_gamma   88.52120085
_symmetry_Int_Tables_number   1
_chemical_formula_structural   LiMn3(BO3)3
_chemical_formula_sum   'Li2 Mn6 B6 O18'
_cell_volume   371.47636404
_cell_formula_units_Z   2
loop_
 _symmetry_equiv_pos_site_id
 _symmetry_equiv_pos_as_xyz
  1  'x, y, z'
loop_
 _atom_site_type_symbol
 _atom_site_label
 _atom_site_symmetry_multiplicity
 _atom_site_fract_x
 _atom_site_fract_y
 _atom_site_fract_z
 _atom_site_occupancy
  Li  Li0  1  0.18885728  0.09159867  0.48322654  1
  Li  Li1  1  0.85644219  0.41853586  0.81824586  1
  Mn  Mn2  1  0.03528648  0.94894229  0.71517092  1
  Mn  Mn3  1  0.30814202  0.73221401  0.95032243  1
  Mn  Mn4  1  0.36513323  0.62578325  0.37227317  1
  Mn  Mn5  1  0.63675739  0.39225227  0.60709986  1
  Mn  Mn6  1  0.67977711  0.25626516  0.05466074  1
  Mn  Mn7  1  0.95953213  0.05269302  0.28207570  1
  B  B8  1  0.14380340  0.51924719  0.60843723  1
  B  B9  1  0.18560206  0.14487962  0.05754708  1
  B  B10  1  0.46615161  0.19239551  0.27641786  1
  B  B11  1  0.53808431  0.80882720  0.72940371  1
  B  B12  1  0.80475850  0.85840989  0.93751830  1
  B  B13  1  0.86635158  0.48202784  0.39103309  1
  O  O14  1  0.02798401  0.65478238  0.33692768  1
  O  O15  1  0.00460866  0.24011881  0.11010695  1
  O  O16  1  0.13269763  0.78153063  0.59943204  1
  O  O17  1  0.20209585  0.88885594  0.06153070  1
  O  O18  1  0.28572003  0.41530290  0.54070226  1
  O  O19  1  0.33027526  0.02043844  0.34890187  1
  O  O20  1  0.34838906  0.32047482  0.00765993  1
  O  O21  1  0.35248207  0.90317591  0.78072714  1
  O  O22  1  0.45314263  0.45117538  0.26500456  1
  O  O23  1  0.57007523  0.55466328  0.73653909  1
  O  O24  1  0.61397323  0.09273007  0.20967787  1
  O  O25  1  0.64264912  0.68492367  0.98772021  1
  O  O26  1  0.69747184  0.99272637  0.68069414  1
  O  O27  1  0.68254897  0.59061695  0.43784271  1
  O  O28  1  0.79086423  0.11748047  0.93039018  1
  O  O29  1  0.89319757  0.22206501  0.40767465  1
  O  O30  1  0.97990965  0.74982363  0.88384055  1
  O  O31  1  0.00444465  0.35287457  0.68101595  1
