# generated using pymatgen
data_TaAgS3
_symmetry_space_group_name_H-M   'P 1'
_cell_length_a   3.39209522
_cell_length_b   7.37772219
_cell_length_c   7.78599523
_cell_angle_alpha   90.00000000
_cell_angle_beta   90.00000000
_cell_angle_gamma   103.29046046
_symmetry_Int_Tables_number   1
_chemical_formula_structural   TaAgS3
_chemical_formula_sum   'Ta2 Ag2 S6'
_cell_volume   189.63313492
_cell_formula_units_Z   2
loop_
 _symmetry_equiv_pos_site_id
 _symmetry_equiv_pos_as_xyz
  1  'x, y, z'
loop_
 _atom_site_type_symbol
 _atom_site_label
 _atom_site_symmetry_multiplicity
 _atom_site_fract_x
 _atom_site_fract_y
 _atom_site_fract_z
 _atom_site_occupancy
  S  S0  1  0.67460160  0.34920321  0.92964754  1
  S  S1  1  0.32539840  0.65079679  0.07035246  1
  S  S2  1  0.32539840  0.65079679  0.42964754  1
  S  S3  1  0.67460160  0.34920321  0.57035246  1
  S  S4  1  0.89569580  0.79139161  0.75000000  1
  S  S5  1  0.10430420  0.20860839  0.25000000  1
  Ag  Ag6  1  0.00000000  0.00000000  0.50000000  1
  Ag  Ag7  1  0.00000000  0.00000000  0.00000000  1
  Ta  Ta8  1  0.26301048  0.52602095  0.75000000  1
  Ta  Ta9  1  0.73698952  0.47397905  0.25000000  1
