# generated using pymatgen
data_Ca3Cu3(PO4)4
_symmetry_space_group_name_H-M   'P 1'
_cell_length_a   4.96732362
_cell_length_b   9.02638958
_cell_length_c   14.79860186
_cell_angle_alpha   94.88637364
_cell_angle_beta   90.00000000
_cell_angle_gamma   90.00000000
_symmetry_Int_Tables_number   1
_chemical_formula_structural   Ca3Cu3(PO4)4
_chemical_formula_sum   'Ca6 Cu6 P8 O32'
_cell_volume   661.11335754
_cell_formula_units_Z   2
loop_
 _symmetry_equiv_pos_site_id
 _symmetry_equiv_pos_as_xyz
  1  'x, y, z'
loop_
 _atom_site_type_symbol
 _atom_site_label
 _atom_site_symmetry_multiplicity
 _atom_site_fract_x
 _atom_site_fract_y
 _atom_site_fract_z
 _atom_site_occupancy
  O  O0  1  0.54095610  0.91967822  0.24009919  1
  O  O1  1  0.04095610  0.58032178  0.25990081  1
  O  O2  1  0.45904390  0.08032178  0.75990081  1
  O  O3  1  0.95904390  0.41967822  0.74009919  1
  O  O4  1  0.32117754  0.39154528  0.85713734  1
  O  O5  1  0.82117754  0.10845472  0.64286266  1
  O  O6  1  0.67882246  0.60845472  0.14286266  1
  O  O7  1  0.17882246  0.89154528  0.35713734  1
  O  O8  1  0.57698528  0.71386146  0.34999855  1
  O  O9  1  0.07698528  0.78613854  0.15000145  1
  O  O10  1  0.42301472  0.28613854  0.65000145  1
  O  O11  1  0.92301472  0.21386146  0.84999855  1
  O  O12  1  0.64858492  0.99160351  0.39962238  1
  O  O13  1  0.14858492  0.50839649  0.10037762  1
  O  O14  1  0.35141508  0.00839649  0.60037762  1
  O  O15  1  0.85141508  0.49160351  0.89962238  1
  O  O16  1  0.69173816  0.01088657  0.08225850  1
  O  O17  1  0.19173816  0.48911343  0.41774150  1
  O  O18  1  0.30826184  0.98911343  0.91774150  1
  O  O19  1  0.80826184  0.51088657  0.58225850  1
  O  O20  1  0.90650063  0.74751505  0.68040435  1
  O  O21  1  0.40650063  0.75248495  0.81959565  1
  O  O22  1  0.09349937  0.25248495  0.31959565  1
  O  O23  1  0.59349937  0.24751505  0.18040435  1
  O  O24  1  0.55544884  0.24432033  0.00907640  1
  O  O25  1  0.05544884  0.25567967  0.49092360  1
  O  O26  1  0.44455116  0.75567967  0.99092360  1
  O  O27  1  0.94455116  0.74432033  0.50907640  1
  O  O28  1  0.28894382  0.60269361  0.60041926  1
  O  O29  1  0.78894382  0.89730639  0.89958074  1
  O  O30  1  0.71105618  0.39730639  0.39958074  1
  O  O31  1  0.21105618  0.10269361  0.10041926  1
  P  P32  1  0.48747783  0.87769205  0.34010379  1
  P  P33  1  0.98747783  0.62230795  0.15989621  1
  P  P34  1  0.51252217  0.12230795  0.65989621  1
  P  P35  1  0.01252217  0.37769205  0.84010379  1
  P  P36  1  0.50877271  0.15730163  0.09365320  1
  P  P37  1  0.00877271  0.34269837  0.40634680  1
  P  P38  1  0.49122729  0.84269837  0.90634680  1
  P  P39  1  0.99122729  0.65730163  0.59365320  1
  Ca  Ca40  1  0.03028081  0.96453623  0.76532848  1
  Ca  Ca41  1  0.53028081  0.53546377  0.73467152  1
  Ca  Ca42  1  0.96971919  0.03546377  0.23467152  1
  Ca  Ca43  1  0.46971919  0.46453623  0.26532848  1
  Ca  Ca44  1  0.50000000  0.50000000  0.00000000  1
  Ca  Ca45  1  0.00000000  0.00000000  0.50000000  1
  Cu  Cu46  1  0.03045716  0.32805362  0.62007265  1
  Cu  Cu47  1  0.53045716  0.17194638  0.87992735  1
  Cu  Cu48  1  0.96954284  0.67194638  0.37992735  1
  Cu  Cu49  1  0.46954284  0.82805362  0.12007265  1
  Cu  Cu50  1  0.50000000  0.50000000  0.50000000  1
  Cu  Cu51  1  0.00000000  0.00000000  0.00000000  1
