# generated using pymatgen
data_RbLiSO4
_symmetry_space_group_name_H-M   'P 1'
_cell_length_a   5.36733148
_cell_length_b   8.89412357
_cell_length_c   9.26906084
_cell_angle_alpha   90.00000000
_cell_angle_beta   89.98929462
_cell_angle_gamma   90.00000000
_symmetry_Int_Tables_number   1
_chemical_formula_structural   RbLiSO4
_chemical_formula_sum   'Rb4 Li4 S4 O16'
_cell_volume   442.48372561
_cell_formula_units_Z   4
loop_
 _symmetry_equiv_pos_site_id
 _symmetry_equiv_pos_as_xyz
  1  'x, y, z'
loop_
 _atom_site_type_symbol
 _atom_site_label
 _atom_site_symmetry_multiplicity
 _atom_site_fract_x
 _atom_site_fract_y
 _atom_site_fract_z
 _atom_site_occupancy
  Li  Li0  1  0.25695828  0.67857681  0.59029672  1
  Li  Li1  1  0.75695828  0.82142319  0.09029672  1
  Li  Li2  1  0.74304172  0.32142319  0.40970328  1
  Li  Li3  1  0.24304172  0.17857681  0.90970328  1
  O  O4  1  0.91838862  0.74759344  0.54713550  1
  O  O5  1  0.41838862  0.75240656  0.04713550  1
  O  O6  1  0.08161138  0.25240656  0.45286450  1
  O  O7  1  0.58161138  0.24759344  0.95286450  1
  O  O8  1  0.85697939  0.77454203  0.28835837  1
  O  O9  1  0.64302061  0.27454203  0.21164163  1
  O  O10  1  0.14302061  0.22545797  0.71164163  1
  O  O11  1  0.35697939  0.72545797  0.78835837  1
  O  O12  1  0.24538066  0.95958455  0.90625847  1
  O  O13  1  0.25461934  0.45958455  0.59374153  1
  O  O14  1  0.75461934  0.04041545  0.09374153  1
  O  O15  1  0.74538066  0.54041545  0.40625847  1
  O  O16  1  0.99764147  0.73465568  0.95056266  1
  O  O17  1  0.50235853  0.23465568  0.54943734  1
  O  O18  1  0.00235853  0.26534432  0.04943734  1
  O  O19  1  0.49764147  0.76534432  0.45056266  1
  S  S20  1  0.75435668  0.70642618  0.42271746  1
  S  S21  1  0.74564332  0.20642618  0.07728254  1
  S  S22  1  0.24564332  0.29357382  0.57728254  1
  S  S23  1  0.25435668  0.79357382  0.92271746  1
  Rb  Rb24  1  0.23371583  0.50438798  0.22438398  1
  Rb  Rb25  1  0.26628417  0.00438798  0.27561602  1
  Rb  Rb26  1  0.76628417  0.49561202  0.77561602  1
  Rb  Rb27  1  0.73371583  0.99561202  0.72438398  1
