# generated using pymatgen
data_AlC3(NCl2)3
_symmetry_space_group_name_H-M   'P 1'
_cell_length_a   7.45895305
_cell_length_b   9.93290340
_cell_length_c   16.43658065
_cell_angle_alpha   73.07785052
_cell_angle_beta   89.90098914
_cell_angle_gamma   87.20462719
_symmetry_Int_Tables_number   1
_chemical_formula_structural   AlC3(NCl2)3
_chemical_formula_sum   'Al4 C12 N12 Cl24'
_cell_volume   1163.55736009
_cell_formula_units_Z   4
loop_
 _symmetry_equiv_pos_site_id
 _symmetry_equiv_pos_as_xyz
  1  'x, y, z'
loop_
 _atom_site_type_symbol
 _atom_site_label
 _atom_site_symmetry_multiplicity
 _atom_site_fract_x
 _atom_site_fract_y
 _atom_site_fract_z
 _atom_site_occupancy
  Al  Al0  1  0.44793512  0.82605900  0.41374643  1
  Al  Al1  1  0.05368872  0.17017993  0.85222311  1
  Al  Al2  1  0.55206488  0.17394100  0.58625357  1
  Al  Al3  1  0.94631128  0.82982007  0.14777689  1
  C  C4  1  0.50129859  0.29659298  0.39465297  1
  C  C5  1  0.23814266  0.29787527  0.46500313  1
  C  C6  1  0.26176018  0.67523310  0.93873123  1
  C  C7  1  0.73938061  0.29961197  0.92986477  1
  C  C8  1  0.73823982  0.32476690  0.06126877  1
  C  C9  1  0.76234914  0.68312198  0.67420381  1
  C  C10  1  0.49870141  0.70340702  0.60534703  1
  C  C11  1  0.00199735  0.29534445  0.00112346  1
  C  C12  1  0.76185734  0.70212473  0.53499687  1
  C  C13  1  0.99800265  0.70465555  0.99887654  1
  C  C14  1  0.26061939  0.70038803  0.07013523  1
  C  C15  1  0.23765086  0.31687802  0.32579619  1
  N  N16  1  0.41644974  0.31874861  0.32105318  1
  N  N17  1  0.58040211  0.73282976  0.52787766  1
  N  N18  1  0.41959789  0.26717024  0.47212234  1
  N  N19  1  0.92062248  0.26656604  0.93409978  1
  N  N20  1  0.91794572  0.32248870  0.06586315  1
  N  N21  1  0.08205428  0.67751130  0.93413685  1
  N  N22  1  0.14253576  0.32013927  0.39438500  1
  N  N23  1  0.85746424  0.67986073  0.60561500  1
  N  N24  1  0.64422474  0.32668122  0.99175937  1
  N  N25  1  0.35577526  0.67331878  0.00824063  1
  N  N26  1  0.58355026  0.68125139  0.67894682  1
  N  N27  1  0.07937752  0.73343396  0.06590022  1
  Cl  Cl28  1  0.23274392  0.96049018  0.43737140  1
  Cl  Cl29  1  0.36861935  0.68788159  0.16220418  1
  Cl  Cl30  1  0.63138065  0.31211841  0.83779582  1
  Cl  Cl31  1  0.37755058  0.66909192  0.85117983  1
  Cl  Cl32  1  0.87463160  0.03692630  0.81580089  1
  Cl  Cl33  1  0.62244942  0.33090808  0.14882017  1
  Cl  Cl34  1  0.62263294  0.96010035  0.32769918  1
  Cl  Cl35  1  0.77197125  0.69608935  0.99974027  1
  Cl  Cl36  1  0.36496850  0.64486207  0.38080293  1
  Cl  Cl37  1  0.72545049  0.31217083  0.39163516  1
  Cl  Cl38  1  0.37736706  0.03989965  0.67230082  1
  Cl  Cl39  1  0.63503150  0.35513793  0.61919707  1
  Cl  Cl40  1  0.26616859  0.03384361  0.92434997  1
  Cl  Cl41  1  0.87811543  0.68401742  0.76264130  1
  Cl  Cl42  1  0.27454951  0.68782917  0.60836484  1
  Cl  Cl43  1  0.76725608  0.03950982  0.56262860  1
  Cl  Cl44  1  0.86928910  0.68670334  0.44761028  1
  Cl  Cl45  1  0.12188457  0.31598258  0.23735870  1
  Cl  Cl46  1  0.13732246  0.35187158  0.75766918  1
  Cl  Cl47  1  0.13071090  0.31329666  0.55238972  1
  Cl  Cl48  1  0.73383141  0.96615639  0.07565003  1
  Cl  Cl49  1  0.22802875  0.30391065  0.00025973  1
  Cl  Cl50  1  0.12536840  0.96307370  0.18419911  1
  Cl  Cl51  1  0.86267754  0.64812842  0.24233082  1
