# generated using pymatgen
data_SrSi2(BO4)2
_symmetry_space_group_name_H-M   'P 1'
_cell_length_a   7.98620221
_cell_length_b   8.28775746
_cell_length_c   9.03232393
_cell_angle_alpha   90.00000000
_cell_angle_beta   90.00000000
_cell_angle_gamma   90.00000000
_symmetry_Int_Tables_number   1
_chemical_formula_structural   SrSi2(BO4)2
_chemical_formula_sum   'Sr4 Si8 B8 O32'
_cell_volume   597.82880929
_cell_formula_units_Z   4
loop_
 _symmetry_equiv_pos_site_id
 _symmetry_equiv_pos_as_xyz
  1  'x, y, z'
loop_
 _atom_site_type_symbol
 _atom_site_label
 _atom_site_symmetry_multiplicity
 _atom_site_fract_x
 _atom_site_fract_y
 _atom_site_fract_z
 _atom_site_occupancy
  B  B0  1  0.91852021  0.73265428  0.58536578  1
  B  B1  1  0.91852021  0.23265428  0.91463422  1
  B  B2  1  0.41852021  0.76734572  0.08536578  1
  B  B3  1  0.58147979  0.73265428  0.58536578  1
  B  B4  1  0.08147979  0.26734572  0.41463422  1
  B  B5  1  0.41852021  0.26734572  0.41463422  1
  B  B6  1  0.58147979  0.23265428  0.91463422  1
  B  B7  1  0.08147979  0.76734572  0.08536578  1
  O  O8  1  0.25000000  0.69907037  0.08546080  1
  O  O9  1  0.75000000  0.80092963  0.58546080  1
  O  O10  1  0.25000000  0.19907037  0.41453920  1
  O  O11  1  0.75000000  0.30092963  0.91453920  1
  O  O12  1  0.75000000  0.99677062  0.17390198  1
  O  O13  1  0.25000000  0.00322938  0.82609802  1
  O  O14  1  0.75000000  0.49677062  0.32609802  1
  O  O15  1  0.25000000  0.50322938  0.67390198  1
  O  O16  1  0.92807817  0.08953449  0.81881506  1
  O  O17  1  0.42807817  0.91046551  0.18118494  1
  O  O18  1  0.57192183  0.58953449  0.68118494  1
  O  O19  1  0.07192183  0.41046551  0.31881506  1
  O  O20  1  0.01335182  0.80190320  0.93466139  1
  O  O21  1  0.51335182  0.19809680  0.06533861  1
  O  O22  1  0.48664818  0.30190320  0.56533861  1
  O  O23  1  0.98664818  0.69809680  0.43466139  1
  O  O24  1  0.98664818  0.19809680  0.06533861  1
  O  O25  1  0.48664818  0.80190320  0.93466139  1
  O  O26  1  0.51335182  0.69809680  0.43466139  1
  O  O27  1  0.01335182  0.30190320  0.56533861  1
  O  O28  1  0.03430888  0.86387521  0.64164340  1
  O  O29  1  0.53430888  0.13612479  0.35835660  1
  O  O30  1  0.46569112  0.36387521  0.85835660  1
  O  O31  1  0.96569112  0.63612479  0.14164340  1
  O  O32  1  0.96569112  0.13612479  0.35835660  1
  O  O33  1  0.46569112  0.86387521  0.64164340  1
  O  O34  1  0.53430888  0.63612479  0.14164340  1
  O  O35  1  0.03430888  0.36387521  0.85835660  1
  O  O36  1  0.92807817  0.58953449  0.68118494  1
  O  O37  1  0.42807817  0.41046551  0.31881506  1
  O  O38  1  0.57192183  0.08953449  0.81881506  1
  O  O39  1  0.07192183  0.91046551  0.18118494  1
  Si  Si40  1  0.05767786  0.43748561  0.69069217  1
  Si  Si41  1  0.55767786  0.56251439  0.30930783  1
  Si  Si42  1  0.44232214  0.93748561  0.80930783  1
  Si  Si43  1  0.94232214  0.06251439  0.19069217  1
  Si  Si44  1  0.94232214  0.56251439  0.30930783  1
  Si  Si45  1  0.44232214  0.43748561  0.69069217  1
  Si  Si46  1  0.55767786  0.06251439  0.19069217  1
  Si  Si47  1  0.05767786  0.93748561  0.80930783  1
  Sr  Sr48  1  0.25000000  0.89166836  0.42355521  1
  Sr  Sr49  1  0.75000000  0.10833164  0.57644479  1
  Sr  Sr50  1  0.25000000  0.39166836  0.07644479  1
  Sr  Sr51  1  0.75000000  0.60833164  0.92355521  1
