# generated using pymatgen
data_CuP10
_symmetry_space_group_name_H-M   'P 1'
_cell_length_a   7.24728160
_cell_length_b   11.59992629
_cell_length_c   11.93873831
_cell_angle_alpha   67.72964526
_cell_angle_beta   83.56252001
_cell_angle_gamma   84.05126945
_symmetry_Int_Tables_number   1
_chemical_formula_structural   CuP10
_chemical_formula_sum   'Cu4 P40'
_cell_volume   920.89855403
_cell_formula_units_Z   4
loop_
 _symmetry_equiv_pos_site_id
 _symmetry_equiv_pos_as_xyz
  1  'x, y, z'
loop_
 _atom_site_type_symbol
 _atom_site_label
 _atom_site_symmetry_multiplicity
 _atom_site_fract_x
 _atom_site_fract_y
 _atom_site_fract_z
 _atom_site_occupancy
  Cu  Cu0  1  0.22368981  0.82462960  0.25474152  1
  Cu  Cu1  1  0.77631019  0.17537040  0.74525848  1
  Cu  Cu2  1  0.22993817  0.11906666  0.96644311  1
  Cu  Cu3  1  0.77006183  0.88093334  0.03355689  1
  P  P4  1  0.75008955  0.09538713  0.95469865  1
  P  P5  1  0.52641643  0.09528963  0.23133770  1
  P  P6  1  0.51422270  0.57339805  0.20947596  1
  P  P7  1  0.52352616  0.36156618  0.98649589  1
  P  P8  1  0.17471866  0.12579816  0.50735098  1
  P  P9  1  0.48146023  0.14627837  0.51155008  1
  P  P10  1  0.05790934  0.54658776  0.19103089  1
  P  P11  1  0.49633349  0.37352354  0.25062003  1
  P  P12  1  0.25054490  0.20225107  0.75567921  1
  P  P13  1  0.50487215  0.34955038  0.44250893  1
  P  P14  1  0.50366651  0.62647646  0.74937997  1
  P  P15  1  0.50610570  0.11238292  0.70613946  1
  P  P16  1  0.16969614  0.63088226  0.00025343  1
  P  P17  1  0.05776947  0.31847406  0.41754877  1
  P  P18  1  0.49155784  0.15944982  0.03151987  1
  P  P19  1  0.50844216  0.84055018  0.96848013  1
  P  P20  1  0.23637764  0.61047118  0.29487978  1
  P  P21  1  0.93599658  0.17020573  0.03728376  1
  P  P22  1  0.48577730  0.42660195  0.79052404  1
  P  P23  1  0.22365065  0.43578626  0.47689392  1
  P  P24  1  0.07014829  0.10016846  0.69867078  1
  P  P25  1  0.49389430  0.88761708  0.29386054  1
  P  P26  1  0.82528134  0.87420184  0.49264902  1
  P  P27  1  0.51853977  0.85372163  0.48844992  1
  P  P28  1  0.92985171  0.89983154  0.30132922  1
  P  P29  1  0.16500824  0.89532368  0.76437631  1
  P  P30  1  0.94209066  0.45341224  0.80896911  1
  P  P31  1  0.18864663  0.35507008  0.23217081  1
  P  P32  1  0.94223053  0.68152594  0.58245123  1
  P  P33  1  0.47358357  0.90471037  0.76866230  1
  P  P34  1  0.83030386  0.36911774  0.99974657  1
  P  P35  1  0.47647384  0.63843382  0.01350411  1
  P  P36  1  0.74945510  0.79774893  0.24432079  1
  P  P37  1  0.24991045  0.90461287  0.04530135  1
  P  P38  1  0.06400342  0.82979427  0.96271624  1
  P  P39  1  0.81135337  0.64492992  0.76782919  1
  P  P40  1  0.77634935  0.56421374  0.52310608  1
  P  P41  1  0.49512785  0.65044962  0.55749107  1
  P  P42  1  0.83499176  0.10467632  0.23562369  1
  P  P43  1  0.76362236  0.38952882  0.70512022  1
