# generated using pymatgen
data_Li5Cr4O8
_symmetry_space_group_name_H-M   'P 1'
_cell_length_a   8.38194572
_cell_length_b   8.54712221
_cell_length_c   8.88130980
_cell_angle_alpha   90.00569611
_cell_angle_beta   89.99681921
_cell_angle_gamma   90.00493928
_symmetry_Int_Tables_number   1
_chemical_formula_structural   Li5Cr4O8
_chemical_formula_sum   'Li20 Cr16 O32'
_cell_volume   636.27047785
_cell_formula_units_Z   4
loop_
 _symmetry_equiv_pos_site_id
 _symmetry_equiv_pos_as_xyz
  1  'x, y, z'
loop_
 _atom_site_type_symbol
 _atom_site_label
 _atom_site_symmetry_multiplicity
 _atom_site_fract_x
 _atom_site_fract_y
 _atom_site_fract_z
 _atom_site_occupancy
  Li  Li0  1  0.93843499  0.05628818  0.95539374  1
  Li  Li1  1  0.36684084  0.12457193  0.40103112  1
  Li  Li2  1  0.61321264  0.14428149  0.62515222  1
  Li  Li3  1  0.12475152  0.11256753  0.14634605  1
  Li  Li4  1  0.81338265  0.19799144  0.79436046  1
  Li  Li5  1  0.31326632  0.30190940  0.20567813  1
  Li  Li6  1  0.62479069  0.38738766  0.85356699  1
  Li  Li7  1  0.11311258  0.35565251  0.37487104  1
  Li  Li8  1  0.86685316  0.37539806  0.59896888  1
  Li  Li9  1  0.43844493  0.44367030  0.04465027  1
  Li  Li10  1  0.06150267  0.55624060  0.54463506  1
  Li  Li11  1  0.63322758  0.62450950  0.09901273  1
  Li  Li12  1  0.38679185  0.64425972  0.87489072  1
  Li  Li13  1  0.87518839  0.61265348  0.35365472  1
  Li  Li14  1  0.18669401  0.69808222  0.70566671  1
  Li  Li15  1  0.68663902  0.80205948  0.29432934  1
  Li  Li16  1  0.37516093  0.88757553  0.64632301  1
  Li  Li17  1  0.88680474  0.85570776  0.12511977  1
  Li  Li18  1  0.13310459  0.87548118  0.90105398  1
  Li  Li19  1  0.56152029  0.94379263  0.45542284  1
  Cr  Cr20  1  0.37526924  0.12355856  0.86944547  1
  Cr  Cr21  1  0.62435391  0.12717519  0.12359646  1
  Cr  Cr22  1  0.12437237  0.37284035  0.87635695  1
  Cr  Cr23  1  0.87529970  0.37645028  0.13054340  1
  Cr  Cr24  1  0.62471810  0.62355888  0.63045821  1
  Cr  Cr25  1  0.37565334  0.62718078  0.37639520  1
  Cr  Cr26  1  0.87562789  0.87279963  0.62356521  1
  Cr  Cr27  1  0.12471112  0.87647509  0.36946950  1
  Cr  Cr28  1  0.12344233  0.12402992  0.62014951  1
  Cr  Cr29  1  0.87156701  0.12392334  0.37396666  1
  Cr  Cr30  1  0.37153983  0.37601709  0.62590965  1
  Cr  Cr31  1  0.62349219  0.37590995  0.37978646  1
  Cr  Cr32  1  0.87654175  0.62406158  0.87983545  1
  Cr  Cr33  1  0.12840958  0.62392703  0.12610167  1
  Cr  Cr34  1  0.62841964  0.87606601  0.87397102  1
  Cr  Cr35  1  0.37655136  0.87599121  0.12024140  1
  O  O36  1  0.37459613  0.11567810  0.10257859  1
  O  O37  1  0.61701832  0.11230474  0.85710201  1
  O  O38  1  0.11998806  0.11603024  0.38211892  1
  O  O39  1  0.88294166  0.12291858  0.60472445  1
  O  O40  1  0.36716368  0.13063533  0.63333701  1
  O  O41  1  0.87434776  0.13987501  0.14320418  1
  O  O42  1  0.12925950  0.12388999  0.85396942  1
  O  O43  1  0.63130901  0.14021900  0.39124351  1
  O  O44  1  0.13127021  0.35974959  0.60868238  1
  O  O45  1  0.62929063  0.37605887  0.14602447  1
  O  O46  1  0.37433116  0.36020649  0.85673793  1
  O  O47  1  0.86716447  0.36935245  0.36666620  1
  O  O48  1  0.38299761  0.37689799  0.39523390  1
  O  O49  1  0.61998463  0.38395716  0.61785153  1
  O  O50  1  0.11702793  0.38772998  0.14294153  1
  O  O51  1  0.87462787  0.38433974  0.89735377  1
  O  O52  1  0.62544878  0.61566005  0.39732706  1
  O  O53  1  0.38287602  0.61229127  0.64237946  1
  O  O54  1  0.87999457  0.61602743  0.11786675  1
  O  O55  1  0.11712183  0.62296589  0.89530160  1
  O  O56  1  0.63273396  0.63063287  0.86663630  1
  O  O57  1  0.12563322  0.63989853  0.35683659  1
  O  O58  1  0.87070234  0.62388223  0.64604352  1
  O  O59  1  0.36876500  0.64015500  0.10924041  1
  O  O60  1  0.86869263  0.85976499  0.89129982  1
  O  O61  1  0.37071611  0.87625255  0.35397201  1
  O  O62  1  0.62565725  0.86010730  0.64317985  1
  O  O63  1  0.13283209  0.86934826  0.13334979  1
  O  O64  1  0.61699815  0.87708322  0.10472628  1
  O  O65  1  0.37997504  0.88388889  0.88213181  1
  O  O66  1  0.88297676  0.88770801  0.35705986  1
  O  O67  1  0.12537987  0.88433575  0.60262509  1
