# generated using pymatgen
data_Dy(CoSi)2
_symmetry_space_group_name_H-M   'P 1'
_cell_length_a   3.87851290
_cell_length_b   3.87851289
_cell_length_c   5.59736227
_cell_angle_alpha   110.27088302
_cell_angle_beta   110.27088294
_cell_angle_gamma   89.99999999
_symmetry_Int_Tables_number   1
_chemical_formula_structural   Dy(CoSi)2
_chemical_formula_sum   'Dy1 Co2 Si2'
_cell_volume   73.40089594
_cell_formula_units_Z   1
loop_
 _symmetry_equiv_pos_site_id
 _symmetry_equiv_pos_as_xyz
  1  'x, y, z'
loop_
 _atom_site_type_symbol
 _atom_site_label
 _atom_site_symmetry_multiplicity
 _atom_site_fract_x
 _atom_site_fract_y
 _atom_site_fract_z
 _atom_site_occupancy
  Si  Si0  1  0.62822023  0.62822023  0.25644045  1
  Si  Si1  1  0.37177977  0.37177977  0.74355955  1
  Co  Co2  1  0.25000000  0.75000000  0.50000000  1
  Co  Co3  1  0.75000000  0.25000000  0.50000000  1
  Dy  Dy4  1  0.00000000  0.00000000  0.00000000  1
