# generated using pymatgen
data_In3Ru
_symmetry_space_group_name_H-M   'P 1'
_cell_length_a   7.08241155
_cell_length_b   7.08241155
_cell_length_c   7.37958275
_cell_angle_alpha   90.00000000
_cell_angle_beta   90.00000000
_cell_angle_gamma   90.00000000
_symmetry_Int_Tables_number   1
_chemical_formula_structural   In3Ru
_chemical_formula_sum   'In12 Ru4'
_cell_volume   370.16395433
_cell_formula_units_Z   4
loop_
 _symmetry_equiv_pos_site_id
 _symmetry_equiv_pos_as_xyz
  1  'x, y, z'
loop_
 _atom_site_type_symbol
 _atom_site_label
 _atom_site_symmetry_multiplicity
 _atom_site_fract_x
 _atom_site_fract_y
 _atom_site_fract_z
 _atom_site_occupancy
  In  In0  1  0.00000000  0.50000000  0.50000000  1
  In  In1  1  0.50000000  0.00000000  0.00000000  1
  In  In2  1  0.50000000  0.00000000  0.50000000  1
  In  In3  1  0.00000000  0.50000000  0.00000000  1
  In  In4  1  0.34530978  0.65469022  0.23827698  1
  In  In5  1  0.65469022  0.34530978  0.23827698  1
  In  In6  1  0.15469022  0.15469022  0.73827698  1
  In  In7  1  0.84530978  0.84530978  0.73827698  1
  In  In8  1  0.65469022  0.34530978  0.76172302  1
  In  In9  1  0.34530978  0.65469022  0.76172302  1
  In  In10  1  0.84530978  0.84530978  0.26172302  1
  In  In11  1  0.15469022  0.15469022  0.26172302  1
  Ru  Ru12  1  0.15507866  0.84492134  0.50000000  1
  Ru  Ru13  1  0.84492134  0.15507866  0.50000000  1
  Ru  Ru14  1  0.34492134  0.34492134  0.00000000  1
  Ru  Ru15  1  0.65507866  0.65507866  0.00000000  1
