# generated using pymatgen
data_CoBi2SO7
_symmetry_space_group_name_H-M   'P 1'
_cell_length_a   5.44299005
_cell_length_b   7.29229560
_cell_length_c   16.03261911
_cell_angle_alpha   90.00000000
_cell_angle_beta   90.00000000
_cell_angle_gamma   90.00000000
_symmetry_Int_Tables_number   1
_chemical_formula_structural   CoBi2SO7
_chemical_formula_sum   'Co4 Bi8 S4 O28'
_cell_volume   636.36499248
_cell_formula_units_Z   4
loop_
 _symmetry_equiv_pos_site_id
 _symmetry_equiv_pos_as_xyz
  1  'x, y, z'
loop_
 _atom_site_type_symbol
 _atom_site_label
 _atom_site_symmetry_multiplicity
 _atom_site_fract_x
 _atom_site_fract_y
 _atom_site_fract_z
 _atom_site_occupancy
  Co  Co0  1  0.25000000  0.94607593  0.67329399  1
  Co  Co1  1  0.25000000  0.05392407  0.17329399  1
  Co  Co2  1  0.75000000  0.05392407  0.32670601  1
  Co  Co3  1  0.75000000  0.94607593  0.82670601  1
  Bi  Bi4  1  0.75000000  0.83168710  0.51875861  1
  Bi  Bi5  1  0.75000000  0.22555127  0.65905179  1
  Bi  Bi6  1  0.25000000  0.22555127  0.84094821  1
  Bi  Bi7  1  0.75000000  0.77444873  0.15905179  1
  Bi  Bi8  1  0.75000000  0.16831290  0.01875861  1
  Bi  Bi9  1  0.25000000  0.77444873  0.34094821  1
  Bi  Bi10  1  0.25000000  0.83168710  0.98124139  1
  Bi  Bi11  1  0.25000000  0.16831290  0.48124139  1
  S  S12  1  0.25000000  0.59367689  0.60994943  1
  S  S13  1  0.75000000  0.40632311  0.39005057  1
  S  S14  1  0.25000000  0.40632311  0.10994943  1
  S  S15  1  0.75000000  0.59367689  0.89005057  1
  O  O16  1  0.03012149  0.31142345  0.14710757  1
  O  O17  1  0.03012149  0.68857655  0.64710757  1
  O  O18  1  0.75000000  0.60472847  0.36713517  1
  O  O19  1  0.50000000  0.92100522  0.25000000  1
  O  O20  1  0.46987851  0.68857655  0.64710757  1
  O  O21  1  0.53012149  0.68857655  0.85289243  1
  O  O22  1  0.99594450  0.04517662  0.58173058  1
  O  O23  1  0.00405550  0.95482338  0.41826942  1
  O  O24  1  0.50405550  0.04517662  0.58173058  1
  O  O25  1  0.50000000  0.07899478  0.75000000  1
  O  O26  1  0.49594450  0.95482338  0.41826942  1
  O  O27  1  0.96987851  0.68857655  0.85289243  1
  O  O28  1  0.00000000  0.07899478  0.75000000  1
  O  O29  1  0.25000000  0.61585901  0.51760660  1
  O  O30  1  0.50405550  0.95482338  0.08173058  1
  O  O31  1  0.53012149  0.31142345  0.35289243  1
  O  O32  1  0.75000000  0.38414099  0.48239340  1
  O  O33  1  0.96987851  0.31142345  0.35289243  1
  O  O34  1  0.25000000  0.60472847  0.13286483  1
  O  O35  1  0.75000000  0.61585901  0.98239340  1
  O  O36  1  0.75000000  0.39527153  0.86713517  1
  O  O37  1  0.00000000  0.92100522  0.25000000  1
  O  O38  1  0.46987851  0.31142345  0.14710757  1
  O  O39  1  0.25000000  0.38414099  0.01760660  1
  O  O40  1  0.99594450  0.95482338  0.08173058  1
  O  O41  1  0.49594450  0.04517662  0.91826942  1
  O  O42  1  0.00405550  0.04517662  0.91826942  1
  O  O43  1  0.25000000  0.39527153  0.63286483  1
