# generated using pymatgen
data_Ba3Ta6(Si2O13)2
_symmetry_space_group_name_H-M   'P 1'
_cell_length_a   9.13278776
_cell_length_b   9.13278775
_cell_length_c   7.83473642
_cell_angle_alpha   90.00000000
_cell_angle_beta   90.00000000
_cell_angle_gamma   120.00000002
_symmetry_Int_Tables_number   1
_chemical_formula_structural   Ba3Ta6(Si2O13)2
_chemical_formula_sum   'Ba3 Ta6 Si4 O26'
_cell_volume   565.92874270
_cell_formula_units_Z   1
loop_
 _symmetry_equiv_pos_site_id
 _symmetry_equiv_pos_as_xyz
  1  'x, y, z'
loop_
 _atom_site_type_symbol
 _atom_site_label
 _atom_site_symmetry_multiplicity
 _atom_site_fract_x
 _atom_site_fract_y
 _atom_site_fract_z
 _atom_site_occupancy
  O  O0  1  0.00000000  0.23118576  0.50000000  1
  O  O1  1  0.76881424  0.76881424  0.50000000  1
  O  O2  1  0.23118576  0.00000000  0.50000000  1
  O  O3  1  0.51223172  0.69499873  0.28284741  1
  O  O4  1  0.30500127  0.81723299  0.28284741  1
  O  O5  1  0.18276701  0.48776828  0.28284741  1
  O  O6  1  0.48776828  0.18276701  0.71715259  1
  O  O7  1  0.18276701  0.48776828  0.71715259  1
  O  O8  1  0.51223172  0.69499873  0.71715259  1
  O  O9  1  0.30500127  0.81723299  0.71715259  1
  O  O10  1  0.69499873  0.51223172  0.28284741  1
  O  O11  1  0.81723299  0.30500127  0.28284741  1
  O  O12  1  0.81723299  0.30500127  0.71715259  1
  O  O13  1  0.33333333  0.66666667  0.00000000  1
  O  O14  1  0.66666667  0.33333333  0.00000000  1
  O  O15  1  0.27441190  0.00000000  0.00000000  1
  O  O16  1  0.72558810  0.72558810  0.00000000  1
  O  O17  1  0.00000000  0.27441190  0.00000000  1
  O  O18  1  0.82287702  0.00000000  0.23679261  1
  O  O19  1  0.17712298  0.17712298  0.76320739  1
  O  O20  1  0.00000000  0.82287702  0.76320739  1
  O  O21  1  0.00000000  0.82287702  0.23679261  1
  O  O22  1  0.17712298  0.17712298  0.23679261  1
  O  O23  1  0.82287702  0.00000000  0.76320739  1
  O  O24  1  0.48776828  0.18276701  0.28284741  1
  O  O25  1  0.69499873  0.51223172  0.71715259  1
  Si  Si26  1  0.66666667  0.33333333  0.20556699  1
  Si  Si27  1  0.66666667  0.33333333  0.79443301  1
  Si  Si28  1  0.33333333  0.66666667  0.79443301  1
  Si  Si29  1  0.33333333  0.66666667  0.20556699  1
  Ba  Ba30  1  0.39851213  0.39851213  0.50000000  1
  Ba  Ba31  1  0.00000000  0.60148787  0.50000000  1
  Ba  Ba32  1  0.60148787  0.00000000  0.50000000  1
  Ta  Ta33  1  0.00000000  0.23828714  0.75519899  1
  Ta  Ta34  1  0.76171286  0.76171286  0.75519899  1
  Ta  Ta35  1  0.23828714  0.00000000  0.24480101  1
  Ta  Ta36  1  0.76171286  0.76171286  0.24480101  1
  Ta  Ta37  1  0.23828714  0.00000000  0.75519899  1
  Ta  Ta38  1  0.00000000  0.23828714  0.24480101  1
