# generated using pymatgen
data_Zn2Cu(AsO4)2
_symmetry_space_group_name_H-M   'P 1'
_cell_length_a   5.15778184
_cell_length_b   5.41754272
_cell_length_c   6.85696138
_cell_angle_alpha   69.89341858
_cell_angle_beta   87.29606253
_cell_angle_gamma   67.69376326
_symmetry_Int_Tables_number   1
_chemical_formula_structural   Zn2Cu(AsO4)2
_chemical_formula_sum   'Zn2 Cu1 As2 O8'
_cell_volume   165.69256431
_cell_formula_units_Z   1
loop_
 _symmetry_equiv_pos_site_id
 _symmetry_equiv_pos_as_xyz
  1  'x, y, z'
loop_
 _atom_site_type_symbol
 _atom_site_label
 _atom_site_symmetry_multiplicity
 _atom_site_fract_x
 _atom_site_fract_y
 _atom_site_fract_z
 _atom_site_occupancy
  O  O0  1  0.26692430  0.29710415  0.49248587  1
  O  O1  1  0.73307570  0.70289585  0.50751413  1
  O  O2  1  0.37204905  0.81107372  0.84862920  1
  O  O3  1  0.62795095  0.18892628  0.15137080  1
  O  O4  1  0.08761370  0.35345882  0.87748061  1
  O  O5  1  0.18197398  0.86982199  0.33449793  1
  O  O6  1  0.81802602  0.13017801  0.66550207  1
  O  O7  1  0.91238630  0.64654118  0.12251939  1
  Cu  Cu8  1  0.50000000  0.50000000  0.50000000  1
  Zn  Zn9  1  0.22708603  0.25596594  0.18896986  1
  Zn  Zn10  1  0.77291397  0.74403406  0.81103014  1
  As  As11  1  0.86374332  0.85196871  0.27635456  1
  As  As12  1  0.13625668  0.14803129  0.72364544  1
