# generated using pymatgen
data_LiCoSiO4
_symmetry_space_group_name_H-M   'P 1'
_cell_length_a   8.49714962
_cell_length_b   5.36810460
_cell_length_c   7.88721593
_cell_angle_alpha   90.00000000
_cell_angle_beta   105.00652249
_cell_angle_gamma   90.00000000
_symmetry_Int_Tables_number   1
_chemical_formula_structural   LiCoSiO4
_chemical_formula_sum   'Li4 Co4 Si4 O16'
_cell_volume   347.49494715
_cell_formula_units_Z   4
loop_
 _symmetry_equiv_pos_site_id
 _symmetry_equiv_pos_as_xyz
  1  'x, y, z'
loop_
 _atom_site_type_symbol
 _atom_site_label
 _atom_site_symmetry_multiplicity
 _atom_site_fract_x
 _atom_site_fract_y
 _atom_site_fract_z
 _atom_site_occupancy
  Li  Li0  1  0.20328957  0.34491172  0.86859250  1
  Li  Li1  1  0.39231905  0.83257107  0.36555589  1
  Li  Li2  1  0.70328957  0.65508828  0.86859250  1
  Li  Li3  1  0.89231905  0.16742893  0.36555589  1
  Co  Co4  1  0.06788329  0.85518388  0.96831315  1
  Co  Co5  1  0.27340024  0.32978801  0.49047562  1
  Co  Co6  1  0.56788329  0.14481612  0.96831315  1
  Co  Co7  1  0.77340024  0.67021199  0.49047562  1
  Si  Si8  1  0.01885254  0.66551594  0.25366963  1
  Si  Si9  1  0.32074380  0.82986062  0.73765513  1
  Si  Si10  1  0.51885254  0.33448406  0.25366963  1
  Si  Si11  1  0.82074380  0.17013938  0.73765513  1
  O  O12  1  0.00200411  0.16762333  0.88286397  1
  O  O13  1  0.07096766  0.38276325  0.33363005  1
  O  O14  1  0.18457036  0.70698725  0.82857364  1
  O  O15  1  0.27733862  0.12508036  0.68465203  1
  O  O16  1  0.17576364  0.81529993  0.21448076  1
  O  O17  1  0.33342196  0.65908109  0.56926962  1
  O  O18  1  0.50200411  0.83237667  0.88286397  1
  O  O19  1  0.43109185  0.19256873  0.39057135  1
  O  O20  1  0.40215430  0.32137786  0.05049966  1
  O  O21  1  0.57096766  0.61723675  0.33363005  1
  O  O22  1  0.68457036  0.29301275  0.82857364  1
  O  O23  1  0.77733862  0.87491964  0.68465203  1
  O  O24  1  0.67576364  0.18470007  0.21448076  1
  O  O25  1  0.83342196  0.34091891  0.56926962  1
  O  O26  1  0.93109185  0.80743127  0.39057135  1
  O  O27  1  0.90215430  0.67862214  0.05049966  1
