# generated using pymatgen
data_LaSc3(BO3)4
_symmetry_space_group_name_H-M   'P 1'
_cell_length_a   6.32119385
_cell_length_b   6.32119384
_cell_length_c   12.18826890
_cell_angle_alpha   99.50760751
_cell_angle_beta   99.50760752
_cell_angle_gamma   103.68719337
_symmetry_Int_Tables_number   1
_chemical_formula_structural   LaSc3(BO3)4
_chemical_formula_sum   'La2 Sc6 B8 O24'
_cell_volume   455.95691465
_cell_formula_units_Z   2
loop_
 _symmetry_equiv_pos_site_id
 _symmetry_equiv_pos_as_xyz
  1  'x, y, z'
loop_
 _atom_site_type_symbol
 _atom_site_label
 _atom_site_symmetry_multiplicity
 _atom_site_fract_x
 _atom_site_fract_y
 _atom_site_fract_z
 _atom_site_occupancy
  B  B0  1  0.77847994  0.72906196  0.49953578  1
  B  B1  1  0.27093804  0.22152006  0.00046422  1
  B  B2  1  0.22152006  0.27093804  0.50046422  1
  B  B3  1  0.72906196  0.77847994  0.99953578  1
  B  B4  1  0.10296977  0.49360473  0.27399290  1
  B  B5  1  0.50639527  0.89703023  0.22600710  1
  B  B6  1  0.89703023  0.50639527  0.72600710  1
  B  B7  1  0.49360473  0.10296977  0.77399290  1
  O  O8  1  0.43273477  0.89062525  0.70546126  1
  O  O9  1  0.10937475  0.56726523  0.79453874  1
  O  O10  1  0.56726523  0.10937475  0.29453874  1
  O  O11  1  0.89062525  0.43273477  0.20546126  1
  O  O12  1  0.18969249  0.00813432  0.93324317  1
  O  O13  1  0.99186568  0.81030751  0.56675683  1
  O  O14  1  0.81030751  0.99186568  0.06675683  1
  O  O15  1  0.00813432  0.18969249  0.43324317  1
  O  O16  1  0.24055696  0.35571012  0.25932387  1
  O  O17  1  0.64428988  0.75944304  0.24067613  1
  O  O18  1  0.75944304  0.64428988  0.74067613  1
  O  O19  1  0.35571012  0.24055696  0.75932387  1
  O  O20  1  0.63846055  0.86844540  0.50529278  1
  O  O21  1  0.13155460  0.36153945  0.99470722  1
  O  O22  1  0.36153945  0.13155460  0.49470722  1
  O  O23  1  0.86844540  0.63846055  0.00529278  1
  O  O24  1  0.69323214  0.16740747  0.85231152  1
  O  O25  1  0.83259253  0.30676786  0.64768848  1
  O  O26  1  0.30676786  0.83259253  0.14768848  1
  O  O27  1  0.16740747  0.69323214  0.35231152  1
  O  O28  1  0.51599550  0.70509094  0.93152837  1
  O  O29  1  0.29490906  0.48400450  0.56847163  1
  O  O30  1  0.48400450  0.29490906  0.06847163  1
  O  O31  1  0.70509094  0.51599550  0.43152837  1
  Sc  Sc32  1  0.20227915  0.70177887  0.97488456  1
  Sc  Sc33  1  0.29822113  0.79772085  0.52511544  1
  Sc  Sc34  1  0.79772085  0.29822113  0.02511544  1
  Sc  Sc35  1  0.70177887  0.20227915  0.47488456  1
  Sc  Sc36  1  0.57495116  0.42504884  0.25000000  1
  Sc  Sc37  1  0.42504884  0.57495116  0.75000000  1
  La  La38  1  0.03491836  0.96508164  0.25000000  1
  La  La39  1  0.96508164  0.03491836  0.75000000  1
