# generated using pymatgen
data_Ba2Sm(CuO2)3
_symmetry_space_group_name_H-M   'P 1'
_cell_length_a   3.90866655
_cell_length_b   3.90866687
_cell_length_c   12.16005957
_cell_angle_alpha   90.00003789
_cell_angle_beta   90.00015073
_cell_angle_gamma   90.00027822
_symmetry_Int_Tables_number   1
_chemical_formula_structural   Ba2Sm(CuO2)3
_chemical_formula_sum   'Ba2 Sm1 Cu3 O6'
_cell_volume   185.77744356
_cell_formula_units_Z   1
loop_
 _symmetry_equiv_pos_site_id
 _symmetry_equiv_pos_as_xyz
  1  'x, y, z'
loop_
 _atom_site_type_symbol
 _atom_site_label
 _atom_site_symmetry_multiplicity
 _atom_site_fract_x
 _atom_site_fract_y
 _atom_site_fract_z
 _atom_site_occupancy
  Ba  Ba0  1  0.49999992  0.50000117  0.19514147  1
  Ba  Ba1  1  0.50000059  0.50000035  0.80487009  1
  Sm  Sm2  1  0.49999921  0.50000031  0.49999543  1
  Cu  Cu3  1  0.99999716  0.00000137  0.36246986  1
  Cu  Cu4  1  0.00000426  -0.00000310  -0.00003213  1
  Cu  Cu5  1  0.00000313  0.99999631  0.63742805  1
  O  O6  1  0.49999831  0.99999953  0.37542380  1
  O  O7  1  0.99999801  0.50000066  0.37542420  1
  O  O8  1  0.49999988  0.00000038  0.62456079  1
  O  O9  1  -0.00000026  0.00000165  0.14866481  1
  O  O10  1  -0.00000064  0.00000200  0.85149225  1
  O  O11  1  0.00000042  0.49999939  0.62456139  1
