# generated using pymatgen
data_UMnO4
_symmetry_space_group_name_H-M   'P 1'
_cell_length_a   5.96226791
_cell_length_b   5.96226792
_cell_length_c   5.96226806
_cell_angle_alpha   107.98204116
_cell_angle_beta   109.50703670
_cell_angle_gamma   110.93805654
_symmetry_Int_Tables_number   1
_chemical_formula_structural   UMnO4
_chemical_formula_sum   'U2 Mn2 O8'
_cell_volume   163.05103751
_cell_formula_units_Z   2
loop_
 _symmetry_equiv_pos_site_id
 _symmetry_equiv_pos_as_xyz
  1  'x, y, z'
loop_
 _atom_site_type_symbol
 _atom_site_label
 _atom_site_symmetry_multiplicity
 _atom_site_fract_x
 _atom_site_fract_y
 _atom_site_fract_z
 _atom_site_occupancy
  U  U0  1  0.00701659  0.25000000  0.25701659  1
  U  U1  1  0.99298341  0.75000000  0.74298341  1
  Mn  Mn2  1  0.50000000  -0.00000000  0.50000000  1
  Mn  Mn3  1  0.50000000  0.50000000  -0.00000000  1
  O  O4  1  0.81324971  0.49438365  0.30763336  1
  O  O5  1  0.18675029  0.50561635  0.69236664  1
  O  O6  1  0.81324971  0.00561635  0.81886606  1
  O  O7  1  0.18675029  0.99438365  0.18113394  1
  O  O8  1  0.30062577  0.54276478  0.25785999  1
  O  O9  1  0.28490479  0.04276478  0.74214001  1
  O  O10  1  0.71509521  0.95723522  0.25785999  1
  O  O11  1  0.69937423  0.45723522  0.74214001  1
