# generated using pymatgen
data_Sr(H8O5)2
_symmetry_space_group_name_H-M   'P 1'
_cell_length_a   6.32810389
_cell_length_b   6.32810389
_cell_length_c   11.20171560
_cell_angle_alpha   89.77366563
_cell_angle_beta   89.77366563
_cell_angle_gamma   90.19149589
_symmetry_Int_Tables_number   1
_chemical_formula_structural   Sr(H8O5)2
_chemical_formula_sum   'Sr2 H32 O20'
_cell_volume   448.56203937
_cell_formula_units_Z   2
loop_
 _symmetry_equiv_pos_site_id
 _symmetry_equiv_pos_as_xyz
  1  'x, y, z'
loop_
 _atom_site_type_symbol
 _atom_site_label
 _atom_site_symmetry_multiplicity
 _atom_site_fract_x
 _atom_site_fract_y
 _atom_site_fract_z
 _atom_site_occupancy
  Sr  Sr0  1  0.99839769  0.00230896  0.25163813  1
  Sr  Sr1  1  0.00230896  0.99839769  0.75163813  1
  H  H2  1  0.03507727  0.45108217  0.37349020  1
  H  H3  1  0.27807825  0.38939131  0.35494681  1
  H  H4  1  0.72436960  0.60949739  0.35488488  1
  H  H5  1  0.85995451  0.68694596  0.46759904  1
  H  H6  1  0.61020179  0.27872188  0.35518556  1
  H  H7  1  0.55113832  0.03532584  0.37463469  1
  H  H8  1  0.39188910  0.72463594  0.35539085  1
  H  H9  1  0.31252682  0.85973364  0.46721049  1
  H  H10  1  0.72463594  0.39188910  0.85539085  1
  H  H11  1  0.85973364  0.31252682  0.96721049  1
  H  H12  1  0.03532584  0.55113832  0.87463469  1
  H  H13  1  0.27872188  0.61020179  0.85518556  1
  H  H14  1  0.45108217  0.03507727  0.87349020  1
  H  H15  1  0.38939131  0.27807825  0.85494681  1
  H  H16  1  0.60949739  0.72436960  0.85488488  1
  H  H17  1  0.68694596  0.85995451  0.96759904  1
  H  H18  1  0.72260966  0.60943819  0.64630911  1
  H  H19  1  0.96500366  0.54860372  0.62676402  1
  H  H20  1  0.27719296  0.38974573  0.64563180  1
  H  H21  1  0.14061792  0.31319157  0.53267777  1
  H  H22  1  0.38904878  0.72064138  0.64608074  1
  H  H23  1  0.45014771  0.96235643  0.62696024  1
  H  H24  1  0.61487815  0.26254449  0.65589438  1
  H  H25  1  0.68553943  0.14333242  0.53732466  1
  H  H26  1  0.26254449  0.61487815  0.15589438  1
  H  H27  1  0.14333242  0.68553943  0.03732466  1
  H  H28  1  0.96235643  0.45014771  0.12696024  1
  H  H29  1  0.72064138  0.38904878  0.14608074  1
  H  H30  1  0.54860372  0.96500366  0.12676402  1
  H  H31  1  0.60943819  0.72260966  0.14630911  1
  H  H32  1  0.38974573  0.27719296  0.14563180  1
  H  H33  1  0.31319157  0.14061792  0.03267777  1
  O  O34  1  0.50143912  0.49716781  0.31869896  1
  O  O35  1  0.49716781  0.50143912  0.81869896  1
  O  O36  1  0.50135045  0.49846189  0.68500091  1
  O  O37  1  0.49846189  0.50135045  0.18500091  1
  O  O38  1  0.13383178  0.32773052  0.37857460  1
  O  O39  1  0.86777104  0.67022506  0.37831940  1
  O  O40  1  0.67221844  0.13676050  0.38224622  1
  O  O41  1  0.33018323  0.86759175  0.37800393  1
  O  O42  1  0.86759175  0.33018323  0.87800393  1
  O  O43  1  0.13676050  0.67221844  0.88224622  1
  O  O44  1  0.32773052  0.13383178  0.87857460  1
  O  O45  1  0.67022506  0.86777104  0.87831940  1
  O  O46  1  0.86598354  0.67152791  0.62137225  1
  O  O47  1  0.13363805  0.32945176  0.62188867  1
  O  O48  1  0.32693072  0.86316788  0.62099923  1
  O  O49  1  0.67256172  0.12320220  0.62648046  1
  O  O50  1  0.12320220  0.67256172  0.12648046  1
  O  O51  1  0.86316788  0.32693072  0.12099923  1
  O  O52  1  0.67152791  0.86598354  0.12137225  1
  O  O53  1  0.32945176  0.13363805  0.12188867  1
