# generated using pymatgen
data_Fe6W6C
_symmetry_space_group_name_H-M   'P 1'
_cell_length_a   7.72672033
_cell_length_b   7.72678488
_cell_length_c   7.72671067
_cell_angle_alpha   59.99921034
_cell_angle_beta   59.99890842
_cell_angle_gamma   59.99927768
_symmetry_Int_Tables_number   1
_chemical_formula_structural   Fe6W6C
_chemical_formula_sum   'Fe12 W12 C2'
_cell_volume   326.18585314
_cell_formula_units_Z   2
loop_
 _symmetry_equiv_pos_site_id
 _symmetry_equiv_pos_as_xyz
  1  'x, y, z'
loop_
 _atom_site_type_symbol
 _atom_site_label
 _atom_site_symmetry_multiplicity
 _atom_site_fract_x
 _atom_site_fract_y
 _atom_site_fract_z
 _atom_site_occupancy
  Fe  Fe0  1  0.70386633  0.70386185  0.70387054  1
  Fe  Fe1  1  0.29611590  0.29613355  0.29611688  1
  Fe  Fe2  1  0.29611053  0.61164000  0.29611139  1
  Fe  Fe3  1  0.61163385  0.29612406  0.29610789  1
  Fe  Fe4  1  0.70388831  0.70388358  0.38834554  1
  Fe  Fe5  1  0.38834011  0.70388381  0.70389312  1
  Fe  Fe6  1  0.29610427  0.29612104  0.61164354  1
  Fe  Fe7  1  0.49999224  0.50000229  -0.00000364  1
  Fe  Fe8  1  0.70387701  0.38836993  0.70388153  1
  Fe  Fe9  1  0.50000350  0.50001293  0.50000733  1
  Fe  Fe10  1  0.49999749  -0.00001280  0.50000151  1
  Fe  Fe11  1  0.00000282  0.49999877  0.49999298  1
  W  W12  1  0.32331227  0.32332000  0.92669336  1
  W  W13  1  0.32330345  0.92668063  0.92669451  1
  W  W14  1  0.07331990  0.67668545  0.07331200  1
  W  W15  1  0.67669029  0.67669405  0.07332124  1
  W  W16  1  0.07331869  0.07330372  0.67668972  1
  W  W17  1  0.92670010  0.92667891  0.32330255  1
  W  W18  1  0.67669543  0.07331320  0.67669805  1
  W  W19  1  0.32331491  0.92668649  0.32331710  1
  W  W20  1  0.07332649  0.67669153  0.67669026  1
  W  W21  1  0.92669305  0.32330530  0.92668587  1
  W  W22  1  0.92669895  0.32331680  0.32331138  1
  W  W23  1  0.67668969  0.07330635  0.07331341  1
  C  C24  1  0.87500311  0.87499972  0.87500185  1
  C  C25  1  0.12500131  0.12499887  0.12500008  1
