# generated using pymatgen
data_Fe5O7F3
_symmetry_space_group_name_H-M   'P 1'
_cell_length_a   4.67032034
_cell_length_b   4.67279618
_cell_length_c   15.25447231
_cell_angle_alpha   89.95051415
_cell_angle_beta   90.03633149
_cell_angle_gamma   89.89168330
_symmetry_Int_Tables_number   1
_chemical_formula_structural   Fe5O7F3
_chemical_formula_sum   'Fe10 O14 F6'
_cell_volume   332.90450416
_cell_formula_units_Z   2
loop_
 _symmetry_equiv_pos_site_id
 _symmetry_equiv_pos_as_xyz
  1  'x, y, z'
loop_
 _atom_site_type_symbol
 _atom_site_label
 _atom_site_symmetry_multiplicity
 _atom_site_fract_x
 _atom_site_fract_y
 _atom_site_fract_z
 _atom_site_occupancy
  Fe  Fe0  1  0.98444065  0.95959952  0.00606652  1
  Fe  Fe1  1  0.02313695  0.01613253  0.19967362  1
  Fe  Fe2  1  0.03179975  0.01127242  0.39396838  1
  Fe  Fe3  1  0.01397270  0.97861011  0.60021553  1
  Fe  Fe4  1  0.01712644  0.98822433  0.80093415  1
  Fe  Fe5  1  0.50420708  0.49121726  0.09911061  1
  Fe  Fe6  1  0.47201198  0.51064100  0.50613092  1
  Fe  Fe7  1  0.49206479  0.47967473  0.30001663  1
  Fe  Fe8  1  0.48325989  0.51499004  0.70030181  1
  Fe  Fe9  1  0.48614897  0.52709283  0.89440329  1
  O  O10  1  0.20073300  0.79650594  0.10303564  1
  O  O11  1  0.20906893  0.80766980  0.29534106  1
  O  O12  1  0.18911398  0.81763460  0.49742128  1
  O  O13  1  0.18846114  0.81029560  0.70128571  1
  O  O14  1  0.17684784  0.80712692  0.90295058  1
  O  O15  1  0.32347970  0.30915515  0.19637265  1
  O  O16  1  0.31523023  0.31776904  0.40212236  1
  O  O17  1  0.29821016  0.30611601  0.60469679  1
  O  O18  1  0.30413075  0.30678297  0.79811480  1
  O  O19  1  0.67718259  0.67655217  0.00042568  1
  O  O20  1  0.68952242  0.69553274  0.60253910  1
  O  O21  1  0.69380182  0.69860895  0.79614937  1
  O  O22  1  0.80927258  0.18702725  0.10147287  1
  O  O23  1  0.81816520  0.19771610  0.29723661  1
  F  F24  1  0.29144657  0.29208255  0.99693540  1
  F  F25  1  0.70817207  0.69602896  0.20112220  1
  F  F26  1  0.70361174  0.70421046  0.40077621  1
  F  F27  1  0.80118450  0.20396239  0.49890089  1
  F  F28  1  0.79277457  0.19416233  0.90222096  1
  F  F29  1  0.80142002  0.19760429  0.70005838  1
