# generated using pymatgen
data_H8Pd(NCl3)2
_symmetry_space_group_name_H-M   'P 1'
_cell_length_a   6.97510790
_cell_length_b   6.97307056
_cell_length_c   9.97330094
_cell_angle_alpha   90.00000000
_cell_angle_beta   90.05322321
_cell_angle_gamma   90.00000000
_symmetry_Int_Tables_number   1
_chemical_formula_structural   H8Pd(NCl3)2
_chemical_formula_sum   'H16 Pd2 N4 Cl12'
_cell_volume   485.08039930
_cell_formula_units_Z   2
loop_
 _symmetry_equiv_pos_site_id
 _symmetry_equiv_pos_as_xyz
  1  'x, y, z'
loop_
 _atom_site_type_symbol
 _atom_site_label
 _atom_site_symmetry_multiplicity
 _atom_site_fract_x
 _atom_site_fract_y
 _atom_site_fract_z
 _atom_site_occupancy
  H  H0  1  0.85504221  0.52361070  0.23570551  1
  H  H1  1  0.35504221  0.97638930  0.73570551  1
  H  H2  1  0.14495779  0.47638930  0.76429449  1
  H  H3  1  0.64495779  0.02361070  0.26429449  1
  H  H4  1  0.04599934  0.57430708  0.33479848  1
  H  H5  1  0.54599934  0.92569292  0.83479848  1
  H  H6  1  0.95400066  0.42569292  0.66520152  1
  H  H7  1  0.45400066  0.07430708  0.16520152  1
  H  H8  1  0.02221339  0.35492219  0.26429194  1
  H  H9  1  0.52221339  0.14507781  0.76429194  1
  H  H10  1  0.97778661  0.64507781  0.73570806  1
  H  H11  1  0.47778661  0.85492219  0.23570806  1
  H  H12  1  0.07621450  0.54776976  0.16819483  1
  H  H13  1  0.57621450  0.95223024  0.66819483  1
  H  H14  1  0.92378550  0.45223024  0.83180517  1
  H  H15  1  0.42378550  0.04776976  0.33180517  1
  Pd  Pd16  1  0.50000000  0.50000000  0.50000000  1
  Pd  Pd17  1  0.00000000  0.00000000  0.00000000  1
  N  N18  1  0.00017971  0.50040188  0.25055959  1
  N  N19  1  0.50017971  0.99959812  0.75055959  1
  N  N20  1  -0.00017971  0.49959812  0.74944041  1
  N  N21  1  0.49982029  0.00040188  0.24944041  1
  Cl  Cl22  1  0.25116703  0.72908975  0.49979103  1
  Cl  Cl23  1  0.75116703  0.77091025  0.99979103  1
  Cl  Cl24  1  0.74883297  0.27091025  0.50020897  1
  Cl  Cl25  1  0.24883297  0.22908975  0.00020897  1
  Cl  Cl26  1  0.27095929  0.25112619  0.49599548  1
  Cl  Cl27  1  0.77095929  0.24887381  0.99599548  1
  Cl  Cl28  1  0.72904071  0.74887381  0.50400452  1
  Cl  Cl29  1  0.22904071  0.75112619  0.00400452  1
  Cl  Cl30  1  0.50374561  0.50543512  0.26320831  1
  Cl  Cl31  1  0.00374561  0.99456488  0.76320831  1
  Cl  Cl32  1  0.49625439  0.49456488  0.73679169  1
  Cl  Cl33  1  0.99625439  0.00543512  0.23679169  1
