# generated using pymatgen
data_Ho5(Ge5Ir2)2
_symmetry_space_group_name_H-M   'P 1'
_cell_length_a   13.03110334
_cell_length_b   13.03110334
_cell_length_c   4.31447764
_cell_angle_alpha   90.00000000
_cell_angle_beta   90.00000000
_cell_angle_gamma   90.00000000
_symmetry_Int_Tables_number   1
_chemical_formula_structural   Ho5(Ge5Ir2)2
_chemical_formula_sum   'Ho10 Ge20 Ir8'
_cell_volume   732.63995635
_cell_formula_units_Z   2
loop_
 _symmetry_equiv_pos_site_id
 _symmetry_equiv_pos_as_xyz
  1  'x, y, z'
loop_
 _atom_site_type_symbol
 _atom_site_label
 _atom_site_symmetry_multiplicity
 _atom_site_fract_x
 _atom_site_fract_y
 _atom_site_fract_z
 _atom_site_occupancy
  Ho  Ho0  1  0.50000000  0.50000000  0.00000000  1
  Ho  Ho1  1  0.00000000  0.00000000  0.00000000  1
  Ho  Ho2  1  0.17315194  0.67315194  0.50000000  1
  Ho  Ho3  1  0.82684806  0.32684806  0.50000000  1
  Ho  Ho4  1  0.32684806  0.17315194  0.50000000  1
  Ho  Ho5  1  0.67315194  0.82684806  0.50000000  1
  Ho  Ho6  1  0.38474533  0.88474533  0.50000000  1
  Ho  Ho7  1  0.61525467  0.11525467  0.50000000  1
  Ho  Ho8  1  0.11525467  0.38474533  0.50000000  1
  Ho  Ho9  1  0.88474533  0.61525467  0.50000000  1
  Ge  Ge10  1  0.06691443  0.56691443  0.00000000  1
  Ge  Ge11  1  0.93308557  0.43308557  0.00000000  1
  Ge  Ge12  1  0.43308557  0.06691443  0.00000000  1
  Ge  Ge13  1  0.56691443  0.93308557  0.00000000  1
  Ge  Ge14  1  0.69945811  0.66398628  0.00000000  1
  Ge  Ge15  1  0.30054189  0.33601372  0.00000000  1
  Ge  Ge16  1  0.80054189  0.16398628  0.00000000  1
  Ge  Ge17  1  0.19945811  0.83601372  0.00000000  1
  Ge  Ge18  1  0.66398628  0.30054189  0.00000000  1
  Ge  Ge19  1  0.33601372  0.69945811  0.00000000  1
  Ge  Ge20  1  0.16398628  0.19945811  0.00000000  1
  Ge  Ge21  1  0.83601372  0.80054189  0.00000000  1
  Ge  Ge22  1  0.00787021  0.84383417  0.50000000  1
  Ge  Ge23  1  0.99212979  0.15616583  0.50000000  1
  Ge  Ge24  1  0.49212979  0.34383417  0.50000000  1
  Ge  Ge25  1  0.50787021  0.65616583  0.50000000  1
  Ge  Ge26  1  0.84383417  0.99212979  0.50000000  1
  Ge  Ge27  1  0.15616583  0.00787021  0.50000000  1
  Ge  Ge28  1  0.34383417  0.50787021  0.50000000  1
  Ge  Ge29  1  0.65616583  0.49212979  0.50000000  1
  Ir  Ir30  1  0.01900549  0.75299608  0.00000000  1
  Ir  Ir31  1  0.98099451  0.24700392  0.00000000  1
  Ir  Ir32  1  0.48099451  0.25299608  0.00000000  1
  Ir  Ir33  1  0.51900549  0.74700392  0.00000000  1
  Ir  Ir34  1  0.75299608  0.98099451  0.00000000  1
  Ir  Ir35  1  0.24700392  0.01900549  0.00000000  1
  Ir  Ir36  1  0.25299608  0.51900549  0.00000000  1
  Ir  Ir37  1  0.74700392  0.48099451  0.00000000  1
