# generated using pymatgen
data_Eu2Ir2O7
_symmetry_space_group_name_H-M   'P 1'
_cell_length_a   7.40268603
_cell_length_b   7.40239347
_cell_length_c   7.40028848
_cell_angle_alpha   59.98039836
_cell_angle_beta   59.98216526
_cell_angle_gamma   59.98956723
_symmetry_Int_Tables_number   1
_chemical_formula_structural   Eu2Ir2O7
_chemical_formula_sum   'Eu4 Ir4 O14'
_cell_volume   286.64078378
_cell_formula_units_Z   2
loop_
 _symmetry_equiv_pos_site_id
 _symmetry_equiv_pos_as_xyz
  1  'x, y, z'
loop_
 _atom_site_type_symbol
 _atom_site_label
 _atom_site_symmetry_multiplicity
 _atom_site_fract_x
 _atom_site_fract_y
 _atom_site_fract_z
 _atom_site_occupancy
  Eu  Eu0  1  0.49999946  0.49999929  0.50000061  1
  Eu  Eu1  1  0.50000131  0.49999795  -0.00000079  1
  Eu  Eu2  1  0.00000050  0.49999969  0.49999907  1
  Eu  Eu3  1  0.49999880  -0.00000157  0.50000204  1
  Ir  Ir4  1  -0.00000027  0.00000132  0.50000004  1
  Ir  Ir5  1  0.00000008  0.00000079  0.99999932  1
  Ir  Ir6  1  -0.00000011  0.50000017  0.00000022  1
  Ir  Ir7  1  0.49999981  0.00000004  -0.00000049  1
  O  O8  1  0.37519842  0.37503496  0.37495948  1
  O  O9  1  0.67208558  0.07792162  0.07772568  1
  O  O10  1  0.32791475  0.92207935  0.92227403  1
  O  O11  1  0.07787172  0.67212921  0.07772778  1
  O  O12  1  0.67200407  0.07792599  0.67228462  1
  O  O13  1  0.32784518  0.32780638  0.92220114  1
  O  O14  1  0.92219328  0.92214487  0.32778582  1
  O  O15  1  0.07780667  0.07785561  0.67221402  1
  O  O16  1  0.32799583  0.92207420  0.32771538  1
  O  O17  1  0.67215412  0.67219479  0.07779883  1
  O  O18  1  0.62480246  0.62496290  0.62504122  1
  O  O19  1  0.92212193  0.32795317  0.32771329  1
  O  O20  1  0.92212795  0.32787170  0.92227201  1
  O  O21  1  0.07787847  0.67204757  0.67228668  1
