# generated using pymatgen
data_Eu(MgH3)2
_symmetry_space_group_name_H-M   'P 1'
_cell_length_a   3.74188805
_cell_length_b   3.74204048
_cell_length_c   8.02694954
_cell_angle_alpha   90.00048857
_cell_angle_beta   90.00247285
_cell_angle_gamma   89.99778837
_symmetry_Int_Tables_number   1
_chemical_formula_structural   Eu(MgH3)2
_chemical_formula_sum   'Eu1 Mg2 H6'
_cell_volume   112.39572779
_cell_formula_units_Z   1
loop_
 _symmetry_equiv_pos_site_id
 _symmetry_equiv_pos_as_xyz
  1  'x, y, z'
loop_
 _atom_site_type_symbol
 _atom_site_label
 _atom_site_symmetry_multiplicity
 _atom_site_fract_x
 _atom_site_fract_y
 _atom_site_fract_z
 _atom_site_occupancy
  Eu  Eu0  1  -0.00003767  0.00007798  0.00005604  1
  Mg  Mg1  1  0.49999826  0.49999930  0.72382875  1
  Mg  Mg2  1  0.50001733  0.49995912  0.27614626  1
  H  H3  1  0.50000434  -0.00002165  0.79044374  1
  H  H4  1  0.00001306  0.49999153  0.79044053  1
  H  H5  1  0.50000062  0.00000234  0.20954681  1
  H  H6  1  0.00000697  0.49999479  0.20954649  1
  H  H7  1  0.49999699  0.50000130  -0.00000946  1
  H  H8  1  0.50000009  0.49999529  0.50000084  1
