# generated using pymatgen
data_Li2Cr(PO3)5
_symmetry_space_group_name_H-M   'P 1'
_cell_length_a   6.71896034
_cell_length_b   6.71896034
_cell_length_c   13.49164202
_cell_angle_alpha   83.10257468
_cell_angle_beta   96.89742532
_cell_angle_gamma   68.77576609
_symmetry_Int_Tables_number   1
_chemical_formula_structural   Li2Cr(PO3)5
_chemical_formula_sum   'Li4 Cr2 P10 O30'
_cell_volume   554.77637806
_cell_formula_units_Z   2
loop_
 _symmetry_equiv_pos_site_id
 _symmetry_equiv_pos_as_xyz
  1  'x, y, z'
loop_
 _atom_site_type_symbol
 _atom_site_label
 _atom_site_symmetry_multiplicity
 _atom_site_fract_x
 _atom_site_fract_y
 _atom_site_fract_z
 _atom_site_occupancy
  Li  Li0  1  0.22962430  0.26770789  0.72338432  1
  Li  Li1  1  0.73229211  0.77037570  0.22338432  1
  Li  Li2  1  0.81117349  0.47283300  0.56468662  1
  Li  Li3  1  0.52716700  0.18882651  0.06468662  1
  Cr  Cr4  1  0.81735777  0.91425276  0.77744813  1
  Cr  Cr5  1  0.08574724  0.18264223  0.27744813  1
  P  P6  1  0.65856976  0.95898362  0.52979760  1
  P  P7  1  0.29253332  0.58464978  0.55719259  1
  P  P8  1  0.37822503  0.81044513  0.83113450  1
  P  P9  1  0.04101638  0.34143024  0.02979760  1
  P  P10  1  0.41535022  0.70746668  0.05719259  1
  P  P11  1  0.18955487  0.62177497  0.33113450  1
  P  P12  1  0.17820489  0.08586733  0.52779483  1
  P  P13  1  0.91413267  0.82179511  0.02779483  1
  P  P14  1  0.76522243  0.42319039  0.82803636  1
  P  P15  1  0.57680961  0.23477757  0.32803636  1
  O  O16  1  0.14300343  0.85329226  0.79827283  1
  O  O17  1  0.14670774  0.85699657  0.29827283  1
  O  O18  1  0.17972930  0.52015462  0.63533574  1
  O  O19  1  0.47984538  0.82027070  0.13533574  1
  O  O20  1  0.20871008  0.84330550  0.54053979  1
  O  O21  1  0.15669450  0.79128992  0.04053979  1
  O  O22  1  0.43441873  0.82709499  0.94656048  1
  O  O23  1  0.17290501  0.56558127  0.44656048  1
  O  O24  1  0.47032294  0.95703491  0.77176016  1
  O  O25  1  0.04296509  0.52967706  0.27176016  1
  O  O26  1  0.23684330  0.30718752  0.98262386  1
  O  O27  1  0.69281248  0.76315670  0.48262386  1
  O  O28  1  0.80694155  0.91837396  0.91865553  1
  O  O29  1  0.53123768  0.47972030  0.56680058  1
  O  O30  1  0.08162604  0.19305845  0.41865553  1
  O  O31  1  0.51038017  0.55970030  0.82457867  1
  O  O32  1  0.52027970  0.46876232  0.06680058  1
  O  O33  1  0.44029970  0.48961983  0.32457867  1
  O  O34  1  0.05741869  0.19657316  0.60397069  1
  O  O35  1  0.80342684  0.94258131  0.10397069  1
  O  O36  1  0.41811638  0.08066831  0.55090211  1
  O  O37  1  0.91933169  0.58188362  0.05090211  1
  O  O38  1  0.86755646  0.57996992  0.79022637  1
  O  O39  1  0.42003008  0.13244354  0.29022637  1
  O  O40  1  0.85515491  0.32183090  0.94627065  1
  O  O41  1  0.67816910  0.14484509  0.44627065  1
  O  O42  1  0.77834993  0.24053930  0.77090650  1
  O  O43  1  0.75946070  0.22165007  0.27090650  1
  O  O44  1  0.79979385  0.94029153  0.62892109  1
  O  O45  1  0.05970847  0.20020615  0.12892109  1
