# generated using pymatgen
data_Co2Mo4N
_symmetry_space_group_name_H-M   'P 1'
_cell_length_a   7.96524456
_cell_length_b   7.96518607
_cell_length_c   7.96461673
_cell_angle_alpha   60.00137678
_cell_angle_beta   60.00159118
_cell_angle_gamma   60.00400855
_symmetry_Int_Tables_number   1
_chemical_formula_structural   Co2Mo4N
_chemical_formula_sum   'Co8 Mo16 N4'
_cell_volume   357.32863504
_cell_formula_units_Z   4
loop_
 _symmetry_equiv_pos_site_id
 _symmetry_equiv_pos_as_xyz
  1  'x, y, z'
loop_
 _atom_site_type_symbol
 _atom_site_label
 _atom_site_symmetry_multiplicity
 _atom_site_fract_x
 _atom_site_fract_y
 _atom_site_fract_z
 _atom_site_occupancy
  Co  Co0  1  0.29306867  0.29299770  0.62090598  1
  Co  Co1  1  0.62085250  0.29302228  0.29307116  1
  Co  Co2  1  0.29308462  0.29301248  0.29306230  1
  Co  Co3  1  0.29305850  0.62088548  0.29303766  1
  Co  Co4  1  0.70704023  0.70704069  0.37888890  1
  Co  Co5  1  0.70706809  0.37887664  0.70699393  1
  Co  Co6  1  0.37882909  0.70708379  0.70701061  1
  Co  Co7  1  0.70708423  0.70708455  0.70700995  1
  Mo  Mo8  1  0.68472179  0.06528079  0.06531894  1
  Mo  Mo9  1  0.49997756  0.50000180  0.00012646  1
  Mo  Mo10  1  0.93468265  0.31532640  0.93469850  1
  Mo  Mo11  1  0.31532814  0.93469306  0.93468171  1
  Mo  Mo12  1  0.31529432  0.93465840  0.31532230  1
  Mo  Mo13  1  0.93467107  0.93469825  0.31534564  1
  Mo  Mo14  1  0.93464855  0.31529284  0.31531895  1
  Mo  Mo15  1  0.68469291  0.68467183  0.06531614  1
  Mo  Mo16  1  0.06531236  0.68468538  0.68467029  1
  Mo  Mo17  1  0.49995999  0.00016747  0.49999288  1
  Mo  Mo18  1  0.68469778  0.06530069  0.68466100  1
  Mo  Mo19  1  0.06531423  0.06529360  0.68470032  1
  Mo  Mo20  1  0.06529134  0.68471118  0.06530893  1
  Mo  Mo21  1  0.00016130  0.49998030  0.49998709  1
  Mo  Mo22  1  0.49988901  0.49991463  0.49991777  1
  Mo  Mo23  1  0.31530107  0.31530315  0.93465866  1
  N  N24  1  0.00001334  0.00002425  0.00001914  1
  N  N25  1  0.00001160  0.00002248  0.49994052  1
  N  N26  1  0.49993441  0.00002230  0.00001756  1
  N  N27  1  0.00001066  0.49994760  0.00001673  1
