# generated using pymatgen
data_LaGa6
_symmetry_space_group_name_H-M   'P 1'
_cell_length_a   6.10957107
_cell_length_b   6.10962977
_cell_length_c   7.76445206
_cell_angle_alpha   89.99956574
_cell_angle_beta   89.99729801
_cell_angle_gamma   90.00428049
_symmetry_Int_Tables_number   1
_chemical_formula_structural   LaGa6
_chemical_formula_sum   'La2 Ga12'
_cell_volume   289.82538816
_cell_formula_units_Z   2
loop_
 _symmetry_equiv_pos_site_id
 _symmetry_equiv_pos_as_xyz
  1  'x, y, z'
loop_
 _atom_site_type_symbol
 _atom_site_label
 _atom_site_symmetry_multiplicity
 _atom_site_fract_x
 _atom_site_fract_y
 _atom_site_fract_z
 _atom_site_occupancy
  La  La0  1  0.00017415  0.49994436  0.00000161  1
  La  La1  1  0.49988926  0.00007829  0.00009226  1
  Ga  Ga2  1  0.50004934  0.50006907  0.16150445  1
  Ga  Ga3  1  0.99996006  0.99992065  0.83847979  1
  Ga  Ga4  1  0.50005432  0.50004902  0.83853863  1
  Ga  Ga5  1  0.99984911  -0.00008760  0.16141123  1
  Ga  Ga6  1  0.20075002  0.70079578  0.34751776  1
  Ga  Ga7  1  0.79927690  0.29923215  0.34744052  1
  Ga  Ga8  1  0.70063656  0.20077999  0.65248216  1
  Ga  Ga9  1  0.29920159  0.79924700  0.65246260  1
  Ga  Ga10  1  0.20077900  0.29925480  0.65257843  1
  Ga  Ga11  1  0.79941896  0.70067469  0.65250271  1
  Ga  Ga12  1  0.70079762  0.79928932  0.34750199  1
  Ga  Ga13  1  0.29916312  0.20075248  0.34748585  1
