# generated using pymatgen
data_Cu3H2(OF2)2
_symmetry_space_group_name_H-M   'P 1'
_cell_length_a   5.60704480
_cell_length_b   4.84981970
_cell_length_c   8.47859353
_cell_angle_alpha   90.00000000
_cell_angle_beta   93.43189065
_cell_angle_gamma   90.00000000
_symmetry_Int_Tables_number   1
_chemical_formula_structural   Cu3H2(OF2)2
_chemical_formula_sum   'Cu6 H4 O4 F8'
_cell_volume   230.14624815
_cell_formula_units_Z   2
loop_
 _symmetry_equiv_pos_site_id
 _symmetry_equiv_pos_as_xyz
  1  'x, y, z'
loop_
 _atom_site_type_symbol
 _atom_site_label
 _atom_site_symmetry_multiplicity
 _atom_site_fract_x
 _atom_site_fract_y
 _atom_site_fract_z
 _atom_site_occupancy
  Cu  Cu0  1  0.01100331  0.53852853  0.67443744  1
  Cu  Cu1  1  0.51100331  0.96147147  0.17443744  1
  Cu  Cu2  1  0.98899669  0.46147147  0.32556256  1
  Cu  Cu3  1  0.48899669  0.03852853  0.82556256  1
  Cu  Cu4  1  0.50000000  0.50000000  0.50000000  1
  Cu  Cu5  1  0.00000000  0.00000000  0.00000000  1
  H  H6  1  0.78980093  0.86749283  0.46304874  1
  H  H7  1  0.28980093  0.63250717  0.96304874  1
  H  H8  1  0.21019907  0.13250717  0.53695126  1
  H  H9  1  0.71019907  0.36749283  0.03695126  1
  O  O10  1  0.81320616  0.66856690  0.48906702  1
  O  O11  1  0.31320616  0.83143310  0.98906702  1
  O  O12  1  0.18679384  0.33143310  0.51093298  1
  O  O13  1  0.68679384  0.16856690  0.01093298  1
  F  F14  1  0.36319308  0.71399626  0.32132580  1
  F  F15  1  0.86319308  0.78600374  0.82132580  1
  F  F16  1  0.63680692  0.28600374  0.67867420  1
  F  F17  1  0.13680692  0.21399626  0.17867420  1
  F  F18  1  0.82399501  0.64194479  0.15049039  1
  F  F19  1  0.32399501  0.85805521  0.65049039  1
  F  F20  1  0.17600499  0.35805521  0.84950961  1
  F  F21  1  0.67600499  0.14194479  0.34950961  1
