# generated using pymatgen
data_CeNiSnH
_symmetry_space_group_name_H-M   'P 1'
_cell_length_a   4.37249492
_cell_length_b   7.29338302
_cell_length_c   8.22702833
_cell_angle_alpha   90.00000000
_cell_angle_beta   90.00000000
_cell_angle_gamma   90.00000000
_symmetry_Int_Tables_number   1
_chemical_formula_structural   CeNiSnH
_chemical_formula_sum   'Ce4 Ni4 Sn4 H4'
_cell_volume   262.36223869
_cell_formula_units_Z   4
loop_
 _symmetry_equiv_pos_site_id
 _symmetry_equiv_pos_as_xyz
  1  'x, y, z'
loop_
 _atom_site_type_symbol
 _atom_site_label
 _atom_site_symmetry_multiplicity
 _atom_site_fract_x
 _atom_site_fract_y
 _atom_site_fract_z
 _atom_site_occupancy
  Ce  Ce0  1  0.24268436  0.02078683  0.30947491  1
  Ce  Ce1  1  0.74268436  0.97921317  0.69052509  1
  Ce  Ce2  1  0.74268436  0.47921317  0.80947491  1
  Ce  Ce3  1  0.24268436  0.52078683  0.19052509  1
  Ni  Ni4  1  0.24275238  0.77661873  0.89071811  1
  Ni  Ni5  1  0.74275238  0.22338127  0.10928189  1
  Ni  Ni6  1  0.74275238  0.72338127  0.39071811  1
  Ni  Ni7  1  0.24275238  0.27661873  0.60928189  1
  Sn  Sn8  1  0.24283356  0.66248701  0.57138815  1
  Sn  Sn9  1  0.74283356  0.33751299  0.42861185  1
  Sn  Sn10  1  0.74283356  0.83751299  0.07138815  1
  Sn  Sn11  1  0.24283356  0.16248701  0.92861185  1
  H  H12  1  0.24263069  0.55020765  0.91414140  1
  H  H13  1  0.74263069  0.44979235  0.08585860  1
  H  H14  1  0.74263069  0.94979235  0.41414140  1
  H  H15  1  0.24263069  0.05020765  0.58585860  1
