# generated using pymatgen
data_EuMgH4
_symmetry_space_group_name_H-M   'P 1'
_cell_length_a   6.84709858
_cell_length_b   6.84709858
_cell_length_c   5.56822993
_cell_angle_alpha   90.00000000
_cell_angle_beta   90.00000000
_cell_angle_gamma   32.91177471
_symmetry_Int_Tables_number   1
_chemical_formula_structural   EuMgH4
_chemical_formula_sum   'Eu2 Mg2 H8'
_cell_volume   141.84289428
_cell_formula_units_Z   2
loop_
 _symmetry_equiv_pos_site_id
 _symmetry_equiv_pos_as_xyz
  1  'x, y, z'
loop_
 _atom_site_type_symbol
 _atom_site_label
 _atom_site_symmetry_multiplicity
 _atom_site_fract_x
 _atom_site_fract_y
 _atom_site_fract_z
 _atom_site_occupancy
  Eu  Eu0  1  0.84811541  0.84811541  0.74403511  1
  Eu  Eu1  1  0.15188459  0.15188459  0.24403511  1
  Mg  Mg2  1  0.58569143  0.58569143  0.69574441  1
  Mg  Mg3  1  0.41430857  0.41430857  0.19574441  1
  H  H4  1  0.66965111  0.66965111  0.97511175  1
  H  H5  1  0.33034889  0.33034889  0.47511175  1
  H  H6  1  0.70416931  0.70416931  0.48996718  1
  H  H7  1  0.29583069  0.29583069  0.98996718  1
  H  H8  1  0.92717431  0.92717431  0.15265086  1
  H  H9  1  0.07282569  0.07282569  0.65265086  1
  H  H10  1  0.45593475  0.45593475  0.84349070  1
  H  H11  1  0.54406525  0.54406525  0.34349070  1
