# generated using pymatgen
data_Pr7C3I10
_symmetry_space_group_name_H-M   'P 1'
_cell_length_a   9.79203604
_cell_length_b   11.84196753
_cell_length_c   14.07076215
_cell_angle_alpha   79.37035991
_cell_angle_beta   71.46137253
_cell_angle_gamma   66.17272492
_symmetry_Int_Tables_number   1
_chemical_formula_structural   Pr7C3I10
_chemical_formula_sum   'Pr14 C6 I20'
_cell_volume   1412.13421832
_cell_formula_units_Z   2
loop_
 _symmetry_equiv_pos_site_id
 _symmetry_equiv_pos_as_xyz
  1  'x, y, z'
loop_
 _atom_site_type_symbol
 _atom_site_label
 _atom_site_symmetry_multiplicity
 _atom_site_fract_x
 _atom_site_fract_y
 _atom_site_fract_z
 _atom_site_occupancy
  Pr  Pr0  1  0.62373792  0.07066654  0.35979380  1
  Pr  Pr1  1  0.86740660  0.72239675  0.41327640  1
  Pr  Pr2  1  0.95119675  0.57962742  0.16635509  1
  Pr  Pr3  1  0.04837289  0.88393181  0.17706419  1
  Pr  Pr4  1  0.25465365  0.04838716  0.91989831  1
  Pr  Pr5  1  0.74534635  0.95161284  0.08010169  1
  Pr  Pr6  1  0.04880325  0.42037258  0.83364491  1
  Pr  Pr7  1  0.54232098  0.79249951  0.30835880  1
  Pr  Pr8  1  0.16524927  0.75903312  0.90009537  1
  Pr  Pr9  1  0.13259340  0.27760325  0.58672360  1
  Pr  Pr10  1  0.95162711  0.11606819  0.82293581  1
  Pr  Pr11  1  0.83475073  0.24096688  0.09990463  1
  Pr  Pr12  1  0.37626208  0.92933346  0.64020620  1
  Pr  Pr13  1  0.45767902  0.20750049  0.69164120  1
  C  C14  1  0.16782903  0.22532838  0.76969899  1
  C  C15  1  0.24355012  0.11239889  0.72463992  1
  C  C16  1  0.96082888  0.05655608  0.02242348  1
  C  C17  1  0.75644988  0.88760111  0.27536008  1
  C  C18  1  0.03917112  0.94344392  0.97757652  1
  C  C19  1  0.83217097  0.77467162  0.23030101  1
  I  I20  1  0.06928438  0.86824384  0.69601271  1
  I  I21  1  0.60306902  0.07876875  0.87726740  1
  I  I22  1  0.50361220  0.22033524  0.16953791  1
  I  I23  1  0.28148995  0.60681315  0.09103553  1
  I  I24  1  0.95895910  0.56542781  0.63762167  1
  I  I25  1  0.39693098  0.92123125  0.12273260  1
  I  I26  1  0.49638780  0.77966476  0.83046209  1
  I  I27  1  0.93071562  0.13175616  0.30398729  1
  I  I28  1  0.56648526  0.65528738  0.52071847  1
  I  I29  1  0.14574018  0.30394816  0.04166793  1
  I  I30  1  0.04104090  0.43457219  0.36237833  1
  I  I31  1  0.43351474  0.34471262  0.47928153  1
  I  I32  1  0.71490670  0.95304250  0.56934768  1
  I  I33  1  0.28509330  0.04695750  0.43065232  1
  I  I34  1  0.64473881  0.52429557  0.22481808  1
  I  I35  1  0.71851005  0.39318685  0.90896447  1
  I  I36  1  0.81325073  0.24762923  0.62556944  1
  I  I37  1  0.35526119  0.47570443  0.77518192  1
  I  I38  1  0.85425982  0.69605184  0.95833207  1
  I  I39  1  0.18674927  0.75237077  0.37443056  1
