# generated using pymatgen
data_CeCoGeH
_symmetry_space_group_name_H-M   'P 1'
_cell_length_a   4.00098408
_cell_length_b   4.00100747
_cell_length_c   7.44878078
_cell_angle_alpha   90.00015621
_cell_angle_beta   89.99731238
_cell_angle_gamma   90.00093570
_symmetry_Int_Tables_number   1
_chemical_formula_structural   CeCoGeH
_chemical_formula_sum   'Ce2 Co2 Ge2 H2'
_cell_volume   119.23983827
_cell_formula_units_Z   2
loop_
 _symmetry_equiv_pos_site_id
 _symmetry_equiv_pos_as_xyz
  1  'x, y, z'
loop_
 _atom_site_type_symbol
 _atom_site_label
 _atom_site_symmetry_multiplicity
 _atom_site_fract_x
 _atom_site_fract_y
 _atom_site_fract_z
 _atom_site_occupancy
  Ce  Ce0  1  0.74999385  0.74998790  0.32464452  1
  Ce  Ce1  1  0.25000556  0.25000303  0.67541735  1
  Co  Co2  1  0.75000303  0.25000321  0.99987452  1
  Co  Co3  1  0.24999765  0.75000192  0.99988172  1
  Ge  Ge4  1  0.75000204  0.75000096  0.82877304  1
  Ge  Ge5  1  0.25000158  0.25000026  0.17110379  1
  H  H6  1  0.24999568  0.75000218  0.50015263  1
  H  H7  1  0.75000060  0.25000054  0.50015242  1
