# generated using pymatgen
data_SbP3C(NCl5)3
_symmetry_space_group_name_H-M   'P 1'
_cell_length_a   9.38476892
_cell_length_b   10.83851363
_cell_length_c   13.40101886
_cell_angle_alpha   86.40132476
_cell_angle_beta   88.84367136
_cell_angle_gamma   75.91968058
_symmetry_Int_Tables_number   1
_chemical_formula_structural   SbP3C(NCl5)3
_chemical_formula_sum   'Sb2 P6 C2 N6 Cl30'
_cell_volume   1319.53288721
_cell_formula_units_Z   2
loop_
 _symmetry_equiv_pos_site_id
 _symmetry_equiv_pos_as_xyz
  1  'x, y, z'
loop_
 _atom_site_type_symbol
 _atom_site_label
 _atom_site_symmetry_multiplicity
 _atom_site_fract_x
 _atom_site_fract_y
 _atom_site_fract_z
 _atom_site_occupancy
  Sb  Sb0  1  0.31190460  0.25166710  0.30962733  1
  Sb  Sb1  1  0.68809540  0.74833290  0.69037267  1
  P  P2  1  0.86577003  0.21334785  0.64988910  1
  P  P3  1  0.59142472  0.70535700  0.21816426  1
  P  P4  1  0.21449379  0.79008959  0.00567991  1
  P  P5  1  0.40857528  0.29464300  0.78183574  1
  P  P6  1  0.13422997  0.78665215  0.35011090  1
  P  P7  1  0.78550621  0.20991041  0.99432009  1
  C  C8  1  0.30727321  0.76164666  0.18889815  1
  C  C9  1  0.69272679  0.23835334  0.81110185  1
  N  N10  1  0.19377229  0.78706121  0.12326230  1
  N  N11  1  0.71841329  0.23622945  0.71174493  1
  N  N12  1  0.44600290  0.73602992  0.15365808  1
  N  N13  1  0.28158671  0.76377055  0.28825507  1
  N  N14  1  0.80622771  0.21293879  0.87673770  1
  N  N15  1  0.55399710  0.26397008  0.84634192  1
  Cl  Cl16  1  0.95429347  0.68843557  0.69646432  1
  Cl  Cl17  1  0.98247246  0.17162934  0.05657823  1
  Cl  Cl18  1  0.30696018  0.08399729  0.43565235  1
  Cl  Cl19  1  0.31475030  0.39709969  0.43652843  1
  Cl  Cl20  1  0.31602932  0.41890436  0.17922525  1
  Cl  Cl21  1  0.99009237  0.33639230  0.66923249  1
  Cl  Cl22  1  0.32315549  0.62879195  0.94920179  1
  Cl  Cl23  1  0.24472504  0.30485135  0.87977690  1
  Cl  Cl24  1  0.63607721  0.53919693  0.29713233  1
  Cl  Cl25  1  0.31123375  0.92302581  0.94713672  1
  Cl  Cl26  1  0.81077150  0.23706275  0.50716972  1
  Cl  Cl27  1  0.99909686  0.95938609  0.33041002  1
  Cl  Cl28  1  0.31391898  0.10424922  0.17937610  1
  Cl  Cl29  1  0.00990763  0.66360770  0.33076751  1
  Cl  Cl30  1  0.68876625  0.07697419  0.05286328  1
  Cl  Cl31  1  0.42023575  0.80772011  0.69071402  1
  Cl  Cl32  1  0.04570653  0.31156443  0.30353568  1
  Cl  Cl33  1  0.18922850  0.76293725  0.49283028  1
  Cl  Cl34  1  0.61067724  0.83452283  0.31093461  1
  Cl  Cl35  1  0.38932276  0.16547717  0.68906539  1
  Cl  Cl36  1  0.67684451  0.37120805  0.05079821  1
  Cl  Cl37  1  0.68397068  0.58109564  0.82077475  1
  Cl  Cl38  1  0.01752754  0.82837066  0.94342177  1
  Cl  Cl39  1  0.68524970  0.60290031  0.56347157  1
  Cl  Cl40  1  0.00090314  0.04061391  0.66958998  1
  Cl  Cl41  1  0.57976425  0.19227989  0.30928598  1
  Cl  Cl42  1  0.68608102  0.89575078  0.82062390  1
  Cl  Cl43  1  0.75527496  0.69514865  0.12022310  1
  Cl  Cl44  1  0.36392279  0.46080307  0.70286767  1
  Cl  Cl45  1  0.69303982  0.91600271  0.56434765  1
