# generated using pymatgen
data_KZnPO4
_symmetry_space_group_name_H-M   'P 1'
_cell_length_a   18.47247740
_cell_length_b   18.47247721
_cell_length_c   8.64909598
_cell_angle_alpha   90.00000000
_cell_angle_beta   90.00000000
_cell_angle_gamma   120.00000033
_symmetry_Int_Tables_number   1
_chemical_formula_structural   KZnPO4
_chemical_formula_sum   'K24 Zn24 P24 O96'
_cell_volume   2555.94574146
_cell_formula_units_Z   24
loop_
 _symmetry_equiv_pos_site_id
 _symmetry_equiv_pos_as_xyz
  1  'x, y, z'
loop_
 _atom_site_type_symbol
 _atom_site_label
 _atom_site_symmetry_multiplicity
 _atom_site_fract_x
 _atom_site_fract_y
 _atom_site_fract_z
 _atom_site_occupancy
  K  K0  1  0.48046078  0.00008874  0.92734564  1
  K  K1  1  0.19477698  0.33442844  0.41810221  1
  K  K2  1  0.51962796  0.51953922  0.92734564  1
  K  K3  1  0.80522302  0.66557156  0.91810221  1
  K  K4  1  0.15166050  0.33088138  0.92806100  1
  K  K5  1  0.33333300  0.66666700  0.42072519  1
  K  K6  1  0.66557156  0.86034854  0.41810221  1
  K  K7  1  0.33088138  0.17922088  0.42806100  1
  K  K8  1  0.66666700  0.33333300  0.42516371  1
  K  K9  1  0.84833950  0.66911862  0.42806100  1
  K  K10  1  0.51953922  0.99991126  0.42734564  1
  K  K11  1  0.00008874  0.51962796  0.42734564  1
  K  K12  1  0.00000000  0.00000000  0.95885185  1
  K  K13  1  0.99991126  0.48037204  0.92734564  1
  K  K14  1  0.82077912  0.15166050  0.42806100  1
  K  K15  1  0.66911862  0.82077912  0.92806100  1
  K  K16  1  0.66666700  0.33333300  0.92072519  1
  K  K17  1  0.33442844  0.13965146  0.91810221  1
  K  K18  1  0.17922088  0.84833950  0.92806100  1
  K  K19  1  0.33333300  0.66666700  0.92516371  1
  K  K20  1  0.86034854  0.19477698  0.91810221  1
  K  K21  1  0.13965146  0.80522302  0.41810221  1
  K  K22  1  0.48037204  0.48046078  0.42734564  1
  K  K23  1  0.00000000  0.00000000  0.45885185  1
  Zn  Zn24  1  0.99746403  0.66349918  0.11305472  1
  Zn  Zn25  1  0.83666318  0.33848293  0.24396117  1
  Zn  Zn26  1  0.00253597  0.33650082  0.61305472  1
  Zn  Zn27  1  0.33650082  0.33396486  0.11305472  1
  Zn  Zn28  1  0.84455867  0.00996659  0.73942936  1
  Zn  Zn29  1  0.16540792  0.15544133  0.73942936  1
  Zn  Zn30  1  0.15544133  0.99003341  0.23942936  1
  Zn  Zn31  1  0.49452205  0.32443909  0.74459042  1
  Zn  Zn32  1  0.83459208  0.84455867  0.23942936  1
  Zn  Zn33  1  0.49818026  0.83666318  0.74396117  1
  Zn  Zn34  1  0.00996659  0.16540792  0.23942936  1
  Zn  Zn35  1  0.32443909  0.82991704  0.24459042  1
  Zn  Zn36  1  0.50181974  0.16333682  0.24396117  1
  Zn  Zn37  1  0.66151707  0.49818026  0.24396117  1
  Zn  Zn38  1  0.67556091  0.17008296  0.74459042  1
  Zn  Zn39  1  0.33848293  0.50181974  0.74396117  1
  Zn  Zn40  1  0.82991704  0.50547795  0.74459042  1
  Zn  Zn41  1  0.66603514  0.00253597  0.11305472  1
  Zn  Zn42  1  0.99003341  0.83459208  0.73942936  1
  Zn  Zn43  1  0.17008296  0.49452205  0.24459042  1
  Zn  Zn44  1  0.16333682  0.66151707  0.74396117  1
  Zn  Zn45  1  0.50547795  0.67556091  0.24459042  1
  Zn  Zn46  1  0.33396486  0.99746403  0.61305472  1
  Zn  Zn47  1  0.66349918  0.66603514  0.61305472  1
  P  P48  1  0.82900910  0.84015575  0.62422952  1
  P  P49  1  0.50061356  0.67459751  0.63438988  1
  P  P50  1  0.49208915  0.83671830  0.13493385  1
  P  P51  1  0.34462916  0.50791085  0.13493385  1
  P  P52  1  0.33135031  0.00379784  0.21664268  1
  P  P53  1  0.83671830  0.34462916  0.63493385  1
  P  P54  1  0.16328170  0.65537084  0.13493385  1
  P  P55  1  0.99620216  0.32755247  0.21664268  1
  P  P56  1  0.32755247  0.33135031  0.71664268  1
  P  P57  1  0.84015575  0.01114665  0.12422952  1
  P  P58  1  0.17099090  0.15984425  0.12422952  1
  P  P59  1  0.82601604  0.50061356  0.13438988  1
  P  P60  1  0.00379784  0.67244753  0.71664268  1
  P  P61  1  0.98885335  0.82900910  0.12422952  1
  P  P62  1  0.17398396  0.49938644  0.63438988  1
  P  P63  1  0.32540249  0.82601604  0.63438988  1
  P  P64  1  0.65537084  0.49208915  0.63493385  1
  P  P65  1  0.66864969  0.99620216  0.71664268  1
  P  P66  1  0.49938644  0.32540249  0.13438988  1
  P  P67  1  0.50791085  0.16328170  0.63493385  1
  P  P68  1  0.15984425  0.98885335  0.62422952  1
  P  P69  1  0.67459751  0.17398396  0.13438988  1
  P  P70  1  0.67244753  0.66864969  0.21664268  1
  P  P71  1  0.01114665  0.17099090  0.62422952  1
  O  O72  1  0.38384351  0.29519717  0.66275488  1
  O  O73  1  0.23625440  0.26981125  0.66379393  1
  O  O74  1  0.92071381  0.04848560  0.22512465  1
  O  O75  1  0.81067328  0.51718740  0.96566002  1
  O  O76  1  0.44429943  0.86864600  0.23724352  1
  O  O77  1  0.04734298  0.18328210  0.45806698  1
  O  O78  1  0.48281260  0.29348589  0.96566002  1
  O  O79  1  0.11282984  0.69908305  0.18141067  1
  O  O80  1  0.41711703  0.06090080  0.13481401  1
  O  O81  1  0.95265702  0.81671790  0.95806698  1
  O  O82  1  0.86864600  0.42434656  0.73724352  1
  O  O83  1  0.96644315  0.23625440  0.16379393  1
  O  O84  1  0.08555416  0.88626886  0.12195032  1
  O  O85  1  0.06090080  0.64378377  0.63481401  1
  O  O86  1  0.88626886  0.80071469  0.62195032  1
  O  O87  1  0.35621623  0.41711703  0.63481401  1
  O  O88  1  0.38465002  0.78997957  0.65953866  1
  O  O89  1  0.51718740  0.70651411  0.46566002  1
  O  O90  1  0.69908305  0.58625321  0.68141067  1
  O  O91  1  0.29519717  0.91135366  0.16275488  1
  O  O92  1  0.93909920  0.35621623  0.13481401  1
  O  O93  1  0.78997957  0.40532955  0.15953866  1
  O  O94  1  0.92148591  0.54736509  0.17385034  1
  O  O95  1  0.73018875  0.96644315  0.66379393  1
  O  O96  1  0.46584822  0.24765563  0.24212138  1
  O  O97  1  0.21819259  0.46584822  0.74212138  1
  O  O98  1  0.34508767  0.01372749  0.39110986  1
  O  O99  1  0.86406088  0.04734298  0.95806698  1
  O  O100  1  0.96577509  0.74263359  0.19621034  1
  O  O101  1  0.78180741  0.53415178  0.24212138  1
  O  O102  1  0.33136018  0.34508767  0.89110986  1
  O  O103  1  0.03422491  0.25736641  0.69621034  1
  O  O104  1  0.12777179  0.07928619  0.22512465  1
  O  O105  1  0.21002043  0.59467045  0.65953866  1
  O  O106  1  0.11373114  0.19928531  0.12195032  1
  O  O107  1  0.66863982  0.65491233  0.39110986  1
  O  O108  1  0.52303108  0.15007079  0.46388534  1
  O  O109  1  0.01372749  0.66863982  0.89110986  1
  O  O110  1  0.18932672  0.48281260  0.46566002  1
  O  O111  1  0.13135400  0.57565344  0.23724352  1
  O  O112  1  0.04848560  0.12777179  0.72512465  1
  O  O113  1  0.58288297  0.93909920  0.63481401  1
  O  O114  1  0.37412082  0.92148591  0.67385034  1
  O  O115  1  0.91444584  0.11373114  0.62195032  1
  O  O116  1  0.64378377  0.58288297  0.13481401  1
  O  O117  1  0.74263359  0.77685850  0.69621034  1
  O  O118  1  0.75234437  0.21819259  0.24212138  1
  O  O119  1  0.61534998  0.21002043  0.15953866  1
  O  O120  1  0.26981125  0.03355685  0.16379393  1
  O  O121  1  0.70480283  0.08864634  0.66275488  1
  O  O122  1  0.47696892  0.84992921  0.96388534  1
  O  O123  1  0.03355685  0.76374560  0.66379393  1
  O  O124  1  0.30091695  0.41374679  0.18141067  1
  O  O125  1  0.07928619  0.95151440  0.72512465  1
  O  O126  1  0.40532955  0.61534998  0.65953866  1
  O  O127  1  0.59467045  0.38465002  0.15953866  1
  O  O128  1  0.28393890  0.54188849  0.16347774  1
  O  O129  1  0.84992921  0.37296029  0.46388534  1
  O  O130  1  0.65491233  0.98627251  0.89110986  1
  O  O131  1  0.08864634  0.38384351  0.16275488  1
  O  O132  1  0.74205041  0.28393890  0.66347774  1
  O  O133  1  0.22314150  0.96577509  0.69621034  1
  O  O134  1  0.53415178  0.75234437  0.74212138  1
  O  O135  1  0.41374679  0.11282984  0.68141067  1
  O  O136  1  0.62587918  0.07851409  0.17385034  1
  O  O137  1  0.98627251  0.33136018  0.39110986  1
  O  O138  1  0.45263491  0.37412082  0.17385034  1
  O  O139  1  0.18328210  0.13593912  0.95806698  1
  O  O140  1  0.91135366  0.61615649  0.66275488  1
  O  O141  1  0.25736641  0.22314150  0.19621034  1
  O  O142  1  0.88717016  0.30091695  0.68141067  1
  O  O143  1  0.70651411  0.18932672  0.96566002  1
  O  O144  1  0.19928531  0.08555416  0.62195032  1
  O  O145  1  0.15007079  0.62703971  0.96388534  1
  O  O146  1  0.76374560  0.73018875  0.16379393  1
  O  O147  1  0.07851409  0.45263491  0.67385034  1
  O  O148  1  0.25794959  0.71606110  0.16347774  1
  O  O149  1  0.61615649  0.70480283  0.16275488  1
  O  O150  1  0.24765563  0.78180741  0.74212138  1
  O  O151  1  0.54188849  0.25794959  0.66347774  1
  O  O152  1  0.80071469  0.91444584  0.12195032  1
  O  O153  1  0.62703971  0.47696892  0.46388534  1
  O  O154  1  0.57565344  0.44429943  0.73724352  1
  O  O155  1  0.81671790  0.86406088  0.45806698  1
  O  O156  1  0.37296029  0.52303108  0.96388534  1
  O  O157  1  0.13593912  0.95265702  0.45806698  1
  O  O158  1  0.58625321  0.88717016  0.18141067  1
  O  O159  1  0.77685850  0.03422491  0.19621034  1
  O  O160  1  0.42434656  0.55570057  0.23724352  1
  O  O161  1  0.55570057  0.13135400  0.73724352  1
  O  O162  1  0.95151440  0.87222821  0.22512465  1
  O  O163  1  0.45811151  0.74205041  0.16347774  1
  O  O164  1  0.87222821  0.92071381  0.72512465  1
  O  O165  1  0.54736509  0.62587918  0.67385034  1
  O  O166  1  0.29348589  0.81067328  0.46566002  1
  O  O167  1  0.71606110  0.45811151  0.66347774  1
