# generated using pymatgen
data_K3Cr11S18
_symmetry_space_group_name_H-M   'P 1'
_cell_length_a   3.52010726
_cell_length_b   10.87903068
_cell_length_c   16.47179091
_cell_angle_alpha   99.82916863
_cell_angle_beta   89.99109392
_cell_angle_gamma   99.29329921
_symmetry_Int_Tables_number   1
_chemical_formula_structural   K3Cr11S18
_chemical_formula_sum   'K3 Cr11 S18'
_cell_volume   613.13208835
_cell_formula_units_Z   1
loop_
 _symmetry_equiv_pos_site_id
 _symmetry_equiv_pos_as_xyz
  1  'x, y, z'
loop_
 _atom_site_type_symbol
 _atom_site_label
 _atom_site_symmetry_multiplicity
 _atom_site_fract_x
 _atom_site_fract_y
 _atom_site_fract_z
 _atom_site_occupancy
  K  K0  1  0.80606472  0.60933847  0.91133799  1
  K  K1  1  0.20239848  0.39048852  0.08977670  1
  K  K2  1  0.51066395  0.00275717  0.50033748  1
  Cr  Cr3  1  0.84387334  0.69465770  0.27834296  1
  Cr  Cr4  1  0.15012485  0.30520661  0.72230382  1
  Cr  Cr5  1  0.29575241  0.58641075  0.42974546  1
  Cr  Cr6  1  0.58693763  0.18000759  0.86779658  1
  Cr  Cr7  1  0.46811910  0.93789178  0.74320844  1
  Cr  Cr8  1  0.53429256  0.06105512  0.25503757  1
  Cr  Cr9  1  0.71007242  0.41321137  0.57075735  1
  Cr  Cr10  1  0.40811650  0.81864186  0.13174291  1
  Cr  Cr11  1  0.83268514  0.66766566  0.67956758  1
  Cr  Cr12  1  0.16621906  0.33163379  0.31993920  1
  Cr  Cr13  1  0.99851965  0.99935040  0.99935612  1
  S  S14  1  0.63520340  0.26861961  0.22679669  1
  S  S15  1  0.42115438  0.84384037  0.99162304  1
  S  S16  1  0.83251016  0.66746653  0.12615175  1
  S  S17  1  0.72580502  0.45642106  0.71857992  1
  S  S18  1  0.29335510  0.58610988  0.57596798  1
  S  S19  1  0.57426932  0.15379125  0.71881509  1
  S  S20  1  0.36430837  0.73117065  0.77257819  1
  S  S21  1  0.93683367  0.87474892  0.64801421  1
  S  S22  1  0.16264587  0.33137493  0.87409943  1
  S  S23  1  0.13812781  0.26971478  0.57396874  1
  S  S24  1  0.06602649  0.12406839  0.35027157  1
  S  S25  1  0.42002619  0.84567535  0.28084539  1
  S  S26  1  0.86723692  0.72999592  0.42667340  1
  S  S27  1  0.57548884  0.15467275  0.00758064  1
  S  S28  1  0.99802541  0.99070032  0.14764151  1
  S  S29  1  0.26897463  0.54346441  0.28208126  1
  S  S30  1  0.00314440  0.00811404  0.85102730  1
  S  S31  1  0.70772821  0.41293006  0.42417473  1
