# generated using pymatgen
data_LiMn4(BO3)4
_symmetry_space_group_name_H-M   'P 1'
_cell_length_a   7.77212556
_cell_length_b   10.36268727
_cell_length_c   6.17642962
_cell_angle_alpha   90.33529046
_cell_angle_beta   83.79270397
_cell_angle_gamma   88.86820693
_symmetry_Int_Tables_number   1
_chemical_formula_structural   LiMn4(BO3)4
_chemical_formula_sum   'Li2 Mn8 B8 O24'
_cell_volume   494.42140296
_cell_formula_units_Z   2
loop_
 _symmetry_equiv_pos_site_id
 _symmetry_equiv_pos_as_xyz
  1  'x, y, z'
loop_
 _atom_site_type_symbol
 _atom_site_label
 _atom_site_symmetry_multiplicity
 _atom_site_fract_x
 _atom_site_fract_y
 _atom_site_fract_z
 _atom_site_occupancy
  Li  Li0  1  0.69109048  0.95661719  0.63171640  1
  Li  Li1  1  0.30890952  0.54338281  0.36828360  1
  Mn  Mn2  1  0.81470864  0.21854177  0.45505147  1
  Mn  Mn3  1  0.67422551  0.04991948  0.07760911  1
  Mn  Mn4  1  0.32577449  0.45008052  0.92239089  1
  Mn  Mn5  1  0.81424021  0.69364855  0.43833487  1
  Mn  Mn6  1  0.18529136  0.28145823  0.54494853  1
  Mn  Mn7  1  0.69759951  0.54034250  0.04112867  1
  Mn  Mn8  1  0.30240049  0.95965750  0.95887133  1
  Mn  Mn9  1  0.18575979  0.80635145  0.56166513  1
  B  B10  1  0.48491858  0.19443673  0.74537263  1
  B  B11  1  0.00533817  0.45524152  0.25266325  1
  B  B12  1  0.50325956  0.71423011  0.75439520  1
  B  B13  1  0.98720087  0.96273344  0.28187666  1
  B  B14  1  0.99466183  0.04475848  0.74733675  1
  B  B15  1  0.51508142  0.30556327  0.25462737  1
  B  B16  1  0.01279913  0.53726656  0.71812334  1
  B  B17  1  0.49674044  0.78576989  0.24560480  1
  O  O18  1  0.98509639  0.16933879  0.65908875  1
  O  O19  1  0.88420498  0.47630617  0.84045937  1
  O  O20  1  0.82568503  0.02236145  0.34390518  1
  O  O21  1  0.50429368  0.06701699  0.81150718  1
  O  O22  1  0.98976381  0.66108869  0.63557156  1
  O  O23  1  0.62203050  0.26437991  0.65998834  1
  O  O24  1  0.85531431  0.98333267  0.83788362  1
  O  O25  1  0.32253388  0.25708253  0.78828304  1
  O  O26  1  0.84108712  0.51903230  0.28599567  1
  O  O27  1  0.52333942  0.59214747  0.84369865  1
  O  O28  1  0.67746612  0.24291747  0.21171696  1
  O  O29  1  0.63718240  0.77741034  0.64216645  1
  O  O30  1  0.37796950  0.23562009  0.34001166  1
  O  O31  1  0.33907492  0.77541984  0.79092282  1
  O  O32  1  0.49570632  0.43298301  0.18849282  1
  O  O33  1  0.17431497  0.47763855  0.65609482  1
  O  O34  1  0.66092508  0.72458016  0.20907718  1
  O  O35  1  0.11579502  0.02369383  0.15954063  1
  O  O36  1  0.36281760  0.72258966  0.35783355  1
  O  O37  1  0.01490361  0.33066121  0.34091125  1
  O  O38  1  0.47666058  0.90785253  0.15630135  1
  O  O39  1  0.15891288  0.98096770  0.71400433  1
  O  O40  1  0.14468569  0.51666733  0.16211638  1
  O  O41  1  0.01023619  0.83891131  0.36442844  1
