# generated using pymatgen
data_Te2Mo3Se7Br10
_symmetry_space_group_name_H-M   'P 1'
_cell_length_a   10.65264685
_cell_length_b   11.51058618
_cell_length_c   12.86205219
_cell_angle_alpha   84.69005028
_cell_angle_beta   85.46421485
_cell_angle_gamma   76.60606561
_symmetry_Int_Tables_number   1
_chemical_formula_structural   Te2Mo3Se7Br10
_chemical_formula_sum   'Te4 Mo6 Se14 Br20'
_cell_volume   1524.93326105
_cell_formula_units_Z   2
loop_
 _symmetry_equiv_pos_site_id
 _symmetry_equiv_pos_as_xyz
  1  'x, y, z'
loop_
 _atom_site_type_symbol
 _atom_site_label
 _atom_site_symmetry_multiplicity
 _atom_site_fract_x
 _atom_site_fract_y
 _atom_site_fract_z
 _atom_site_occupancy
  Te  Te0  1  0.15585974  0.67705249  0.78862148  1
  Te  Te1  1  0.84414026  0.32294751  0.21137852  1
  Te  Te2  1  0.86964786  0.45009868  0.63117212  1
  Te  Te3  1  0.13035214  0.54990132  0.36882788  1
  Mo  Mo4  1  0.20909344  0.90808090  0.77786687  1
  Mo  Mo5  1  0.79090656  0.09191910  0.22213313  1
  Mo  Mo6  1  0.39565374  0.99326907  0.64887375  1
  Mo  Mo7  1  0.60434626  0.00673093  0.35112625  1
  Mo  Mo8  1  0.39549044  0.99397902  0.86573963  1
  Mo  Mo9  1  0.60450956  0.00602098  0.13426037  1
  Se  Se10  1  0.84839398  0.92241746  0.36468720  1
  Se  Se11  1  0.38089352  0.18382384  0.74223810  1
  Se  Se12  1  0.61910648  0.81617616  0.25776190  1
  Se  Se13  1  0.77027809  0.11278686  0.42621989  1
  Se  Se14  1  0.15160602  0.07758254  0.63531280  1
  Se  Se15  1  0.44204712  0.80794823  0.76994963  1
  Se  Se16  1  0.15158724  0.08001823  0.89818453  1
  Se  Se17  1  0.22891446  0.88967838  0.98029236  1
  Se  Se18  1  0.22972191  0.88721314  0.57378011  1
  Se  Se19  1  0.55795288  0.19205177  0.23005037  1
  Se  Se20  1  0.41696101  0.95034402  0.25992976  1
  Se  Se21  1  0.77108554  0.11032162  0.01970764  1
  Se  Se22  1  0.58303899  0.04965598  0.74007024  1
  Se  Se23  1  0.84841276  0.91998177  0.10181547  1
  Br  Br24  1  0.76464160  0.57841750  0.78348910  1
  Br  Br25  1  0.41972412  0.13856480  0.47202596  1
  Br  Br26  1  0.57955718  0.86013469  0.98457238  1
  Br  Br27  1  0.97856560  0.65747821  0.54855097  1
  Br  Br28  1  0.95969745  0.89574067  0.78836128  1
  Br  Br29  1  0.67514679  0.52103981  0.51623568  1
  Br  Br30  1  0.09478023  0.32441062  0.75485430  1
  Br  Br31  1  0.62664550  0.48047571  0.20785403  1
  Br  Br32  1  0.42044282  0.13986531  0.01542762  1
  Br  Br33  1  0.90521977  0.67558938  0.24514570  1
  Br  Br34  1  0.32485321  0.47896019  0.48376432  1
  Br  Br35  1  0.04030255  0.10425933  0.21163872  1
  Br  Br36  1  0.23535840  0.42158250  0.21651090  1
  Br  Br37  1  0.02143440  0.34252179  0.45144903  1
  Br  Br38  1  0.22180271  0.73572705  0.30116292  1
  Br  Br39  1  0.90412878  0.36905714  0.02034288  1
  Br  Br40  1  0.77819729  0.26427295  0.69883708  1
  Br  Br41  1  0.09587122  0.63094286  0.97965712  1
  Br  Br42  1  0.58027588  0.86143520  0.52797404  1
  Br  Br43  1  0.37335450  0.51952429  0.79214597  1
