# generated using pymatgen
data_Nd2Ti4O11
_symmetry_space_group_name_H-M   'P 1'
_cell_length_a   5.12813400
_cell_length_b   7.31869456
_cell_length_c   12.71171835
_cell_angle_alpha   74.34657491
_cell_angle_beta   78.28789106
_cell_angle_gamma   69.46079342
_symmetry_Int_Tables_number   1
_chemical_formula_structural   Nd2Ti4O11
_chemical_formula_sum   'Nd4 Ti8 O22'
_cell_volume   427.07385808
_cell_formula_units_Z   2
loop_
 _symmetry_equiv_pos_site_id
 _symmetry_equiv_pos_as_xyz
  1  'x, y, z'
loop_
 _atom_site_type_symbol
 _atom_site_label
 _atom_site_symmetry_multiplicity
 _atom_site_fract_x
 _atom_site_fract_y
 _atom_site_fract_z
 _atom_site_occupancy
  Nd  Nd0  1  0.80505161  0.30184713  0.09401387  1
  Nd  Nd1  1  0.79766397  0.80314456  0.59416247  1
  Nd  Nd2  1  0.19268670  0.69781896  0.90499485  1
  Nd  Nd3  1  0.20385726  0.19914462  0.40539862  1
  Ti  Ti4  1  0.16356286  0.59080983  0.18890740  1
  Ti  Ti5  1  0.52195300  0.65901299  0.40281785  1
  Ti  Ti6  1  0.94874432  0.90949150  0.30925064  1
  Ti  Ti7  1  0.83470517  0.41104805  0.80935117  1
  Ti  Ti8  1  0.42048969  0.15792749  0.90124689  1
  Ti  Ti9  1  0.47821552  0.34373140  0.59668683  1
  Ti  Ti10  1  0.05387919  0.09122912  0.68976865  1
  Ti  Ti11  1  0.57876136  0.84372263  0.09681006  1
  O  O12  1  0.38323628  0.34084672  0.22317798  1
  O  O13  1  0.07367528  0.41475171  0.90207612  1
  O  O14  1  0.71547241  0.91885285  0.94267671  1
  O  O15  1  0.05632025  0.83968239  0.72200313  1
  O  O16  1  0.90164341  0.57951417  0.33179232  1
  O  O17  1  0.13801306  0.83927328  0.43866209  1
  O  O18  1  0.28491600  0.08287088  0.05539513  1
  O  O19  1  0.61097874  0.91546562  0.40216613  1
  O  O20  1  0.09686337  0.42358606  0.66635564  1
  O  O21  1  0.34482174  0.75026451  0.24901866  1
  O  O22  1  0.86261707  0.16360883  0.56064970  1
  O  O23  1  0.41348105  0.66239268  0.06000736  1
  O  O24  1  0.92591150  0.58500013  0.09609097  1
  O  O25  1  0.95092273  0.15994339  0.27547631  1
  O  O26  1  0.18708115  0.08000607  0.83149539  1
  O  O27  1  0.39038003  0.08721990  0.59666225  1
  O  O28  1  0.57859671  0.58285770  0.55580202  1
  O  O29  1  0.58532182  0.33902279  0.93824239  1
  O  O30  1  0.42155384  0.41996533  0.44376452  1
  O  O31  1  0.65508501  0.25093199  0.74970853  1
  O  O32  1  0.81253172  0.92131589  0.16658635  1
  O  O33  1  0.61780717  0.66256783  0.77674900  1
