# generated using pymatgen
data_YbZn2
_symmetry_space_group_name_H-M   'P 1'
_cell_length_a   4.55052870
_cell_length_b   5.68922785
_cell_length_c   5.68922785
_cell_angle_alpha   79.01053336
_cell_angle_beta   66.42651112
_cell_angle_gamma   66.42651115
_symmetry_Int_Tables_number   1
_chemical_formula_structural   YbZn2
_chemical_formula_sum   'Yb2 Zn4'
_cell_volume   123.64849576
_cell_formula_units_Z   2
loop_
 _symmetry_equiv_pos_site_id
 _symmetry_equiv_pos_as_xyz
  1  'x, y, z'
loop_
 _atom_site_type_symbol
 _atom_site_label
 _atom_site_symmetry_multiplicity
 _atom_site_fract_x
 _atom_site_fract_y
 _atom_site_fract_z
 _atom_site_occupancy
  Zn  Zn0  1  0.83582123  0.72422302  0.60413452  1
  Zn  Zn1  1  0.16417877  0.27577698  0.39586548  1
  Zn  Zn2  1  0.83582123  0.10413452  0.22422302  1
  Zn  Zn3  1  0.16417877  0.89586548  0.77577698  1
  Yb  Yb4  1  0.54945642  0.70054358  0.20054358  1
  Yb  Yb5  1  0.45054358  0.29945642  0.79945642  1
