# generated using pymatgen
data_Gd3P4Pd7
_symmetry_space_group_name_H-M   'P 1'
_cell_length_a   4.03263801
_cell_length_b   8.24390626
_cell_length_c   8.00958302
_cell_angle_alpha   71.35114011
_cell_angle_beta   75.44916016
_cell_angle_gamma   75.81563822
_symmetry_Int_Tables_number   1
_chemical_formula_structural   Gd3P4Pd7
_chemical_formula_sum   'Gd3 P4 Pd7'
_cell_volume   240.23274838
_cell_formula_units_Z   1
loop_
 _symmetry_equiv_pos_site_id
 _symmetry_equiv_pos_as_xyz
  1  'x, y, z'
loop_
 _atom_site_type_symbol
 _atom_site_label
 _atom_site_symmetry_multiplicity
 _atom_site_fract_x
 _atom_site_fract_y
 _atom_site_fract_z
 _atom_site_occupancy
  Gd  Gd0  1  0.31920545  0.67750973  0.68383222  1
  Gd  Gd1  1  0.68062372  0.32263830  0.31626026  1
  Gd  Gd2  1  0.00000919  -0.00009093  0.00006390  1
  P  P3  1  0.65937589  0.74605886  0.93573953  1
  P  P4  1  0.34077477  0.25407367  0.06419618  1
  P  P5  1  0.89412418  0.82047676  0.39104958  1
  P  P6  1  0.10573323  0.17936631  0.60913161  1
  Pd  Pd7  1  0.30505073  0.02937004  0.36038258  1
  Pd  Pd8  1  0.49052625  0.28352410  0.73527003  1
  Pd  Pd9  1  0.83189377  0.42181192  0.91444698  1
  Pd  Pd10  1  0.69485544  0.97091245  0.63927707  1
  Pd  Pd11  1  0.16836379  0.57795288  0.08563892  1
  Pd  Pd12  1  0.00011972  0.49988997  0.49986875  1
  Pd  Pd13  1  0.50934386  0.71650593  0.26484237  1
