# generated using pymatgen
data_Ta(CoTe)2
_symmetry_space_group_name_H-M   'P 1'
_cell_length_a   6.55093776
_cell_length_b   6.57538030
_cell_length_c   18.11023034
_cell_angle_alpha   89.99959344
_cell_angle_beta   89.99804723
_cell_angle_gamma   89.99996350
_symmetry_Int_Tables_number   1
_chemical_formula_structural   Ta(CoTe)2
_chemical_formula_sum   'Ta8 Co16 Te16'
_cell_volume   780.09648910
_cell_formula_units_Z   8
loop_
 _symmetry_equiv_pos_site_id
 _symmetry_equiv_pos_as_xyz
  1  'x, y, z'
loop_
 _atom_site_type_symbol
 _atom_site_label
 _atom_site_symmetry_multiplicity
 _atom_site_fract_x
 _atom_site_fract_y
 _atom_site_fract_z
 _atom_site_occupancy
  Ta  Ta0  1  0.84949465  0.25000005  0.77579536  1
  Ta  Ta1  1  0.15056091  0.74999950  0.22415824  1
  Ta  Ta2  1  0.15096417  0.25000388  0.23549060  1
  Ta  Ta3  1  0.34947432  0.74999562  0.72421135  1
  Ta  Ta4  1  0.65080503  0.74999431  0.26448824  1
  Ta  Ta5  1  0.34912749  0.24999947  0.73548902  1
  Ta  Ta6  1  0.84910823  0.74999672  0.76452703  1
  Ta  Ta7  1  0.65043391  0.25000782  0.27582641  1
  Co  Co8  1  0.54413334  0.96735702  0.81796975  1
  Co  Co9  1  0.54419764  0.53264142  0.81796251  1
  Co  Co10  1  0.15408162  0.96590710  0.81798450  1
  Co  Co11  1  0.95580283  0.96734252  0.31793529  1
  Co  Co12  1  0.15414711  0.53408754  0.81799343  1
  Co  Co13  1  0.04417059  0.46737510  0.68205692  1
  Co  Co14  1  0.04421832  0.03265656  0.68202965  1
  Co  Co15  1  0.45582649  0.46734156  0.18202202  1
  Co  Co16  1  0.65412471  0.03408527  0.68203733  1
  Co  Co17  1  0.84588984  0.46589382  0.18203489  1
  Co  Co18  1  0.34596399  0.53409133  0.31795518  1
  Co  Co19  1  0.34593667  0.96587216  0.31795231  1
  Co  Co20  1  0.95582043  0.53267934  0.31792948  1
  Co  Co21  1  0.65408034  0.46588630  0.68201485  1
  Co  Co22  1  0.45579258  0.03264490  0.18204170  1
  Co  Co23  1  0.84586211  0.03413285  0.18203060  1
  Te  Te24  1  0.65295942  0.75000093  0.10870204  1
  Te  Te25  1  0.15297926  0.24999574  0.39134722  1
  Te  Te26  1  0.34925629  0.00291529  0.59499116  1
  Te  Te27  1  0.84703390  0.75000035  0.60868237  1
  Te  Te28  1  0.85037288  0.25000065  0.58984229  1
  Te  Te29  1  0.64960473  0.25000053  0.08985849  1
  Te  Te30  1  0.14964090  0.75000441  0.41020173  1
  Te  Te31  1  0.15077703  0.00291129  0.09501052  1
  Te  Te32  1  0.34705342  0.25000480  0.89128767  1
  Te  Te33  1  0.84923826  0.99707450  0.90498980  1
  Te  Te34  1  0.15075211  0.49709108  0.09501094  1
  Te  Te35  1  0.34923196  0.49707979  0.59499245  1
  Te  Te36  1  0.84923354  0.50292996  0.90498930  1
  Te  Te37  1  0.65069754  0.50288904  0.40502105  1
  Te  Te38  1  0.65076779  0.99711007  0.40501847  1
  Te  Te39  1  0.35038367  0.74999943  0.91011785  1
