# generated using pymatgen
data_V2PS10
_symmetry_space_group_name_H-M   'P 1'
_cell_length_a   7.67501134
_cell_length_b   12.69074853
_cell_length_c   24.75675334
_cell_angle_alpha   95.79485054
_cell_angle_beta   90.00000000
_cell_angle_gamma   90.00000000
_symmetry_Int_Tables_number   1
_chemical_formula_structural   V2PS10
_chemical_formula_sum   'V16 P8 S80'
_cell_volume   2399.02584580
_cell_formula_units_Z   8
loop_
 _symmetry_equiv_pos_site_id
 _symmetry_equiv_pos_as_xyz
  1  'x, y, z'
loop_
 _atom_site_type_symbol
 _atom_site_label
 _atom_site_symmetry_multiplicity
 _atom_site_fract_x
 _atom_site_fract_y
 _atom_site_fract_z
 _atom_site_occupancy
  V  V0  1  0.55728499  0.47771380  0.13580065  1
  V  V1  1  0.43507447  0.97674841  0.13296497  1
  V  V2  1  0.05728499  0.52228620  0.36419935  1
  V  V3  1  0.55704753  0.31597467  0.86613845  1
  V  V4  1  0.44295247  0.68402533  0.13386155  1
  V  V5  1  0.05704753  0.68402533  0.63386155  1
  V  V6  1  0.44969729  0.81578994  0.86358599  1
  V  V7  1  0.44271501  0.52228620  0.86419935  1
  V  V8  1  0.55030271  0.18421006  0.13641401  1
  V  V9  1  0.56492553  0.02325159  0.86703503  1
  V  V10  1  0.93507447  0.02325159  0.36703503  1
  V  V11  1  0.06492553  0.97674841  0.63296497  1
  V  V12  1  0.94969729  0.18421006  0.63641401  1
  V  V13  1  0.94271501  0.47771380  0.63580065  1
  V  V14  1  0.94295247  0.31597467  0.36613845  1
  V  V15  1  0.05030271  0.81578994  0.36358599  1
  P  P16  1  0.86481306  0.18411063  0.91666064  1
  P  P17  1  0.13518694  0.81588937  0.08333936  1
  P  P18  1  0.87366476  0.31978056  0.09891683  1
  P  P19  1  0.63518694  0.18411063  0.41666064  1
  P  P20  1  0.12633524  0.68021944  0.90108317  1
  P  P21  1  0.36481306  0.81588937  0.58333936  1
  P  P22  1  0.62633524  0.31978056  0.59891683  1
  P  P23  1  0.37366476  0.68021944  0.40108317  1
  S  S24  1  0.84750767  0.88385298  0.30134611  1
  S  S25  1  0.86203054  0.83695527  0.65760618  1
  S  S26  1  0.38675809  0.80451789  0.35723771  1
  S  S27  1  0.59640172  0.03909087  0.37699898  1
  S  S28  1  0.94067997  0.67857778  0.96761081  1
  S  S29  1  0.13834104  0.40521024  0.42941655  1
  S  S30  1  0.05932003  0.32142222  0.03238919  1
  S  S31  1  0.38646419  0.09335732  0.06512182  1
  S  S32  1  0.63352955  0.04338042  0.07107281  1
  S  S33  1  0.61353581  0.90664268  0.93487818  1
  S  S34  1  0.84634567  0.66443820  0.34880602  1
  S  S35  1  0.55932003  0.67857778  0.46761081  1
  S  S36  1  0.38550496  0.38267669  0.79525975  1
  S  S37  1  0.90399545  0.07145134  0.70572437  1
  S  S38  1  0.60924538  0.45672622  0.93426046  1
  S  S39  1  0.88646419  0.90664268  0.43487818  1
  S  S40  1  0.36501448  0.57197770  0.20057848  1
  S  S41  1  0.40359828  0.96090913  0.62300102  1
  S  S42  1  0.63834104  0.59478976  0.07058345  1
  S  S43  1  0.05117764  0.65633279  0.29774703  1
  S  S44  1  0.34750767  0.11614702  0.19865389  1
  S  S45  1  0.13352955  0.95661958  0.42892719  1
  S  S46  1  0.04143679  0.17723948  0.98497534  1
  S  S47  1  0.13796946  0.16304473  0.34239382  1
  S  S48  1  0.54143679  0.82276052  0.51502466  1
  S  S49  1  0.36165896  0.40521024  0.92941655  1
  S  S50  1  0.65365433  0.66443820  0.84880602  1
  S  S51  1  0.36203054  0.16304473  0.84239382  1
  S  S52  1  0.10924538  0.54327378  0.56573954  1
  S  S53  1  0.89075462  0.45672622  0.43426046  1
  S  S54  1  0.63498552  0.42802230  0.79942152  1
  S  S55  1  0.39075462  0.54327378  0.06573954  1
  S  S56  1  0.13498552  0.57197770  0.70057848  1
  S  S57  1  0.37539804  0.68330053  0.93104228  1
  S  S58  1  0.41174484  0.84276549  0.19879866  1
  S  S59  1  0.89548479  0.18409903  0.43626163  1
  S  S60  1  0.55117764  0.34366721  0.20225297  1
  S  S61  1  0.39536517  0.53632352  0.35885724  1
  S  S62  1  0.09640172  0.96090913  0.12300102  1
  S  S63  1  0.63796946  0.83695527  0.15760618  1
  S  S64  1  0.60451521  0.18409903  0.93626163  1
  S  S65  1  0.40399545  0.92854866  0.79427563  1
  S  S66  1  0.90359828  0.03909087  0.87699898  1
  S  S67  1  0.10451521  0.81590097  0.56373837  1
  S  S68  1  0.39548479  0.81590097  0.06373837  1
  S  S69  1  0.15365433  0.33556180  0.65119398  1
  S  S70  1  0.89449126  0.31015948  0.87503428  1
  S  S71  1  0.86165896  0.59478976  0.57058345  1
  S  S72  1  0.87539804  0.31669947  0.56895772  1
  S  S73  1  0.86647045  0.04338042  0.57107281  1
  S  S74  1  0.61449504  0.61732331  0.20474025  1
  S  S75  1  0.44882236  0.65633279  0.79774703  1
  S  S76  1  0.86501448  0.42802230  0.29942152  1
  S  S77  1  0.95856321  0.82276052  0.01502466  1
  S  S78  1  0.61324191  0.19548211  0.64276229  1
  S  S79  1  0.88550496  0.61732331  0.70474025  1
  S  S80  1  0.12460196  0.68330053  0.43104228  1
  S  S81  1  0.11324191  0.80451789  0.85723771  1
  S  S82  1  0.44067997  0.32142222  0.53238919  1
  S  S83  1  0.10463483  0.53632352  0.85885724  1
  S  S84  1  0.39449126  0.68984052  0.62496572  1
  S  S85  1  0.45856321  0.17723948  0.48497534  1
  S  S86  1  0.89536517  0.46367648  0.14114276  1
  S  S87  1  0.15249233  0.11614702  0.69865389  1
  S  S88  1  0.65249233  0.88385298  0.80134611  1
  S  S89  1  0.88675809  0.19548211  0.14276229  1
  S  S90  1  0.58825516  0.15723451  0.80120134  1
  S  S91  1  0.34634567  0.33556180  0.15119398  1
  S  S92  1  0.10550874  0.68984052  0.12496572  1
  S  S93  1  0.59600455  0.07145134  0.20572437  1
  S  S94  1  0.60463483  0.46367648  0.64114276  1
  S  S95  1  0.11353581  0.09335732  0.56512182  1
  S  S96  1  0.08825516  0.84276549  0.69879866  1
  S  S97  1  0.36647045  0.95661958  0.92892719  1
  S  S98  1  0.60550874  0.31015948  0.37503428  1
  S  S99  1  0.91174484  0.15723451  0.30120134  1
  S  S100  1  0.11449504  0.38267669  0.29525975  1
  S  S101  1  0.09600455  0.92854866  0.29427563  1
  S  S102  1  0.94882236  0.34366721  0.70225297  1
  S  S103  1  0.62460196  0.31669947  0.06895772  1
