# generated using pymatgen
data_Ho2Zr8O19
_symmetry_space_group_name_H-M   'P 1'
_cell_length_a   3.63841988
_cell_length_b   36.35895108
_cell_length_c   34.68184499
_cell_angle_alpha   5.21149482
_cell_angle_beta   58.36254559
_cell_angle_gamma   59.97701646
_symmetry_Int_Tables_number   1
_chemical_formula_structural   Ho2Zr8O19
_chemical_formula_sum   'Ho2 Zr8 O19'
_cell_volume   340.11050928
_cell_formula_units_Z   1
loop_
 _symmetry_equiv_pos_site_id
 _symmetry_equiv_pos_as_xyz
  1  'x, y, z'
loop_
 _atom_site_type_symbol
 _atom_site_label
 _atom_site_symmetry_multiplicity
 _atom_site_fract_x
 _atom_site_fract_y
 _atom_site_fract_z
 _atom_site_occupancy
  Ho  Ho0  1  0.03115051  0.02492040  0.96884949  1
  Ho  Ho1  1  0.96884949  0.07507960  0.03115051  1
  Zr  Zr2  1  0.98854291  0.19083433  0.01145709  1
  Zr  Zr3  1  0.99190269  0.29352215  0.00809731  1
  Zr  Zr4  1  0.99515402  0.39612322  0.00484598  1
  Zr  Zr5  1  0.99828964  0.49863171  0.00171036  1
  Zr  Zr6  1  0.00171036  0.60136829  0.99828964  1
  Zr  Zr7  1  0.00484598  0.70387678  0.99515402  1
  Zr  Zr8  1  0.00809731  0.80647785  0.99190269  1
  Zr  Zr9  1  0.01145709  0.90916567  0.98854291  1
  O  O10  1  0.26700507  0.01360406  0.23299493  1
  O  O11  1  0.22390312  0.07912249  0.27609688  1
  O  O12  1  0.25858006  0.20686405  0.24141994  1
  O  O13  1  0.25000000  0.30000000  0.25000000  1
  O  O14  1  0.24141994  0.39313595  0.25858006  1
  O  O15  1  0.27609688  0.52087751  0.22390312  1
  O  O16  1  0.23299493  0.58639594  0.26700507  1
  O  O17  1  0.78617185  0.12893748  0.71382815  1
  O  O18  1  0.29266660  0.73413328  0.20733340  1
  O  O19  1  0.73452503  0.18762002  0.76547497  1
  O  O20  1  0.75000000  0.30000000  0.75000000  1
  O  O21  1  0.20733340  0.86586672  0.29266660  1
  O  O22  1  0.76547497  0.41237998  0.73452503  1
  O  O23  1  0.71382815  0.47106252  0.78617185  1
  O  O24  1  0.76423896  0.61139117  0.73576104  1
  O  O25  1  0.73616356  0.68893085  0.76383644  1
  O  O26  1  0.75000000  0.80000000  0.75000000  1
  O  O27  1  0.76383644  0.91106915  0.73616356  1
  O  O28  1  0.73576104  0.98860883  0.76423896  1
