# generated using pymatgen
data_Cs2Zr(SiO3)3
_symmetry_space_group_name_H-M   'P 1'
_cell_length_a   7.33231141
_cell_length_b   7.33231141
_cell_length_c   10.43867082
_cell_angle_alpha   90.00000000
_cell_angle_beta   90.00000000
_cell_angle_gamma   119.99999999
_symmetry_Int_Tables_number   1
_chemical_formula_structural   Cs2Zr(SiO3)3
_chemical_formula_sum   'Cs4 Zr2 Si6 O18'
_cell_volume   486.02391266
_cell_formula_units_Z   2
loop_
 _symmetry_equiv_pos_site_id
 _symmetry_equiv_pos_as_xyz
  1  'x, y, z'
loop_
 _atom_site_type_symbol
 _atom_site_label
 _atom_site_symmetry_multiplicity
 _atom_site_fract_x
 _atom_site_fract_y
 _atom_site_fract_z
 _atom_site_occupancy
  O  O0  1  0.26024628  0.19698913  0.38203038  1
  O  O1  1  0.06325716  0.26024628  0.88203038  1
  O  O2  1  0.19698913  0.93674284  0.88203038  1
  O  O3  1  0.80301087  0.06325716  0.38203038  1
  O  O4  1  0.93674284  0.73975372  0.38203038  1
  O  O5  1  0.73975372  0.80301087  0.88203038  1
  O  O6  1  0.73975372  0.80301087  0.61796962  1
  O  O7  1  0.93674284  0.73975372  0.11796962  1
  O  O8  1  0.80301087  0.06325716  0.11796962  1
  O  O9  1  0.19698913  0.93674284  0.61796962  1
  O  O10  1  0.06325716  0.26024628  0.61796962  1
  O  O11  1  0.26024628  0.19698913  0.11796962  1
  O  O12  1  0.51173552  0.09470437  0.25000000  1
  O  O13  1  0.41703115  0.51173552  0.75000000  1
  O  O14  1  0.09470437  0.58296885  0.75000000  1
  O  O15  1  0.90529563  0.41703115  0.25000000  1
  O  O16  1  0.58296885  0.48826448  0.25000000  1
  O  O17  1  0.48826448  0.90529563  0.75000000  1
  Si  Si18  1  0.61015957  0.76457884  0.75000000  1
  Si  Si19  1  0.84558073  0.61015957  0.25000000  1
  Si  Si20  1  0.76457884  0.15441927  0.25000000  1
  Si  Si21  1  0.23542116  0.84558073  0.75000000  1
  Si  Si22  1  0.15441927  0.38984043  0.75000000  1
  Si  Si23  1  0.38984043  0.23542116  0.25000000  1
  Zr  Zr24  1  0.00000000  0.00000000  0.50000000  1
  Zr  Zr25  1  0.00000000  0.00000000  0.00000000  1
  Cs  Cs26  1  0.33333333  0.66666667  0.43633300  1
  Cs  Cs27  1  0.66666667  0.33333333  0.93633300  1
  Cs  Cs28  1  0.66666667  0.33333333  0.56366700  1
  Cs  Cs29  1  0.33333333  0.66666667  0.06366700  1
