# generated using pymatgen
data_LiMn3(BO3)3
_symmetry_space_group_name_H-M   'P 1'
_cell_length_a   5.94814281
_cell_length_b   12.00627183
_cell_length_c   5.32151616
_cell_angle_alpha   79.76840309
_cell_angle_beta   86.83194873
_cell_angle_gamma   83.93966202
_symmetry_Int_Tables_number   1
_chemical_formula_structural   LiMn3(BO3)3
_chemical_formula_sum   'Li2 Mn6 B6 O18'
_cell_volume   371.64368011
_cell_formula_units_Z   2
loop_
 _symmetry_equiv_pos_site_id
 _symmetry_equiv_pos_as_xyz
  1  'x, y, z'
loop_
 _atom_site_type_symbol
 _atom_site_label
 _atom_site_symmetry_multiplicity
 _atom_site_fract_x
 _atom_site_fract_y
 _atom_site_fract_z
 _atom_site_occupancy
  Li  Li0  1  0.41150728  0.09397726  0.03947504  1
  Li  Li1  1  0.08973663  0.76064114  0.70251317  1
  Mn  Mn2  1  0.24691166  0.98870893  0.61673162  1
  Mn  Mn3  1  0.59631174  0.32882577  0.95089385  1
  Mn  Mn4  1  0.90472159  0.65110532  0.28204482  1
  Mn  Mn5  1  0.09904618  0.34868258  0.71386536  1
  Mn  Mn6  1  0.42077218  0.67060415  0.06824006  1
  Mn  Mn7  1  0.75936575  0.00798262  0.39536989  1
  B  B8  1  0.85762258  0.11712359  0.84492180  1
  B  B9  1  0.46027304  0.22101978  0.47608785  1
  B  B10  1  0.82780151  0.55705688  0.81557924  1
  B  B11  1  0.18993887  0.44288222  0.18785790  1
  B  B12  1  0.52279653  0.77956794  0.51815586  1
  B  B13  1  0.14069114  0.88439711  0.15376500  1
  O  O14  1  0.96305610  0.08620254  0.62028367  1
  O  O15  1  0.73214586  0.04635456  0.00578632  1
  O  O16  1  0.43363621  0.11574707  0.41566012  1
  O  O17  1  0.87155901  0.22950163  0.87954524  1
  O  O18  1  0.57454932  0.29976647  0.31822950  1
  O  O19  1  0.38512243  0.24231209  0.72536298  1
  O  O20  1  0.74156405  0.57722344  0.05146303  1
  O  O21  1  0.81830310  0.44783625  0.76044653  1
  O  O22  1  0.92559396  0.64029935  0.64908130  1
  O  O23  1  0.09805383  0.35872120  0.35412976  1
  O  O24  1  0.18550439  0.55407403  0.22819593  1
  O  O25  1  0.28834752  0.41774265  0.95319535  1
  O  O26  1  0.62872087  0.75160179  0.29059871  1
  O  O27  1  0.40732697  0.70426405  0.67824032  1
  O  O28  1  0.10741435  0.78304808  0.07771739  1
  O  O29  1  0.52675547  0.89250700  0.55473936  1
  O  O30  1  0.24273939  0.97019891  0.99633396  1
  O  O31  1  0.07342751  0.89837058  0.40636408  1
