# generated using pymatgen
data_Ba2Dy(CuO2)4
_symmetry_space_group_name_H-M   'P 1'
_cell_length_a   3.88624588
_cell_length_b   3.89752120
_cell_length_c   13.87885894
_cell_angle_alpha   98.07169702
_cell_angle_beta   90.00000000
_cell_angle_gamma   90.00000000
_symmetry_Int_Tables_number   1
_chemical_formula_structural   Ba2Dy(CuO2)4
_chemical_formula_sum   'Ba2 Dy1 Cu4 O8'
_cell_volume   208.13665623
_cell_formula_units_Z   1
loop_
 _symmetry_equiv_pos_site_id
 _symmetry_equiv_pos_as_xyz
  1  'x, y, z'
loop_
 _atom_site_type_symbol
 _atom_site_label
 _atom_site_symmetry_multiplicity
 _atom_site_fract_x
 _atom_site_fract_y
 _atom_site_fract_z
 _atom_site_occupancy
  O  O0  1  0.00000000  0.28153794  0.56307588  1
  O  O1  1  0.00000000  0.71846206  0.43692412  1
  O  O2  1  0.00000000  0.44812904  0.89625809  1
  O  O3  1  0.00000000  0.55187096  0.10374191  1
  O  O4  1  0.50000000  0.94796490  0.89592979  1
  O  O5  1  0.50000000  0.05203510  0.10407021  1
  O  O6  1  0.00000000  0.85467429  0.70934858  1
  O  O7  1  0.00000000  0.14532571  0.29065142  1
  Cu  Cu8  1  0.00000000  0.93875732  0.87751463  1
  Cu  Cu9  1  0.00000000  0.06124268  0.12248537  1
  Cu  Cu10  1  0.00000000  0.78737135  0.57474270  1
  Cu  Cu11  1  0.00000000  0.21262865  0.42525730  1
  Ba  Ba12  1  0.50000000  0.36435555  0.72871111  1
  Ba  Ba13  1  0.50000000  0.63564445  0.27128889  1
  Dy  Dy14  1  0.50000000  0.50000000  0.00000000  1
