# generated using pymatgen
data_Ag3AsSe3
_symmetry_space_group_name_H-M   'P 1'
_cell_length_a   8.23761934
_cell_length_b   11.50262944
_cell_length_c   21.10600375
_cell_angle_alpha   90.00000000
_cell_angle_beta   90.00000000
_cell_angle_gamma   90.00000000
_symmetry_Int_Tables_number   1
_chemical_formula_structural   Ag3AsSe3
_chemical_formula_sum   'Ag36 As12 Se36'
_cell_volume   1999.88424675
_cell_formula_units_Z   12
loop_
 _symmetry_equiv_pos_site_id
 _symmetry_equiv_pos_as_xyz
  1  'x, y, z'
loop_
 _atom_site_type_symbol
 _atom_site_label
 _atom_site_symmetry_multiplicity
 _atom_site_fract_x
 _atom_site_fract_y
 _atom_site_fract_z
 _atom_site_occupancy
  Ag  Ag0  1  0.21433837  0.42942636  0.05729480  1
  Ag  Ag1  1  0.28566163  0.92942636  0.55729480  1
  Ag  Ag2  1  0.14439165  0.51747555  0.82258257  1
  Ag  Ag3  1  0.14439165  0.98252445  0.82258257  1
  Ag  Ag4  1  0.33161194  0.38966688  0.71559824  1
  Ag  Ag5  1  0.77547711  0.75000000  0.63091544  1
  Ag  Ag6  1  0.78566163  0.92942636  0.94270520  1
  Ag  Ag7  1  0.87674919  0.53494573  0.55993102  1
  Ag  Ag8  1  0.66838806  0.61033312  0.28440176  1
  Ag  Ag9  1  0.62325081  0.03494573  0.05993102  1
  Ag  Ag10  1  0.64439165  0.51747555  0.67741743  1
  Ag  Ag11  1  0.87674919  0.96505427  0.55993102  1
  Ag  Ag12  1  0.35560835  0.01747555  0.32258257  1
  Ag  Ag13  1  0.85560835  0.48252445  0.17741743  1
  Ag  Ag14  1  0.37674919  0.96505427  0.94006898  1
  Ag  Ag15  1  0.22452289  0.25000000  0.36908456  1
  Ag  Ag16  1  0.21433837  0.07057364  0.05729480  1
  Ag  Ag17  1  0.37674919  0.53494573  0.94006898  1
  Ag  Ag18  1  0.33161194  0.11033312  0.71559824  1
  Ag  Ag19  1  0.64439165  0.98252445  0.67741743  1
  Ag  Ag20  1  0.12325081  0.46505427  0.44006898  1
  Ag  Ag21  1  0.16838806  0.88966688  0.21559824  1
  Ag  Ag22  1  0.72452289  0.25000000  0.13091544  1
  Ag  Ag23  1  0.28566163  0.57057364  0.55729480  1
  Ag  Ag24  1  0.71433837  0.07057364  0.44270520  1
  Ag  Ag25  1  0.78566163  0.57057364  0.94270520  1
  Ag  Ag26  1  0.27547711  0.75000000  0.86908456  1
  Ag  Ag27  1  0.85560835  0.01747555  0.17741743  1
  Ag  Ag28  1  0.83161194  0.38966688  0.78440176  1
  Ag  Ag29  1  0.35560835  0.48252445  0.32258257  1
  Ag  Ag30  1  0.66838806  0.88966688  0.28440176  1
  Ag  Ag31  1  0.62325081  0.46505427  0.05993102  1
  Ag  Ag32  1  0.16838806  0.61033312  0.21559824  1
  Ag  Ag33  1  0.83161194  0.11033312  0.78440176  1
  Ag  Ag34  1  0.12325081  0.03494573  0.44006898  1
  Ag  Ag35  1  0.71433837  0.42942636  0.44270520  1
  As  As36  1  0.78746211  0.75000000  0.79383233  1
  As  As37  1  0.75262643  0.75000000  0.10776483  1
  As  As38  1  0.21253789  0.25000000  0.20616767  1
  As  As39  1  0.28126279  0.75000000  0.05368300  1
  As  As40  1  0.24737357  0.25000000  0.89223517  1
  As  As41  1  0.71253789  0.25000000  0.29383233  1
  As  As42  1  0.28746211  0.75000000  0.70616767  1
  As  As43  1  0.25262643  0.75000000  0.39223517  1
  As  As44  1  0.78126279  0.75000000  0.44631700  1
  As  As45  1  0.74737357  0.25000000  0.60776483  1
  As  As46  1  0.21873721  0.25000000  0.55368300  1
  As  As47  1  0.71873721  0.25000000  0.94631700  1
  Se  Se48  1  0.60167216  0.41653189  0.56326036  1
  Se  Se49  1  0.39832784  0.91653189  0.43673964  1
  Se  Se50  1  0.45001227  0.75000000  0.60995141  1
  Se  Se51  1  0.51394904  0.25000000  0.03191810  1
  Se  Se52  1  0.89832784  0.91653189  0.06326036  1
  Se  Se53  1  0.89832784  0.58346811  0.06326036  1
  Se  Se54  1  0.10167216  0.08346811  0.93673964  1
  Se  Se55  1  0.91730274  0.59639008  0.73116849  1
  Se  Se56  1  0.08269726  0.40360992  0.26883151  1
  Se  Se57  1  0.11301824  0.25000000  0.78771789  1
  Se  Se58  1  0.54998773  0.25000000  0.39004859  1
  Se  Se59  1  0.12146419  0.08859026  0.61853024  1
  Se  Se60  1  0.98605096  0.75000000  0.53191810  1
  Se  Se61  1  0.60167216  0.08346811  0.56326036  1
  Se  Se62  1  0.10167216  0.41653189  0.93673964  1
  Se  Se63  1  0.58269726  0.09639008  0.23116849  1
  Se  Se64  1  0.04998773  0.25000000  0.10995141  1
  Se  Se65  1  0.12146419  0.41140974  0.61853024  1
  Se  Se66  1  0.61301824  0.25000000  0.71228211  1
  Se  Se67  1  0.87853581  0.91140974  0.38146976  1
  Se  Se68  1  0.37853581  0.58859026  0.11853024  1
  Se  Se69  1  0.41730274  0.90360992  0.76883151  1
  Se  Se70  1  0.08269726  0.09639008  0.26883151  1
  Se  Se71  1  0.58269726  0.40360992  0.23116849  1
  Se  Se72  1  0.39832784  0.58346811  0.43673964  1
  Se  Se73  1  0.95001227  0.75000000  0.89004859  1
  Se  Se74  1  0.37853581  0.91140974  0.11853024  1
  Se  Se75  1  0.87853581  0.58859026  0.38146976  1
  Se  Se76  1  0.91730274  0.90360992  0.73116849  1
  Se  Se77  1  0.62146419  0.41140974  0.88146976  1
  Se  Se78  1  0.41730274  0.59639008  0.76883151  1
  Se  Se79  1  0.01394904  0.25000000  0.46808190  1
  Se  Se80  1  0.88698176  0.75000000  0.21228211  1
  Se  Se81  1  0.38698176  0.75000000  0.28771789  1
  Se  Se82  1  0.62146419  0.08859026  0.88146976  1
  Se  Se83  1  0.48605096  0.75000000  0.96808190  1
