# generated using pymatgen
data_K16Zr12Se61
_symmetry_space_group_name_H-M   'P 1'
_cell_length_a   12.78152033
_cell_length_b   15.10427568
_cell_length_c   15.53200373
_cell_angle_alpha   73.71743946
_cell_angle_beta   76.89499387
_cell_angle_gamma   71.36115725
_symmetry_Int_Tables_number   1
_chemical_formula_structural   K16Zr12Se61
_chemical_formula_sum   'K16 Zr12 Se61'
_cell_volume   2696.13691577
_cell_formula_units_Z   1
loop_
 _symmetry_equiv_pos_site_id
 _symmetry_equiv_pos_as_xyz
  1  'x, y, z'
loop_
 _atom_site_type_symbol
 _atom_site_label
 _atom_site_symmetry_multiplicity
 _atom_site_fract_x
 _atom_site_fract_y
 _atom_site_fract_z
 _atom_site_occupancy
  K  K0  1  0.00522916  0.02935535  0.17559426  1
  K  K1  1  0.13167155  0.61442328  0.34684337  1
  K  K2  1  0.28262996  0.30055348  0.14297751  1
  K  K3  1  0.21377299  0.25268881  0.82592486  1
  K  K4  1  0.15528752  0.63607821  0.63863562  1
  K  K5  1  0.60028269  0.10353344  0.34054692  1
  K  K6  1  0.37237005  0.83245892  0.32046820  1
  K  K7  1  0.41810784  0.46201191  0.84992338  1
  K  K8  1  0.58254483  0.53843751  0.14812864  1
  K  K9  1  0.62840907  0.16758106  0.67969891  1
  K  K10  1  0.40156027  0.89500338  0.65961934  1
  K  K11  1  0.86487456  0.36523737  0.34702587  1
  K  K12  1  0.78741663  0.74753956  0.17467099  1
  K  K13  1  0.71778151  0.69941470  0.85541461  1
  K  K14  1  0.89003674  0.38760758  0.65273036  1
  K  K15  1  0.99398460  0.97058037  0.82482963  1
  Zr  Zr16  1  0.11682456  0.06573146  0.50114052  1
  Zr  Zr17  1  0.07628142  0.58333676  0.00338017  1
  Zr  Zr18  1  0.25354363  0.24893791  0.50387730  1
  Zr  Zr19  1  0.24314709  0.74229186  0.00585139  1
  Zr  Zr20  1  0.40537540  0.42445352  0.48720493  1
  Zr  Zr21  1  0.38291760  0.92973601  0.00632612  1
  Zr  Zr22  1  0.61687777  0.06859785  0.99605395  1
  Zr  Zr23  1  0.58143852  0.57534336  0.51351471  1
  Zr  Zr24  1  0.75693418  0.25676642  0.99441818  1
  Zr  Zr25  1  0.74399547  0.74926243  0.49711716  1
  Zr  Zr26  1  0.92373736  0.41630106  0.99715417  1
  Zr  Zr27  1  0.88335420  0.93239334  0.49889084  1
  Se  Se28  1  0.01545549  0.77862053  0.01998310  1
  Se  Se29  1  0.06767407  0.53608319  0.18327966  1
  Se  Se30  1  0.07191569  0.39278463  0.45159244  1
  Se  Se31  1  0.13155775  0.25319081  0.37983934  1
  Se  Se32  1  0.10656047  0.15292952  0.63512730  1
  Se  Se33  1  0.27114799  0.09240906  0.06974334  1
  Se  Se34  1  0.25271358  0.07296244  0.33471058  1
  Se  Se35  1  0.08665454  0.79937691  0.14559345  1
  Se  Se36  1  0.06928072  0.81810255  0.41539493  1
  Se  Se37  1  0.24665572  0.55196422  0.09974523  1
  Se  Se38  1  0.01475920  0.72304991  0.85323006  1
  Se  Se39  1  0.44661358  0.00892358  0.12330485  1
  Se  Se40  1  0.33936202  0.06943821  0.45909732  1
  Se  Se41  1  0.02287251  0.92280528  0.61685819  1
  Se  Se42  1  0.28850182  0.00964509  0.84909075  1
  Se  Se43  1  0.21459512  0.39717168  0.59807524  1
  Se  Se44  1  0.14328119  0.42105125  0.95366430  1
  Se  Se45  1  0.31839068  0.39150488  0.35714424  1
  Se  Se46  1  0.36965113  0.13130114  0.64170786  1
  Se  Se47  1  0.21391056  0.87206574  0.54907174  1
  Se  Se48  1  0.21237447  0.67654250  0.86146741  1
  Se  Se49  1  0.35845212  0.76800132  0.13333203  1
  Se  Se50  1  0.37361693  0.38447134  0.66881561  1
  Se  Se51  1  0.47428547  0.21540204  0.51121568  1
  Se  Se52  1  0.37186650  0.60720235  0.45975678  1
  Se  Se53  1  0.59399688  0.19654936  0.11880764  1
  Se  Se54  1  0.55341841  0.37018913  0.05102445  1
  Se  Se55  1  0.17099583  0.94028287  0.98231048  1
  Se  Se56  1  0.52082969  0.35837101  0.33487044  1
  Se  Se57  1  0.45088671  0.22432604  0.93148003  1
  Se  Se58  1  0.54890227  0.77436673  0.07094508  1
  Se  Se59  1  0.46731199  0.65501590  0.65912329  1
  Se  Se60  1  0.82899381  0.05835651  0.01944063  1
  Se  Se61  1  0.62612389  0.38664760  0.49633646  1
  Se  Se62  1  0.44687537  0.62892906  0.94931190  1
  Se  Se63  1  0.40620510  0.80285960  0.88248788  1
  Se  Se64  1  0.52223644  0.78071072  0.48798711  1
  Se  Se65  1  0.63326738  0.61569474  0.32809790  1
  Se  Se66  1  0.64143630  0.22926921  0.86913465  1
  Se  Se67  1  0.62881783  0.40750547  0.64250279  1
  Se  Se68  1  0.78816328  0.32286994  0.13879331  1
  Se  Se69  1  0.78734697  0.12682000  0.45114135  1
  Se  Se70  1  0.63143606  0.86547909  0.35792965  1
  Se  Se71  1  0.66731496  0.62052934  0.64620254  1
  Se  Se72  1  0.85712403  0.57866354  0.04667290  1
  Se  Se73  1  0.78168269  0.59484223  0.41036659  1
  Se  Se74  1  0.71249057  0.98916710  0.15287939  1
  Se  Se75  1  0.97788783  0.07607684  0.38310920  1
  Se  Se76  1  0.66012179  0.92949108  0.54024680  1
  Se  Se77  1  0.55224820  0.98987160  0.87877652  1
  Se  Se78  1  0.98606742  0.27609698  0.14693401  1
  Se  Se79  1  0.75376462  0.44752823  0.90069298  1
  Se  Se80  1  0.93121789  0.18185748  0.58275755  1
  Se  Se81  1  0.91313927  0.20086185  0.85411105  1
  Se  Se82  1  0.74650607  0.92714988  0.66467270  1
  Se  Se83  1  0.72828012  0.90659722  0.93134972  1
  Se  Se84  1  0.89289390  0.84640073  0.36484370  1
  Se  Se85  1  0.87137210  0.74549915  0.61859184  1
  Se  Se86  1  0.93107877  0.60920812  0.54393896  1
  Se  Se87  1  0.93213839  0.46581610  0.81779106  1
  Se  Se88  1  0.98483063  0.22084248  0.97922408  1
