# generated using pymatgen
data_K2Ta2(OF2)3
_symmetry_space_group_name_H-M   'P 1'
_cell_length_a   5.68397250
_cell_length_b   10.42909235
_cell_length_c   14.77338936
_cell_angle_alpha   90.00000000
_cell_angle_beta   90.00000000
_cell_angle_gamma   90.00000000
_symmetry_Int_Tables_number   1
_chemical_formula_structural   K2Ta2(OF2)3
_chemical_formula_sum   'K8 Ta8 O12 F24'
_cell_volume   875.74693348
_cell_formula_units_Z   4
loop_
 _symmetry_equiv_pos_site_id
 _symmetry_equiv_pos_as_xyz
  1  'x, y, z'
loop_
 _atom_site_type_symbol
 _atom_site_label
 _atom_site_symmetry_multiplicity
 _atom_site_fract_x
 _atom_site_fract_y
 _atom_site_fract_z
 _atom_site_occupancy
  O  O0  1  0.99912410  0.36746313  0.57187116  1
  O  O1  1  0.49912410  0.63253687  0.42812884  1
  O  O2  1  0.50087590  0.86746313  0.92812884  1
  O  O3  1  0.00087590  0.13253687  0.07187116  1
  O  O4  1  0.00087590  0.63253687  0.42812884  1
  O  O5  1  0.50087590  0.36746313  0.57187116  1
  O  O6  1  0.49912410  0.13253687  0.07187116  1
  O  O7  1  0.99912410  0.86746313  0.92812884  1
  O  O8  1  0.25000000  0.89703696  0.09416318  1
  O  O9  1  0.75000000  0.10296304  0.90583682  1
  O  O10  1  0.25000000  0.39703696  0.40583682  1
  O  O11  1  0.75000000  0.60296304  0.59416318  1
  F  F12  1  0.25000000  0.64756039  0.89526354  1
  F  F13  1  0.75000000  0.35243961  0.10473646  1
  F  F14  1  0.25000000  0.14756039  0.60473646  1
  F  F15  1  0.75000000  0.85243961  0.39526354  1
  F  F16  1  0.75000000  0.76700797  0.78549324  1
  F  F17  1  0.25000000  0.23299203  0.21450676  1
  F  F18  1  0.75000000  0.26700797  0.71450676  1
  F  F19  1  0.25000000  0.73299203  0.28549324  1
  F  F20  1  0.98530410  0.98696766  0.76045168  1
  F  F21  1  0.48530410  0.01303234  0.23954832  1
  F  F22  1  0.51469590  0.48696766  0.73954832  1
  F  F23  1  0.01469590  0.51303234  0.26045168  1
  F  F24  1  0.01469590  0.01303234  0.23954832  1
  F  F25  1  0.51469590  0.98696766  0.76045168  1
  F  F26  1  0.48530410  0.51303234  0.26045168  1
  F  F27  1  0.98530410  0.48696766  0.73954832  1
  F  F28  1  0.98375234  0.83263830  0.55230771  1
  F  F29  1  0.48375234  0.16736170  0.44769229  1
  F  F30  1  0.51624766  0.33263830  0.94769229  1
  F  F31  1  0.01624766  0.66736170  0.05230771  1
  F  F32  1  0.01624766  0.16736170  0.44769229  1
  F  F33  1  0.51624766  0.83263830  0.55230771  1
  F  F34  1  0.48375234  0.66736170  0.05230771  1
  F  F35  1  0.98375234  0.33263830  0.94769229  1
  K  K36  1  0.25000000  0.74276358  0.70929620  1
  K  K37  1  0.75000000  0.25723642  0.29070380  1
  K  K38  1  0.25000000  0.24276358  0.79070380  1
  K  K39  1  0.75000000  0.75723642  0.20929620  1
  K  K40  1  0.25000000  0.94268629  0.39873498  1
  K  K41  1  0.75000000  0.05731371  0.60126502  1
  K  K42  1  0.25000000  0.44268629  0.10126502  1
  K  K43  1  0.75000000  0.55731371  0.89873498  1
  Ta  Ta44  1  0.25000000  0.78289406  0.99150941  1
  Ta  Ta45  1  0.75000000  0.21710594  0.00849059  1
  Ta  Ta46  1  0.25000000  0.28289406  0.50849059  1
  Ta  Ta47  1  0.75000000  0.71710594  0.49150941  1
  Ta  Ta48  1  0.25000000  0.56572284  0.35253694  1
  Ta  Ta49  1  0.75000000  0.43427716  0.64746306  1
  Ta  Ta50  1  0.25000000  0.06572284  0.14746306  1
  Ta  Ta51  1  0.75000000  0.93427716  0.85253694  1
