# generated using pymatgen
data_SmP3H5NO10
_symmetry_space_group_name_H-M   'P 1'
_cell_length_a   7.05823236
_cell_length_b   7.82554328
_cell_length_c   8.71226407
_cell_angle_alpha   106.53272008
_cell_angle_beta   106.17979144
_cell_angle_gamma   82.12151189
_symmetry_Int_Tables_number   1
_chemical_formula_structural   SmP3H5NO10
_chemical_formula_sum   'Sm2 P6 H10 N2 O20'
_cell_volume   442.17742644
_cell_formula_units_Z   2
loop_
 _symmetry_equiv_pos_site_id
 _symmetry_equiv_pos_as_xyz
  1  'x, y, z'
loop_
 _atom_site_type_symbol
 _atom_site_label
 _atom_site_symmetry_multiplicity
 _atom_site_fract_x
 _atom_site_fract_y
 _atom_site_fract_z
 _atom_site_occupancy
  Sm  Sm0  1  0.77046025  0.37023001  0.00746675  1
  Sm  Sm1  1  0.22953975  0.62976999  0.99253325  1
  P  P2  1  0.67365454  0.69259385  0.84015039  1
  P  P3  1  0.32634546  0.30740615  0.15984961  1
  P  P4  1  0.85034913  0.96257342  0.13436630  1
  P  P5  1  0.14965087  0.03742658  0.86563370  1
  P  P6  1  0.66849615  0.77207313  0.30784203  1
  P  P7  1  0.33150385  0.22792687  0.69215797  1
  H  H8  1  0.68961769  0.80147990  0.57244188  1
  H  H9  1  0.31038231  0.19852010  0.42755812  1
  H  H10  1  0.82008468  0.17345902  0.56990366  1
  H  H11  1  0.17991532  0.82654098  0.43009634  1
  H  H12  1  0.86129505  0.38919207  0.63387908  1
  H  H13  1  0.13870495  0.61080793  0.36612092  1
  H  H14  1  0.65066586  0.31364643  0.48162403  1
  H  H15  1  0.34933414  0.68635357  0.51837597  1
  H  H16  1  0.87256138  0.27305063  0.43968106  1
  H  H17  1  0.12743862  0.72694937  0.56031894  1
  N  N18  1  0.80136144  0.28908468  0.53164539  1
  N  N19  1  0.19863856  0.71091532  0.46835461  1
  O  O20  1  0.59238328  0.70322100  0.66309855  1
  O  O21  1  0.40761672  0.29677900  0.33690145  1
  O  O22  1  0.53673600  0.62787557  0.91903736  1
  O  O23  1  0.46326400  0.37212443  0.08096264  1
  O  O24  1  0.86939022  0.57495642  0.87046876  1
  O  O25  1  0.13060978  0.42504358  0.12953124  1
  O  O26  1  0.71912944  0.89829097  0.94715676  1
  O  O27  1  0.28087056  0.10170903  0.05284324  1
  O  O28  1  0.95931653  0.14997509  0.84106662  1
  O  O29  1  0.04068347  0.85002491  0.15893338  1
  O  O30  1  0.85838345  0.16275611  0.17129624  1
  O  O31  1  0.14161655  0.83724389  0.82870376  1
  O  O32  1  0.71770160  0.93611722  0.24722106  1
  O  O33  1  0.28229840  0.06388278  0.75277894  1
  O  O34  1  0.55252893  0.24421800  0.74821537  1
  O  O35  1  0.44747107  0.75578200  0.25178463  1
  O  O36  1  0.79665535  0.60629155  0.25232615  1
  O  O37  1  0.20334465  0.39370845  0.74767385  1
  O  O38  1  0.74192327  0.85684558  0.50011927  1
  O  O39  1  0.25807673  0.14315442  0.49988073  1
