# generated using pymatgen
data_Na4UCr3O14
_symmetry_space_group_name_H-M   'P 1'
_cell_length_a   7.33493010
_cell_length_b   8.64439852
_cell_length_c   11.63134830
_cell_angle_alpha   80.07165972
_cell_angle_beta   78.74312310
_cell_angle_gamma   69.08004191
_symmetry_Int_Tables_number   1
_chemical_formula_structural   Na4UCr3O14
_chemical_formula_sum   'Na8 U2 Cr6 O28'
_cell_volume   671.36929058
_cell_formula_units_Z   2
loop_
 _symmetry_equiv_pos_site_id
 _symmetry_equiv_pos_as_xyz
  1  'x, y, z'
loop_
 _atom_site_type_symbol
 _atom_site_label
 _atom_site_symmetry_multiplicity
 _atom_site_fract_x
 _atom_site_fract_y
 _atom_site_fract_z
 _atom_site_occupancy
  Na  Na0  1  0.77726713  0.53609745  0.78772067  1
  Na  Na1  1  0.22273287  0.46390255  0.21227933  1
  Na  Na2  1  0.04397007  0.90851808  0.67385502  1
  Na  Na3  1  0.66076743  0.14896110  0.95611247  1
  Na  Na4  1  0.33923257  0.85103890  0.04388753  1
  Na  Na5  1  0.73618547  0.77917938  0.48456730  1
  Na  Na6  1  0.95602993  0.09148192  0.32614498  1
  Na  Na7  1  0.26381453  0.22082062  0.51543270  1
  U  U8  1  0.31894272  0.38110308  0.76676904  1
  U  U9  1  0.68105728  0.61889692  0.23323096  1
  Cr  Cr10  1  0.51764442  0.92229705  0.74122209  1
  Cr  Cr11  1  0.98351574  0.73440359  0.95494102  1
  Cr  Cr12  1  0.25386750  0.66095760  0.47456323  1
  Cr  Cr13  1  0.48235558  0.07770295  0.25877791  1
  Cr  Cr14  1  0.01648426  0.26559641  0.04505898  1
  Cr  Cr15  1  0.74613250  0.33904240  0.52543677  1
  O  O16  1  0.23174978  0.27331948  0.96525065  1
  O  O17  1  0.76907045  0.49518966  0.57651478  1
  O  O18  1  0.94222360  0.40205370  0.14840532  1
  O  O19  1  0.46664669  0.78720786  0.84884135  1
  O  O20  1  0.93540175  0.16969053  0.55051753  1
  O  O21  1  0.06459825  0.83030947  0.44948247  1
  O  O22  1  0.05777640  0.59794630  0.85159468  1
  O  O23  1  0.13029650  0.33307397  0.71145950  1
  O  O24  1  0.74726856  0.83381905  0.67706678  1
  O  O25  1  0.53311333  0.30651127  0.59241748  1
  O  O26  1  0.25565917  0.62299685  0.62212218  1
  O  O27  1  0.14822870  0.68426317  0.04358260  1
  O  O28  1  0.74434083  0.37700315  0.37787782  1
  O  O29  1  0.86970350  0.66692603  0.28854050  1
  O  O30  1  0.46688667  0.69348873  0.40758252  1
  O  O31  1  0.76825022  0.72668052  0.03474935  1
  O  O32  1  0.25273144  0.16618095  0.32293322  1
  O  O33  1  0.49762822  0.09809229  0.79954243  1
  O  O34  1  0.36537306  0.96646557  0.64312456  1
  O  O35  1  0.51390991  0.41969817  0.82264766  1
  O  O36  1  0.63462694  0.03353443  0.35687544  1
  O  O37  1  0.48609009  0.58030183  0.17735234  1
  O  O38  1  0.50237178  0.90190771  0.20045757  1
  O  O39  1  0.04823962  0.07613853  0.11289283  1
  O  O40  1  0.95176038  0.92386147  0.88710717  1
  O  O41  1  0.85177130  0.31573683  0.95641740  1
  O  O42  1  0.53335331  0.21279214  0.15115865  1
  O  O43  1  0.23092955  0.50481034  0.42348522  1
