# generated using pymatgen
data_KPH3NO3
_symmetry_space_group_name_H-M   'P 1'
_cell_length_a   6.16385346
_cell_length_b   6.92382625
_cell_length_c   10.33148311
_cell_angle_alpha   90.00000000
_cell_angle_beta   89.47255630
_cell_angle_gamma   90.00000000
_symmetry_Int_Tables_number   1
_chemical_formula_structural   KPH3NO3
_chemical_formula_sum   'K4 P4 H12 N4 O12'
_cell_volume   440.90267520
_cell_formula_units_Z   4
loop_
 _symmetry_equiv_pos_site_id
 _symmetry_equiv_pos_as_xyz
  1  'x, y, z'
loop_
 _atom_site_type_symbol
 _atom_site_label
 _atom_site_symmetry_multiplicity
 _atom_site_fract_x
 _atom_site_fract_y
 _atom_site_fract_z
 _atom_site_occupancy
  K  K0  1  0.24863879  0.48809897  0.70881950  1
  K  K1  1  0.74863879  0.01190103  0.20881950  1
  K  K2  1  0.75136121  0.51190103  0.29118050  1
  K  K3  1  0.25136121  0.98809897  0.79118050  1
  P  P4  1  0.25031103  0.84017858  0.41144622  1
  P  P5  1  0.75031103  0.65982142  0.91144622  1
  P  P6  1  0.74968897  0.15982142  0.58855378  1
  P  P7  1  0.24968897  0.34017858  0.08855378  1
  H  H8  1  0.18639775  0.16417810  0.32350725  1
  H  H9  1  0.68639775  0.33582190  0.82350725  1
  H  H10  1  0.81360225  0.83582190  0.67649275  1
  H  H11  1  0.31360225  0.66417810  0.17649275  1
  H  H12  1  0.15081205  0.15247179  0.48749390  1
  H  H13  1  0.65081205  0.34752821  0.98749390  1
  H  H14  1  0.84918795  0.84752821  0.51250610  1
  H  H15  1  0.34918795  0.65247179  0.01250610  1
  H  H16  1  0.40772068  0.15037953  0.42180093  1
  H  H17  1  0.90772068  0.34962047  0.92180093  1
  H  H18  1  0.59227932  0.84962047  0.57819907  1
  H  H19  1  0.09227932  0.65037953  0.07819907  1
  N  N20  1  0.24733083  0.10272510  0.40933048  1
  N  N21  1  0.74733083  0.39727490  0.90933048  1
  N  N22  1  0.75266917  0.89727490  0.59066952  1
  N  N23  1  0.25266917  0.60272510  0.09066952  1
  O  O24  1  0.41963169  0.78471353  0.30951776  1
  O  O25  1  0.91963169  0.71528647  0.80951776  1
  O  O26  1  0.58036831  0.21528647  0.69048224  1
  O  O27  1  0.08036831  0.28471353  0.19048224  1
  O  O28  1  0.01619370  0.78843927  0.37742275  1
  O  O29  1  0.51619370  0.71156073  0.87742275  1
  O  O30  1  0.98380630  0.21156073  0.62257725  1
  O  O31  1  0.48380630  0.28843927  0.12257725  1
  O  O32  1  0.31582835  0.79687624  0.55037253  1
  O  O33  1  0.81582835  0.70312376  0.05037253  1
  O  O34  1  0.68417165  0.20312376  0.44962747  1
  O  O35  1  0.18417165  0.29687624  0.94962747  1
