# generated using pymatgen
data_K2CdH4(SeO5)2
_symmetry_space_group_name_H-M   'P 1'
_cell_length_a   6.70858626
_cell_length_b   7.69968959
_cell_length_c   11.59073611
_cell_angle_alpha   72.15109683
_cell_angle_beta   74.46355996
_cell_angle_gamma   70.04296140
_symmetry_Int_Tables_number   1
_chemical_formula_structural   K2CdH4(SeO5)2
_chemical_formula_sum   'K4 Cd2 H8 Se4 O20'
_cell_volume   526.67797258
_cell_formula_units_Z   2
loop_
 _symmetry_equiv_pos_site_id
 _symmetry_equiv_pos_as_xyz
  1  'x, y, z'
loop_
 _atom_site_type_symbol
 _atom_site_label
 _atom_site_symmetry_multiplicity
 _atom_site_fract_x
 _atom_site_fract_y
 _atom_site_fract_z
 _atom_site_occupancy
  K  K0  1  0.79798594  0.74779517  0.40111864  1
  K  K1  1  0.20201406  0.25220483  0.59888136  1
  K  K2  1  0.72975411  0.26671345  0.07871871  1
  K  K3  1  0.27024589  0.73328655  0.92128129  1
  Cd  Cd4  1  0.75159567  0.97358232  0.74869556  1
  Cd  Cd5  1  0.24840433  0.02641768  0.25130444  1
  H  H6  1  0.69840249  0.36087543  0.65703225  1
  H  H7  1  0.30159751  0.63912457  0.34296775  1
  H  H8  1  0.66303500  0.31139627  0.80170049  1
  H  H9  1  0.33696500  0.68860373  0.19829951  1
  H  H10  1  0.64733995  0.66570012  0.70723526  1
  H  H11  1  0.35266005  0.33429988  0.29276474  1
  H  H12  1  0.83122288  0.58466037  0.79170901  1
  H  H13  1  0.16877712  0.41533963  0.20829099  1
  Se  Se14  1  0.73748914  0.76528368  0.08410412  1
  Se  Se15  1  0.26251086  0.23471632  0.91589588  1
  Se  Se16  1  0.73892299  0.23125238  0.42464025  1
  Se  Se17  1  0.26107701  0.76874762  0.57535975  1
  O  O18  1  0.95500339  0.60309354  0.13130229  1
  O  O19  1  0.04499661  0.39690646  0.86869771  1
  O  O20  1  0.56061648  0.66335557  0.07406337  1
  O  O21  1  0.43938352  0.33664443  0.92593663  1
  O  O22  1  0.81911960  0.90512900  0.94795175  1
  O  O23  1  0.18088040  0.09487100  0.05204825  1
  O  O24  1  0.62107905  0.90663131  0.18482205  1
  O  O25  1  0.37892095  0.09336869  0.81517795  1
  O  O26  1  0.87872975  0.34921701  0.45364367  1
  O  O27  1  0.12127025  0.65078299  0.54635633  1
  O  O28  1  0.50518813  0.37504247  0.38384647  1
  O  O29  1  0.49481187  0.62495753  0.61615353  1
  O  O30  1  0.68036647  0.06077032  0.54934415  1
  O  O31  1  0.31963353  0.93922968  0.45065585  1
  O  O32  1  0.87768775  0.12071540  0.30929221  1
  O  O33  1  0.12231225  0.87928460  0.69070779  1
  O  O34  1  0.77012835  0.28002858  0.72716589  1
  O  O35  1  0.22987165  0.71997142  0.27283411  1
  O  O36  1  0.69529564  0.68361431  0.77607638  1
  O  O37  1  0.30470436  0.31638569  0.22392362  1
