# generated using pymatgen
data_Sm2Si5Ru3
_symmetry_space_group_name_H-M   'P 1'
_cell_length_a   10.80319213
_cell_length_b   10.80319213
_cell_length_c   5.72671639
_cell_angle_alpha   90.00000000
_cell_angle_beta   90.00000000
_cell_angle_gamma   90.00000000
_symmetry_Int_Tables_number   1
_chemical_formula_structural   Sm2Si5Ru3
_chemical_formula_sum   'Sm8 Si20 Ru12'
_cell_volume   668.35911522
_cell_formula_units_Z   4
loop_
 _symmetry_equiv_pos_site_id
 _symmetry_equiv_pos_as_xyz
  1  'x, y, z'
loop_
 _atom_site_type_symbol
 _atom_site_label
 _atom_site_symmetry_multiplicity
 _atom_site_fract_x
 _atom_site_fract_y
 _atom_site_fract_z
 _atom_site_occupancy
  Sm  Sm0  1  0.92850983  0.76505340  0.50000000  1
  Sm  Sm1  1  0.07149017  0.23494660  0.50000000  1
  Sm  Sm2  1  0.57149017  0.26505340  0.00000000  1
  Sm  Sm3  1  0.42850983  0.73494660  0.00000000  1
  Sm  Sm4  1  0.76505340  0.07149017  0.50000000  1
  Sm  Sm5  1  0.23494660  0.92850983  0.50000000  1
  Sm  Sm6  1  0.26505340  0.42850983  0.00000000  1
  Sm  Sm7  1  0.73494660  0.57149017  0.00000000  1
  Si  Si8  1  0.47783203  0.82082048  0.50000000  1
  Si  Si9  1  0.52216797  0.17917952  0.50000000  1
  Si  Si10  1  0.02216797  0.32082048  0.00000000  1
  Si  Si11  1  0.97783203  0.67917952  0.00000000  1
  Si  Si12  1  0.82082048  0.52216797  0.50000000  1
  Si  Si13  1  0.17917952  0.47783203  0.50000000  1
  Si  Si14  1  0.32082048  0.97783203  0.00000000  1
  Si  Si15  1  0.67917952  0.02216797  0.00000000  1
  Si  Si16  1  0.17368835  0.67368835  0.25000000  1
  Si  Si17  1  0.82631165  0.32631165  0.25000000  1
  Si  Si18  1  0.32631165  0.17368835  0.75000000  1
  Si  Si19  1  0.67368835  0.82631165  0.75000000  1
  Si  Si20  1  0.67368835  0.82631165  0.25000000  1
  Si  Si21  1  0.32631165  0.17368835  0.25000000  1
  Si  Si22  1  0.17368835  0.67368835  0.75000000  1
  Si  Si23  1  0.82631165  0.32631165  0.75000000  1
  Si  Si24  1  0.50000000  0.50000000  0.26624993  1
  Si  Si25  1  0.00000000  0.00000000  0.76624993  1
  Si  Si26  1  0.50000000  0.50000000  0.73375007  1
  Si  Si27  1  0.00000000  0.00000000  0.23375007  1
  Ru  Ru28  1  0.00000000  0.50000000  0.25000000  1
  Ru  Ru29  1  0.50000000  0.00000000  0.75000000  1
  Ru  Ru30  1  0.50000000  0.00000000  0.25000000  1
  Ru  Ru31  1  0.00000000  0.50000000  0.75000000  1
  Ru  Ru32  1  0.62466779  0.64606508  0.50000000  1
  Ru  Ru33  1  0.37533221  0.35393492  0.50000000  1
  Ru  Ru34  1  0.87533221  0.14606508  0.00000000  1
  Ru  Ru35  1  0.12466779  0.85393492  0.00000000  1
  Ru  Ru36  1  0.64606508  0.37533221  0.50000000  1
  Ru  Ru37  1  0.35393492  0.62466779  0.50000000  1
  Ru  Ru38  1  0.14606508  0.12466779  0.00000000  1
  Ru  Ru39  1  0.85393492  0.87533221  0.00000000  1
