# generated using pymatgen
data_NaCo2HSe2O7
_symmetry_space_group_name_H-M   'P 1'
_cell_length_a   8.45080945
_cell_length_b   13.40717530
_cell_length_c   6.09356310
_cell_angle_alpha   90.00000000
_cell_angle_beta   90.00000000
_cell_angle_gamma   90.00000000
_symmetry_Int_Tables_number   1
_chemical_formula_structural   NaCo2HSe2O7
_chemical_formula_sum   'Na4 Co8 H4 Se8 O28'
_cell_volume   690.40974039
_cell_formula_units_Z   4
loop_
 _symmetry_equiv_pos_site_id
 _symmetry_equiv_pos_as_xyz
  1  'x, y, z'
loop_
 _atom_site_type_symbol
 _atom_site_label
 _atom_site_symmetry_multiplicity
 _atom_site_fract_x
 _atom_site_fract_y
 _atom_site_fract_z
 _atom_site_occupancy
  Na  Na0  1  0.12738894  0.24871638  0.75000000  1
  Na  Na1  1  0.37261106  0.74871638  0.75000000  1
  Na  Na2  1  0.87261106  0.75128362  0.25000000  1
  Na  Na3  1  0.62738894  0.25128362  0.25000000  1
  Co  Co4  1  0.50000000  0.50000000  0.00000000  1
  Co  Co5  1  0.00000000  0.00000000  0.50000000  1
  Co  Co6  1  0.50000000  0.50000000  0.50000000  1
  Co  Co7  1  0.00000000  0.00000000  0.00000000  1
  Co  Co8  1  0.21297197  0.61311855  0.25000000  1
  Co  Co9  1  0.28702803  0.11311855  0.25000000  1
  Co  Co10  1  0.78702803  0.38688145  0.75000000  1
  Co  Co11  1  0.71297197  0.88688145  0.75000000  1
  H  H12  1  0.97520175  0.16348102  0.25000000  1
  H  H13  1  0.52479825  0.66348102  0.25000000  1
  H  H14  1  0.02479825  0.83651898  0.75000000  1
  H  H15  1  0.47520175  0.33651898  0.75000000  1
  Se  Se16  1  0.22460193  0.82910661  0.25000000  1
  Se  Se17  1  0.27539807  0.32910661  0.25000000  1
  Se  Se18  1  0.77539807  0.17089339  0.75000000  1
  Se  Se19  1  0.72460193  0.67089339  0.75000000  1
  Se  Se20  1  0.12059328  0.52503568  0.75000000  1
  Se  Se21  1  0.37940672  0.02503568  0.75000000  1
  Se  Se22  1  0.87940672  0.47496432  0.25000000  1
  Se  Se23  1  0.62059328  0.97496432  0.25000000  1
  O  O24  1  0.54020366  0.60778708  0.75000000  1
  O  O25  1  0.95979634  0.10778708  0.75000000  1
  O  O26  1  0.45979634  0.39221292  0.25000000  1
  O  O27  1  0.04020366  0.89221292  0.25000000  1
  O  O28  1  0.97002528  0.59050437  0.25000000  1
  O  O29  1  0.52997472  0.09050437  0.25000000  1
  O  O30  1  0.02997472  0.40949563  0.75000000  1
  O  O31  1  0.47002528  0.90949563  0.75000000  1
  O  O32  1  0.69581866  0.75586678  0.96041567  1
  O  O33  1  0.80418134  0.25586678  0.53958433  1
  O  O34  1  0.30418134  0.24413322  0.46041567  1
  O  O35  1  0.19581866  0.74413322  0.03958433  1
  O  O36  1  0.30418134  0.24413322  0.03958433  1
  O  O37  1  0.19581866  0.74413322  0.46041567  1
  O  O38  1  0.69581866  0.75586678  0.53958433  1
  O  O39  1  0.80418134  0.25586678  0.96041567  1
  O  O40  1  0.24903931  0.51357927  0.97280240  1
  O  O41  1  0.25096069  0.01357927  0.52719760  1
  O  O42  1  0.75096069  0.48642073  0.47280240  1
  O  O43  1  0.74903931  0.98642073  0.02719760  1
  O  O44  1  0.75096069  0.48642073  0.02719760  1
  O  O45  1  0.74903931  0.98642073  0.47280240  1
  O  O46  1  0.24903931  0.51357927  0.52719760  1
  O  O47  1  0.25096069  0.01357927  0.97280240  1
  O  O48  1  0.04056972  0.10300886  0.25000000  1
  O  O49  1  0.45943028  0.60300886  0.25000000  1
  O  O50  1  0.95943028  0.89699114  0.75000000  1
  O  O51  1  0.54056972  0.39699114  0.75000000  1
