# generated using pymatgen
data_K3SnHF8
_symmetry_space_group_name_H-M   'P 1'
_cell_length_a   8.44870957
_cell_length_b   8.44870957
_cell_length_c   6.95966738
_cell_angle_alpha   91.28615500
_cell_angle_beta   88.71384500
_cell_angle_gamma   64.84307398
_symmetry_Int_Tables_number   1
_chemical_formula_structural   K3SnHF8
_chemical_formula_sum   'K6 Sn2 H2 F16'
_cell_volume   449.26996342
_cell_formula_units_Z   2
loop_
 _symmetry_equiv_pos_site_id
 _symmetry_equiv_pos_as_xyz
  1  'x, y, z'
loop_
 _atom_site_type_symbol
 _atom_site_label
 _atom_site_symmetry_multiplicity
 _atom_site_fract_x
 _atom_site_fract_y
 _atom_site_fract_z
 _atom_site_occupancy
  K  K0  1  0.65471417  0.65471417  0.25000000  1
  K  K1  1  0.34528583  0.34528583  0.75000000  1
  K  K2  1  0.12513732  0.67780336  0.27907989  1
  K  K3  1  0.67780336  0.12513732  0.22092011  1
  K  K4  1  0.87486268  0.32219664  0.72092011  1
  K  K5  1  0.32219664  0.87486268  0.77907989  1
  Sn  Sn6  1  0.82238907  0.82238907  0.75000000  1
  Sn  Sn7  1  0.17761093  0.17761093  0.25000000  1
  H  H8  1  0.50000000  0.50000000  0.50000000  1
  H  H9  1  0.50000000  0.50000000  0.00000000  1
  F  F10  1  0.03698712  0.60106045  0.68726667  1
  F  F11  1  0.60106045  0.03698712  0.81273333  1
  F  F12  1  0.96301288  0.39893955  0.31273333  1
  F  F13  1  0.39893955  0.96301288  0.18726667  1
  F  F14  1  0.35866243  0.60276134  0.98453865  1
  F  F15  1  0.60276134  0.35866243  0.51546135  1
  F  F16  1  0.64133757  0.39723866  0.01546135  1
  F  F17  1  0.39723866  0.64133757  0.48453865  1
  F  F18  1  0.96288944  0.96288944  0.75000000  1
  F  F19  1  0.03711056  0.03711056  0.25000000  1
  F  F20  1  0.68175093  0.68175093  0.75000000  1
  F  F21  1  0.31824907  0.31824907  0.25000000  1
  F  F22  1  0.85496607  0.78516941  0.03454335  1
  F  F23  1  0.78516941  0.85496607  0.46545665  1
  F  F24  1  0.14503393  0.21483059  0.96545665  1
  F  F25  1  0.21483059  0.14503393  0.53454335  1
