# generated using pymatgen
data_Fe2Te4H3ClO12
_symmetry_space_group_name_H-M   'P 1'
_cell_length_a   5.21155325
_cell_length_b   6.74054440
_cell_length_c   9.06180057
_cell_angle_alpha   73.05545637
_cell_angle_beta   79.12906909
_cell_angle_gamma   76.87617307
_symmetry_Int_Tables_number   1
_chemical_formula_structural   Fe2Te4H3ClO12
_chemical_formula_sum   'Fe2 Te4 H3 Cl1 O12'
_cell_volume   293.98475723
_cell_formula_units_Z   1
loop_
 _symmetry_equiv_pos_site_id
 _symmetry_equiv_pos_as_xyz
  1  'x, y, z'
loop_
 _atom_site_type_symbol
 _atom_site_label
 _atom_site_symmetry_multiplicity
 _atom_site_fract_x
 _atom_site_fract_y
 _atom_site_fract_z
 _atom_site_occupancy
  Fe  Fe0  1  0.72350766  0.14217057  0.44538429  1
  Fe  Fe1  1  0.27649234  0.85782943  0.55461571  1
  Te  Te2  1  0.87672858  0.66081319  0.31305082  1
  Te  Te3  1  0.12327142  0.33918681  0.68694918  1
  Te  Te4  1  0.66925202  0.83088087  0.83263713  1
  Te  Te5  1  0.33074798  0.16911913  0.16736287  1
  H  H6  1  0.55452134  0.53374453  0.21101262  1
  H  H7  1  0.44547866  0.46625547  0.78898738  1
  H  H8  1  0.00000000  0.50000000  0.00000000  1
  Cl  Cl9  1  0.00000000  0.00000000  0.00000000  1
  O  O10  1  0.81180241  0.40432100  0.46309235  1
  O  O11  1  0.18819759  0.59567900  0.53690765  1
  O  O12  1  0.63469742  0.86444425  0.41578967  1
  O  O13  1  0.36530258  0.13555575  0.58421033  1
  O  O14  1  0.59032410  0.68166494  0.19332037  1
  O  O15  1  0.40967590  0.31833506  0.80667963  1
  O  O16  1  0.46081810  0.71224321  0.73867052  1
  O  O17  1  0.53918190  0.28775679  0.26132948  1
  O  O18  1  0.89059595  0.95927074  0.64598103  1
  O  O19  1  0.10940405  0.04072926  0.35401897  1
  O  O20  1  0.90318497  0.56629394  0.87929593  1
  O  O21  1  0.09681503  0.43370606  0.12070407  1
