# generated using pymatgen
data_La(BRu)4
_symmetry_space_group_name_H-M   'P 1'
_cell_length_a   4.01887235
_cell_length_b   7.59259004
_cell_length_c   7.59259004
_cell_angle_alpha   90.00000000
_cell_angle_beta   90.00000000
_cell_angle_gamma   90.00000000
_symmetry_Int_Tables_number   1
_chemical_formula_structural   La(BRu)4
_chemical_formula_sum   'La2 B8 Ru8'
_cell_volume   231.67763642
_cell_formula_units_Z   2
loop_
 _symmetry_equiv_pos_site_id
 _symmetry_equiv_pos_as_xyz
  1  'x, y, z'
loop_
 _atom_site_type_symbol
 _atom_site_label
 _atom_site_symmetry_multiplicity
 _atom_site_fract_x
 _atom_site_fract_y
 _atom_site_fract_z
 _atom_site_occupancy
  B  B0  1  0.85939911  0.03812882  0.91651486  1
  B  B1  1  0.35939911  0.08348514  0.53812882  1
  B  B2  1  0.14060089  0.96187118  0.08348514  1
  B  B3  1  0.64060089  0.91651486  0.46187118  1
  B  B4  1  0.64060089  0.58348514  0.03812882  1
  B  B5  1  0.14060089  0.53812882  0.41651486  1
  B  B6  1  0.35939911  0.41651486  0.96187118  1
  B  B7  1  0.85939911  0.46187118  0.58348514  1
  Ru  Ru8  1  0.35868370  0.35802544  0.60602624  1
  Ru  Ru9  1  0.85868370  0.10602624  0.64197456  1
  Ru  Ru10  1  0.14131630  0.89397376  0.35802544  1
  Ru  Ru11  1  0.64131630  0.64197456  0.39397376  1
  Ru  Ru12  1  0.64131630  0.85802544  0.10602624  1
  Ru  Ru13  1  0.14131630  0.60602624  0.14197456  1
  Ru  Ru14  1  0.35868370  0.14197456  0.89397376  1
  Ru  Ru15  1  0.85868370  0.39397376  0.85802544  1
  La  La16  1  0.25000000  0.75000000  0.75000000  1
  La  La17  1  0.75000000  0.25000000  0.25000000  1
