# generated using pymatgen
data_K3NbHOF7
_symmetry_space_group_name_H-M   'P 1'
_cell_length_a   8.44557866
_cell_length_b   8.44557866
_cell_length_c   7.00351163
_cell_angle_alpha   91.91656213
_cell_angle_beta   88.08343787
_cell_angle_gamma   63.45915747
_symmetry_Int_Tables_number   1
_chemical_formula_structural   K3NbHOF7
_chemical_formula_sum   'K6 Nb2 H2 O2 F14'
_cell_volume   445.99649038
_cell_formula_units_Z   2
loop_
 _symmetry_equiv_pos_site_id
 _symmetry_equiv_pos_as_xyz
  1  'x, y, z'
loop_
 _atom_site_type_symbol
 _atom_site_label
 _atom_site_symmetry_multiplicity
 _atom_site_fract_x
 _atom_site_fract_y
 _atom_site_fract_z
 _atom_site_occupancy
  K  K0  1  0.34056126  0.34056126  0.75000000  1
  K  K1  1  0.65943874  0.65943874  0.25000000  1
  K  K2  1  0.13291119  0.67416642  0.28556773  1
  K  K3  1  0.67416642  0.13291119  0.21443227  1
  K  K4  1  0.86708881  0.32583358  0.71443227  1
  K  K5  1  0.32583358  0.86708881  0.78556773  1
  Nb  Nb6  1  0.83425259  0.83425259  0.75000000  1
  Nb  Nb7  1  0.16574741  0.16574741  0.25000000  1
  H  H8  1  0.50000000  0.50000000  0.50000000  1
  H  H9  1  0.50000000  0.50000000  0.00000000  1
  O  O10  1  0.95877150  0.95877150  0.75000000  1
  O  O11  1  0.04122850  0.04122850  0.25000000  1
  F  F12  1  0.68693192  0.68693192  0.75000000  1
  F  F13  1  0.31306808  0.31306808  0.25000000  1
  F  F14  1  0.03445189  0.60139439  0.66453150  1
  F  F15  1  0.60139439  0.03445189  0.83546850  1
  F  F16  1  0.96554811  0.39860561  0.33546850  1
  F  F17  1  0.39860561  0.96554811  0.16453150  1
  F  F18  1  0.86600515  0.77064752  0.02429349  1
  F  F19  1  0.77064752  0.86600515  0.47570651  1
  F  F20  1  0.13399485  0.22935248  0.97570651  1
  F  F21  1  0.22935248  0.13399485  0.52429349  1
  F  F22  1  0.35396511  0.59415812  0.97878255  1
  F  F23  1  0.59415812  0.35396511  0.52121745  1
  F  F24  1  0.64603489  0.40584188  0.02121745  1
  F  F25  1  0.40584188  0.64603489  0.47878255  1
