# generated using pymatgen
data_Na5Cu(HO2)2
_symmetry_space_group_name_H-M   'P 1'
_cell_length_a   6.10900447
_cell_length_b   8.89518092
_cell_length_c   12.05800426
_cell_angle_alpha   90.00001076
_cell_angle_beta   89.99965773
_cell_angle_gamma   90.00001660
_symmetry_Int_Tables_number   1
_chemical_formula_structural   Na5Cu(HO2)2
_chemical_formula_sum   'Na20 Cu4 H8 O16'
_cell_volume   655.24039211
_cell_formula_units_Z   4
loop_
 _symmetry_equiv_pos_site_id
 _symmetry_equiv_pos_as_xyz
  1  'x, y, z'
loop_
 _atom_site_type_symbol
 _atom_site_label
 _atom_site_symmetry_multiplicity
 _atom_site_fract_x
 _atom_site_fract_y
 _atom_site_fract_z
 _atom_site_occupancy
  Na  Na0  1  0.05227516  0.74999981  0.04164436  1
  Na  Na1  1  0.06340986  0.25000002  0.20753817  1
  Na  Na2  1  0.08647272  0.25000074  0.72915240  1
  Na  Na3  1  0.24097748  0.50576980  0.36067403  1
  Na  Na4  1  0.24097779  0.99423075  0.36067322  1
  Na  Na5  1  0.25902206  0.00576954  0.86067415  1
  Na  Na6  1  0.25902274  0.49422977  0.86067454  1
  Na  Na7  1  0.41352714  0.74999960  0.22915204  1
  Na  Na8  1  0.43659135  0.75000079  0.70753910  1
  Na  Na9  1  0.44772635  0.24999990  0.54164395  1
  Na  Na10  1  0.55227317  0.75000004  0.45835660  1
  Na  Na11  1  0.56340850  0.25000047  0.29245745  1
  Na  Na12  1  0.58647376  0.25000049  0.77084860  1
  Na  Na13  1  0.74097788  0.50576779  0.13932662  1
  Na  Na14  1  0.74097705  0.99423240  0.13932627  1
  Na  Na15  1  0.75902289  0.00576882  0.63932715  1
  Na  Na16  1  0.75902344  0.49423190  0.63932709  1
  Na  Na17  1  0.91352696  0.74999975  0.27084760  1
  Na  Na18  1  0.93659162  0.75000006  0.79245761  1
  Na  Na19  1  0.94772698  0.25000012  0.95835697  1
  Cu  Cu20  1  0.00254722  0.74999783  0.52414223  1
  Cu  Cu21  1  0.49744898  0.24999832  0.02413715  1
  Cu  Cu22  1  0.50255119  0.74999905  0.97585803  1
  Cu  Cu23  1  0.99744513  0.24999767  0.47586073  1
  H  H24  1  0.22690343  0.50559069  0.12350060  1
  H  H25  1  0.22690485  0.99441036  0.12349992  1
  H  H26  1  0.27309598  0.00559069  0.62350010  1
  H  H27  1  0.27309602  0.49440957  0.62350018  1
  H  H28  1  0.72690588  0.50559252  0.37650146  1
  H  H29  1  0.72690528  0.99440772  0.37650129  1
  H  H30  1  0.77309438  0.00559291  0.87650164  1
  H  H31  1  0.77309441  0.49440753  0.87650156  1
  O  O32  1  0.12146324  0.54909443  0.17565543  1
  O  O33  1  0.12146269  0.95090668  0.17565526  1
  O  O34  1  0.19427730  0.75000032  0.41109383  1
  O  O35  1  0.22865902  0.24999990  0.37874409  1
  O  O36  1  0.27133975  0.75000012  0.87874392  1
  O  O37  1  0.30572540  0.25000003  0.91109547  1
  O  O38  1  0.37853762  0.04909443  0.67565508  1
  O  O39  1  0.37853690  0.45090583  0.67565497  1
  O  O40  1  0.62146073  0.95090658  0.32434456  1
  O  O41  1  0.62146107  0.54909364  0.32434443  1
  O  O42  1  0.69428313  0.74999981  0.08890938  1
  O  O43  1  0.72864742  0.25000033  0.12125119  1
  O  O44  1  0.77135000  0.75000007  0.62125214  1
  O  O45  1  0.80571726  0.24999996  0.58890952  1
  O  O46  1  0.87854046  0.04909421  0.82434391  1
  O  O47  1  0.87854038  0.45090624  0.82434401  1
