# generated using pymatgen
data_Li7Fe5OF15
_symmetry_space_group_name_H-M   'P 1'
_cell_length_a   10.37461521
_cell_length_b   9.96243077
_cell_length_c   10.63357134
_cell_angle_alpha   108.39183509
_cell_angle_beta   113.85655708
_cell_angle_gamma   107.58380002
_symmetry_Int_Tables_number   1
_chemical_formula_structural   Li7Fe5OF15
_chemical_formula_sum   'Li14 Fe10 O2 F30'
_cell_volume   828.67492294
_cell_formula_units_Z   2
loop_
 _symmetry_equiv_pos_site_id
 _symmetry_equiv_pos_as_xyz
  1  'x, y, z'
loop_
 _atom_site_type_symbol
 _atom_site_label
 _atom_site_symmetry_multiplicity
 _atom_site_fract_x
 _atom_site_fract_y
 _atom_site_fract_z
 _atom_site_occupancy
  Li  Li0  1  0.89617237  0.25854334  0.14621370  1
  Li  Li1  1  0.96043650  0.49158561  0.00675461  1
  Li  Li2  1  0.48783027  0.97658826  0.46424129  1
  Li  Li3  1  0.47203668  0.52263457  0.00513435  1
  Li  Li4  1  0.04353060  0.05038048  0.05819929  1
  Li  Li5  1  0.73943468  0.37550790  0.63256521  1
  Li  Li6  1  0.51321630  0.01478690  0.98328981  1
  Li  Li7  1  0.64289386  0.74678967  0.39188690  1
  Li  Li8  1  0.54759223  0.54688264  0.52797246  1
  Li  Li9  1  0.24574559  0.11867545  0.85836920  1
  Li  Li10  1  0.00458226  0.44133790  0.48698945  1
  Li  Li11  1  0.14321351  0.87723687  0.25052856  1
  Li  Li12  1  0.36236645  0.61373059  0.74928750  1
  Li  Li13  1  0.97989703  0.95098871  0.49126549  1
  Fe  Fe14  1  0.72745120  0.12677844  0.37085459  1
  Fe  Fe15  1  0.90995074  0.62563431  0.26690054  1
  Fe  Fe16  1  0.39972350  0.14176449  0.23321017  1
  Fe  Fe17  1  0.25329625  0.37448368  0.10859371  1
  Fe  Fe18  1  0.65011509  0.29246597  0.92353597  1
  Fe  Fe19  1  0.40818498  0.79565367  0.13838510  1
  Fe  Fe20  1  0.74202800  0.63415395  0.87241281  1
  Fe  Fe21  1  0.09531233  0.35601694  0.74163986  1
  Fe  Fe22  1  0.61538778  0.87308171  0.75534163  1
  Fe  Fe23  1  0.25332960  0.87300278  0.61918434  1
  O  O24  1  0.86210916  0.42629390  0.11680374  1
  O  O25  1  0.49873669  0.01631662  0.16066509  1
  F  F26  1  0.85323334  0.23720302  0.29880376  1
  F  F27  1  0.94870256  0.69480742  0.07275587  1
  F  F28  1  0.60925864  0.50418869  0.93830913  1
  F  F29  1  0.21864362  0.12723640  0.01974923  1
  F  F30  1  0.55961366  0.17754137  0.46079207  1
  F  F31  1  0.89728695  0.37571795  0.59195523  1
  F  F32  1  0.19778630  0.06015874  0.23726057  1
  F  F33  1  0.46394268  0.96055240  0.62552694  1
  F  F34  1  0.43994853  0.59351261  0.18278567  1
  F  F35  1  0.06970078  0.26452991  0.12296449  1
  F  F36  1  0.43775159  0.38135780  0.31098360  1
  F  F37  1  0.09988811  0.44051504  0.94764029  1
  F  F38  1  0.79522992  0.73787882  0.33547949  1
  F  F39  1  0.69077835  0.08112338  0.94783070  1
  F  F40  1  0.74914947  0.36853857  0.80720833  1
  F  F41  1  0.74008171  0.56649887  0.67204184  1
  F  F42  1  0.43921074  0.13654314  0.87941794  1
  F  F43  1  0.60995015  0.76127280  0.55782070  1
  F  F44  1  0.93535355  0.12198535  0.54565943  1
  F  F45  1  0.61340645  0.92307903  0.38433690  1
  F  F46  1  0.52055825  0.62264929  0.70818150  1
  F  F47  1  0.82366838  0.87550552  0.92138227  1
  F  F48  1  0.17623564  0.42031921  0.61650545  1
  F  F49  1  0.29612477  0.81271138  0.25874587  1
  F  F50  1  0.27595926  0.32268623  0.89282806  1
  F  F51  1  0.37398871  0.64191398  0.93855254  1
  F  F52  1  0.07139548  0.63133888  0.47270924  1
  F  F53  1  0.10639139  0.88333860  0.41077787  1
  F  F54  1  0.39442694  0.81943433  0.77971857  1
  F  F55  1  0.10487845  0.93454490  0.66816609  1
