# generated using pymatgen
data_Be(GaO2)2
_symmetry_space_group_name_H-M   'P 1'
_cell_length_a   7.82983252
_cell_length_b   7.82954682
_cell_length_c   9.02010902
_cell_angle_alpha   90.00292964
_cell_angle_beta   89.99209304
_cell_angle_gamma   119.99791453
_symmetry_Int_Tables_number   1
_chemical_formula_structural   Be(GaO2)2
_chemical_formula_sum   'Be6 Ga12 O24'
_cell_volume   478.89537019
_cell_formula_units_Z   6
loop_
 _symmetry_equiv_pos_site_id
 _symmetry_equiv_pos_as_xyz
  1  'x, y, z'
loop_
 _atom_site_type_symbol
 _atom_site_label
 _atom_site_symmetry_multiplicity
 _atom_site_fract_x
 _atom_site_fract_y
 _atom_site_fract_z
 _atom_site_occupancy
  Be  Be0  1  0.22331752  0.83052801  0.57818357  1
  Be  Be1  1  0.16935439  0.39276286  0.24501551  1
  Be  Be2  1  0.60722887  0.77658638  0.91158500  1
  Be  Be3  1  0.39506898  0.22706345  0.08700744  1
  Be  Be4  1  0.83190993  0.60489362  0.42045257  1
  Be  Be5  1  0.77300719  0.16795040  0.75380128  1
  Ga  Ga6  1  0.25798330  0.83850049  0.91425483  1
  Ga  Ga7  1  0.22723152  0.82172080  0.25997550  1
  Ga  Ga8  1  0.16148895  0.41939902  0.58118658  1
  Ga  Ga9  1  0.17834982  0.40557965  0.92691079  1
  Ga  Ga10  1  0.59438084  0.77266423  0.59349034  1
  Ga  Ga11  1  0.58057638  0.74218985  0.24773597  1
  Ga  Ga12  1  0.41315968  0.23174157  0.75229719  1
  Ga  Ga13  1  0.40868624  0.24906796  0.40610314  1
  Ga  Ga14  1  0.81863570  0.58698237  0.08571275  1
  Ga  Ga15  1  0.84033959  0.59116075  0.73947794  1
  Ga  Ga16  1  0.76828366  0.18139331  0.41906161  1
  Ga  Ga17  1  0.75088718  0.15973660  0.07278183  1
  O  O18  1  0.30862392  0.97606036  0.42992669  1
  O  O19  1  0.30597836  0.98104354  0.08931283  1
  O  O20  1  0.27954038  0.95890761  0.73371202  1
  O  O21  1  0.02385966  0.33258569  0.09678099  1
  O  O22  1  0.04113959  0.32070123  0.40060731  1
  O  O23  1  0.01895890  0.32489057  0.75623133  1
  O  O24  1  0.31063808  0.63734891  0.24866275  1
  O  O25  1  0.36266819  0.67328889  0.91526851  1
  O  O26  1  0.32663648  0.68930368  0.58212155  1
  O  O27  1  0.32547722  0.27926136  0.92972874  1
  O  O28  1  0.32636861  0.30769199  0.23172696  1
  O  O29  1  0.34276011  0.32507479  0.58553777  1
  O  O30  1  0.67923967  0.72042834  0.06715750  1
  O  O31  1  0.67504611  0.69405496  0.42274323  1
  O  O32  1  0.66749949  0.69131544  0.76339203  1
  O  O33  1  0.63875770  0.32049876  0.08588417  1
  O  O34  1  0.68158456  0.36118007  0.41932179  1
  O  O35  1  0.67959591  0.31828160  0.75253301  1
  O  O36  1  0.98128767  0.67343599  0.56507497  1
  O  O37  1  0.95378088  0.67445659  0.26313136  1
  O  O38  1  0.98234435  0.65741403  0.91891052  1
  O  O39  1  0.72077018  0.04613035  0.59646388  1
  O  O40  1  0.67505840  0.01777090  0.25226217  1
  O  O41  1  0.69219287  0.01865301  0.89847309  1
