# generated using pymatgen
data_Mn4Si4SnB2(HO9)2
_symmetry_space_group_name_H-M   'P 1'
_cell_length_a   7.06568971
_cell_length_b   7.47851341
_cell_length_c   7.73809804
_cell_angle_alpha   89.72718825
_cell_angle_beta   63.02655214
_cell_angle_gamma   76.83463572
_symmetry_Int_Tables_number   1
_chemical_formula_structural   Mn4Si4SnB2(HO9)2
_chemical_formula_sum   'Mn4 Si4 Sn1 B2 H2 O18'
_cell_volume   352.53446238
_cell_formula_units_Z   1
loop_
 _symmetry_equiv_pos_site_id
 _symmetry_equiv_pos_as_xyz
  1  'x, y, z'
loop_
 _atom_site_type_symbol
 _atom_site_label
 _atom_site_symmetry_multiplicity
 _atom_site_fract_x
 _atom_site_fract_y
 _atom_site_fract_z
 _atom_site_occupancy
  Mn  Mn0  1  0.19152820  0.71948918  0.26414584  1
  Mn  Mn1  1  0.80847180  0.28051082  0.73585416  1
  Mn  Mn2  1  0.69438725  0.71045454  0.26291168  1
  Mn  Mn3  1  0.30561275  0.28954546  0.73708832  1
  Si  Si4  1  0.92541775  0.67280402  0.75823899  1
  Si  Si5  1  0.07458225  0.32719598  0.24176101  1
  Si  Si6  1  0.46863368  0.67557426  0.77764033  1
  Si  Si7  1  0.53136632  0.32442574  0.22235967  1
  Sn  Sn8  1  0.00000000  0.00000000  0.00000000  1
  B  B9  1  0.25111514  0.87435477  0.56801468  1
  B  B10  1  0.74888486  0.12564523  0.43198532  1
  H  H11  1  0.67518421  0.95770729  0.66553311  1
  H  H12  1  0.32481579  0.04229271  0.33446689  1
  O  O13  1  0.14515486  0.04139771  0.70703578  1
  O  O14  1  0.85484514  0.95860229  0.29296422  1
  O  O15  1  0.87806559  0.77825309  0.96534176  1
  O  O16  1  0.12193441  0.22174691  0.03465824  1
  O  O17  1  0.43348765  0.74731037  0.58951870  1
  O  O18  1  0.56651235  0.25268963  0.41048130  1
  O  O19  1  0.27326659  0.80409633  0.97953253  1
  O  O20  1  0.72673341  0.19590367  0.02046747  1
  O  O21  1  0.08973279  0.76950668  0.57726333  1
  O  O22  1  0.91026721  0.23049332  0.42273667  1
  O  O23  1  0.69869488  0.72749348  0.73669437  1
  O  O24  1  0.30130512  0.27250652  0.26330563  1
  O  O25  1  0.01597923  0.45025407  0.73487598  1
  O  O26  1  0.98402077  0.54974593  0.26512402  1
  O  O27  1  0.48960064  0.45694970  0.79279748  1
  O  O28  1  0.51039936  0.54305030  0.20720252  1
  O  O29  1  0.35596417  0.91162732  0.35834653  1
  O  O30  1  0.64403583  0.08837268  0.64165347  1
