# generated using pymatgen
data_Mn7P6(HO6)4
_symmetry_space_group_name_H-M   'P 1'
_cell_length_a   6.64333634
_cell_length_b   8.14696522
_cell_length_c   10.02133123
_cell_angle_alpha   67.76256733
_cell_angle_beta   70.14824695
_cell_angle_gamma   78.66714359
_symmetry_Int_Tables_number   1
_chemical_formula_structural   Mn7P6(HO6)4
_chemical_formula_sum   'Mn7 P6 H4 O24'
_cell_volume   470.76762549
_cell_formula_units_Z   1
loop_
 _symmetry_equiv_pos_site_id
 _symmetry_equiv_pos_as_xyz
  1  'x, y, z'
loop_
 _atom_site_type_symbol
 _atom_site_label
 _atom_site_symmetry_multiplicity
 _atom_site_fract_x
 _atom_site_fract_y
 _atom_site_fract_z
 _atom_site_occupancy
  Mn  Mn0  1  0.00000000  0.00000000  0.00000000  1
  Mn  Mn1  1  0.47198936  0.71778507  0.48823316  1
  Mn  Mn2  1  0.52801064  0.28221493  0.51176684  1
  Mn  Mn3  1  0.99789696  0.81477103  0.71481524  1
  Mn  Mn4  1  0.00210304  0.18522897  0.28518476  1
  Mn  Mn5  1  0.72487939  0.45495842  0.89452001  1
  Mn  Mn6  1  0.27512061  0.54504158  0.10547999  1
  P  P7  1  0.55465402  0.14454061  0.21807498  1
  P  P8  1  0.44534598  0.85545939  0.78192502  1
  P  P9  1  0.02302896  0.77118688  0.38531816  1
  P  P10  1  0.97697104  0.22881312  0.61468184  1
  P  P11  1  0.73864910  0.58251519  0.17817578  1
  P  P12  1  0.26135090  0.41748481  0.82182422  1
  H  H13  1  0.81989020  0.50335888  0.59773122  1
  H  H14  1  0.18010980  0.49664112  0.40226878  1
  H  H15  1  0.62769888  0.87602412  0.19234212  1
  H  H16  1  0.37230112  0.12397588  0.80765788  1
  O  O17  1  0.61080155  0.54310708  0.09114263  1
  O  O18  1  0.38919845  0.45689292  0.90885737  1
  O  O19  1  0.04445239  0.53569814  0.83171416  1
  O  O20  1  0.95554761  0.46430186  0.16828584  1
  O  O21  1  0.64953575  0.16964791  0.32942745  1
  O  O22  1  0.35046425  0.83035209  0.67057255  1
  O  O23  1  0.66773911  0.75424938  0.77843832  1
  O  O24  1  0.33226089  0.24575062  0.22156168  1
  O  O25  1  0.79008367  0.78208331  0.10743044  1
  O  O26  1  0.20991633  0.21791669  0.89256956  1
  O  O27  1  0.83360698  0.38258823  0.67865184  1
  O  O28  1  0.16639302  0.61741177  0.32134816  1
  O  O29  1  0.80161380  0.70351496  0.47875128  1
  O  O30  1  0.19838620  0.29648504  0.52124872  1
  O  O31  1  0.96919290  0.06172776  0.75626472  1
  O  O32  1  0.03080710  0.93827224  0.24373528  1
  O  O33  1  0.87095796  0.19977355  0.51037708  1
  O  O34  1  0.12904204  0.80022645  0.48962292  1
  O  O35  1  0.60206610  0.54417151  0.34537213  1
  O  O36  1  0.39793390  0.45582849  0.65462787  1
  O  O37  1  0.72046875  0.18663723  0.05829954  1
  O  O38  1  0.27953125  0.81336277  0.94170046  1
  O  O39  1  0.48001209  0.06110190  0.73162685  1
  O  O40  1  0.51998791  0.93889810  0.26837315  1
