# generated using pymatgen
data_Ba2V3P6HO22
_symmetry_space_group_name_H-M   'P 1'
_cell_length_a   4.92131305
_cell_length_b   8.03351333
_cell_length_c   11.48356923
_cell_angle_alpha   88.70220340
_cell_angle_beta   89.22321951
_cell_angle_gamma   87.05731258
_symmetry_Int_Tables_number   1
_chemical_formula_structural   Ba2V3P6HO22
_chemical_formula_sum   'Ba2 V3 P6 H1 O22'
_cell_volume   453.25799633
_cell_formula_units_Z   1
loop_
 _symmetry_equiv_pos_site_id
 _symmetry_equiv_pos_as_xyz
  1  'x, y, z'
loop_
 _atom_site_type_symbol
 _atom_site_label
 _atom_site_symmetry_multiplicity
 _atom_site_fract_x
 _atom_site_fract_y
 _atom_site_fract_z
 _atom_site_occupancy
  Ba  Ba0  1  0.72919214  0.00577910  0.17697262  1
  Ba  Ba1  1  0.27080786  0.99422090  0.82302738  1
  V  V2  1  0.00000000  0.00000000  0.50000000  1
  V  V3  1  0.71761485  0.49427634  0.20299525  1
  V  V4  1  0.28238515  0.50572366  0.79700475  1
  P  P5  1  0.18208538  0.70598071  0.05093154  1
  P  P6  1  0.81791462  0.29401929  0.94906846  1
  P  P7  1  0.23364734  0.30246644  0.34301863  1
  P  P8  1  0.76635266  0.69753356  0.65698137  1
  P  P9  1  0.52783476  0.75653097  0.42561504  1
  P  P10  1  0.47216524  0.24346903  0.57438496  1
  H  H11  1  0.50000000  0.50000000  0.00000000  1
  O  O12  1  0.92091689  0.68129855  0.12474524  1
  O  O13  1  0.07908311  0.31870145  0.87525476  1
  O  O14  1  0.40876052  0.56638505  0.08611720  1
  O  O15  1  0.59123948  0.43361495  0.91388280  1
  O  O16  1  0.26976629  0.88466036  0.07075384  1
  O  O17  1  0.73023371  0.11533964  0.92924616  1
  O  O18  1  0.13590146  0.68189752  0.91955052  1
  O  O19  1  0.86409854  0.31810248  0.08044948  1
  O  O20  1  0.13567343  0.12337202  0.34705860  1
  O  O21  1  0.86432657  0.87662798  0.65294140  1
  O  O22  1  0.01568308  0.43462001  0.31015305  1
  O  O23  1  0.98431692  0.56537999  0.68984695  1
  O  O24  1  0.67697035  0.64608381  0.52811332  1
  O  O25  1  0.32302965  0.35391619  0.47188668  1
  O  O26  1  0.48923862  0.30484610  0.26288871  1
  O  O27  1  0.51076138  0.69515390  0.73711129  1
  O  O28  1  0.69531027  0.91398995  0.40709578  1
  O  O29  1  0.30468973  0.08601005  0.59290422  1
  O  O30  1  0.23603988  0.79713865  0.46464315  1
  O  O31  1  0.76396012  0.20286135  0.53535685  1
  O  O32  1  0.53978099  0.65885435  0.31478014  1
  O  O33  1  0.46021901  0.34114565  0.68521986  1
