# generated using pymatgen
data_SrH4(SO4)3
_symmetry_space_group_name_H-M   'P 1'
_cell_length_a   6.04084335
_cell_length_b   8.57448253
_cell_length_c   10.39035313
_cell_angle_alpha   81.46723394
_cell_angle_beta   83.52796836
_cell_angle_gamma   70.83111080
_symmetry_Int_Tables_number   1
_chemical_formula_structural   SrH4(SO4)3
_chemical_formula_sum   'Sr2 H8 S6 O24'
_cell_volume   501.54200212
_cell_formula_units_Z   2
loop_
 _symmetry_equiv_pos_site_id
 _symmetry_equiv_pos_as_xyz
  1  'x, y, z'
loop_
 _atom_site_type_symbol
 _atom_site_label
 _atom_site_symmetry_multiplicity
 _atom_site_fract_x
 _atom_site_fract_y
 _atom_site_fract_z
 _atom_site_occupancy
  Sr  Sr0  1  0.00216001  0.76118112  0.44063402  1
  Sr  Sr1  1  0.99783999  0.23881888  0.55936598  1
  H  H2  1  0.99263246  0.52246580  0.13297375  1
  H  H3  1  0.24357981  0.09585067  0.13126066  1
  H  H4  1  0.55896468  0.27949355  0.34482277  1
  H  H5  1  0.49922622  0.65231926  0.08488141  1
  H  H6  1  0.50077378  0.34768074  0.91511859  1
  H  H7  1  0.44103532  0.72050645  0.65517723  1
  H  H8  1  0.75642019  0.90414933  0.86873934  1
  H  H9  1  0.00736754  0.47753420  0.86702625  1
  S  S10  1  0.38217817  0.04504271  0.32404492  1
  S  S11  1  0.12347835  0.72422150  0.06478966  1
  S  S12  1  0.33809101  0.49235315  0.67792015  1
  S  S13  1  0.66190899  0.50764685  0.32207985  1
  S  S14  1  0.87652165  0.27577850  0.93521034  1
  S  S15  1  0.61782183  0.95495729  0.67595508  1
  O  O16  1  0.01131636  0.20513707  0.04721833  1
  O  O17  1  0.15112892  0.53415354  0.09846304  1
  O  O18  1  0.38973435  0.02763576  0.17574683  1
  O  O19  1  0.04350495  0.80549688  0.18187324  1
  O  O20  1  0.15837248  0.47106388  0.60363101  1
  O  O21  1  0.34363703  0.22158883  0.34116918  1
  O  O22  1  0.39082437  0.06583252  0.63774378  1
  O  O23  1  0.28677808  0.45633199  0.82016012  1
  O  O24  1  0.37974767  0.71414563  0.01826544  1
  O  O25  1  0.18053701  0.99872444  0.39306602  1
  O  O26  1  0.29515307  0.68591479  0.64521115  1
  O  O27  1  0.42061750  0.59503920  0.36210311  1
  O  O28  1  0.57938250  0.40496080  0.63789689  1
  O  O29  1  0.70484693  0.31408521  0.35478885  1
  O  O30  1  0.81946299  0.00127556  0.60693398  1
  O  O31  1  0.62025233  0.28585437  0.98173456  1
  O  O32  1  0.71322192  0.54366801  0.17983988  1
  O  O33  1  0.60917563  0.93416748  0.36225622  1
  O  O34  1  0.65636297  0.77841117  0.65883082  1
  O  O35  1  0.84162752  0.52893612  0.39636899  1
  O  O36  1  0.95649505  0.19450312  0.81812676  1
  O  O37  1  0.61026565  0.97236424  0.82425217  1
  O  O38  1  0.84887108  0.46584646  0.90153696  1
  O  O39  1  0.98868364  0.79486293  0.95278167  1
