# generated using pymatgen
data_NbTlO3
_symmetry_space_group_name_H-M   'P 1'
_cell_length_a   7.66028551
_cell_length_b   7.65826883
_cell_length_c   13.25764730
_cell_angle_alpha   106.70011594
_cell_angle_beta   89.96921915
_cell_angle_gamma   59.95402689
_symmetry_Int_Tables_number   1
_chemical_formula_structural   NbTlO3
_chemical_formula_sum   'Nb8 Tl8 O24'
_cell_volume   634.98840689
_cell_formula_units_Z   8
loop_
 _symmetry_equiv_pos_site_id
 _symmetry_equiv_pos_as_xyz
  1  'x, y, z'
loop_
 _atom_site_type_symbol
 _atom_site_label
 _atom_site_symmetry_multiplicity
 _atom_site_fract_x
 _atom_site_fract_y
 _atom_site_fract_z
 _atom_site_occupancy
  Nb  Nb0  1  0.99745416  0.50717515  0.00245991  1
  Nb  Nb1  1  0.99516207  0.00420120  0.99709307  1
  Nb  Nb2  1  0.49459530  0.00180418  0.00098859  1
  Nb  Nb3  1  0.75126644  0.00835391  0.25018189  1
  Nb  Nb4  1  0.49825732  0.50473950  0.50304947  1
  Nb  Nb5  1  0.50081854  0.99973835  0.49690735  1
  Nb  Nb6  1  0.99940647  -0.00032359  0.50062636  1
  Nb  Nb7  1  0.25211796  0.00486794  0.75052774  1
  Tl  Tl8  1  0.27581034  0.95632076  0.24372020  1
  Tl  Tl9  1  0.27011757  0.50486671  0.24190557  1
  Tl  Tl10  1  0.78784841  0.48564879  0.25548166  1
  Tl  Tl11  1  0.01433216  0.48546565  0.48092037  1
  Tl  Tl12  1  0.76617089  0.51428900  0.74483931  1
  Tl  Tl13  1  0.22301290  0.51274576  0.74482888  1
  Tl  Tl14  1  0.50203375  0.49387054  0.98433689  1
  Tl  Tl15  1  0.73593085  0.03425137  0.75105358  1
  O  O16  1  0.28475257  0.93760893  0.02944988  1
  O  O17  1  0.90562083  0.68901957  0.15580757  1
  O  O18  1  0.96207283  0.94346575  0.34542588  1
  O  O19  1  0.90872242  0.31175736  0.03308069  1
  O  O20  1  0.59486643  0.93894908  0.34475993  1
  O  O21  1  0.28291520  0.30993170  0.02812688  1
  O  O22  1  0.78182177  0.93413489  0.53013380  1
  O  O23  1  0.53133493  0.06623303  0.15613695  1
  O  O24  1  0.90972858  0.05741729  0.15581616  1
  O  O25  1  0.22074127  0.68661761  0.46764160  1
  O  O26  1  0.58724761  0.69109365  0.47219549  1
  O  O27  1  0.59718640  0.31158571  0.34390040  1
  O  O28  1  0.40535797  0.68558739  0.65671902  1
  O  O29  1  0.40746756  0.31026428  0.53017639  1
  O  O30  1  0.09605736  0.93777025  0.84544216  1
  O  O31  1  0.46829314  0.94129672  0.84370424  1
  O  O32  1  0.78005844  0.30828463  0.52970200  1
  O  O33  1  0.22089973  0.05666774  0.46728274  1
  O  O34  1  0.72237915  0.69054134  0.96858153  1
  O  O35  1  0.03340669  0.06008894  0.65479781  1
  O  O36  1  0.40143407  0.06173830  0.65493190  1
  O  O37  1  0.09360364  0.68790515  0.97046112  1
  O  O38  1  0.09338629  0.30772478  0.84586343  1
  O  O39  1  0.72357198  0.05964168  0.97059261  1
