# generated using pymatgen
data_Th4P6O23
_symmetry_space_group_name_H-M   'P 1'
_cell_length_a   12.96819756
_cell_length_b   10.50477793
_cell_length_c   7.16150127
_cell_angle_alpha   90.00000000
_cell_angle_beta   90.00000000
_cell_angle_gamma   90.00000000
_symmetry_Int_Tables_number   1
_chemical_formula_structural   Th4P6O23
_chemical_formula_sum   'Th8 P12 O46'
_cell_volume   975.59724939
_cell_formula_units_Z   2
loop_
 _symmetry_equiv_pos_site_id
 _symmetry_equiv_pos_as_xyz
  1  'x, y, z'
loop_
 _atom_site_type_symbol
 _atom_site_label
 _atom_site_symmetry_multiplicity
 _atom_site_fract_x
 _atom_site_fract_y
 _atom_site_fract_z
 _atom_site_occupancy
  Th  Th0  1  0.08564431  0.51140297  0.75000000  1
  Th  Th1  1  0.18357297  0.97760739  0.25000000  1
  Th  Th2  1  0.31606722  0.97849081  0.75000000  1
  Th  Th3  1  0.41152750  0.50948011  0.25000000  1
  Th  Th4  1  0.58564431  0.48859703  0.75000000  1
  Th  Th5  1  0.68357297  0.02239161  0.25000000  1
  Th  Th6  1  0.81606722  0.02150919  0.75000000  1
  Th  Th7  1  0.91152750  0.49051989  0.25000000  1
  P  P8  1  0.08308844  0.87505801  0.75000000  1
  P  P9  1  0.13488313  0.62493332  0.25000000  1
  P  P10  1  0.25658831  0.27662681  0.53901787  1
  P  P11  1  0.25658831  0.27662681  0.96098213  1
  P  P12  1  0.36429219  0.62616425  0.75000000  1
  P  P13  1  0.41717907  0.87435841  0.25000000  1
  P  P14  1  0.58308844  0.12494199  0.75000000  1
  P  P15  1  0.63488313  0.37506668  0.25000000  1
  P  P16  1  0.75658831  0.72337319  0.96098213  1
  P  P17  1  0.75658831  0.72337319  0.53901787  1
  P  P18  1  0.86429219  0.37383575  0.75000000  1
  P  P19  1  0.91717907  0.12564159  0.25000000  1
  O  O20  1  0.01975042  0.05084101  0.25000000  1
  O  O21  1  0.06241779  0.73257519  0.75000000  1
  O  O22  1  0.07002284  0.57547294  0.08143958  1
  O  O23  1  0.07002284  0.57547294  0.41856042  1
  O  O24  1  0.13955400  0.77065378  0.25000000  1
  O  O25  1  0.15317015  0.91787156  0.58283353  1
  O  O26  1  0.15317015  0.91787156  0.91716647  1
  O  O27  1  0.15472190  0.34652721  0.94625311  1
  O  O28  1  0.15472190  0.34652721  0.55374689  1
  O  O29  1  0.24439276  0.57115966  0.25000000  1
  O  O30  1  0.24449487  0.13692009  0.47318356  1
  O  O31  1  0.24449487  0.13692009  0.02681644  1
  O  O32  1  0.25506442  0.57059241  0.75000000  1
  O  O33  1  0.30143276  0.24875538  0.75000000  1
  O  O34  1  0.34217041  0.34633799  0.05998943  1
  O  O35  1  0.34217041  0.34633799  0.44001057  1
  O  O36  1  0.34802188  0.91740034  0.08082019  1
  O  O37  1  0.34802188  0.91740034  0.41917981  1
  O  O38  1  0.35888875  0.77234965  0.75000000  1
  O  O39  1  0.42911675  0.57623180  0.91799243  1
  O  O40  1  0.42911675  0.57623180  0.58200757  1
  O  O41  1  0.43698191  0.73167897  0.25000000  1
  O  O42  1  0.48034613  0.04975563  0.75000000  1
  O  O43  1  0.51975042  0.94915899  0.25000000  1
  O  O44  1  0.56241779  0.26742481  0.75000000  1
  O  O45  1  0.57002284  0.42452706  0.08143958  1
  O  O46  1  0.57002284  0.42452706  0.41856042  1
  O  O47  1  0.63955400  0.22934622  0.25000000  1
  O  O48  1  0.65317015  0.08212844  0.58283353  1
  O  O49  1  0.65317015  0.08212844  0.91716647  1
  O  O50  1  0.65472190  0.65347279  0.55374689  1
  O  O51  1  0.65472190  0.65347279  0.94625311  1
  O  O52  1  0.74439276  0.42884034  0.25000000  1
  O  O53  1  0.74449487  0.86307991  0.02681644  1
  O  O54  1  0.74449487  0.86307991  0.47318356  1
  O  O55  1  0.75506442  0.42940759  0.75000000  1
  O  O56  1  0.80143276  0.75124462  0.75000000  1
  O  O57  1  0.84217041  0.65366201  0.05998943  1
  O  O58  1  0.84217041  0.65366201  0.44001057  1
  O  O59  1  0.84802188  0.08259966  0.08082019  1
  O  O60  1  0.84802188  0.08259966  0.41917981  1
  O  O61  1  0.85888875  0.22765035  0.75000000  1
  O  O62  1  0.92911675  0.42376820  0.58200757  1
  O  O63  1  0.92911675  0.42376820  0.91799243  1
  O  O64  1  0.93698191  0.26832103  0.25000000  1
  O  O65  1  0.98034613  0.95024437  0.75000000  1
