# generated using pymatgen
data_SnP2O7
_symmetry_space_group_name_H-M   'P 1'
_cell_length_a   5.17459715
_cell_length_b   6.85475514
_cell_length_c   8.45931655
_cell_angle_alpha   68.92982901
_cell_angle_beta   87.72572271
_cell_angle_gamma   87.89461226
_symmetry_Int_Tables_number   1
_chemical_formula_structural   SnP2O7
_chemical_formula_sum   'Sn2 P4 O14'
_cell_volume   279.69363025
_cell_formula_units_Z   2
loop_
 _symmetry_equiv_pos_site_id
 _symmetry_equiv_pos_as_xyz
  1  'x, y, z'
loop_
 _atom_site_type_symbol
 _atom_site_label
 _atom_site_symmetry_multiplicity
 _atom_site_fract_x
 _atom_site_fract_y
 _atom_site_fract_z
 _atom_site_occupancy
  Sn  Sn0  1  0.24499838  0.21075579  0.73376270  1
  Sn  Sn1  1  0.75500162  0.78924421  0.26623730  1
  P  P2  1  0.23917083  0.11048153  0.16911498  1
  P  P3  1  0.27591523  0.45547659  0.30910435  1
  P  P4  1  0.72408477  0.54452341  0.69089565  1
  P  P5  1  0.76082917  0.88951847  0.83088502  1
  O  O6  1  0.17525216  0.30173819  0.47924277  1
  O  O7  1  0.04433349  0.94147592  0.77610690  1
  O  O8  1  0.09771236  0.64563279  0.23005016  1
  O  O9  1  0.28062237  0.33724696  0.17655942  1
  O  O10  1  0.30299895  0.13878945  0.98627577  1
  O  O11  1  0.42717338  0.95582844  0.29224142  1
  O  O12  1  0.44419622  0.48255694  0.68555150  1
  O  O13  1  0.55580378  0.51744306  0.31444850  1
  O  O14  1  0.57282662  0.04417156  0.70775858  1
  O  O15  1  0.69700105  0.86121055  0.01372423  1
  O  O16  1  0.71937763  0.66275304  0.82344058  1
  O  O17  1  0.90228764  0.35436721  0.76994984  1
  O  O18  1  0.95566651  0.05852408  0.22389310  1
  O  O19  1  0.82474784  0.69826181  0.52075723  1
