# generated using pymatgen
data_BaSe2
_symmetry_space_group_name_H-M   'P 1'
_cell_length_a   5.02686278
_cell_length_b   5.48575105
_cell_length_c   8.79332984
_cell_angle_alpha   79.57894076
_cell_angle_beta   73.39130130
_cell_angle_gamma   62.73062435
_symmetry_Int_Tables_number   1
_chemical_formula_structural   BaSe2
_chemical_formula_sum   'Ba2 Se4'
_cell_volume   206.18919912
_cell_formula_units_Z   2
loop_
 _symmetry_equiv_pos_site_id
 _symmetry_equiv_pos_as_xyz
  1  'x, y, z'
loop_
 _atom_site_type_symbol
 _atom_site_label
 _atom_site_symmetry_multiplicity
 _atom_site_fract_x
 _atom_site_fract_y
 _atom_site_fract_z
 _atom_site_occupancy
  Se  Se0  1  0.47115443  0.28423061  0.02595867  1
  Se  Se1  1  0.78134371  0.21576939  0.47404133  1
  Se  Se2  1  0.21865629  0.78423061  0.52595867  1
  Se  Se3  1  0.52884557  0.71576939  0.97404133  1
  Ba  Ba4  1  0.12778963  0.25000000  0.75000000  1
  Ba  Ba5  1  0.87221037  0.75000000  0.25000000  1
