# generated using pymatgen
data_Dy(GaFe)6
_symmetry_space_group_name_H-M   'P 1'
_cell_length_a   5.16889623
_cell_length_b   6.53038892
_cell_length_c   6.65093977
_cell_angle_alpha   98.84632874
_cell_angle_beta   112.86641414
_cell_angle_gamma   66.68679602
_symmetry_Int_Tables_number   1
_chemical_formula_structural   Dy(GaFe)6
_chemical_formula_sum   'Dy1 Ga6 Fe6'
_cell_volume   189.97001775
_cell_formula_units_Z   1
loop_
 _symmetry_equiv_pos_site_id
 _symmetry_equiv_pos_as_xyz
  1  'x, y, z'
loop_
 _atom_site_type_symbol
 _atom_site_label
 _atom_site_symmetry_multiplicity
 _atom_site_fract_x
 _atom_site_fract_y
 _atom_site_fract_z
 _atom_site_occupancy
  Dy  Dy0  1  -0.00000000  0.00000000  0.00000000  1
  Ga  Ga1  1  0.50000000  0.50000000  0.00000000  1
  Ga  Ga2  1  -0.00000000  0.50000000  0.00000000  1
  Ga  Ga3  1  0.64868895  0.33534323  0.63272114  1
  Ga  Ga4  1  0.35131105  0.66465677  0.36727886  1
  Ga  Ga5  1  0.01596781  0.33534323  0.36727886  1
  Ga  Ga6  1  0.98403219  0.66465677  0.63272114  1
  Fe  Fe7  1  0.70935529  0.79878120  0.21749177  1
  Fe  Fe8  1  0.29064471  0.20121880  0.78250823  1
  Fe  Fe9  1  0.49186352  0.79878120  0.78250823  1
  Fe  Fe10  1  0.50813648  0.20121880  0.21749177  1
  Fe  Fe11  1  0.50000000  0.00000000  0.50000000  1
  Fe  Fe12  1  -0.00000000  0.00000000  0.50000000  1
