# generated using pymatgen
data_Li5CoO4
_symmetry_space_group_name_H-M   'P 1'
_cell_length_a   9.20471432
_cell_length_b   9.19176294
_cell_length_c   9.20438893
_cell_angle_alpha   90.00000000
_cell_angle_beta   90.00000000
_cell_angle_gamma   90.00000000
_symmetry_Int_Tables_number   1
_chemical_formula_structural   Li5CoO4
_chemical_formula_sum   'Li40 Co8 O32'
_cell_volume   778.76081465
_cell_formula_units_Z   8
loop_
 _symmetry_equiv_pos_site_id
 _symmetry_equiv_pos_as_xyz
  1  'x, y, z'
loop_
 _atom_site_type_symbol
 _atom_site_label
 _atom_site_symmetry_multiplicity
 _atom_site_fract_x
 _atom_site_fract_y
 _atom_site_fract_z
 _atom_site_occupancy
  Li  Li0  1  0.11012736  0.61149653  0.14288789  1
  Li  Li1  1  0.11012736  0.88850347  0.64288789  1
  Li  Li2  1  0.11848693  0.10931509  0.83964743  1
  Li  Li3  1  0.11848693  0.39068491  0.33964743  1
  Li  Li4  1  0.11952293  0.85169008  0.37456758  1
  Li  Li5  1  0.11952293  0.64830992  0.87456758  1
  Li  Li6  1  0.14835626  0.87629481  0.10553442  1
  Li  Li7  1  0.14835626  0.62370519  0.60553442  1
  Li  Li8  1  0.15748261  0.11815900  0.39440566  1
  Li  Li9  1  0.15748261  0.38184100  0.89440566  1
  Li  Li10  1  0.34251739  0.88184200  0.89440566  1
  Li  Li11  1  0.34251739  0.61815800  0.39440566  1
  Li  Li12  1  0.35164374  0.37629481  0.10553442  1
  Li  Li13  1  0.35164374  0.12370519  0.60553442  1
  Li  Li14  1  0.38047707  0.14830992  0.87456758  1
  Li  Li15  1  0.38047707  0.35169008  0.37456758  1
  Li  Li16  1  0.38151307  0.89068491  0.33964743  1
  Li  Li17  1  0.38151307  0.60931509  0.83964743  1
  Li  Li18  1  0.38987264  0.11149653  0.14288789  1
  Li  Li19  1  0.38987264  0.38850347  0.64288789  1
  Li  Li20  1  0.61012736  0.61149653  0.35711211  1
  Li  Li21  1  0.61012736  0.88850347  0.85711211  1
  Li  Li22  1  0.61848693  0.10931509  0.66035257  1
  Li  Li23  1  0.61848693  0.39068491  0.16035257  1
  Li  Li24  1  0.61952293  0.64830992  0.62543242  1
  Li  Li25  1  0.61952293  0.85169008  0.12543242  1
  Li  Li26  1  0.64835626  0.62370519  0.89446558  1
  Li  Li27  1  0.64835626  0.87629481  0.39446558  1
  Li  Li28  1  0.65748261  0.11815900  0.10559434  1
  Li  Li29  1  0.65748261  0.38184100  0.60559434  1
  Li  Li30  1  0.84251739  0.61815800  0.10559434  1
  Li  Li31  1  0.84251739  0.88184200  0.60559434  1
  Li  Li32  1  0.85164374  0.37629481  0.39446558  1
  Li  Li33  1  0.85164374  0.12370519  0.89446558  1
  Li  Li34  1  0.88047707  0.14830992  0.62543242  1
  Li  Li35  1  0.88047707  0.35169008  0.12543242  1
  Li  Li36  1  0.88151307  0.60931509  0.66035257  1
  Li  Li37  1  0.88151307  0.89068491  0.16035257  1
  Li  Li38  1  0.88987264  0.11149653  0.35711211  1
  Li  Li39  1  0.88987264  0.38850347  0.85711211  1
  Co  Co40  1  0.11359986  0.14775206  0.11821269  1
  Co  Co41  1  0.11359986  0.35224794  0.61821269  1
  Co  Co42  1  0.38640014  0.64775206  0.11821269  1
  Co  Co43  1  0.38640014  0.85224794  0.61821269  1
  Co  Co44  1  0.61359986  0.14775206  0.38178731  1
  Co  Co45  1  0.61359986  0.35224794  0.88178731  1
  Co  Co46  1  0.88640014  0.64775206  0.38178731  1
  Co  Co47  1  0.88640014  0.85224794  0.88178731  1
  O  O48  1  0.00663571  0.25147954  0.48379040  1
  O  O49  1  0.00663571  0.24852046  0.98379040  1
  O  O50  1  0.03591603  0.00688094  0.24596156  1
  O  O51  1  0.03591603  0.49311906  0.74596156  1
  O  O52  1  0.24454572  0.03377289  -0.00004116  1
  O  O53  1  0.24454572  0.46622711  0.49995884  1
  O  O54  1  0.24585123  0.24677586  0.24059857  1
  O  O55  1  0.24585123  0.25322414  0.74059857  1
  O  O56  1  0.25414877  0.74677586  0.24059857  1
  O  O57  1  0.25414877  0.75322414  0.74059857  1
  O  O58  1  0.25545428  0.53377289  -0.00004116  1
  O  O59  1  0.25545428  0.96622711  0.49995884  1
  O  O60  1  0.46408397  0.50688094  0.24596156  1
  O  O61  1  0.46408397  0.99311906  0.74596156  1
  O  O62  1  0.49336429  0.75147954  0.48379040  1
  O  O63  1  0.49336429  0.74852046  0.98379040  1
  O  O64  1  0.50663571  0.25147954  0.01620960  1
  O  O65  1  0.50663571  0.24852046  0.51620960  1
  O  O66  1  0.53591603  0.00688094  0.25403844  1
  O  O67  1  0.53591603  0.49311906  0.75403844  1
  O  O68  1  0.74454572  0.03377289  0.50004116  1
  O  O69  1  0.74454572  0.46622711  0.00004116  1
  O  O70  1  0.74585123  0.24677586  0.25940143  1
  O  O71  1  0.74585123  0.25322414  0.75940143  1
  O  O72  1  0.75414877  0.74677586  0.25940143  1
  O  O73  1  0.75414877  0.75322414  0.75940143  1
  O  O74  1  0.75545428  0.53377289  0.50004116  1
  O  O75  1  0.75545428  0.96622711  0.00004116  1
  O  O76  1  0.96408397  0.50688094  0.25403844  1
  O  O77  1  0.96408397  0.99311906  0.75403844  1
  O  O78  1  0.99336429  0.75147954  0.01620960  1
  O  O79  1  0.99336429  0.74852046  0.51620960  1
