# generated using pymatgen
data_Li3Cr10Fe5O24
_symmetry_space_group_name_H-M   'P 1'
_cell_length_a   5.99068913
_cell_length_b   5.99048970
_cell_length_c   14.66454838
_cell_angle_alpha   90.07423303
_cell_angle_beta   90.00000000
_cell_angle_gamma   59.99889871
_symmetry_Int_Tables_number   1
_chemical_formula_structural   Li3Cr10Fe5O24
_chemical_formula_sum   'Li3 Cr10 Fe5 O24'
_cell_volume   455.75676958
_cell_formula_units_Z   1
loop_
 _symmetry_equiv_pos_site_id
 _symmetry_equiv_pos_as_xyz
  1  'x, y, z'
loop_
 _atom_site_type_symbol
 _atom_site_label
 _atom_site_symmetry_multiplicity
 _atom_site_fract_x
 _atom_site_fract_y
 _atom_site_fract_z
 _atom_site_occupancy
  Li  Li0  1  0.66760034  0.66479931  0.08308596  1
  Li  Li1  1  0.33379648  0.33240705  0.41650900  1
  Li  Li2  1  0.99972880  0.00054340  0.75091287  1
  Cr  Cr3  1  0.17078551  0.65842898  0.20650729  1
  Cr  Cr4  1  0.65932508  0.17000342  0.20651723  1
  Cr  Cr5  1  0.83720236  0.83801006  0.54082320  1
  Cr  Cr6  1  0.32478758  0.83801006  0.54082320  1
  Cr  Cr7  1  0.17067149  0.17000342  0.20651723  1
  Cr  Cr8  1  0.83724130  0.32551741  0.54104251  1
  Cr  Cr9  1  0.66611705  0.66776590  0.71193413  1
  Cr  Cr10  1  0.00011640  0.99976720  0.37779174  1
  Cr  Cr11  1  0.99190619  0.50432540  0.87461771  1
  Cr  Cr12  1  0.50376841  0.50432540  0.87461771  1
  Fe  Fe13  1  0.33440908  0.33118184  0.04567737  1
  Fe  Fe14  1  0.66654120  0.66691861  0.33277764  1
  Fe  Fe15  1  0.00077665  0.99844671  0.99971180  1
  Fe  Fe16  1  0.50594777  0.98810346  0.87423727  1
  Fe  Fe17  1  0.33248535  0.33502831  0.66737497  1
  O  O18  1  0.31385347  0.84288869  0.28841959  1
  O  O19  1  0.84325784  0.84288869  0.28841959  1
  O  O20  1  0.48512200  0.48386695  0.12886357  1
  O  O21  1  0.03101106  0.48386695  0.12886357  1
  O  O22  1  0.14942054  0.70115893  0.46250621  1
  O  O23  1  0.33346787  0.33306427  0.27746736  1
  O  O24  1  0.48578137  0.02843827  0.12906200  1
  O  O25  1  0.66646361  0.66707179  0.46540112  1
  O  O26  1  0.50909119  0.98181762  0.62293826  1
  O  O27  1  0.00039773  0.99920353  0.13190785  1
  O  O28  1  0.84304688  0.31390624  0.28846162  1
  O  O29  1  0.97969119  0.51068564  0.62326782  1
  O  O30  1  0.50962217  0.51068564  0.62326782  1
  O  O31  1  0.81922763  0.81650203  0.79606454  1
  O  O32  1  0.70146543  0.14946142  0.46263947  1
  O  O33  1  0.36427034  0.81650203  0.79606454  1
  O  O34  1  0.14907315  0.14946142  0.46263947  1
  O  O35  1  0.81489936  0.37020029  0.79655165  1
  O  O36  1  0.66756406  0.66487088  0.94752006  1
  O  O37  1  0.99962705  0.00074690  0.61235703  1
  O  O38  1  0.17639853  0.64720193  0.95540785  1
  O  O39  1  0.33177781  0.33644537  0.79935340  1
  O  O40  1  0.64878010  0.17774030  0.95553739  1
  O  O41  1  0.17347960  0.17774030  0.95553739  1
