# generated using pymatgen
data_SbH4NCl6
_symmetry_space_group_name_H-M   'P 1'
_cell_length_a   6.45391652
_cell_length_b   6.96176192
_cell_length_c   12.32508923
_cell_angle_alpha   79.59726926
_cell_angle_beta   90.00000000
_cell_angle_gamma   62.38512080
_symmetry_Int_Tables_number   1
_chemical_formula_structural   SbH4NCl6
_chemical_formula_sum   'Sb2 H8 N2 Cl12'
_cell_volume   480.39359410
_cell_formula_units_Z   2
loop_
 _symmetry_equiv_pos_site_id
 _symmetry_equiv_pos_as_xyz
  1  'x, y, z'
loop_
 _atom_site_type_symbol
 _atom_site_label
 _atom_site_symmetry_multiplicity
 _atom_site_fract_x
 _atom_site_fract_y
 _atom_site_fract_z
 _atom_site_occupancy
  Sb  Sb0  1  0.00000000  0.50000000  0.50000000  1
  Sb  Sb1  1  0.50000000  0.50000000  0.00000000  1
  H  H2  1  0.98478615  0.99584140  0.81890950  1
  H  H3  1  0.86813842  0.86042472  0.76160477  1
  H  H4  1  0.01937145  0.99584140  0.31890950  1
  H  H5  1  0.27143686  0.86042472  0.26160477  1
  H  H6  1  0.72856314  0.13957528  0.73839523  1
  H  H7  1  0.98062855  0.00415860  0.68109050  1
  H  H8  1  0.13186158  0.13957528  0.23839523  1
  H  H9  1  0.01521385  0.00415860  0.18109050  1
  N  N10  1  0.89142359  1.00000000  0.75000000  1
  N  N11  1  0.10857641  0.00000000  0.25000000  1
  Cl  Cl12  1  0.46647537  0.84054801  0.88976406  1
  Cl  Cl13  1  0.69297662  0.84054801  0.38976406  1
  Cl  Cl14  1  0.20634185  0.69958745  0.53438607  1
  Cl  Cl15  1  0.79856767  0.57683200  0.66452690  1
  Cl  Cl16  1  0.37539967  0.42316800  0.83547310  1
  Cl  Cl17  1  0.09407070  0.69958745  0.03438607  1
  Cl  Cl18  1  0.90592930  0.30041255  0.96561393  1
  Cl  Cl19  1  0.62460033  0.57683200  0.16452690  1
  Cl  Cl20  1  0.20143233  0.42316800  0.33547310  1
  Cl  Cl21  1  0.79365815  0.30041255  0.46561393  1
  Cl  Cl22  1  0.30702338  0.15945199  0.61023594  1
  Cl  Cl23  1  0.53352463  0.15945199  0.11023594  1
