# generated using pymatgen
data_LiInP2O7
_symmetry_space_group_name_H-M   'P 1'
_cell_length_a   4.99270164
_cell_length_b   7.14919305
_cell_length_c   8.61293764
_cell_angle_alpha   90.00000000
_cell_angle_beta   90.00000000
_cell_angle_gamma   109.14855713
_symmetry_Int_Tables_number   1
_chemical_formula_structural   LiInP2O7
_chemical_formula_sum   'Li2 In2 P4 O14'
_cell_volume   290.41874488
_cell_formula_units_Z   2
loop_
 _symmetry_equiv_pos_site_id
 _symmetry_equiv_pos_as_xyz
  1  'x, y, z'
loop_
 _atom_site_type_symbol
 _atom_site_label
 _atom_site_symmetry_multiplicity
 _atom_site_fract_x
 _atom_site_fract_y
 _atom_site_fract_z
 _atom_site_occupancy
  Li  Li0  1  0.19088963  0.66825407  0.39120884  1
  Li  Li1  1  0.80911037  0.33174593  0.89120884  1
  O  O2  1  0.20674341  0.49594711  0.21075455  1
  O  O3  1  0.79325659  0.50405289  0.71075455  1
  O  O4  1  0.76781258  0.49620500  0.41417604  1
  O  O5  1  0.23218742  0.50379500  0.91417604  1
  O  O6  1  0.58885637  0.76246539  0.08339538  1
  O  O7  1  0.41114363  0.23753461  0.58339538  1
  O  O8  1  0.05399942  0.86560349  0.93181792  1
  O  O9  1  0.94600058  0.13439651  0.43181792  1
  O  O10  1  0.14226569  0.87899062  0.54355229  1
  O  O11  1  0.85773431  0.12100938  0.04355229  1
  O  O12  1  0.62270796  0.92354580  0.81200493  1
  O  O13  1  0.37729204  0.07645420  0.31200493  1
  O  O14  1  0.39836267  0.59066463  0.56656073  1
  O  O15  1  0.60163733  0.40933537  0.06656073  1
  P  P16  1  0.39970252  0.53109622  0.06703812  1
  P  P17  1  0.60029748  0.46890378  0.56703812  1
  P  P18  1  0.21074927  0.07925377  0.46081482  1
  P  P19  1  0.78925073  0.92074623  0.96081482  1
  In  In20  1  0.78568274  0.26813536  0.24837638  1
  In  In21  1  0.21431726  0.73186464  0.74837638  1
