# generated using pymatgen
data_KV12O30
_symmetry_space_group_name_H-M   'P 1'
_cell_length_a   10.87612618
_cell_length_b   10.87626515
_cell_length_c   15.29098980
_cell_angle_alpha   90.00000000
_cell_angle_beta   90.00000000
_cell_angle_gamma   120.00045954
_symmetry_Int_Tables_number   1
_chemical_formula_structural   KV12O30
_chemical_formula_sum   'K2 V24 O60'
_cell_volume   1566.45615464
_cell_formula_units_Z   2
loop_
 _symmetry_equiv_pos_site_id
 _symmetry_equiv_pos_as_xyz
  1  'x, y, z'
loop_
 _atom_site_type_symbol
 _atom_site_label
 _atom_site_symmetry_multiplicity
 _atom_site_fract_x
 _atom_site_fract_y
 _atom_site_fract_z
 _atom_site_occupancy
  K  K0  1  0.00000000  0.00000000  0.25000380  1
  K  K1  1  0.00000000  0.00000000  0.74999620  1
  V  V2  1  0.11964983  0.75453909  0.61574207  1
  V  V3  1  0.11964983  0.75453909  0.38425793  1
  V  V4  1  0.11965173  0.36511046  0.11574648  1
  V  V5  1  0.11965173  0.36511046  0.88425352  1
  V  V6  1  0.88034827  0.63488954  0.11574648  1
  V  V7  1  0.88034827  0.63488954  0.88425352  1
  V  V8  1  0.88035017  0.24546091  0.38425793  1
  V  V9  1  0.88035017  0.24546091  0.61574207  1
  V  V10  1  0.24545942  0.88035673  0.11573991  1
  V  V11  1  0.24545942  0.88035673  0.88426009  1
  V  V12  1  0.24545179  0.36509991  0.61574147  1
  V  V13  1  0.24545179  0.36509991  0.38425853  1
  V  V14  1  0.63489583  0.88034931  0.38425494  1
  V  V15  1  0.63489583  0.88034931  0.61574506  1
  V  V16  1  0.36510724  0.24545248  0.11574085  1
  V  V17  1  0.36510724  0.24545248  0.88425915  1
  V  V18  1  0.63489276  0.75454752  0.11574085  1
  V  V19  1  0.63489276  0.75454752  0.88425915  1
  V  V20  1  0.36510417  0.11965069  0.61574506  1
  V  V21  1  0.36510417  0.11965069  0.38425494  1
  V  V22  1  0.75454821  0.63490009  0.38425853  1
  V  V23  1  0.75454821  0.63490009  0.61574147  1
  V  V24  1  0.75454058  0.11964327  0.11573991  1
  V  V25  1  0.75454058  0.11964327  0.88426009  1
  O  O26  1  0.05900969  0.77205491  0.14382727  1
  O  O27  1  0.05900969  0.77205491  0.85617273  1
  O  O28  1  0.22794825  0.94099034  0.64383008  1
  O  O29  1  0.22794825  0.94099034  0.35616992  1
  O  O30  1  0.13506349  0.73079649  0.50000000  1
  O  O31  1  0.26920228  0.86494005  0.00000000  1
  O  O32  1  0.16214357  0.65425866  0.33022244  1
  O  O33  1  0.16214357  0.65425866  0.66977756  1
  O  O34  1  0.16214133  0.50789140  0.16977847  1
  O  O35  1  0.16214133  0.50789140  0.83022153  1
  O  O36  1  0.05900399  0.28695629  0.64383066  1
  O  O37  1  0.05900399  0.28695629  0.35616934  1
  O  O38  1  0.34575059  0.83785846  0.16977775  1
  O  O39  1  0.34575059  0.83785846  0.83022225  1
  O  O40  1  0.13506276  0.40426453  0.00000000  1
  O  O41  1  0.26920236  0.40426468  0.50000000  1
  O  O42  1  0.49210017  0.83785379  0.66978045  1
  O  O43  1  0.49210017  0.83785379  0.33021955  1
  O  O44  1  0.22795217  0.28695419  0.14382742  1
  O  O45  1  0.22795217  0.28695419  0.85617258  1
  O  O46  1  0.34574708  0.50789249  0.66978026  1
  O  O47  1  0.34574708  0.50789249  0.33021974  1
  O  O48  1  0.49210023  0.65424528  0.16978066  1
  O  O49  1  0.49210023  0.65424528  0.83021934  1
  O  O50  1  0.28695559  0.22795196  0.64382928  1
  O  O51  1  0.28695559  0.22795196  0.35617072  1
  O  O52  1  0.59573646  0.86493823  0.50000000  1
  O  O53  1  0.59573440  0.73079704  0.00000000  1
  O  O54  1  0.28695603  0.05900513  0.14382683  1
  O  O55  1  0.28695603  0.05900513  0.85617317  1
  O  O56  1  0.71304397  0.94099487  0.14382683  1
  O  O57  1  0.71304397  0.94099487  0.85617317  1
  O  O58  1  0.40426560  0.26920296  0.00000000  1
  O  O59  1  0.40426354  0.13506177  0.50000000  1
  O  O60  1  0.71304441  0.77204804  0.35617072  1
  O  O61  1  0.71304441  0.77204804  0.64382928  1
  O  O62  1  0.50789977  0.34575472  0.16978066  1
  O  O63  1  0.50789977  0.34575472  0.83021934  1
  O  O64  1  0.65425292  0.49210751  0.33021974  1
  O  O65  1  0.65425292  0.49210751  0.66978026  1
  O  O66  1  0.77204783  0.71304581  0.14382742  1
  O  O67  1  0.77204783  0.71304581  0.85617258  1
  O  O68  1  0.50789983  0.16214621  0.33021955  1
  O  O69  1  0.50789983  0.16214621  0.66978045  1
  O  O70  1  0.73079764  0.59573532  0.50000000  1
  O  O71  1  0.86493724  0.59573547  0.00000000  1
  O  O72  1  0.65424941  0.16214154  0.16977775  1
  O  O73  1  0.65424941  0.16214154  0.83022225  1
  O  O74  1  0.94099601  0.71304371  0.35616934  1
  O  O75  1  0.94099601  0.71304371  0.64383066  1
  O  O76  1  0.83785867  0.49210860  0.83022153  1
  O  O77  1  0.83785867  0.49210860  0.16977847  1
  O  O78  1  0.83785643  0.34574134  0.33022244  1
  O  O79  1  0.83785643  0.34574134  0.66977756  1
  O  O80  1  0.73079772  0.13505995  0.00000000  1
  O  O81  1  0.86493651  0.26920351  0.50000000  1
  O  O82  1  0.77205175  0.05900966  0.35616992  1
  O  O83  1  0.77205175  0.05900966  0.64383008  1
  O  O84  1  0.94099031  0.22794509  0.14382727  1
  O  O85  1  0.94099031  0.22794509  0.85617273  1
