# generated using pymatgen
data_Cr3P
_symmetry_space_group_name_H-M   'P 1'
_cell_length_a   4.49633448
_cell_length_b   6.81261046
_cell_length_c   6.81261046
_cell_angle_alpha   83.74805842
_cell_angle_beta   70.73117294
_cell_angle_gamma   70.73117294
_symmetry_Int_Tables_number   1
_chemical_formula_structural   Cr3P
_chemical_formula_sum   'Cr12 P4'
_cell_volume   185.95672767
_cell_formula_units_Z   4
loop_
 _symmetry_equiv_pos_site_id
 _symmetry_equiv_pos_as_xyz
  1  'x, y, z'
loop_
 _atom_site_type_symbol
 _atom_site_label
 _atom_site_symmetry_multiplicity
 _atom_site_fract_x
 _atom_site_fract_y
 _atom_site_fract_z
 _atom_site_occupancy
  P  P0  1  0.21329891  0.24535202  0.33516895  1
  P  P1  1  0.45153215  0.33516895  0.75464798  1
  P  P2  1  0.54134907  0.66483105  0.24535202  1
  P  P3  1  0.79381988  0.75464798  0.66483105  1
  Cr  Cr4  1  0.35749152  0.67121556  0.61195244  1
  Cr  Cr5  1  0.03055604  0.61195244  0.32878444  1
  Cr  Cr6  1  0.97129291  0.38804756  0.67121556  1
  Cr  Cr7  1  0.64065952  0.32878444  0.38804756  1
  Cr  Cr8  1  0.93485645  0.05601377  0.61126117  1
  Cr  Cr9  1  0.45388238  0.61126117  0.94398623  1
  Cr  Cr10  1  0.00912978  0.38873883  0.05601377  1
  Cr  Cr11  1  0.60213139  0.94398623  0.38873883  1
  Cr  Cr12  1  0.16001019  0.97444100  0.17666003  1
  Cr  Cr13  1  0.66332977  0.17666003  0.02555900  1
  Cr  Cr14  1  0.86554881  0.82333997  0.97444100  1
  Cr  Cr15  1  0.31111122  0.02555900  0.82333997  1
