# generated using pymatgen
data_PuBr2
_symmetry_space_group_name_H-M   'P 1'
_cell_length_a   7.24114329
_cell_length_b   7.23681610
_cell_length_c   4.24412268
_cell_angle_alpha   89.85497338
_cell_angle_beta   89.88052052
_cell_angle_gamma   89.92733312
_symmetry_Int_Tables_number   1
_chemical_formula_structural   PuBr2
_chemical_formula_sum   'Pu2 Br4'
_cell_volume   222.40263363
_cell_formula_units_Z   2
loop_
 _symmetry_equiv_pos_site_id
 _symmetry_equiv_pos_as_xyz
  1  'x, y, z'
loop_
 _atom_site_type_symbol
 _atom_site_label
 _atom_site_symmetry_multiplicity
 _atom_site_fract_x
 _atom_site_fract_y
 _atom_site_fract_z
 _atom_site_occupancy
  Pu  Pu0  1  -0.00001274  0.00000438  0.00002789  1
  Pu  Pu1  1  0.49999692  0.50001140  0.50002298  1
  Br  Br2  1  0.29459234  0.29459504  -0.00063547  1
  Br  Br3  1  0.70541177  0.70540138  0.00060908  1
  Br  Br4  1  0.79466008  0.20536475  0.50008978  1
  Br  Br5  1  0.20535562  0.79462705  0.49989175  1
