# generated using pymatgen
data_Tc3Rh
_symmetry_space_group_name_H-M   'P 1'
_cell_length_a   5.52635616
_cell_length_b   5.52627504
_cell_length_c   4.36356241
_cell_angle_alpha   89.98009709
_cell_angle_beta   90.01973226
_cell_angle_gamma   120.00064266
_symmetry_Int_Tables_number   1
_chemical_formula_structural   Tc3Rh
_chemical_formula_sum   'Tc6 Rh2'
_cell_volume   115.40917665
_cell_formula_units_Z   2
loop_
 _symmetry_equiv_pos_site_id
 _symmetry_equiv_pos_as_xyz
  1  'x, y, z'
loop_
 _atom_site_type_symbol
 _atom_site_label
 _atom_site_symmetry_multiplicity
 _atom_site_fract_x
 _atom_site_fract_y
 _atom_site_fract_z
 _atom_site_occupancy
  Tc  Tc0  1  0.16077276  0.32155546  0.25000222  1
  Tc  Tc1  1  0.67844448  0.83923002  0.24999933  1
  Tc  Tc2  1  0.16078891  0.83921698  0.24999086  1
  Tc  Tc3  1  0.83922893  0.67844443  0.75000352  1
  Tc  Tc4  1  0.32155366  0.16076955  0.75000116  1
  Tc  Tc5  1  0.83921351  0.16078648  0.75001229  1
  Rh  Rh6  1  0.33332426  0.66667369  0.75000470  1
  Rh  Rh7  1  0.66667248  0.33332340  0.24999792  1
