# generated using pymatgen
data_Pr2In8Pd
_symmetry_space_group_name_H-M   'P 1'
_cell_length_a   4.75385891
_cell_length_b   4.75456320
_cell_length_c   12.41465934
_cell_angle_alpha   89.95451107
_cell_angle_beta   89.99161209
_cell_angle_gamma   89.96441879
_symmetry_Int_Tables_number   1
_chemical_formula_structural   Pr2In8Pd
_chemical_formula_sum   'Pr2 In8 Pd1'
_cell_volume   280.60247316
_cell_formula_units_Z   1
loop_
 _symmetry_equiv_pos_site_id
 _symmetry_equiv_pos_as_xyz
  1  'x, y, z'
loop_
 _atom_site_type_symbol
 _atom_site_label
 _atom_site_symmetry_multiplicity
 _atom_site_fract_x
 _atom_site_fract_y
 _atom_site_fract_z
 _atom_site_occupancy
  Pr  Pr0  1  0.99983337  0.99989948  0.30903192  1
  Pr  Pr1  1  0.00002904  0.99989791  0.69097149  1
  In  In2  1  0.49991325  0.00005790  0.12268071  1
  In  In3  1  0.99996160  0.49992947  0.12270042  1
  In  In4  1  0.49991549  0.49988709  0.30733619  1
  In  In5  1  0.49991948  0.99992343  0.49990341  1
  In  In6  1  0.00018081  0.50000751  0.49999493  1
  In  In7  1  0.50010141  0.50024887  0.69262505  1
  In  In8  1  0.50007411  0.00007724  0.87734776  1
  In  In9  1  0.00009311  0.50009993  0.87739588  1
  Pd  Pd10  1  0.99996832  0.99996118  0.00001224  1
