# generated using pymatgen
data_Mn3VSn2(PO4)6
_symmetry_space_group_name_H-M   'P 1'
_cell_length_a   8.87510538
_cell_length_b   8.73447945
_cell_length_c   8.73448017
_cell_angle_alpha   60.00000080
_cell_angle_beta   60.52277465
_cell_angle_gamma   60.52277687
_symmetry_Int_Tables_number   1
_chemical_formula_structural   Mn3VSn2(PO4)6
_chemical_formula_sum   'Mn3 V1 Sn2 P6 O24'
_cell_volume   482.52462696
_cell_formula_units_Z   1
loop_
 _symmetry_equiv_pos_site_id
 _symmetry_equiv_pos_as_xyz
  1  'x, y, z'
loop_
 _atom_site_type_symbol
 _atom_site_label
 _atom_site_symmetry_multiplicity
 _atom_site_fract_x
 _atom_site_fract_y
 _atom_site_fract_z
 _atom_site_occupancy
  Mn  Mn0  1  0.04426621  0.65191126  0.65191126  1
  Mn  Mn1  1  0.44576702  0.85141066  0.85141066  1
  Mn  Mn2  1  0.95150622  0.34949759  0.34949759  1
  V  V3  1  0.56361914  0.14546062  0.14546062  1
  Sn  Sn4  1  0.01501440  0.99499520  0.99499520  1
  Sn  Sn5  1  0.50280178  0.49906641  0.49906641  1
  P  P6  1  0.26366005  0.24814963  0.53708042  1
  P  P7  1  0.26366005  0.95110990  0.24814963  1
  P  P8  1  0.26366005  0.53708042  0.95110990  1
  P  P9  1  0.73528275  0.45833926  0.05274896  1
  P  P10  1  0.73528275  0.05274896  0.75362904  1
  P  P11  1  0.73528275  0.75362904  0.45833926  1
  O  O12  1  0.08157730  0.09061757  0.31418871  1
  O  O13  1  0.08157730  0.51361542  0.09061757  1
  O  O14  1  0.08157730  0.31418871  0.51361542  1
  O  O15  1  0.25896393  0.08413698  0.72987693  1
  O  O16  1  0.42910034  0.18221817  0.37888118  1
  O  O17  1  0.29705064  0.40749187  0.54230641  1
  O  O18  1  0.25896393  0.92702216  0.08413698  1
  O  O19  1  0.29705064  0.75315008  0.40749187  1
  O  O20  1  0.56469197  0.61792542  0.00930100  1
  O  O21  1  0.29705064  0.54230641  0.75315008  1
  O  O22  1  0.73111296  0.26710451  0.08276146  1
  O  O23  1  0.56469197  0.00930100  0.80808160  1
  O  O24  1  0.42910034  0.00980132  0.18221817  1
  O  O25  1  0.25896393  0.72987693  0.92702216  1
  O  O26  1  0.71347025  0.44078472  0.25217563  1
  O  O27  1  0.42910034  0.37888118  0.00980132  1
  O  O28  1  0.71347025  0.25217563  0.59356840  1
  O  O29  1  0.73111296  0.08276146  0.91902107  1
  O  O30  1  0.71347025  0.59356840  0.44078472  1
  O  O31  1  0.56469197  0.80808160  0.61792542  1
  O  O32  1  0.73111296  0.91902107  0.26710451  1
  O  O33  1  0.91743056  0.69789705  0.47650155  1
  O  O34  1  0.91743056  0.47650155  0.90817083  1
  O  O35  1  0.91743056  0.90817083  0.69789705  1
