# generated using pymatgen
data_Pr2Ni12As7
_symmetry_space_group_name_H-M   'P 1'
_cell_length_a   9.40173717
_cell_length_b   9.40212874
_cell_length_c   3.89574310
_cell_angle_alpha   90.00000000
_cell_angle_beta   90.00000000
_cell_angle_gamma   120.01232444
_symmetry_Int_Tables_number   1
_chemical_formula_structural   Pr2Ni12As7
_chemical_formula_sum   'Pr2 Ni12 As7'
_cell_volume   298.19564291
_cell_formula_units_Z   1
loop_
 _symmetry_equiv_pos_site_id
 _symmetry_equiv_pos_as_xyz
  1  'x, y, z'
loop_
 _atom_site_type_symbol
 _atom_site_label
 _atom_site_symmetry_multiplicity
 _atom_site_fract_x
 _atom_site_fract_y
 _atom_site_fract_z
 _atom_site_occupancy
  Pr  Pr0  1  0.33328325  0.66667940  0.00000000  1
  Pr  Pr1  1  0.66663494  0.33328098  0.50000100  1
  Ni  Ni2  1  0.37381322  0.42169204  0.50000100  1
  Ni  Ni3  1  0.57824657  0.95206396  0.50000100  1
  Ni  Ni4  1  0.04782943  0.62613006  0.50000100  1
  Ni  Ni5  1  0.44055500  0.05496715  0.00000000  1
  Ni  Ni6  1  0.94511992  0.38558216  0.00000000  1
  Ni  Ni7  1  0.61444728  0.55948886  0.00000000  1
  Ni  Ni8  1  0.20659059  0.09668461  0.50000100  1
  Ni  Ni9  1  0.90328841  0.10992976  0.50000100  1
  Ni  Ni10  1  0.89007439  0.79338084  0.50000100  1
  Ni  Ni11  1  0.14579302  0.27810129  0.00000000  1
  Ni  Ni12  1  0.72192259  0.86769516  0.00000000  1
  Ni  Ni13  1  0.13233432  0.85428292  0.00000000  1
  As  As14  1  0.99999894  0.00000814  0.00000000  1
  As  As15  1  0.10135104  0.40177672  0.50000100  1
  As  As16  1  0.59823766  0.69954583  0.50000100  1
  As  As17  1  0.30044694  0.89873034  0.50000100  1
  As  As18  1  0.39618193  0.28332082  0.00000000  1
  As  As19  1  0.71668662  0.11283784  0.00000000  1
  As  As20  1  0.88715893  0.60382113  0.00000000  1
