# generated using pymatgen
data_PaIn3
_symmetry_space_group_name_H-M   'P 1'
_cell_length_a   4.69662328
_cell_length_b   4.69654593
_cell_length_c   4.69930703
_cell_angle_alpha   89.98358502
_cell_angle_beta   90.01895768
_cell_angle_gamma   90.07897576
_symmetry_Int_Tables_number   1
_chemical_formula_structural   PaIn3
_chemical_formula_sum   'Pa1 In3'
_cell_volume   103.65676894
_cell_formula_units_Z   1
loop_
 _symmetry_equiv_pos_site_id
 _symmetry_equiv_pos_as_xyz
  1  'x, y, z'
loop_
 _atom_site_type_symbol
 _atom_site_label
 _atom_site_symmetry_multiplicity
 _atom_site_fract_x
 _atom_site_fract_y
 _atom_site_fract_z
 _atom_site_occupancy
  Pa  Pa0  1  0.00004767  0.00002285  0.99995151  1
  In  In1  1  0.99991145  0.49998631  0.49999557  1
  In  In2  1  0.50001781  0.99991245  0.50002796  1
  In  In3  1  0.50002507  0.50008039  0.00002696  1
