# generated using pymatgen
data_La3AlCrS7
_symmetry_space_group_name_H-M   'P 1'
_cell_length_a   10.21415140
_cell_length_b   10.21395326
_cell_length_c   6.05038244
_cell_angle_alpha   90.00000000
_cell_angle_beta   90.00000000
_cell_angle_gamma   120.00497603
_symmetry_Int_Tables_number   1
_chemical_formula_structural   La3AlCrS7
_chemical_formula_sum   'La6 Al2 Cr2 S14'
_cell_volume   546.62291912
_cell_formula_units_Z   2
loop_
 _symmetry_equiv_pos_site_id
 _symmetry_equiv_pos_as_xyz
  1  'x, y, z'
loop_
 _atom_site_type_symbol
 _atom_site_label
 _atom_site_symmetry_multiplicity
 _atom_site_fract_x
 _atom_site_fract_y
 _atom_site_fract_z
 _atom_site_occupancy
  La  La0  1  0.14161396  0.37410687  0.24590828  1
  La  La1  1  0.85838604  0.62589413  0.74590728  1
  La  La2  1  0.62589693  0.76747536  0.24599243  1
  La  La3  1  0.23248345  0.85838370  0.24593920  1
  La  La4  1  0.76751755  0.14161730  0.74593920  1
  La  La5  1  0.37410407  0.23252664  0.74599243  1
  Al  Al6  1  0.33332155  0.66668398  0.66514134  1
  Al  Al7  1  0.66667945  0.33331702  0.16514334  1
  Cr  Cr8  1  -0.00000158  0.99999874  0.02676367  1
  Cr  Cr9  1  0.00000158  0.00000126  0.52676267  1
  S  S10  1  0.33333138  0.66668003  0.03327762  1
  S  S11  1  0.66666762  0.33331897  0.53327562  1
  S  S12  1  0.41962690  0.51949375  0.52162961  1
  S  S13  1  0.58037310  0.48050525  0.02162961  1
  S  S14  1  0.48050017  0.90018432  0.52155678  1
  S  S15  1  0.09980677  0.58030549  0.52156576  1
  S  S16  1  0.90019523  0.41969551  0.02156476  1
  S  S17  1  0.51949983  0.09981668  0.02155678  1
  S  S18  1  0.08770728  0.22922509  0.77874929  1
  S  S19  1  0.91229272  0.77077491  0.27874929  1
  S  S20  1  0.77075548  0.85843968  0.77874010  1
  S  S21  1  0.14153151  0.91231033  0.77873892  1
  S  S22  1  0.85846849  0.08768967  0.27873792  1
  S  S23  1  0.22924552  0.14156132  0.27873910  1
