# generated using pymatgen
data_AcHg3
_symmetry_space_group_name_H-M   'P 1'
_cell_length_a   7.14221698
_cell_length_b   7.14221611
_cell_length_c   5.20905710
_cell_angle_alpha   90.00000000
_cell_angle_beta   90.00000000
_cell_angle_gamma   120.01550792
_symmetry_Int_Tables_number   1
_chemical_formula_structural   AcHg3
_chemical_formula_sum   'Ac2 Hg6'
_cell_volume   230.08477859
_cell_formula_units_Z   2
loop_
 _symmetry_equiv_pos_site_id
 _symmetry_equiv_pos_as_xyz
  1  'x, y, z'
loop_
 _atom_site_type_symbol
 _atom_site_label
 _atom_site_symmetry_multiplicity
 _atom_site_fract_x
 _atom_site_fract_y
 _atom_site_fract_z
 _atom_site_occupancy
  Ac  Ac0  1  0.33330847  0.66669153  0.75000000  1
  Ac  Ac1  1  0.66669253  0.33330747  0.25000000  1
  Hg  Hg2  1  0.15773011  0.31541725  0.25000000  1
  Hg  Hg3  1  0.68458275  0.84226989  0.25000000  1
  Hg  Hg4  1  0.15762662  0.84237238  0.25000000  1
  Hg  Hg5  1  0.84226989  0.68458275  0.75000000  1
  Hg  Hg6  1  0.31541625  0.15772911  0.75000000  1
  Hg  Hg7  1  0.84237438  0.15762662  0.75000000  1
