# generated using pymatgen
data_Ce3Zn11
_symmetry_space_group_name_H-M   'P 1'
_cell_length_a   4.46534853
_cell_length_b   8.27433505
_cell_length_c   8.27433505
_cell_angle_alpha   106.81488123
_cell_angle_beta   105.65422615
_cell_angle_gamma   105.65422615
_symmetry_Int_Tables_number   1
_chemical_formula_structural   Ce3Zn11
_chemical_formula_sum   'Ce3 Zn11'
_cell_volume   260.95077418
_cell_formula_units_Z   1
loop_
 _symmetry_equiv_pos_site_id
 _symmetry_equiv_pos_as_xyz
  1  'x, y, z'
loop_
 _atom_site_type_symbol
 _atom_site_label
 _atom_site_symmetry_multiplicity
 _atom_site_fract_x
 _atom_site_fract_y
 _atom_site_fract_z
 _atom_site_occupancy
  Ce  Ce0  1  0.00000000  0.00000000  0.00000000  1
  Ce  Ce1  1  0.00000100  0.70460548  0.29539452  1
  Ce  Ce2  1  0.00000100  0.29539452  0.70460548  1
  Zn  Zn3  1  0.35879450  0.70264838  0.01494062  1
  Zn  Zn4  1  0.28260451  0.42270269  0.14250533  1
  Zn  Zn5  1  0.64120650  0.98506038  0.29735162  1
  Zn  Zn6  1  0.81734635  0.31734635  0.31734635  1
  Zn  Zn7  1  0.28260451  0.14250533  0.42270269  1
  Zn  Zn8  1  0.50000000  0.50000000  0.50000000  1
  Zn  Zn9  1  0.71739649  0.85749467  0.57729731  1
  Zn  Zn10  1  0.18265465  0.68265365  0.68265365  1
  Zn  Zn11  1  0.35879450  0.01494062  0.70264838  1
  Zn  Zn12  1  0.71739649  0.57729731  0.85749467  1
  Zn  Zn13  1  0.64120650  0.29735162  0.98506038  1
