# generated using pymatgen
data_AcGe3
_symmetry_space_group_name_H-M   'P 1'
_cell_length_a   6.64455682
_cell_length_b   6.64451377
_cell_length_c   4.96804061
_cell_angle_alpha   89.99954321
_cell_angle_beta   90.00084817
_cell_angle_gamma   120.00379606
_symmetry_Int_Tables_number   1
_chemical_formula_structural   AcGe3
_chemical_formula_sum   'Ac2 Ge6'
_cell_volume   189.94522517
_cell_formula_units_Z   2
loop_
 _symmetry_equiv_pos_site_id
 _symmetry_equiv_pos_as_xyz
  1  'x, y, z'
loop_
 _atom_site_type_symbol
 _atom_site_label
 _atom_site_symmetry_multiplicity
 _atom_site_fract_x
 _atom_site_fract_y
 _atom_site_fract_z
 _atom_site_occupancy
  Ac  Ac0  1  0.33332843  0.66667747  0.75000292  1
  Ac  Ac1  1  0.66667235  0.33332049  0.25000086  1
  Ge  Ge2  1  0.13698629  0.27399860  0.25000295  1
  Ge  Ge3  1  0.72600212  0.86301927  0.25000257  1
  Ge  Ge4  1  0.13701183  0.86299738  0.24999793  1
  Ge  Ge5  1  0.86301299  0.72600230  0.74999868  1
  Ge  Ge6  1  0.27399679  0.13698332  0.74999618  1
  Ge  Ge7  1  0.86299120  0.13700417  0.75000192  1
