# generated using pymatgen
data_Pr3Co
_symmetry_space_group_name_H-M   'P 1'
_cell_length_a   7.17678011
_cell_length_b   10.08340973
_cell_length_c   6.54024623
_cell_angle_alpha   90.00017239
_cell_angle_beta   89.99022341
_cell_angle_gamma   90.00004619
_symmetry_Int_Tables_number   1
_chemical_formula_structural   Pr3Co
_chemical_formula_sum   'Pr12 Co4'
_cell_volume   473.29416203
_cell_formula_units_Z   4
loop_
 _symmetry_equiv_pos_site_id
 _symmetry_equiv_pos_as_xyz
  1  'x, y, z'
loop_
 _atom_site_type_symbol
 _atom_site_label
 _atom_site_symmetry_multiplicity
 _atom_site_fract_x
 _atom_site_fract_y
 _atom_site_fract_z
 _atom_site_occupancy
  Pr  Pr0  1  0.45293034  0.74999511  0.14831165  1
  Pr  Pr1  1  0.17043437  0.07108519  0.17510704  1
  Pr  Pr2  1  0.17043580  0.42891759  0.17510871  1
  Pr  Pr3  1  0.67028265  0.07110841  0.32499483  1
  Pr  Pr4  1  0.67028055  0.42889521  0.32499063  1
  Pr  Pr5  1  0.95288640  0.74999817  0.35174563  1
  Pr  Pr6  1  0.04713323  0.25000265  0.64817491  1
  Pr  Pr7  1  0.32969516  0.57115116  0.67503652  1
  Pr  Pr8  1  0.32969665  0.92884487  0.67503864  1
  Pr  Pr9  1  0.82962423  0.57114879  0.82491494  1
  Pr  Pr10  1  0.82962857  0.92884886  0.82491394  1
  Pr  Pr11  1  0.54697156  0.25000429  0.85165936  1
  Co  Co12  1  0.88558609  0.25000278  0.06216576  1
  Co  Co13  1  0.38560044  0.25000275  0.43782763  1
  Co  Co14  1  0.61440036  0.74999788  0.56217243  1
  Co  Co15  1  0.11441259  0.74999629  0.93784140  1
