# generated using pymatgen
data_SrNiSn2
_symmetry_space_group_name_H-M   'P 1'
_cell_length_a   4.59327056
_cell_length_b   4.64932990
_cell_length_c   9.72663573
_cell_angle_alpha   76.17247892
_cell_angle_beta   90.00000000
_cell_angle_gamma   90.00000000
_symmetry_Int_Tables_number   1
_chemical_formula_structural   SrNiSn2
_chemical_formula_sum   'Sr2 Ni2 Sn4'
_cell_volume   201.69867032
_cell_formula_units_Z   2
loop_
 _symmetry_equiv_pos_site_id
 _symmetry_equiv_pos_as_xyz
  1  'x, y, z'
loop_
 _atom_site_type_symbol
 _atom_site_label
 _atom_site_symmetry_multiplicity
 _atom_site_fract_x
 _atom_site_fract_y
 _atom_site_fract_z
 _atom_site_occupancy
  Sr  Sr0  1  0.25000100  0.89049110  0.21901780  1
  Sr  Sr1  1  0.75000000  0.10950790  0.78098220  1
  Ni  Ni2  1  0.75000000  0.31858062  0.36283577  1
  Ni  Ni3  1  0.25000100  0.68141838  0.63716323  1
  Sn  Sn4  1  0.75000000  0.45282157  0.09435487  1
  Sn  Sn5  1  0.25000100  0.25058927  0.49882046  1
  Sn  Sn6  1  0.75000000  0.74940973  0.50118054  1
  Sn  Sn7  1  0.25000100  0.54717743  0.90564513  1
