# generated using pymatgen
data_PaNi3
_symmetry_space_group_name_H-M   'P 1'
_cell_length_a   5.27696628
_cell_length_b   5.27696599
_cell_length_c   4.70336137
_cell_angle_alpha   90.00000000
_cell_angle_beta   90.00000000
_cell_angle_gamma   120.00000181
_symmetry_Int_Tables_number   1
_chemical_formula_structural   PaNi3
_chemical_formula_sum   'Pa2 Ni6'
_cell_volume   113.42468607
_cell_formula_units_Z   2
loop_
 _symmetry_equiv_pos_site_id
 _symmetry_equiv_pos_as_xyz
  1  'x, y, z'
loop_
 _atom_site_type_symbol
 _atom_site_label
 _atom_site_symmetry_multiplicity
 _atom_site_fract_x
 _atom_site_fract_y
 _atom_site_fract_z
 _atom_site_occupancy
  Pa  Pa0  1  0.33333300  0.66666700  0.75000000  1
  Pa  Pa1  1  0.66666600  0.33333200  0.24999900  1
  Ni  Ni2  1  0.15933322  0.31866744  0.24999900  1
  Ni  Ni3  1  0.68133256  0.84066578  0.24999900  1
  Ni  Ni4  1  0.15933322  0.84066578  0.24999900  1
  Ni  Ni5  1  0.84066578  0.68133156  0.75000000  1
  Ni  Ni6  1  0.31866644  0.15933222  0.75000000  1
  Ni  Ni7  1  0.84066378  0.15933222  0.75000000  1
