# generated using pymatgen
data_Cs2KU2(Si2O7)2
_symmetry_space_group_name_H-M   'P 1'
_cell_length_a   7.32104512
_cell_length_b   7.32104512
_cell_length_c   7.64594237
_cell_angle_alpha   90.00000000
_cell_angle_beta   90.00000000
_cell_angle_gamma   71.50982825
_symmetry_Int_Tables_number   1
_chemical_formula_structural   Cs2KU2(Si2O7)2
_chemical_formula_sum   'Cs2 K1 U2 Si4 O14'
_cell_volume   388.65001585
_cell_formula_units_Z   1
loop_
 _symmetry_equiv_pos_site_id
 _symmetry_equiv_pos_as_xyz
  1  'x, y, z'
loop_
 _atom_site_type_symbol
 _atom_site_label
 _atom_site_symmetry_multiplicity
 _atom_site_fract_x
 _atom_site_fract_y
 _atom_site_fract_z
 _atom_site_occupancy
  Cs  Cs0  1  0.22082688  0.22082688  0.00000000  1
  Cs  Cs1  1  0.77917412  0.77917412  0.00000000  1
  K  K2  1  0.00000000  0.00000000  0.50000000  1
  U  U3  1  0.00000100  0.50000100  0.50000000  1
  U  U4  1  0.50000100  0.00000100  0.50000000  1
  Si  Si5  1  0.69103519  0.30896481  0.20705986  1
  Si  Si6  1  0.30896481  0.69103519  0.20705986  1
  Si  Si7  1  0.69103519  0.30896481  0.79294014  1
  Si  Si8  1  0.30896481  0.69103519  0.79294014  1
  O  O9  1  0.24694870  0.24694870  0.50000000  1
  O  O10  1  0.50000000  0.50000000  0.79207625  1
  O  O11  1  0.50000000  0.50000000  0.20792275  1
  O  O12  1  0.75305230  0.75305230  0.50000000  1
  O  O13  1  0.87306068  0.35586698  0.70487060  1
  O  O14  1  0.12693832  0.64413202  0.70487060  1
  O  O15  1  0.64413202  0.12693832  0.29512740  1
  O  O16  1  0.35586698  0.87306068  0.29512740  1
  O  O17  1  0.12693832  0.64413202  0.29512740  1
  O  O18  1  0.87306068  0.35586698  0.29512740  1
  O  O19  1  0.35586698  0.87306068  0.70487060  1
  O  O20  1  0.64413202  0.12693832  0.70487060  1
  O  O21  1  0.25142647  0.74857253  0.00000000  1
  O  O22  1  0.74857253  0.25142647  0.00000000  1
