# generated using pymatgen
data_Er4Ga16Co3
_symmetry_space_group_name_H-M   'P 1'
_cell_length_a   6.00543941
_cell_length_b   6.00543941
_cell_length_c   11.05010755
_cell_angle_alpha   90.00000000
_cell_angle_beta   90.00000000
_cell_angle_gamma   90.00000000
_symmetry_Int_Tables_number   1
_chemical_formula_structural   Er4Ga16Co3
_chemical_formula_sum   'Er4 Ga16 Co3'
_cell_volume   398.52547153
_cell_formula_units_Z   1
loop_
 _symmetry_equiv_pos_site_id
 _symmetry_equiv_pos_as_xyz
  1  'x, y, z'
loop_
 _atom_site_type_symbol
 _atom_site_label
 _atom_site_symmetry_multiplicity
 _atom_site_fract_x
 _atom_site_fract_y
 _atom_site_fract_z
 _atom_site_occupancy
  Er  Er0  1  0.00000000  0.50000100  0.19328394  1
  Er  Er1  1  0.00000000  0.50000100  0.80671506  1
  Er  Er2  1  0.50000100  0.00000000  0.80671506  1
  Er  Er3  1  0.50000100  0.00000000  0.19328394  1
  Ga  Ga4  1  0.00000000  0.00000000  0.21826128  1
  Ga  Ga5  1  0.00000000  0.00000000  0.78173872  1
  Ga  Ga6  1  0.50000100  0.50000100  0.19745261  1
  Ga  Ga7  1  0.50000100  0.50000100  0.80254839  1
  Ga  Ga8  1  0.28061810  0.28061810  0.00000000  1
  Ga  Ga9  1  0.71938390  0.71938390  0.00000000  1
  Ga  Ga10  1  0.28061810  0.71938390  0.00000000  1
  Ga  Ga11  1  0.71938390  0.28061810  0.00000000  1
  Ga  Ga12  1  0.25037114  0.25037114  0.38338668  1
  Ga  Ga13  1  0.74962986  0.74962986  0.38338668  1
  Ga  Ga14  1  0.25037114  0.74962986  0.61661132  1
  Ga  Ga15  1  0.74962986  0.25037114  0.61661132  1
  Ga  Ga16  1  0.74962986  0.74962986  0.61661132  1
  Ga  Ga17  1  0.25037114  0.25037114  0.61661132  1
  Ga  Ga18  1  0.25037114  0.74962986  0.38338668  1
  Ga  Ga19  1  0.74962986  0.25037114  0.38338668  1
  Co  Co20  1  0.00000000  0.50000100  0.50000000  1
  Co  Co21  1  0.50000100  0.00000000  0.50000000  1
  Co  Co22  1  0.00000000  0.00000000  0.00000000  1
