# generated using pymatgen
data_Ca3Sn2S7
_symmetry_space_group_name_H-M   'P 1'
_cell_length_a   6.61350946
_cell_length_b   10.52193720
_cell_length_c   17.48677625
_cell_angle_alpha   97.77032636
_cell_angle_beta   90.00000000
_cell_angle_gamma   90.00000000
_symmetry_Int_Tables_number   1
_chemical_formula_structural   Ca3Sn2S7
_chemical_formula_sum   'Ca12 Sn8 S28'
_cell_volume   1205.67796313
_cell_formula_units_Z   4
loop_
 _symmetry_equiv_pos_site_id
 _symmetry_equiv_pos_as_xyz
  1  'x, y, z'
loop_
 _atom_site_type_symbol
 _atom_site_label
 _atom_site_symmetry_multiplicity
 _atom_site_fract_x
 _atom_site_fract_y
 _atom_site_fract_z
 _atom_site_occupancy
  Ca  Ca0  1  0.77522797  0.96001505  0.12151891  1
  Ca  Ca1  1  0.27522797  0.03998495  0.37848109  1
  Ca  Ca2  1  0.22477203  0.03998495  0.87848109  1
  Ca  Ca3  1  0.72477203  0.96001505  0.62151891  1
  Ca  Ca4  1  0.71571185  0.50853185  0.11757632  1
  Ca  Ca5  1  0.21571185  0.49146815  0.38242368  1
  Ca  Ca6  1  0.28428815  0.49146815  0.88242368  1
  Ca  Ca7  1  0.78428815  0.50853185  0.61757632  1
  Ca  Ca8  1  0.73271380  0.74780723  0.82904928  1
  Ca  Ca9  1  0.23271380  0.25219277  0.67095072  1
  Ca  Ca10  1  0.26728620  0.25219277  0.17095072  1
  Ca  Ca11  1  0.76728620  0.74780723  0.32904928  1
  Sn  Sn12  1  0.79899247  0.20861037  0.50138289  1
  Sn  Sn13  1  0.29899247  0.79138963  0.99861711  1
  Sn  Sn14  1  0.20100753  0.79138963  0.49861711  1
  Sn  Sn15  1  0.70100753  0.20861037  0.00138289  1
  Sn  Sn16  1  0.70157584  0.27256554  0.29802271  1
  Sn  Sn17  1  0.20157584  0.72743446  0.20197729  1
  Sn  Sn18  1  0.29842416  0.72743446  0.70197729  1
  Sn  Sn19  1  0.79842416  0.27256554  0.79802271  1
  S  S20  1  0.52066393  0.45061069  0.25704013  1
  S  S21  1  0.02066393  0.54938931  0.24295987  1
  S  S22  1  0.47933607  0.54938931  0.74295987  1
  S  S23  1  0.97933607  0.45061069  0.75704013  1
  S  S24  1  0.51615138  0.08234845  0.24843031  1
  S  S25  1  0.01615138  0.91765155  0.25156969  1
  S  S26  1  0.48384862  0.91765155  0.75156969  1
  S  S27  1  0.98384862  0.08234845  0.74843031  1
  S  S28  1  0.05937141  0.25266312  0.31922061  1
  S  S29  1  0.55937141  0.74733688  0.18077939  1
  S  S30  1  0.94062859  0.74733688  0.68077939  1
  S  S31  1  0.44062859  0.25266312  0.81922061  1
  S  S32  1  0.55258452  0.32263164  0.43037354  1
  S  S33  1  0.05258452  0.67736836  0.06962646  1
  S  S34  1  0.44741548  0.67736836  0.56962646  1
  S  S35  1  0.94741548  0.32263164  0.93037354  1
  S  S36  1  0.08234453  0.34930033  0.53298575  1
  S  S37  1  0.58234453  0.65069967  0.96701425  1
  S  S38  1  0.91765547  0.65069967  0.46701425  1
  S  S39  1  0.41765547  0.34930033  0.03298575  1
  S  S40  1  0.76351952  0.98743885  0.45249091  1
  S  S41  1  0.26351952  0.01256115  0.04750909  1
  S  S42  1  0.23648048  0.01256115  0.54750909  1
  S  S43  1  0.73648048  0.98743885  0.95249091  1
  S  S44  1  0.64102193  0.23406759  0.62866781  1
  S  S45  1  0.14102193  0.76593241  0.87133219  1
  S  S46  1  0.35897807  0.76593241  0.37133219  1
  S  S47  1  0.85897807  0.23406759  0.12866781  1
