# generated using pymatgen
data_PaS3
_symmetry_space_group_name_H-M   'P 1'
_cell_length_a   5.76649313
_cell_length_b   5.76478480
_cell_length_c   5.00331591
_cell_angle_alpha   90.00035144
_cell_angle_beta   90.00071738
_cell_angle_gamma   120.01584202
_symmetry_Int_Tables_number   1
_chemical_formula_structural   PaS3
_chemical_formula_sum   'Pa2 S6'
_cell_volume   144.01710767
_cell_formula_units_Z   2
loop_
 _symmetry_equiv_pos_site_id
 _symmetry_equiv_pos_as_xyz
  1  'x, y, z'
loop_
 _atom_site_type_symbol
 _atom_site_label
 _atom_site_symmetry_multiplicity
 _atom_site_fract_x
 _atom_site_fract_y
 _atom_site_fract_z
 _atom_site_occupancy
  Pa  Pa0  1  0.66666943  0.33332236  0.25000899  1
  Pa  Pa1  1  0.33332756  0.66667381  0.74999346  1
  S  S2  1  0.82402734  0.17600002  0.74999925  1
  S  S3  1  0.35196999  0.17599259  0.75000195  1
  S  S4  1  0.82401459  0.64801587  0.74999895  1
  S  S5  1  0.17597592  0.82399922  0.25000249  1
  S  S6  1  0.64802217  0.82400318  0.24999838  1
  S  S7  1  0.17599300  0.35198694  0.25000054  1
