# generated using pymatgen
data_PaPd3
_symmetry_space_group_name_H-M   'P 1'
_cell_length_a   5.72996322
_cell_length_b   5.72996290
_cell_length_c   5.07105412
_cell_angle_alpha   90.00000000
_cell_angle_beta   90.00000000
_cell_angle_gamma   120.00000186
_symmetry_Int_Tables_number   1
_chemical_formula_structural   PaPd3
_chemical_formula_sum   'Pa2 Pd6'
_cell_volume   144.18912730
_cell_formula_units_Z   2
loop_
 _symmetry_equiv_pos_site_id
 _symmetry_equiv_pos_as_xyz
  1  'x, y, z'
loop_
 _atom_site_type_symbol
 _atom_site_label
 _atom_site_symmetry_multiplicity
 _atom_site_fract_x
 _atom_site_fract_y
 _atom_site_fract_z
 _atom_site_occupancy
  Pa  Pa0  1  0.66666600  0.33333200  0.25000100  1
  Pa  Pa1  1  0.33333400  0.66666800  0.75000200  1
  Pd  Pd2  1  0.83545824  0.16454376  0.75000200  1
  Pd  Pd3  1  0.32908651  0.16454376  0.75000200  1
  Pd  Pd4  1  0.83545724  0.67091449  0.75000200  1
  Pd  Pd5  1  0.16454276  0.83545624  0.25000100  1
  Pd  Pd6  1  0.67091349  0.83545624  0.25000100  1
  Pd  Pd7  1  0.16454276  0.32908551  0.25000100  1
