# generated using pymatgen
data_PaI3
_symmetry_space_group_name_H-M   'P 1'
_cell_length_a   11.43289982
_cell_length_b   11.43613922
_cell_length_c   3.99691189
_cell_angle_alpha   89.96016737
_cell_angle_beta   90.06112856
_cell_angle_gamma   119.97825925
_symmetry_Int_Tables_number   1
_chemical_formula_structural   PaI3
_chemical_formula_sum   'Pa2 I6'
_cell_volume   452.67434726
_cell_formula_units_Z   2
loop_
 _symmetry_equiv_pos_site_id
 _symmetry_equiv_pos_as_xyz
  1  'x, y, z'
loop_
 _atom_site_type_symbol
 _atom_site_label
 _atom_site_symmetry_multiplicity
 _atom_site_fract_x
 _atom_site_fract_y
 _atom_site_fract_z
 _atom_site_occupancy
  Pa  Pa0  1  0.66669981  0.33334143  0.24999953  1
  Pa  Pa1  1  0.33328945  0.66665777  0.74998539  1
  I  I2  1  0.78888306  0.21156788  0.75050791  1
  I  I3  1  0.42265197  0.21112426  0.74965235  1
  I  I4  1  0.78844550  0.57729949  0.74987569  1
  I  I5  1  0.21124539  0.78865704  0.24948943  1
  I  I6  1  0.57745802  0.78875320  0.25034792  1
  I  I7  1  0.21132679  0.42259694  0.25014577  1
