# generated using pymatgen
data_PaAl3
_symmetry_space_group_name_H-M   'P 1'
_cell_length_a   6.29391659
_cell_length_b   6.29391751
_cell_length_c   4.58135428
_cell_angle_alpha   90.00000000
_cell_angle_beta   90.00000000
_cell_angle_gamma   120.00000046
_symmetry_Int_Tables_number   1
_chemical_formula_structural   PaAl3
_chemical_formula_sum   'Pa2 Al6'
_cell_volume   157.16887229
_cell_formula_units_Z   2
loop_
 _symmetry_equiv_pos_site_id
 _symmetry_equiv_pos_as_xyz
  1  'x, y, z'
loop_
 _atom_site_type_symbol
 _atom_site_label
 _atom_site_symmetry_multiplicity
 _atom_site_fract_x
 _atom_site_fract_y
 _atom_site_fract_z
 _atom_site_occupancy
  Pa  Pa0  1  0.33333300  0.66666600  0.74999800  1
  Pa  Pa1  1  0.66666600  0.33333200  0.24999800  1
  Al  Al2  1  0.14845249  0.29690599  0.24999800  1
  Al  Al3  1  0.70309401  0.85154851  0.24999800  1
  Al  Al4  1  0.14845449  0.85154851  0.24999800  1
  Al  Al5  1  0.85154851  0.70309401  0.74999800  1
  Al  Al6  1  0.29690399  0.14845149  0.74999800  1
  Al  Al7  1  0.85154751  0.14845149  0.74999800  1
