# generated using pymatgen
data_Er2Mg
_symmetry_space_group_name_H-M   'P 1'
_cell_length_a   3.59510939
_cell_length_b   8.82377962
_cell_length_c   5.42890808
_cell_angle_alpha   90.00000000
_cell_angle_beta   90.00000000
_cell_angle_gamma   78.24559441
_symmetry_Int_Tables_number   1
_chemical_formula_structural   Er2Mg
_chemical_formula_sum   'Er4 Mg2'
_cell_volume   168.60683145
_cell_formula_units_Z   2
loop_
 _symmetry_equiv_pos_site_id
 _symmetry_equiv_pos_as_xyz
  1  'x, y, z'
loop_
 _atom_site_type_symbol
 _atom_site_label
 _atom_site_symmetry_multiplicity
 _atom_site_fract_x
 _atom_site_fract_y
 _atom_site_fract_z
 _atom_site_occupancy
  Er  Er0  1  0.98634211  0.02733603  0.00000000  1
  Er  Er1  1  0.66337590  0.67325856  0.00000000  1
  Er  Er2  1  0.79145614  0.41710797  0.50000000  1
  Er  Er3  1  0.11441446  0.77118644  0.50000000  1
  Mg  Mg4  1  0.32632492  0.34731555  0.00000000  1
  Mg  Mg5  1  0.45141847  0.09712845  0.50000000  1
