# generated using pymatgen
data_Pa2S3
_symmetry_space_group_name_H-M   'P 1'
_cell_length_a   6.82220279
_cell_length_b   6.82220344
_cell_length_c   7.37516858
_cell_angle_alpha   117.54930237
_cell_angle_beta   62.45070109
_cell_angle_gamma   119.99999691
_symmetry_Int_Tables_number   1
_chemical_formula_structural   Pa2S3
_chemical_formula_sum   'Pa4 S6'
_cell_volume   251.32590184
_cell_formula_units_Z   2
loop_
 _symmetry_equiv_pos_site_id
 _symmetry_equiv_pos_as_xyz
  1  'x, y, z'
loop_
 _atom_site_type_symbol
 _atom_site_label
 _atom_site_symmetry_multiplicity
 _atom_site_fract_x
 _atom_site_fract_y
 _atom_site_fract_z
 _atom_site_occupancy
  Pa  Pa0  1  0.65643798  0.34356102  0.03068305  1
  Pa  Pa1  1  0.84356202  0.15643898  0.46931695  1
  Pa  Pa2  1  0.15643898  0.84356202  0.53068305  1
  Pa  Pa3  1  0.34356002  0.65643898  0.96931695  1
  S  S4  1  0.25000100  0.06016263  0.24999900  1
  S  S5  1  0.93983637  0.43983637  0.24999900  1
  S  S6  1  0.56016363  0.75000000  0.24999900  1
  S  S7  1  0.43983737  0.25000000  0.74999900  1
  S  S8  1  0.06016163  0.56016363  0.74999900  1
  S  S9  1  0.75000100  0.93983737  0.74999900  1
