# generated using pymatgen
data_PaTe3
_symmetry_space_group_name_H-M   'P 1'
_cell_length_a   6.70213188
_cell_length_b   6.70213157
_cell_length_c   5.66066021
_cell_angle_alpha   90.00000000
_cell_angle_beta   90.00000000
_cell_angle_gamma   120.00000153
_symmetry_Int_Tables_number   1
_chemical_formula_structural   PaTe3
_chemical_formula_sum   'Pa2 Te6'
_cell_volume   220.20320213
_cell_formula_units_Z   2
loop_
 _symmetry_equiv_pos_site_id
 _symmetry_equiv_pos_as_xyz
  1  'x, y, z'
loop_
 _atom_site_type_symbol
 _atom_site_label
 _atom_site_symmetry_multiplicity
 _atom_site_fract_x
 _atom_site_fract_y
 _atom_site_fract_z
 _atom_site_occupancy
  Pa  Pa0  1  0.66666700  0.33333200  0.24999800  1
  Pa  Pa1  1  0.33333300  0.66666600  0.75000100  1
  Te  Te2  1  0.82444205  0.17555795  0.75000100  1
  Te  Te3  1  0.35111791  0.17555795  0.75000100  1
  Te  Te4  1  0.82444205  0.64888409  0.75000100  1
  Te  Te5  1  0.17555795  0.82444205  0.24999800  1
  Te  Te6  1  0.64888409  0.82444205  0.24999800  1
  Te  Te7  1  0.17555895  0.35111791  0.24999800  1
