# generated using pymatgen
data_LiCu2F5
_symmetry_space_group_name_H-M   'P 1'
_cell_length_a   13.42653489
_cell_length_b   10.02313266
_cell_length_c   3.14399788
_cell_angle_alpha   90.00000000
_cell_angle_beta   90.00000000
_cell_angle_gamma   90.00000000
_symmetry_Int_Tables_number   1
_chemical_formula_structural   LiCu2F5
_chemical_formula_sum   'Li4 Cu8 F20'
_cell_volume   423.10647121
_cell_formula_units_Z   4
loop_
 _symmetry_equiv_pos_site_id
 _symmetry_equiv_pos_as_xyz
  1  'x, y, z'
loop_
 _atom_site_type_symbol
 _atom_site_label
 _atom_site_symmetry_multiplicity
 _atom_site_fract_x
 _atom_site_fract_y
 _atom_site_fract_z
 _atom_site_occupancy
  Li  Li0  1  0.23234019  0.75000000  0.76390928  1
  Li  Li1  1  0.26765981  0.25000000  0.26390928  1
  Li  Li2  1  0.73234019  0.75000000  0.73609072  1
  Li  Li3  1  0.76765981  0.25000000  0.23609072  1
  Cu  Cu4  1  0.07253217  0.59021600  0.27411136  1
  Cu  Cu5  1  0.07253217  0.90978400  0.27411136  1
  Cu  Cu6  1  0.42746783  0.09021600  0.77411136  1
  Cu  Cu7  1  0.42746783  0.40978400  0.77411136  1
  Cu  Cu8  1  0.57253217  0.59021600  0.22588864  1
  Cu  Cu9  1  0.57253217  0.90978400  0.22588864  1
  Cu  Cu10  1  0.92746783  0.09021600  0.72588864  1
  Cu  Cu11  1  0.92746783  0.40978400  0.72588864  1
  F  F12  1  0.05480505  0.75000000  0.89568651  1
  F  F13  1  0.06986804  0.05448109  0.70866435  1
  F  F14  1  0.06986804  0.44551891  0.70866435  1
  F  F15  1  0.20865341  0.62333119  0.27646502  1
  F  F16  1  0.20865341  0.87666881  0.27646502  1
  F  F17  1  0.29134659  0.12333119  0.77646502  1
  F  F18  1  0.29134659  0.37666881  0.77646502  1
  F  F19  1  0.43013196  0.55448109  0.20866435  1
  F  F20  1  0.43013196  0.94551891  0.20866435  1
  F  F21  1  0.44519495  0.25000000  0.39568651  1
  F  F22  1  0.55480505  0.75000000  0.60431349  1
  F  F23  1  0.56986804  0.05448109  0.79133565  1
  F  F24  1  0.56986804  0.44551891  0.79133565  1
  F  F25  1  0.70865341  0.62333119  0.22353498  1
  F  F26  1  0.70865341  0.87666881  0.22353498  1
  F  F27  1  0.79134659  0.12333119  0.72353498  1
  F  F28  1  0.79134659  0.37666881  0.72353498  1
  F  F29  1  0.93013196  0.55448109  0.29133565  1
  F  F30  1  0.93013196  0.94551891  0.29133565  1
  F  F31  1  0.94519495  0.25000000  0.10431349  1
