# generated using pymatgen
data_PmIn3
_symmetry_space_group_name_H-M   'P 1'
_cell_length_a   4.70780446
_cell_length_b   4.70784119
_cell_length_c   4.70066578
_cell_angle_alpha   89.99439010
_cell_angle_beta   90.00628333
_cell_angle_gamma   90.00412431
_symmetry_Int_Tables_number   1
_chemical_formula_structural   PmIn3
_chemical_formula_sum   'Pm1 In3'
_cell_volume   104.18365475
_cell_formula_units_Z   1
loop_
 _symmetry_equiv_pos_site_id
 _symmetry_equiv_pos_as_xyz
  1  'x, y, z'
loop_
 _atom_site_type_symbol
 _atom_site_label
 _atom_site_symmetry_multiplicity
 _atom_site_fract_x
 _atom_site_fract_y
 _atom_site_fract_z
 _atom_site_occupancy
  Pm  Pm0  1  0.99999261  0.99998939  0.00001591  1
  In  In1  1  0.00000134  0.50000508  0.49999988  1
  In  In2  1  0.50000541  0.00000491  0.49998691  1
  In  In3  1  0.50000164  0.50000163  0.99999830  1
