# generated using pymatgen
data_Li7V(O2F)2
_symmetry_space_group_name_H-M   'P 1'
_cell_length_a   5.52666342
_cell_length_b   5.93146404
_cell_length_c   10.01586849
_cell_angle_alpha   85.76446133
_cell_angle_beta   74.78461565
_cell_angle_gamma   118.53126406
_symmetry_Int_Tables_number   1
_chemical_formula_structural   Li7V(O2F)2
_chemical_formula_sum   'Li14 V2 O8 F4'
_cell_volume   270.55276287
_cell_formula_units_Z   2
loop_
 _symmetry_equiv_pos_site_id
 _symmetry_equiv_pos_as_xyz
  1  'x, y, z'
loop_
 _atom_site_type_symbol
 _atom_site_label
 _atom_site_symmetry_multiplicity
 _atom_site_fract_x
 _atom_site_fract_y
 _atom_site_fract_z
 _atom_site_occupancy
  Li  Li0  1  0.09530583  0.06304918  0.23561270  1
  Li  Li1  1  0.10506791  0.60900155  0.74946918  1
  Li  Li2  1  0.49798861  0.95414945  0.38315927  1
  Li  Li3  1  0.51132859  0.54676872  0.12649015  1
  Li  Li4  1  0.27772264  0.24608442  0.45306638  1
  Li  Li5  1  0.21868648  0.68951575  0.95119127  1
  Li  Li6  1  0.32060876  0.34183541  0.68101035  1
  Li  Li7  1  0.74992772  0.29410100  0.05081843  1
  Li  Li8  1  0.75039611  0.79293574  0.54856388  1
  Li  Li9  1  0.48819202  0.47333740  0.87701632  1
  Li  Li10  1  0.50541838  0.01084707  0.61674195  1
  Li  Li11  1  0.89869362  0.46944261  0.26493795  1
  Li  Li12  1  0.91794142  0.88978292  0.74708210  1
  Li  Li13  1  0.67172265  0.15995278  0.80991522  1
  V  V14  1  0.04555555  0.01676498  0.99010073  1
  V  V15  1  0.96804064  0.47493985  0.52705250  1
  O  O16  1  0.24823659  0.95221756  0.80489595  1
  O  O17  1  0.38005050  0.22146573  0.04349071  1
  O  O18  1  0.35885850  0.67064930  0.55073602  1
  O  O19  1  0.07383621  0.33974828  0.88369976  1
  O  O20  1  0.90696374  0.65969747  0.10114889  1
  O  O21  1  0.63456390  0.28950560  0.45721574  1
  O  O22  1  0.76118898  0.54173329  0.69466539  1
  O  O23  1  0.90957201  0.12716980  0.61877713  1
  F  F24  1  0.10098647  0.87432704  0.39293571  1
  F  F25  1  0.21101882  0.42048214  0.30762286  1
  F  F26  1  0.61409221  0.79721323  0.93915603  1
  F  F27  1  0.77803713  0.07328071  0.19342943  1
