# generated using pymatgen
data_Ag2Cl3
_symmetry_space_group_name_H-M   'P 1'
_cell_length_a   6.70290525
_cell_length_b   6.70290397
_cell_length_c   7.22932491
_cell_angle_alpha   117.61908797
_cell_angle_beta   62.38091315
_cell_angle_gamma   119.99999639
_symmetry_Int_Tables_number   1
_chemical_formula_structural   Ag2Cl3
_chemical_formula_sum   'Ag4 Cl6'
_cell_volume   237.59345772
_cell_formula_units_Z   2
loop_
 _symmetry_equiv_pos_site_id
 _symmetry_equiv_pos_as_xyz
  1  'x, y, z'
loop_
 _atom_site_type_symbol
 _atom_site_label
 _atom_site_symmetry_multiplicity
 _atom_site_fract_x
 _atom_site_fract_y
 _atom_site_fract_z
 _atom_site_occupancy
  Ag  Ag0  1  0.65700074  0.34300026  0.02899977  1
  Ag  Ag1  1  0.84299926  0.15700074  0.47100123  1
  Ag  Ag2  1  0.15699974  0.84299926  0.52899877  1
  Ag  Ag3  1  0.34300026  0.65700074  0.97100123  1
  Cl  Cl4  1  0.93236599  0.43236499  0.25000000  1
  Cl  Cl5  1  0.56763501  0.74999900  0.25000000  1
  Cl  Cl6  1  0.25000000  0.06763501  0.25000000  1
  Cl  Cl7  1  0.75000100  0.93236599  0.74999900  1
  Cl  Cl8  1  0.43236499  0.25000000  0.74999900  1
  Cl  Cl9  1  0.06763401  0.56763401  0.74999900  1
