# generated using pymatgen
data_CaHg3
_symmetry_space_group_name_H-M   'P 1'
_cell_length_a   6.75675975
_cell_length_b   6.75676028
_cell_length_c   5.21089916
_cell_angle_alpha   90.00000000
_cell_angle_beta   90.00000000
_cell_angle_gamma   120.00000780
_symmetry_Int_Tables_number   1
_chemical_formula_structural   CaHg3
_chemical_formula_sum   'Ca2 Hg6'
_cell_volume   206.02515736
_cell_formula_units_Z   2
loop_
 _symmetry_equiv_pos_site_id
 _symmetry_equiv_pos_as_xyz
  1  'x, y, z'
loop_
 _atom_site_type_symbol
 _atom_site_label
 _atom_site_symmetry_multiplicity
 _atom_site_fract_x
 _atom_site_fract_y
 _atom_site_fract_z
 _atom_site_occupancy
  Ca  Ca0  1  0.33333400  0.66666700  0.74999900  1
  Ca  Ca1  1  0.66666700  0.33333400  0.25000000  1
  Hg  Hg2  1  0.16344494  0.32688887  0.25000000  1
  Hg  Hg3  1  0.67311113  0.83655606  0.25000000  1
  Hg  Hg4  1  0.16344594  0.83655606  0.25000000  1
  Hg  Hg5  1  0.83655606  0.67311213  0.74999900  1
  Hg  Hg6  1  0.32688787  0.16344394  0.74999900  1
  Hg  Hg7  1  0.83655406  0.16344394  0.74999900  1
