# generated using pymatgen
data_PmGa3
_symmetry_space_group_name_H-M   'P 1'
_cell_length_a   6.43342754
_cell_length_b   6.43342824
_cell_length_c   4.61360310
_cell_angle_alpha   90.00000000
_cell_angle_beta   90.00000000
_cell_angle_gamma   120.00000172
_symmetry_Int_Tables_number   1
_chemical_formula_structural   PmGa3
_chemical_formula_sum   'Pm2 Ga6'
_cell_volume   165.36962040
_cell_formula_units_Z   2
loop_
 _symmetry_equiv_pos_site_id
 _symmetry_equiv_pos_as_xyz
  1  'x, y, z'
loop_
 _atom_site_type_symbol
 _atom_site_label
 _atom_site_symmetry_multiplicity
 _atom_site_fract_x
 _atom_site_fract_y
 _atom_site_fract_z
 _atom_site_occupancy
  Pm  Pm0  1  0.33333400  0.66666900  0.74999800  1
  Pm  Pm1  1  0.66666700  0.33333300  0.25000000  1
  Ga  Ga2  1  0.14440062  0.28880025  0.25000000  1
  Ga  Ga3  1  0.71120075  0.85560038  0.25000000  1
  Ga  Ga4  1  0.14439862  0.85560038  0.25000000  1
  Ga  Ga5  1  0.85560038  0.71120175  0.74999800  1
  Ga  Ga6  1  0.28879725  0.14439862  0.74999800  1
  Ga  Ga7  1  0.85560038  0.14439862  0.74999800  1
