# generated using pymatgen
data_Co4Os
_symmetry_space_group_name_H-M   'P 1'
_cell_length_a   2.59311165
_cell_length_b   2.59311165
_cell_length_c   10.32515164
_cell_angle_alpha   82.78617785
_cell_angle_beta   90.00000000
_cell_angle_gamma   120.00000000
_symmetry_Int_Tables_number   1
_chemical_formula_structural   Co4Os
_chemical_formula_sum   'Co4 Os1'
_cell_volume   59.49156385
_cell_formula_units_Z   1
loop_
 _symmetry_equiv_pos_site_id
 _symmetry_equiv_pos_as_xyz
  1  'x, y, z'
loop_
 _atom_site_type_symbol
 _atom_site_label
 _atom_site_symmetry_multiplicity
 _atom_site_fract_x
 _atom_site_fract_y
 _atom_site_fract_z
 _atom_site_occupancy
  Co  Co0  1  0.59682068  0.19364137  0.20953795  1
  Co  Co1  1  0.19912075  0.39824150  0.40263775  1
  Co  Co2  1  0.80087925  0.60175850  0.59736225  1
  Co  Co3  1  0.40317932  0.80635863  0.79046205  1
  Os  Os4  1  0.00000000  0.00000000  0.00000000  1
