# generated using pymatgen
data_HfGaRh2
_symmetry_space_group_name_H-M   'P 1'
_cell_length_a   4.46799606
_cell_length_b   4.46799227
_cell_length_c   4.46798806
_cell_angle_alpha   60.00008015
_cell_angle_beta   60.00001675
_cell_angle_gamma   60.00010392
_symmetry_Int_Tables_number   1
_chemical_formula_structural   HfGaRh2
_chemical_formula_sum   'Hf1 Ga1 Rh2'
_cell_volume   63.07000417
_cell_formula_units_Z   1
loop_
 _symmetry_equiv_pos_site_id
 _symmetry_equiv_pos_as_xyz
  1  'x, y, z'
loop_
 _atom_site_type_symbol
 _atom_site_label
 _atom_site_symmetry_multiplicity
 _atom_site_fract_x
 _atom_site_fract_y
 _atom_site_fract_z
 _atom_site_occupancy
  Hf  Hf0  1  0.75000111  0.75000049  0.75000073  1
  Ga  Ga1  1  0.25000017  0.25000011  0.25000010  1
  Rh  Rh2  1  0.00000005  0.99999979  0.00000023  1
  Rh  Rh3  1  0.49999967  0.50000062  0.49999995  1
