# generated using pymatgen
data_Mn15O32
_symmetry_space_group_name_H-M   'P 1'
_cell_length_a   8.24156181
_cell_length_b   10.10352353
_cell_length_c   8.24156181
_cell_angle_alpha   65.83899984
_cell_angle_beta   90.24337272
_cell_angle_gamma   114.19694604
_symmetry_Int_Tables_number   1
_chemical_formula_structural   Mn15O32
_chemical_formula_sum   'Mn15 O32'
_cell_volume   560.00319972
_cell_formula_units_Z   1
loop_
 _symmetry_equiv_pos_site_id
 _symmetry_equiv_pos_as_xyz
  1  'x, y, z'
loop_
 _atom_site_type_symbol
 _atom_site_label
 _atom_site_symmetry_multiplicity
 _atom_site_fract_x
 _atom_site_fract_y
 _atom_site_fract_z
 _atom_site_occupancy
  Mn  Mn0  1  0.24533086  0.00070314  0.74462673  1
  Mn  Mn1  1  0.75466914  0.99929686  0.25537327  1
  Mn  Mn2  1  0.50000000  0.00000000  0.00000000  1
  Mn  Mn3  1  0.62422789  0.24928794  0.62502734  1
  Mn  Mn4  1  0.12420026  0.24746340  0.12836012  1
  Mn  Mn5  1  0.37431528  0.24928794  0.87493994  1
  Mn  Mn6  1  0.87582352  0.24746340  0.37673687  1
  Mn  Mn7  1  0.00000000  0.50000000  0.50000000  1
  Mn  Mn8  1  0.75046403  0.50000000  0.24953597  1
  Mn  Mn9  1  0.24953597  0.50000000  0.75046403  1
  Mn  Mn10  1  0.50000000  0.50000000  0.00000000  1
  Mn  Mn11  1  0.37577211  0.75071206  0.37497266  1
  Mn  Mn12  1  0.87579974  0.75253660  0.87163988  1
  Mn  Mn13  1  0.12417648  0.75253660  0.62326313  1
  Mn  Mn14  1  0.62568472  0.75071206  0.12506006  1
  O  O15  1  0.49183974  0.01525562  0.75698948  1
  O  O16  1  0.27224510  0.01525562  0.97658412  1
  O  O17  1  0.75314359  0.01813270  0.47218036  1
  O  O18  1  0.99031306  0.01813270  0.23501089  1
  O  O19  1  0.38146859  0.23629257  0.64517602  1
  O  O20  1  0.10711416  0.25103610  0.35607806  1
  O  O21  1  0.60256839  0.23529809  0.86727030  1
  O  O22  1  0.88249289  0.23462501  0.14786788  1
  O  O23  1  0.14722904  0.26475483  0.88231912  1
  O  O24  1  0.36809750  0.26396898  0.10388978  1
  O  O25  1  0.64707395  0.26475483  0.38247521  1
  O  O26  1  0.86785876  0.26396898  0.60412852  1
  O  O27  1  0.97846203  0.48532660  0.27245492  1
  O  O28  1  0.47725116  0.48480158  0.77272595  1
  O  O29  1  0.75752752  0.48480158  0.49244958  1
  O  O30  1  0.25778152  0.48532660  0.99313543  1
  O  O31  1  0.24247248  0.51519842  0.50755042  1
  O  O32  1  0.02153797  0.51467340  0.72754508  1
  O  O33  1  0.74221848  0.51467340  0.00686457  1
  O  O34  1  0.52274884  0.51519842  0.22727405  1
  O  O35  1  0.63190250  0.73603102  0.89611022  1
  O  O36  1  0.13214124  0.73603102  0.39587148  1
  O  O37  1  0.35292605  0.73524517  0.61752479  1
  O  O38  1  0.85277096  0.73524517  0.11768088  1
  O  O39  1  0.39743161  0.76470191  0.13272970  1
  O  O40  1  0.11750711  0.76537499  0.85213212  1
  O  O41  1  0.89288584  0.74896390  0.64392194  1
  O  O42  1  0.61853141  0.76370743  0.35482398  1
  O  O43  1  0.24685641  0.98186730  0.52781964  1
  O  O44  1  0.00968694  0.98186730  0.76498911  1
  O  O45  1  0.72775490  0.98474438  0.02341588  1
  O  O46  1  0.50816026  0.98474438  0.24301052  1
