# generated using pymatgen
data_Nd3(CuSn)4
_symmetry_space_group_name_H-M   'P 1'
_cell_length_a   4.58245550
_cell_length_b   7.02031647
_cell_length_c   8.63126608
_cell_angle_alpha   113.99641083
_cell_angle_beta   105.39409409
_cell_angle_gamma   90.00000000
_symmetry_Int_Tables_number   1
_chemical_formula_structural   Nd3(CuSn)4
_chemical_formula_sum   'Nd3 Cu4 Sn4'
_cell_volume   242.72651344
_cell_formula_units_Z   1
loop_
 _symmetry_equiv_pos_site_id
 _symmetry_equiv_pos_as_xyz
  1  'x, y, z'
loop_
 _atom_site_type_symbol
 _atom_site_label
 _atom_site_symmetry_multiplicity
 _atom_site_fract_x
 _atom_site_fract_y
 _atom_site_fract_z
 _atom_site_occupancy
  Nd  Nd0  1  0.00000000  0.50000000  0.00000000  1
  Nd  Nd1  1  0.13300863  0.13300863  0.26601726  1
  Nd  Nd2  1  0.86699037  0.86699037  0.73398174  1
  Cu  Cu3  1  0.66795928  0.48420434  0.33592056  1
  Cu  Cu4  1  0.66795928  0.85171623  0.33592056  1
  Cu  Cu5  1  0.33203972  0.14828477  0.66408044  1
  Cu  Cu6  1  0.33203972  0.51579566  0.66408044  1
  Sn  Sn7  1  0.50000000  0.20075211  0.00000000  1
  Sn  Sn8  1  0.50000000  0.79924889  0.00000000  1
  Sn  Sn9  1  0.21616641  0.71616641  0.43233382  1
  Sn  Sn10  1  0.78383259  0.28383259  0.56766518  1
