# generated using pymatgen
data_Nd3MnAlS7
_symmetry_space_group_name_H-M   'P 1'
_cell_length_a   10.00308633
_cell_length_b   10.00320438
_cell_length_c   6.11143258
_cell_angle_alpha   90.00000000
_cell_angle_beta   90.00000000
_cell_angle_gamma   119.99932697
_symmetry_Int_Tables_number   1
_chemical_formula_structural   Nd3MnAlS7
_chemical_formula_sum   'Nd6 Mn2 Al2 S14'
_cell_volume   529.60217618
_cell_formula_units_Z   2
loop_
 _symmetry_equiv_pos_site_id
 _symmetry_equiv_pos_as_xyz
  1  'x, y, z'
loop_
 _atom_site_type_symbol
 _atom_site_label
 _atom_site_symmetry_multiplicity
 _atom_site_fract_x
 _atom_site_fract_y
 _atom_site_fract_z
 _atom_site_occupancy
  Nd  Nd0  1  0.14644156  0.37660850  0.24128442  1
  Nd  Nd1  1  0.85355944  0.62339250  0.74128642  1
  Nd  Nd2  1  0.62339423  0.76982640  0.24127342  1
  Nd  Nd3  1  0.23017392  0.85355641  0.24124902  1
  Nd  Nd4  1  0.76982608  0.14644459  0.74124902  1
  Nd  Nd5  1  0.37660577  0.23017160  0.74127442  1
  Mn  Mn6  1  0.00003594  0.99995974  0.02090962  1
  Mn  Mn7  1  0.99996406  0.00004126  0.52090962  1
  Al  Al8  1  0.33331452  0.66665215  0.66295623  1
  Al  Al9  1  0.66668648  0.33334885  0.16295823  1
  S  S10  1  0.33333639  0.66666690  0.02821606  1
  S  S11  1  0.66666461  0.33333410  0.52821506  1
  S  S12  1  0.09513937  0.23932853  0.79466244  1
  S  S13  1  0.90486163  0.76067147  0.29466244  1
  S  S14  1  0.76064871  0.85579857  0.79463694  1
  S  S15  1  0.14421005  0.90485677  0.79463092  1
  S  S16  1  0.85579095  0.09514423  0.29463092  1
  S  S17  1  0.23935229  0.14420243  0.29463694  1
  S  S18  1  0.42308419  0.52073848  0.51475903  1
  S  S19  1  0.57691581  0.47926152  0.01475903  1
  S  S20  1  0.47926875  0.90235298  0.51470610  1
  S  S21  1  0.09764546  0.57689717  0.51471480  1
  S  S22  1  0.90235354  0.42310183  0.01471380  1
  S  S23  1  0.52073025  0.09764602  0.01470610  1
