# generated using pymatgen
data_U2Fe12P7
_symmetry_space_group_name_H-M   'P 1'
_cell_length_a   9.00950777
_cell_length_b   9.00978385
_cell_length_c   3.60618183
_cell_angle_alpha   90.00000000
_cell_angle_beta   90.00000000
_cell_angle_gamma   119.99803290
_symmetry_Int_Tables_number   1
_chemical_formula_structural   U2Fe12P7
_chemical_formula_sum   'U2 Fe12 P7'
_cell_volume   253.51420383
_cell_formula_units_Z   1
loop_
 _symmetry_equiv_pos_site_id
 _symmetry_equiv_pos_as_xyz
  1  'x, y, z'
loop_
 _atom_site_type_symbol
 _atom_site_label
 _atom_site_symmetry_multiplicity
 _atom_site_fract_x
 _atom_site_fract_y
 _atom_site_fract_z
 _atom_site_occupancy
  U  U0  1  0.33333970  0.66664636  0.00000000  1
  U  U1  1  0.66668639  0.33334734  0.50000000  1
  Fe  Fe2  1  0.14968576  0.27461883  0.00000000  1
  Fe  Fe3  1  0.72539646  0.87507469  0.00000000  1
  Fe  Fe4  1  0.12490576  0.85031139  0.00000000  1
  Fe  Fe5  1  0.37970627  0.44128253  0.50000000  1
  Fe  Fe6  1  0.55872167  0.93843828  0.50000000  1
  Fe  Fe7  1  0.06151842  0.62028171  0.50000000  1
  Fe  Fe8  1  0.43936973  0.06949932  0.00000000  1
  Fe  Fe9  1  0.93050715  0.36985211  0.00000000  1
  Fe  Fe10  1  0.63014645  0.56062696  0.00000000  1
  Fe  Fe11  1  0.22869928  0.10614972  0.50000000  1
  Fe  Fe12  1  0.89386661  0.12255866  0.50000000  1
  Fe  Fe13  1  0.87744290  0.77130980  0.50000000  1
  P  P14  1  0.10491163  0.39724138  0.50000000  1
  P  P15  1  0.60275986  0.70767191  0.50000000  1
  P  P16  1  0.29231793  0.89507378  0.50000000  1
  P  P17  1  -0.00000086  0.00001064  0.00000000  1
  P  P18  1  0.40160541  0.29641894  0.00000000  1
  P  P19  1  0.70357159  0.10516983  0.00000000  1
  P  P20  1  0.89484389  0.59841682  0.00000000  1
