# generated using pymatgen
data_PmSi3
_symmetry_space_group_name_H-M   'P 1'
_cell_length_a   6.15847396
_cell_length_b   6.14838619
_cell_length_c   4.62472756
_cell_angle_alpha   90.00000000
_cell_angle_beta   90.00000000
_cell_angle_gamma   119.99967630
_symmetry_Int_Tables_number   1
_chemical_formula_structural   PmSi3
_chemical_formula_sum   'Pm2 Si6'
_cell_volume   151.65350423
_cell_formula_units_Z   2
loop_
 _symmetry_equiv_pos_site_id
 _symmetry_equiv_pos_as_xyz
  1  'x, y, z'
loop_
 _atom_site_type_symbol
 _atom_site_label
 _atom_site_symmetry_multiplicity
 _atom_site_fract_x
 _atom_site_fract_y
 _atom_site_fract_z
 _atom_site_occupancy
  Pm  Pm0  1  0.66654040  0.33320792  0.25000000  1
  Pm  Pm1  1  0.33345172  0.66678603  0.75000100  1
  Si  Si2  1  0.86346633  0.13645733  0.75000100  1
  Si  Si3  1  0.27296542  0.13643614  0.75000100  1
  Si  Si4  1  0.86346902  0.72700992  0.75000100  1
  Si  Si5  1  0.13654076  0.86354298  0.25000000  1
  Si  Si6  1  0.72703309  0.86356361  0.25000000  1
  Si  Si7  1  0.13653626  0.27299707  0.25000000  1
