# generated using pymatgen
data_U2Ni12As7
_symmetry_space_group_name_H-M   'P 1'
_cell_length_a   9.38260742
_cell_length_b   9.37716064
_cell_length_c   3.80553501
_cell_angle_alpha   90.00000000
_cell_angle_beta   90.00000000
_cell_angle_gamma   119.89137011
_symmetry_Int_Tables_number   1
_chemical_formula_structural   U2Ni12As7
_chemical_formula_sum   'U2 Ni12 As7'
_cell_volume   290.27899118
_cell_formula_units_Z   1
loop_
 _symmetry_equiv_pos_site_id
 _symmetry_equiv_pos_as_xyz
  1  'x, y, z'
loop_
 _atom_site_type_symbol
 _atom_site_label
 _atom_site_symmetry_multiplicity
 _atom_site_fract_x
 _atom_site_fract_y
 _atom_site_fract_z
 _atom_site_occupancy
  U  U0  1  0.33352032  0.66691547  0.49999900  1
  U  U1  1  0.66611570  0.33320067  0.00000000  1
  Ni  Ni2  1  0.42589495  0.38415534  0.49999900  1
  Ni  Ni3  1  0.61594813  0.04181177  0.49999900  1
  Ni  Ni4  1  0.95779729  0.57371893  0.49999900  1
  Ni  Ni5  1  0.38910155  0.94762988  0.00000000  1
  Ni  Ni6  1  0.05160337  0.44124004  0.00000000  1
  Ni  Ni7  1  0.55839368  0.61016284  0.00000000  1
  Ni  Ni8  1  0.11620204  0.90313676  0.49999900  1
  Ni  Ni9  1  0.09723786  0.21310345  0.49999900  1
  Ni  Ni10  1  0.78789498  0.88458925  0.49999900  1
  Ni  Ni11  1  0.28152377  0.15328833  0.00000000  1
  Ni  Ni12  1  0.84675181  0.12786185  0.00000000  1
  Ni  Ni13  1  0.87149872  0.71887695  0.00000000  1
  As  As14  1  0.00076953  0.00037804  0.00000000  1
  As  As15  1  0.28055735  0.40336170  0.00000000  1
  As  As16  1  0.59718109  0.87735894  0.00000000  1
  As  As17  1  0.12238384  0.71965910  0.00000000  1
  As  As18  1  0.40849996  0.11413793  0.49999900  1
  As  As19  1  0.88575892  0.29392938  0.49999900  1
  As  As20  1  0.70536512  0.59148537  0.49999900  1
