# generated using pymatgen
data_CsCr5Te8
_symmetry_space_group_name_H-M   'P 1'
_cell_length_a   10.47314711
_cell_length_b   10.47315416
_cell_length_c   9.68912155
_cell_angle_alpha   76.20250771
_cell_angle_beta   103.79744601
_cell_angle_gamma   157.74172823
_symmetry_Int_Tables_number   1
_chemical_formula_structural   CsCr5Te8
_chemical_formula_sum   'Cs1 Cr5 Te8'
_cell_volume   390.48586619
_cell_formula_units_Z   1
loop_
 _symmetry_equiv_pos_site_id
 _symmetry_equiv_pos_as_xyz
  1  'x, y, z'
loop_
 _atom_site_type_symbol
 _atom_site_label
 _atom_site_symmetry_multiplicity
 _atom_site_fract_x
 _atom_site_fract_y
 _atom_site_fract_z
 _atom_site_occupancy
  Cs  Cs0  1  0.50000702  0.49999694  0.50000672  1
  Cr  Cr1  1  0.34027497  0.65974347  0.01158475  1
  Cr  Cr2  1  0.65975450  0.34027792  0.98841028  1
  Cr  Cr3  1  0.29615440  0.70386092  0.66913485  1
  Cr  Cr4  1  0.70382397  0.29612287  0.33088369  1
  Cr  Cr5  1  0.99998432  0.00001906  0.99996911  1
  Te  Te6  1  0.23938925  0.76062278  0.15814012  1
  Te  Te7  1  0.76063077  0.23938039  0.84187675  1
  Te  Te8  1  0.57258334  0.42740803  0.15950819  1
  Te  Te9  1  0.42739797  0.57258523  0.84046769  1
  Te  Te10  1  0.09056820  0.90943283  0.83503401  1
  Te  Te11  1  0.90943985  0.09056756  0.16497272  1
  Te  Te12  1  0.17194795  0.82805319  0.49174847  1
  Te  Te13  1  0.82806347  0.17194781  0.50826364  1
