# generated using pymatgen
data_Zr6Al16Ru7
_symmetry_space_group_name_H-M   'P 1'
_cell_length_a   8.74774110
_cell_length_b   8.74784104
_cell_length_c   8.74773699
_cell_angle_alpha   60.00072369
_cell_angle_beta   60.00001265
_cell_angle_gamma   59.99994711
_symmetry_Int_Tables_number   1
_chemical_formula_structural   Zr6Al16Ru7
_chemical_formula_sum   'Zr6 Al16 Ru7'
_cell_volume   473.34714936
_cell_formula_units_Z   1
loop_
 _symmetry_equiv_pos_site_id
 _symmetry_equiv_pos_as_xyz
  1  'x, y, z'
loop_
 _atom_site_type_symbol
 _atom_site_label
 _atom_site_symmetry_multiplicity
 _atom_site_fract_x
 _atom_site_fract_y
 _atom_site_fract_z
 _atom_site_occupancy
  Zr  Zr0  1  0.70370738  0.29629850  0.29629149  1
  Zr  Zr1  1  0.29629281  0.70370150  0.70370877  1
  Zr  Zr2  1  0.29629213  0.70370096  0.29629677  1
  Zr  Zr3  1  0.29628658  0.29629920  0.70370644  1
  Zr  Zr4  1  0.70370826  0.29629870  0.70370309  1
  Zr  Zr5  1  0.70371443  0.70370074  0.29629294  1
  Al  Al6  1  0.33655799  0.33653027  0.33655304  1
  Al  Al7  1  0.33655923  0.33652684  0.99035777  1
  Al  Al8  1  0.99036169  0.33653791  0.33654929  1
  Al  Al9  1  0.33656156  0.99035128  0.33654029  1
  Al  Al10  1  0.66344178  0.66346983  0.66344663  1
  Al  Al11  1  0.66344053  0.66347347  0.00964277  1
  Al  Al12  1  0.66343877  0.00964807  0.66345994  1
  Al  Al13  1  0.00963760  0.66346258  0.66345100  1
  Al  Al14  1  0.11949739  0.11947205  0.11948046  1
  Al  Al15  1  0.11949349  0.11947213  0.64155395  1
  Al  Al16  1  0.64154878  0.11946989  0.11948884  1
  Al  Al17  1  0.11948161  0.64156076  0.11947887  1
  Al  Al18  1  0.88050301  0.88052853  0.88052060  1
  Al  Al19  1  0.88050672  0.88052849  0.35844625  1
  Al  Al20  1  0.88051853  0.35843957  0.88052197  1
  Al  Al21  1  0.35845119  0.88053045  0.88051214  1
  Ru  Ru22  1  0.49999912  0.00000063  -0.00000032  1
  Ru  Ru23  1  0.00000107  0.49999996  0.49999943  1
  Ru  Ru24  1  0.00000032  0.49999981  0.99999972  1
  Ru  Ru25  1  -0.00000001  0.99999959  0.50000012  1
  Ru  Ru26  1  0.49999979  0.00000111  0.50000009  1
  Ru  Ru27  1  0.50000076  0.49999965  0.00000032  1
  Ru  Ru28  1  0.00000052  0.00000050  0.00000034  1
