# generated using pymatgen
data_Cs9AlO4
_symmetry_space_group_name_H-M   'P 1'
_cell_length_a   12.48836400
_cell_length_b   12.48836400
_cell_length_c   12.48836400
_cell_angle_alpha   104.91518246
_cell_angle_beta   104.91518246
_cell_angle_gamma   119.02703684
_symmetry_Int_Tables_number   1
_chemical_formula_structural   Cs9AlO4
_chemical_formula_sum   'Cs18 Al2 O8'
_cell_volume   1467.58402052
_cell_formula_units_Z   2
loop_
 _symmetry_equiv_pos_site_id
 _symmetry_equiv_pos_as_xyz
  1  'x, y, z'
loop_
 _atom_site_type_symbol
 _atom_site_label
 _atom_site_symmetry_multiplicity
 _atom_site_fract_x
 _atom_site_fract_y
 _atom_site_fract_z
 _atom_site_occupancy
  Cs  Cs0  1  0.08320031  0.58319931  0.66639962  1
  Cs  Cs1  1  0.91680069  0.41679969  0.33360038  1
  Cs  Cs2  1  0.41680069  0.08320031  0.50000100  1
  Cs  Cs3  1  0.58320031  0.91680069  0.50000100  1
  Cs  Cs4  1  0.00000000  0.00000000  0.00000000  1
  Cs  Cs5  1  0.50000000  0.50000000  0.00000000  1
  Cs  Cs6  1  0.25000000  0.51893824  0.26893824  1
  Cs  Cs7  1  0.25000000  0.98106276  0.73106276  1
  Cs  Cs8  1  0.98106276  0.25000000  0.73106276  1
  Cs  Cs9  1  0.51893824  0.25000000  0.26893824  1
  Cs  Cs10  1  0.74999900  0.48106276  0.73106176  1
  Cs  Cs11  1  0.74999900  0.01893724  0.26893724  1
  Cs  Cs12  1  0.01893724  0.74999900  0.26893724  1
  Cs  Cs13  1  0.48106276  0.74999900  0.73106176  1
  Cs  Cs14  1  0.66745608  0.16745608  0.83491316  1
  Cs  Cs15  1  0.33254392  0.83254292  0.16508684  1
  Cs  Cs16  1  0.83254292  0.66745608  0.49999900  1
  Cs  Cs17  1  0.16745608  0.33254292  0.49999900  1
  Al  Al18  1  0.74999900  0.25000000  0.49999900  1
  Al  Al19  1  0.25000000  0.74999900  0.49999900  1
  O  O20  1  0.73352387  0.23352387  0.63683044  1
  O  O21  1  0.59669243  0.09669343  0.36316856  1
  O  O22  1  0.76647613  0.40330657  0.49999900  1
  O  O23  1  0.90330757  0.26647613  0.50000000  1
  O  O24  1  0.26647613  0.76647613  0.36316856  1
  O  O25  1  0.40330657  0.90330757  0.63683044  1
  O  O26  1  0.09669343  0.73352387  0.50000000  1
  O  O27  1  0.23352387  0.59669243  0.49999900  1
