# generated using pymatgen
data_Ce3SiAgS7
_symmetry_space_group_name_H-M   'P 1'
_cell_length_a   10.35127667
_cell_length_b   10.30797171
_cell_length_c   5.77341126
_cell_angle_alpha   90.00000000
_cell_angle_beta   90.00000000
_cell_angle_gamma   119.88768899
_symmetry_Int_Tables_number   1
_chemical_formula_structural   Ce3SiAgS7
_chemical_formula_sum   'Ce6 Si2 Ag2 S14'
_cell_volume   534.09762833
_cell_formula_units_Z   2
loop_
 _symmetry_equiv_pos_site_id
 _symmetry_equiv_pos_as_xyz
  1  'x, y, z'
loop_
 _atom_site_type_symbol
 _atom_site_label
 _atom_site_symmetry_multiplicity
 _atom_site_fract_x
 _atom_site_fract_y
 _atom_site_fract_z
 _atom_site_occupancy
  Ce  Ce0  1  0.12428654  0.35930997  0.24780454  1
  Ce  Ce1  1  0.87571146  0.64068803  0.74780654  1
  Ce  Ce2  1  0.64060878  0.76518619  0.24785457  1
  Ce  Ce3  1  0.23455484  0.87559971  0.24858498  1
  Ce  Ce4  1  0.76544716  0.12440129  0.74858298  1
  Ce  Ce5  1  0.35939122  0.23481281  0.74785457  1
  Si  Si6  1  0.33325865  0.66677030  0.66072536  1
  Si  Si7  1  0.66674135  0.33322970  0.16072536  1
  Ag  Ag8  1  -0.00018285  -0.00020428  0.30836535  1
  Ag  Ag9  1  0.00018285  0.00020428  0.80836635  1
  S  S10  1  0.33351665  0.66672050  0.02769184  1
  S  S11  1  0.66648535  0.33328050  0.52769384  1
  S  S12  1  0.40997998  0.52525542  0.51646710  1
  S  S13  1  0.59002002  0.47474458  0.01646910  1
  S  S14  1  0.47491476  0.88492745  0.51632611  1
  S  S15  1  0.11464673  0.58926356  0.51621718  1
  S  S16  1  0.88535327  0.41073644  0.01621618  1
  S  S17  1  0.52508424  0.11507155  0.01632711  1
  S  S18  1  0.09102662  0.26718883  0.76227148  1
  S  S19  1  0.90897238  0.73280917  0.26227348  1
  S  S20  1  0.73207542  0.82320540  0.76150136  1
  S  S21  1  0.17586312  0.90871129  0.76218614  1
  S  S22  1  0.82413688  0.09128771  0.26218614  1
  S  S23  1  0.26792558  0.17679560  0.26150336  1
