# generated using pymatgen
data_Ce3AgGeS7
_symmetry_space_group_name_H-M   'P 1'
_cell_length_a   10.37653987
_cell_length_b   10.39165678
_cell_length_c   5.87445854
_cell_angle_alpha   90.09929152
_cell_angle_beta   89.78074967
_cell_angle_gamma   120.19216552
_symmetry_Int_Tables_number   1
_chemical_formula_structural   Ce3AgGeS7
_chemical_formula_sum   'Ce6 Ag2 Ge2 S14'
_cell_volume   547.50540975
_cell_formula_units_Z   2
loop_
 _symmetry_equiv_pos_site_id
 _symmetry_equiv_pos_as_xyz
  1  'x, y, z'
loop_
 _atom_site_type_symbol
 _atom_site_label
 _atom_site_symmetry_multiplicity
 _atom_site_fract_x
 _atom_site_fract_y
 _atom_site_fract_z
 _atom_site_occupancy
  Ce  Ce0  1  0.12850350  0.35970383  0.25435604  1
  Ce  Ce1  1  0.87161626  0.64027324  0.75430389  1
  Ce  Ce2  1  0.64029954  0.76847227  0.25443284  1
  Ce  Ce3  1  0.23146229  0.87180558  0.25432812  1
  Ce  Ce4  1  0.76856453  0.12816608  0.75432948  1
  Ce  Ce5  1  0.35997766  0.23151035  0.75443141  1
  Ag  Ag6  1  -0.00016730  -0.00005338  0.31140707  1
  Ag  Ag7  1  0.00001236  0.00005038  0.81132630  1
  Ge  Ge8  1  0.33332349  0.66662998  0.67251393  1
  Ge  Ge9  1  0.66629494  0.33317177  0.17246957  1
  S  S10  1  0.33346338  0.66703566  0.04893957  1
  S  S11  1  0.66634607  0.33290030  0.54887822  1
  S  S12  1  0.41480775  0.52178711  0.51648528  1
  S  S13  1  0.58508570  0.47813500  0.01643849  1
  S  S14  1  0.47867409  0.89335236  0.51640656  1
  S  S15  1  0.10659371  0.58503758  0.51642643  1
  S  S16  1  0.89344949  0.41499901  0.01596353  1
  S  S17  1  0.52142501  0.10672052  0.01640855  1
  S  S18  1  0.09636944  0.26795067  0.77545085  1
  S  S19  1  0.90371915  0.73201381  0.27549960  1
  S  S20  1  0.73167742  0.82804521  0.77545605  1
  S  S21  1  0.17190025  0.90390434  0.77500586  1
  S  S22  1  0.82818806  0.09625023  0.27543858  1
  S  S23  1  0.26841422  0.17213713  0.27530378  1
