# generated using pymatgen
data_Gd4Ni13C4
_symmetry_space_group_name_H-M   'P 1'
_cell_length_a   8.41684391
_cell_length_b   8.42269633
_cell_length_c   3.90507177
_cell_angle_alpha   90.09641358
_cell_angle_beta   90.27261525
_cell_angle_gamma   91.93119043
_symmetry_Int_Tables_number   1
_chemical_formula_structural   Gd4Ni13C4
_chemical_formula_sum   'Gd4 Ni13 C4'
_cell_volume   276.67953749
_cell_formula_units_Z   1
loop_
 _symmetry_equiv_pos_site_id
 _symmetry_equiv_pos_as_xyz
  1  'x, y, z'
loop_
 _atom_site_type_symbol
 _atom_site_label
 _atom_site_symmetry_multiplicity
 _atom_site_fract_x
 _atom_site_fract_y
 _atom_site_fract_z
 _atom_site_occupancy
  Gd  Gd0  1  0.18927287  0.81096243  0.50020499  1
  Gd  Gd1  1  0.81172504  0.18817709  0.49996021  1
  Gd  Gd2  1  0.34766948  0.34832378  0.49975418  1
  Gd  Gd3  1  0.65117959  0.65230368  0.50033770  1
  Ni  Ni4  1  0.00097619  0.99941833  0.00003507  1
  Ni  Ni5  1  0.56876432  0.21710719  0.99929073  1
  Ni  Ni6  1  0.42959284  0.78341873  0.00045391  1
  Ni  Ni7  1  0.78283640  0.43059355  0.00031376  1
  Ni  Ni8  1  0.21645189  0.57022620  0.99983000  1
  Ni  Ni9  1  0.49896123  0.00001049  0.49994879  1
  Ni  Ni10  1  0.00054755  0.50060554  0.49999235  1
  Ni  Ni11  1  0.28941877  0.07324005  0.00065643  1
  Ni  Ni12  1  0.71036321  0.92632844  0.99915640  1
  Ni  Ni13  1  0.92740671  0.71031490  0.99985033  1
  Ni  Ni14  1  0.07384245  0.28978634  0.00018632  1
  Ni  Ni15  1  0.12220075  0.12019488  0.50036500  1
  Ni  Ni16  1  0.87990941  0.87823179  0.49952406  1
  C  C17  1  0.50002852  0.00006825  0.00001311  1
  C  C18  1  0.00000806  0.49989784  -0.00001448  1
  C  C19  1  0.55532780  0.44449260  0.00024586  1
  C  C20  1  0.44351695  0.55629791  -0.00010473  1
