# generated using pymatgen
data_K2TaCuSe4
_symmetry_space_group_name_H-M   'P 1'
_cell_length_a   5.77350720
_cell_length_b   7.48871467
_cell_length_c   12.55419591
_cell_angle_alpha   84.91470424
_cell_angle_beta   76.70626470
_cell_angle_gamma   67.32642549
_symmetry_Int_Tables_number   1
_chemical_formula_structural   K2TaCuSe4
_chemical_formula_sum   'K4 Ta2 Cu2 Se8'
_cell_volume   487.42503431
_cell_formula_units_Z   2
loop_
 _symmetry_equiv_pos_site_id
 _symmetry_equiv_pos_as_xyz
  1  'x, y, z'
loop_
 _atom_site_type_symbol
 _atom_site_label
 _atom_site_symmetry_multiplicity
 _atom_site_fract_x
 _atom_site_fract_y
 _atom_site_fract_z
 _atom_site_occupancy
  K  K0  1  0.80469425  0.75000000  0.39061150  1
  K  K1  1  0.44530575  0.75000000  0.10938850  1
  K  K2  1  0.19530575  0.25000000  0.60938850  1
  K  K3  1  0.55469425  0.25000000  0.89061150  1
  Cu  Cu4  1  0.87500000  0.25000000  0.25000000  1
  Cu  Cu5  1  0.12500000  0.75000000  0.75000000  1
  Se  Se6  1  0.45955784  0.45402653  0.36367093  1
  Se  Se7  1  0.22274470  0.95402653  0.86367093  1
  Se  Se8  1  0.91358437  0.54597347  0.86367093  1
  Se  Se9  1  0.82322877  0.95402653  0.63632907  1
  Se  Se10  1  0.08641563  0.45402653  0.13632907  1
  Se  Se11  1  0.17677123  0.04597347  0.36367093  1
  Se  Se12  1  0.54044216  0.54597347  0.63632907  1
  Se  Se13  1  0.77725530  0.04597347  0.13632907  1
  Ta  Ta14  1  0.62500000  0.75000000  0.75000000  1
  Ta  Ta15  1  0.37500000  0.25000000  0.25000000  1
