# generated using pymatgen
data_Sr(BO2)2
_symmetry_space_group_name_H-M   'P 1'
_cell_length_a   4.38473141
_cell_length_b   6.75555013
_cell_length_c   12.08202894
_cell_angle_alpha   90.00000000
_cell_angle_beta   90.00000000
_cell_angle_gamma   90.00000000
_symmetry_Int_Tables_number   1
_chemical_formula_structural   Sr(BO2)2
_chemical_formula_sum   'Sr4 B8 O16'
_cell_volume   357.88507578
_cell_formula_units_Z   4
loop_
 _symmetry_equiv_pos_site_id
 _symmetry_equiv_pos_as_xyz
  1  'x, y, z'
loop_
 _atom_site_type_symbol
 _atom_site_label
 _atom_site_symmetry_multiplicity
 _atom_site_fract_x
 _atom_site_fract_y
 _atom_site_fract_z
 _atom_site_occupancy
  B  B0  1  0.67207905  0.37568615  0.80598442  1
  B  B1  1  0.67207905  0.12431385  0.19401558  1
  B  B2  1  0.82792095  0.87568615  0.69401558  1
  B  B3  1  0.82792095  0.62431385  0.30598442  1
  B  B4  1  0.17207905  0.12431385  0.30598442  1
  B  B5  1  0.17207905  0.37568615  0.69401558  1
  B  B6  1  0.32792095  0.62431385  0.19401558  1
  B  B7  1  0.32792095  0.87568615  0.80598442  1
  O  O8  1  0.23590797  0.59145961  0.09028037  1
  O  O9  1  0.73590797  0.90854039  0.59028037  1
  O  O10  1  0.76409203  0.09145961  0.09028037  1
  O  O11  1  0.73590797  0.59145961  0.40971963  1
  O  O12  1  0.85387507  0.35393908  0.71156180  1
  O  O13  1  0.85387507  0.14606092  0.28843820  1
  O  O14  1  0.64612493  0.85393908  0.78843820  1
  O  O15  1  0.64612493  0.64606092  0.21156180  1
  O  O16  1  0.14612493  0.64606092  0.28843820  1
  O  O17  1  0.14612493  0.85393908  0.71156180  1
  O  O18  1  0.35387507  0.14606092  0.21156180  1
  O  O19  1  0.35387507  0.35393908  0.78843820  1
  O  O20  1  0.26409203  0.09145961  0.40971963  1
  O  O21  1  0.26409203  0.40854039  0.59028037  1
  O  O22  1  0.76409203  0.40854039  0.90971963  1
  O  O23  1  0.23590797  0.90854039  0.90971963  1
  Sr  Sr24  1  0.23549011  0.25000000  0.00000000  1
  Sr  Sr25  1  0.26450989  0.75000000  0.50000000  1
  Sr  Sr26  1  0.76450989  0.75000000  0.00000000  1
  Sr  Sr27  1  0.73549011  0.25000000  0.50000000  1
