# generated using pymatgen
data_Dy2MgGe2
_symmetry_space_group_name_H-M   'P 1'
_cell_length_a   7.26595169
_cell_length_b   7.26595169
_cell_length_c   4.25242863
_cell_angle_alpha   90.00000000
_cell_angle_beta   90.00000000
_cell_angle_gamma   90.00000000
_symmetry_Int_Tables_number   1
_chemical_formula_structural   Dy2MgGe2
_chemical_formula_sum   'Dy4 Mg2 Ge4'
_cell_volume   224.50294656
_cell_formula_units_Z   2
loop_
 _symmetry_equiv_pos_site_id
 _symmetry_equiv_pos_as_xyz
  1  'x, y, z'
loop_
 _atom_site_type_symbol
 _atom_site_label
 _atom_site_symmetry_multiplicity
 _atom_site_fract_x
 _atom_site_fract_y
 _atom_site_fract_z
 _atom_site_occupancy
  Dy  Dy0  1  0.32276153  0.17723847  0.49999900  1
  Dy  Dy1  1  0.82276153  0.32276153  0.49999900  1
  Dy  Dy2  1  0.17723847  0.67723847  0.49999900  1
  Dy  Dy3  1  0.67723847  0.82276153  0.49999900  1
  Mg  Mg4  1  0.00000000  0.00000000  0.00000000  1
  Mg  Mg5  1  0.50000000  0.50000000  0.00000000  1
  Ge  Ge6  1  0.62355367  0.12355367  0.00000000  1
  Ge  Ge7  1  0.12355367  0.37644633  0.00000000  1
  Ge  Ge8  1  0.87644733  0.62355367  0.00000000  1
  Ge  Ge9  1  0.37644633  0.87644733  0.00000000  1
