# generated using pymatgen
data_RbUAuSe3
_symmetry_space_group_name_H-M   'P 1'
_cell_length_a   4.22126701
_cell_length_b   8.03493755
_cell_length_c   10.77095014
_cell_angle_alpha   89.87502181
_cell_angle_beta   90.00000000
_cell_angle_gamma   74.77073751
_symmetry_Int_Tables_number   1
_chemical_formula_structural   RbUAuSe3
_chemical_formula_sum   'Rb2 U2 Au2 Se6'
_cell_volume   352.49474552
_cell_formula_units_Z   2
loop_
 _symmetry_equiv_pos_site_id
 _symmetry_equiv_pos_as_xyz
  1  'x, y, z'
loop_
 _atom_site_type_symbol
 _atom_site_label
 _atom_site_symmetry_multiplicity
 _atom_site_fract_x
 _atom_site_fract_y
 _atom_site_fract_z
 _atom_site_occupancy
  Rb  Rb0  1  0.25047795  0.49904311  0.24996497  1
  Rb  Rb1  1  0.74952205  0.50095589  0.75003603  1
  U  U2  1  0.00000000  0.00000000  0.00000000  1
  U  U3  1  0.00000000  0.00000000  0.50000000  1
  Au  Au4  1  0.54289373  0.91421255  0.24983110  1
  Au  Au5  1  0.45710627  0.08578645  0.75016890  1
  Se  Se6  1  0.62335998  0.75328003  0.04127628  1
  Se  Se7  1  0.93477728  0.13044544  0.24984397  1
  Se  Se8  1  0.62344723  0.75310453  0.45921086  1
  Se  Se9  1  0.37655277  0.24689447  0.54078914  1
  Se  Se10  1  0.06522272  0.86955556  0.75015603  1
  Se  Se11  1  0.37664002  0.24671997  0.95872372  1
