# generated using pymatgen
data_LiMgPO4
_symmetry_space_group_name_H-M   'P 1'
_cell_length_a   4.73930228
_cell_length_b   5.97221008
_cell_length_c   10.25467534
_cell_angle_alpha   90.00000000
_cell_angle_beta   90.00000000
_cell_angle_gamma   90.00000000
_symmetry_Int_Tables_number   1
_chemical_formula_structural   LiMgPO4
_chemical_formula_sum   'Li4 Mg4 P4 O16'
_cell_volume   290.24944703
_cell_formula_units_Z   4
loop_
 _symmetry_equiv_pos_site_id
 _symmetry_equiv_pos_as_xyz
  1  'x, y, z'
loop_
 _atom_site_type_symbol
 _atom_site_label
 _atom_site_symmetry_multiplicity
 _atom_site_fract_x
 _atom_site_fract_y
 _atom_site_fract_z
 _atom_site_occupancy
  Li  Li0  1  0.00000000  0.00000000  0.00000000  1
  Li  Li1  1  0.50000000  0.00000000  0.50000000  1
  Li  Li2  1  0.00000000  0.50000000  0.00000000  1
  Li  Li3  1  0.50000000  0.50000000  0.50000000  1
  O  O4  1  0.78036452  0.54426555  0.33376044  1
  O  O5  1  0.21963548  0.45573445  0.66623956  1
  O  O6  1  0.71963548  0.54426555  0.83376044  1
  O  O7  1  0.78036452  0.95573445  0.33376044  1
  O  O8  1  0.28036452  0.04426555  0.16623956  1
  O  O9  1  0.74176819  0.25000000  0.10159965  1
  O  O10  1  0.28036452  0.45573445  0.16623956  1
  O  O11  1  0.21963548  0.04426555  0.66623956  1
  O  O12  1  0.25823181  0.75000000  0.89840035  1
  O  O13  1  0.75823181  0.25000000  0.60159965  1
  O  O14  1  0.80147996  0.75000000  0.54656502  1
  O  O15  1  0.24176819  0.75000000  0.39840035  1
  O  O16  1  0.69852004  0.75000000  0.04656502  1
  O  O17  1  0.30147996  0.25000000  0.95343498  1
  O  O18  1  0.19852004  0.25000000  0.45343498  1
  O  O19  1  0.71963548  0.95573445  0.83376044  1
  Mg  Mg20  1  0.01736980  0.75000000  0.72189343  1
  Mg  Mg21  1  0.98263020  0.25000000  0.27810657  1
  Mg  Mg22  1  0.48263020  0.75000000  0.22189343  1
  Mg  Mg23  1  0.51736980  0.25000000  0.77810657  1
  P  P24  1  0.08237707  0.25000000  0.59505251  1
  P  P25  1  0.41762293  0.25000000  0.09505251  1
  P  P26  1  0.91762293  0.75000000  0.40494749  1
  P  P27  1  0.58237707  0.75000000  0.90494749  1
