# generated using pymatgen
data_LaCoN3
_symmetry_space_group_name_H-M   'P 1'
_cell_length_a   4.06963034
_cell_length_b   5.77080097
_cell_length_c   7.51157973
_cell_angle_alpha   102.47658232
_cell_angle_beta   90.00000112
_cell_angle_gamma   110.64675594
_symmetry_Int_Tables_number   1
_chemical_formula_structural   LaCoN3
_chemical_formula_sum   'La2 Co2 N6'
_cell_volume   160.61959698
_cell_formula_units_Z   2
loop_
 _symmetry_equiv_pos_site_id
 _symmetry_equiv_pos_as_xyz
  1  'x, y, z'
loop_
 _atom_site_type_symbol
 _atom_site_label
 _atom_site_symmetry_multiplicity
 _atom_site_fract_x
 _atom_site_fract_y
 _atom_site_fract_z
 _atom_site_occupancy
  La  La0  1  0.83592205  0.67184410  0.19679364  1
  La  La1  1  0.16407795  0.32815590  0.80320636  1
  Co  Co2  1  0.54125888  0.08251776  0.15445413  1
  Co  Co3  1  0.45874112  0.91748224  0.84554587  1
  N  N4  1  0.36617178  0.73234355  0.02570941  1
  N  N5  1  0.63382822  0.26765645  0.97429059  1
  N  N6  1  0.60591848  0.21183697  0.38095055  1
  N  N7  1  0.35148479  0.70296959  0.45962015  1
  N  N8  1  0.39408152  0.78816303  0.61904945  1
  N  N9  1  0.64851521  0.29703041  0.54037985  1
