# generated using pymatgen
data_Ba2CaCo2CuF14
_symmetry_space_group_name_H-M   'P 1'
_cell_length_a   5.43985996
_cell_length_b   7.46855769
_cell_length_c   14.92827393
_cell_angle_alpha   91.94763714
_cell_angle_beta   89.51491560
_cell_angle_gamma   111.23504426
_symmetry_Int_Tables_number   1
_chemical_formula_structural   Ba2CaCo2CuF14
_chemical_formula_sum   'Ba4 Ca2 Co4 Cu2 F28'
_cell_volume   564.99296880
_cell_formula_units_Z   2
loop_
 _symmetry_equiv_pos_site_id
 _symmetry_equiv_pos_as_xyz
  1  'x, y, z'
loop_
 _atom_site_type_symbol
 _atom_site_label
 _atom_site_symmetry_multiplicity
 _atom_site_fract_x
 _atom_site_fract_y
 _atom_site_fract_z
 _atom_site_occupancy
  Ba  Ba0  1  0.11803246  0.37695300  0.62298193  1
  Ba  Ba1  1  0.26151759  0.38422616  0.12265457  1
  Ba  Ba2  1  0.88532499  0.62045564  0.37625811  1
  Ba  Ba3  1  0.73432010  0.61594402  0.87818127  1
  Ca  Ca4  1  0.41699366  0.00274371  0.75023294  1
  Ca  Ca5  1  0.57763188  0.99918738  0.24999787  1
  Co  Co6  1  0.09226032  0.24108921  0.87600622  1
  Co  Co7  1  0.90405028  0.75778888  0.12481534  1
  Co  Co8  1  0.14763104  0.24176632  0.37581974  1
  Co  Co9  1  0.85217386  0.75746768  0.62476634  1
  Cu  Cu10  1  0.49898002  0.99623132  0.00115564  1
  Cu  Cu11  1  0.50296058  0.00293951  0.50083415  1
  F  F12  1  0.92266167  0.98873146  0.34682892  1
  F  F13  1  0.87756912  0.27604973  0.45601111  1
  F  F14  1  0.11829551  0.72651800  0.54643741  1
  F  F15  1  0.65082709  0.49570837  0.59765749  1
  F  F16  1  0.61374892  0.10916641  0.61761233  1
  F  F17  1  0.49830106  0.88983316  0.88403391  1
  F  F18  1  0.39418391  0.27392600  0.95525644  1
  F  F19  1  0.93942972  0.00994679  0.15363132  1
  F  F20  1  0.35593968  0.31788266  0.77735524  1
  F  F21  1  0.34525665  0.50055785  0.40184866  1
  F  F22  1  0.82208488  0.24340026  0.79274350  1
  F  F23  1  0.15167665  0.49963160  0.90314237  1
  F  F24  1  0.42288169  0.24545390  0.29072603  1
  F  F25  1  0.18112685  0.75518851  0.21212483  1
  F  F26  1  0.49996102  0.11058157  0.11595492  1
  F  F27  1  0.65556896  0.68401478  0.21928248  1
  F  F28  1  0.12691954  0.82963805  0.02366323  1
  F  F29  1  0.08024595  0.01426656  0.65481061  1
  F  F30  1  0.86776148  0.16737671  0.98350379  1
  F  F31  1  0.69811065  0.82837553  0.51844264  1
  F  F32  1  0.59153425  0.72035128  0.04243143  1
  F  F33  1  0.58501279  0.75786615  0.70855023  1
  F  F34  1  0.96294116  0.31667451  0.27711999  1
  F  F35  1  0.29672529  0.17009865  0.48257305  1
  F  F36  1  0.38864752  0.89234644  0.38570226  1
  F  F37  1  0.06275399  0.98789509  0.84817499  1
  F  F38  1  0.04001613  0.68288792  0.72321420  1
  F  F39  1  0.84342311  0.50325222  0.09622452  1
