# generated using pymatgen
data_Ba2MgCo2CuF14
_symmetry_space_group_name_H-M   'P 1'
_cell_length_a   5.33058726
_cell_length_b   7.45494070
_cell_length_c   14.58894944
_cell_angle_alpha   92.44254711
_cell_angle_beta   89.96842285
_cell_angle_gamma   110.98534131
_symmetry_Int_Tables_number   1
_chemical_formula_structural   Ba2MgCo2CuF14
_chemical_formula_sum   'Ba4 Mg2 Co4 Cu2 F28'
_cell_volume   540.74046755
_cell_formula_units_Z   2
loop_
 _symmetry_equiv_pos_site_id
 _symmetry_equiv_pos_as_xyz
  1  'x, y, z'
loop_
 _atom_site_type_symbol
 _atom_site_label
 _atom_site_symmetry_multiplicity
 _atom_site_fract_x
 _atom_site_fract_y
 _atom_site_fract_z
 _atom_site_occupancy
  Ba  Ba0  1  0.11096712  0.37667244  0.62463463  1
  Ba  Ba1  1  0.26185373  0.37480136  0.12424096  1
  Ba  Ba2  1  0.88942517  0.62466687  0.37447068  1
  Ba  Ba3  1  0.73455489  0.62352246  0.87482266  1
  Mg  Mg4  1  0.43975616  0.99926807  0.74985615  1
  Mg  Mg5  1  0.55913999  0.00118207  0.24994841  1
  Co  Co6  1  0.09786607  0.23568184  0.87273565  1
  Co  Co7  1  0.89967152  0.76368817  0.12637856  1
  Co  Co8  1  0.13770050  0.23644072  0.37280132  1
  Co  Co9  1  0.86256120  0.76509067  0.62656576  1
  Cu  Cu10  1  0.49893921  0.99969627  0.99968295  1
  Cu  Cu11  1  0.49962876  0.00065836  0.50002050  1
  F  F12  1  0.89503598  0.99204159  0.33845072  1
  F  F13  1  0.87097676  0.27903237  0.45650181  1
  F  F14  1  0.12884164  0.72198261  0.54350441  1
  F  F15  1  0.65551080  0.50745259  0.59831466  1
  F  F16  1  0.59949607  0.09959972  0.62298289  1
  F  F17  1  0.49994462  0.89983273  0.87636095  1
  F  F18  1  0.40626061  0.27804412  0.95610097  1
  F  F19  1  0.90686818  0.00889918  0.16116519  1
  F  F20  1  0.36146207  0.32109186  0.77386365  1
  F  F21  1  0.34744220  0.49378269  0.40137005  1
  F  F22  1  0.80208339  0.21908971  0.78845891  1
  F  F23  1  0.14721458  0.49312150  0.90094983  1
  F  F24  1  0.41789321  0.22050126  0.28812913  1
  F  F25  1  0.19529913  0.78383458  0.21153857  1
  F  F26  1  0.49939478  0.09921179  0.12300066  1
  F  F27  1  0.63603446  0.67878063  0.22531588  1
  F  F28  1  0.12264292  0.83729494  0.01676081  1
  F  F29  1  0.10340877  0.00922896  0.66117440  1
  F  F30  1  0.87579101  0.16108233  0.98223691  1
  F  F31  1  0.71563436  0.83975524  0.51672725  1
  F  F32  1  0.59121113  0.71990727  0.04280252  1
  F  F33  1  0.58332658  0.78045765  0.71087305  1
  F  F34  1  0.95959450  0.32285060  0.27342320  1
  F  F35  1  0.28512153  0.16233107  0.48291802  1
  F  F36  1  0.39989854  0.90180745  0.37641792  1
  F  F37  1  0.09470848  0.99129569  0.83867899  1
  F  F38  1  0.04096157  0.67997572  0.72564198  1
  F  F39  1  0.84556780  0.50606686  0.09729842  1
