# generated using pymatgen
data_Mg2Bi
_symmetry_space_group_name_H-M   'P 1'
_cell_length_a   3.51100661
_cell_length_b   6.28966242
_cell_length_c   7.99610849
_cell_angle_alpha   68.87112933
_cell_angle_beta   90.00253567
_cell_angle_gamma   106.26875378
_symmetry_Int_Tables_number   1
_chemical_formula_structural   Mg2Bi
_chemical_formula_sum   'Mg4 Bi2'
_cell_volume   157.10443764
_cell_formula_units_Z   2
loop_
 _symmetry_equiv_pos_site_id
 _symmetry_equiv_pos_as_xyz
  1  'x, y, z'
loop_
 _atom_site_type_symbol
 _atom_site_label
 _atom_site_symmetry_multiplicity
 _atom_site_fract_x
 _atom_site_fract_y
 _atom_site_fract_z
 _atom_site_occupancy
  Mg  Mg0  1  0.99134737  0.98261305  0.00004227  1
  Mg  Mg1  1  0.73087263  0.46183195  0.05551173  1
  Mg  Mg2  1  0.31018464  0.62038179  0.33304460  1
  Mg  Mg3  1  0.41203836  0.82406421  0.72250940  1
  Bi  Bi4  1  0.03810484  0.07617435  0.35043967  1
  Bi  Bi5  1  0.68411516  0.36827065  0.70511633  1
