# generated using pymatgen
data_Ho2MnOs
_symmetry_space_group_name_H-M   'P 1'
_cell_length_a   4.88743927
_cell_length_b   4.88751832
_cell_length_c   4.88746559
_cell_angle_alpha   60.00012644
_cell_angle_beta   59.99876668
_cell_angle_gamma   59.99844267
_symmetry_Int_Tables_number   1
_chemical_formula_structural   Ho2MnOs
_chemical_formula_sum   'Ho2 Mn1 Os1'
_cell_volume   82.55240740
_cell_formula_units_Z   1
loop_
 _symmetry_equiv_pos_site_id
 _symmetry_equiv_pos_as_xyz
  1  'x, y, z'
loop_
 _atom_site_type_symbol
 _atom_site_label
 _atom_site_symmetry_multiplicity
 _atom_site_fract_x
 _atom_site_fract_y
 _atom_site_fract_z
 _atom_site_occupancy
  Ho  Ho0  1  0.00000041  0.00001114  0.99999803  1
  Ho  Ho1  1  0.50000318  0.50000187  0.49998487  1
  Mn  Mn2  1  0.24999317  0.24999575  0.25000968  1
  Os  Os3  1  0.75000524  0.74999325  0.75000942  1
