# generated using pymatgen
data_HoSI
_symmetry_space_group_name_H-M   'P 1'
_cell_length_a   4.16203775
_cell_length_b   5.34899164
_cell_length_c   10.13425211
_cell_angle_alpha   90.00000000
_cell_angle_beta   90.00000000
_cell_angle_gamma   90.00000000
_symmetry_Int_Tables_number   1
_chemical_formula_structural   HoSI
_chemical_formula_sum   'Ho2 S2 I2'
_cell_volume   225.61586644
_cell_formula_units_Z   2
loop_
 _symmetry_equiv_pos_site_id
 _symmetry_equiv_pos_as_xyz
  1  'x, y, z'
loop_
 _atom_site_type_symbol
 _atom_site_label
 _atom_site_symmetry_multiplicity
 _atom_site_fract_x
 _atom_site_fract_y
 _atom_site_fract_z
 _atom_site_occupancy
  Ho  Ho0  1  0.75000000  0.75000000  0.88948529  1
  Ho  Ho1  1  0.25000000  0.25000000  0.11051471  1
  S  S2  1  0.75000000  0.25000000  0.93675506  1
  S  S3  1  0.25000000  0.75000000  0.06324494  1
  I  I4  1  0.75000000  0.25000000  0.32941897  1
  I  I5  1  0.25000000  0.75000000  0.67058103  1
