# generated using pymatgen
data_HoZnIn
_symmetry_space_group_name_H-M   'P 1'
_cell_length_a   4.68274493
_cell_length_b   4.68232656
_cell_length_c   7.21870268
_cell_angle_alpha   90.00000000
_cell_angle_beta   90.00000000
_cell_angle_gamma   120.00295569
_symmetry_Int_Tables_number   1
_chemical_formula_structural   HoZnIn
_chemical_formula_sum   'Ho2 Zn2 In2'
_cell_volume   137.06893942
_cell_formula_units_Z   2
loop_
 _symmetry_equiv_pos_site_id
 _symmetry_equiv_pos_as_xyz
  1  'x, y, z'
loop_
 _atom_site_type_symbol
 _atom_site_label
 _atom_site_symmetry_multiplicity
 _atom_site_fract_x
 _atom_site_fract_y
 _atom_site_fract_z
 _atom_site_occupancy
  Ho  Ho0  1  0.00000000  0.00000000  0.50000000  1
  Ho  Ho1  1  0.00000000  0.00000000  0.00000000  1
  Zn  Zn2  1  0.33331773  0.66663546  0.75000000  1
  Zn  Zn3  1  0.66668227  0.33336454  0.25000000  1
  In  In4  1  0.33332192  0.66664384  0.25000000  1
  In  In5  1  0.66667808  0.33335616  0.75000000  1
