# generated using pymatgen
data_Li3DySb2
_symmetry_space_group_name_H-M   'P 1'
_cell_length_a   4.54711219
_cell_length_b   4.54715796
_cell_length_c   7.16920264
_cell_angle_alpha   90.00000000
_cell_angle_beta   90.00273510
_cell_angle_gamma   120.00033640
_symmetry_Int_Tables_number   1
_chemical_formula_structural   Li3DySb2
_chemical_formula_sum   'Li3 Dy1 Sb2'
_cell_volume   128.37360165
_cell_formula_units_Z   1
loop_
 _symmetry_equiv_pos_site_id
 _symmetry_equiv_pos_as_xyz
  1  'x, y, z'
loop_
 _atom_site_type_symbol
 _atom_site_label
 _atom_site_symmetry_multiplicity
 _atom_site_fract_x
 _atom_site_fract_y
 _atom_site_fract_z
 _atom_site_occupancy
  Li  Li0  1  0.66661958  0.33330979  0.35287368  1
  Li  Li1  1  0.33338042  0.66669021  0.64712632  1
  Li  Li2  1  0.00000000  0.00000000  0.50000000  1
  Dy  Dy3  1  0.00000000  0.00000000  0.00000000  1
  Sb  Sb4  1  0.66659908  0.33329954  0.75284760  1
  Sb  Sb5  1  0.33340092  0.66670046  0.24715240  1
