# generated using pymatgen
data_Li3CeSb2
_symmetry_space_group_name_H-M   'P 1'
_cell_length_a   4.60188948
_cell_length_b   4.60160098
_cell_length_c   7.36768126
_cell_angle_alpha   89.99999998
_cell_angle_beta   89.99696817
_cell_angle_gamma   119.99792638
_symmetry_Int_Tables_number   1
_chemical_formula_structural   Li3CeSb2
_chemical_formula_sum   'Li3 Ce1 Sb2'
_cell_volume   135.11876780
_cell_formula_units_Z   1
loop_
 _symmetry_equiv_pos_site_id
 _symmetry_equiv_pos_as_xyz
  1  'x, y, z'
loop_
 _atom_site_type_symbol
 _atom_site_label
 _atom_site_symmetry_multiplicity
 _atom_site_fract_x
 _atom_site_fract_y
 _atom_site_fract_z
 _atom_site_occupancy
  Li  Li0  1  0.66660960  0.33330480  0.35589695  1
  Li  Li1  1  0.33339040  0.66669520  0.64410305  1
  Li  Li2  1  0.00000000  0.00000000  0.50000000  1
  Ce  Ce3  1  0.00000000  0.00000000  0.00000000  1
  Sb  Sb4  1  0.66661535  0.33330767  0.74479616  1
  Sb  Sb5  1  0.33338465  0.66669233  0.25520384  1
