# generated using pymatgen
data_Li3NdSb2
_symmetry_space_group_name_H-M   'P 1'
_cell_length_a   4.61534305
_cell_length_b   4.61546654
_cell_length_c   7.34112939
_cell_angle_alpha   90.00000001
_cell_angle_beta   89.99993333
_cell_angle_gamma   120.00088169
_symmetry_Int_Tables_number   1
_chemical_formula_structural   Li3NdSb2
_chemical_formula_sum   'Li3 Nd1 Sb2'
_cell_volume   135.42824340
_cell_formula_units_Z   1
loop_
 _symmetry_equiv_pos_site_id
 _symmetry_equiv_pos_as_xyz
  1  'x, y, z'
loop_
 _atom_site_type_symbol
 _atom_site_label
 _atom_site_symmetry_multiplicity
 _atom_site_fract_x
 _atom_site_fract_y
 _atom_site_fract_z
 _atom_site_occupancy
  Li  Li0  1  0.00000000  0.00000000  0.50000000  1
  Li  Li1  1  0.66662431  0.33331215  0.35223610  1
  Li  Li2  1  0.33337569  0.66668785  0.64776390  1
  Nd  Nd3  1  0.00000000  0.00000000  0.00000000  1
  Sb  Sb4  1  0.66663934  0.33331967  0.74562425  1
  Sb  Sb5  1  0.33336066  0.66668033  0.25437575  1
