# generated using pymatgen
data_Li3LaAs2
_symmetry_space_group_name_H-M   'P 1'
_cell_length_a   4.36576327
_cell_length_b   4.36586848
_cell_length_c   7.05234785
_cell_angle_alpha   90.00000002
_cell_angle_beta   89.99671658
_cell_angle_gamma   120.00080361
_symmetry_Int_Tables_number   1
_chemical_formula_structural   Li3LaAs2
_chemical_formula_sum   'Li3 La1 As2'
_cell_volume   116.41037034
_cell_formula_units_Z   1
loop_
 _symmetry_equiv_pos_site_id
 _symmetry_equiv_pos_as_xyz
  1  'x, y, z'
loop_
 _atom_site_type_symbol
 _atom_site_label
 _atom_site_symmetry_multiplicity
 _atom_site_fract_x
 _atom_site_fract_y
 _atom_site_fract_z
 _atom_site_occupancy
  Li  Li0  1  -0.00000000  -0.00000000  0.50000000  1
  Li  Li1  1  0.66668891  0.33334446  0.64433228  1
  Li  Li2  1  0.33331109  0.66665554  0.35566772  1
  La  La3  1  0.00000000  0.00000000  -0.00000000  1
  As  As4  1  0.66666315  0.33333158  0.25921120  1
  As  As5  1  0.33333685  0.66666842  0.74078880  1
