# generated using pymatgen
data_LiCe(CuP)2
_symmetry_space_group_name_H-M   'P 1'
_cell_length_a   4.01234975
_cell_length_b   4.01545993
_cell_length_c   6.73929868
_cell_angle_alpha   90.00000000
_cell_angle_beta   89.76347614
_cell_angle_gamma   120.02564065
_symmetry_Int_Tables_number   1
_chemical_formula_structural   LiCe(CuP)2
_chemical_formula_sum   'Li1 Ce1 Cu2 P2'
_cell_volume   94.00743672
_cell_formula_units_Z   1
loop_
 _symmetry_equiv_pos_site_id
 _symmetry_equiv_pos_as_xyz
  1  'x, y, z'
loop_
 _atom_site_type_symbol
 _atom_site_label
 _atom_site_symmetry_multiplicity
 _atom_site_fract_x
 _atom_site_fract_y
 _atom_site_fract_z
 _atom_site_occupancy
  Li  Li0  1  0.00000000  0.00000000  0.50000000  1
  Ce  Ce1  1  -0.00000000  -0.00000000  0.00000000  1
  Cu  Cu2  1  0.66643424  0.33321712  0.33939908  1
  Cu  Cu3  1  0.33356576  0.66678288  0.66060092  1
  P  P4  1  0.66666918  0.33333459  0.73115606  1
  P  P5  1  0.33333082  0.66666541  0.26884394  1
