# generated using pymatgen
data_Cu3Ni(CO5)2
_symmetry_space_group_name_H-M   'P 1'
_cell_length_a   3.03280172
_cell_length_b   8.95936445
_cell_length_c   12.35641598
_cell_angle_alpha   90.00000000
_cell_angle_beta   96.44078868
_cell_angle_gamma   90.00000000
_symmetry_Int_Tables_number   1
_chemical_formula_structural   Cu3Ni(CO5)2
_chemical_formula_sum   'Cu6 Ni2 C4 O20'
_cell_volume   333.62909978
_cell_formula_units_Z   2
loop_
 _symmetry_equiv_pos_site_id
 _symmetry_equiv_pos_as_xyz
  1  'x, y, z'
loop_
 _atom_site_type_symbol
 _atom_site_label
 _atom_site_symmetry_multiplicity
 _atom_site_fract_x
 _atom_site_fract_y
 _atom_site_fract_z
 _atom_site_occupancy
  Cu  Cu0  1  0.26602539  0.50173239  0.28339743  1
  Cu  Cu1  1  0.23397461  0.00173239  0.21660257  1
  Cu  Cu2  1  0.72916540  0.50117920  0.71495082  1
  Cu  Cu3  1  0.77083460  0.00117920  0.78504918  1
  Cu  Cu4  1  0.70216159  0.73196398  0.11748175  1
  Cu  Cu5  1  0.79783841  0.23196398  0.38251825  1
  Ni  Ni6  1  0.28760042  0.26681097  0.88082140  1
  Ni  Ni7  1  0.21239958  0.76681097  0.61917860  1
  C  C8  1  0.98369631  0.77524693  0.37183605  1
  C  C9  1  0.51630369  0.27524693  0.12816395  1
  C  C10  1  0.01086777  0.22497960  0.63281588  1
  C  C11  1  0.48913223  0.72497960  0.86718412  1
  O  O12  1  0.88465835  0.84728617  0.27818753  1
  O  O13  1  0.61534165  0.34728617  0.22181247  1
  O  O14  1  0.12232208  0.15686861  0.72803526  1
  O  O15  1  0.37767792  0.65686861  0.77196474  1
  O  O16  1  0.11262215  0.84298379  0.45783070  1
  O  O17  1  0.38737785  0.34298379  0.04216930  1
  O  O18  1  0.88806441  0.15206867  0.54891846  1
  O  O19  1  0.61193559  0.65206867  0.95108154  1
  O  O20  1  0.91881859  0.62998135  0.36677629  1
  O  O21  1  0.58118141  0.12998135  0.13322371  1
  O  O22  1  0.06105231  0.37052411  0.63297243  1
  O  O23  1  0.43894769  0.87052411  0.86702757  1
  O  O24  1  0.19660370  0.86455549  0.09692957  1
  O  O25  1  0.30339630  0.36455549  0.40307043  1
  O  O26  1  0.80001155  0.13102307  0.90489653  1
  O  O27  1  0.69998845  0.63102307  0.59510347  1
  O  O28  1  0.21432714  0.60818116  0.15319550  1
  O  O29  1  0.28567286  0.10818116  0.34680450  1
  O  O30  1  0.77482948  0.39461451  0.84341588  1
  O  O31  1  0.72517052  0.89461451  0.65658412  1
