# generated using pymatgen
data_NdGeAu
_symmetry_space_group_name_H-M   'P 1'
_cell_length_a   4.51282879
_cell_length_b   4.51135154
_cell_length_c   7.87416992
_cell_angle_alpha   90.00000000
_cell_angle_beta   90.00000000
_cell_angle_gamma   120.01083267
_symmetry_Int_Tables_number   1
_chemical_formula_structural   NdGeAu
_chemical_formula_sum   'Nd2 Ge2 Au2'
_cell_volume   138.81727825
_cell_formula_units_Z   2
loop_
 _symmetry_equiv_pos_site_id
 _symmetry_equiv_pos_as_xyz
  1  'x, y, z'
loop_
 _atom_site_type_symbol
 _atom_site_label
 _atom_site_symmetry_multiplicity
 _atom_site_fract_x
 _atom_site_fract_y
 _atom_site_fract_z
 _atom_site_occupancy
  Nd  Nd0  1  0.00000670  0.00001340  0.75148454  1
  Nd  Nd1  1  0.99999330  0.99998660  0.25148454  1
  Ge  Ge2  1  0.66667390  0.33334779  0.96938639  1
  Ge  Ge3  1  0.33332610  0.66665221  0.46938639  1
  Au  Au4  1  0.66668394  0.33336789  0.51912908  1
  Au  Au5  1  0.33331606  0.66663211  0.01912908  1
