# generated using pymatgen
data_NdSbPd
_symmetry_space_group_name_H-M   'P 1'
_cell_length_a   4.61870201
_cell_length_b   4.61784260
_cell_length_c   8.02159028
_cell_angle_alpha   90.00000000
_cell_angle_beta   90.00000000
_cell_angle_gamma   120.00615660
_symmetry_Int_Tables_number   1
_chemical_formula_structural   NdSbPd
_chemical_formula_sum   'Nd2 Sb2 Pd2'
_cell_volume   148.15735992
_cell_formula_units_Z   2
loop_
 _symmetry_equiv_pos_site_id
 _symmetry_equiv_pos_as_xyz
  1  'x, y, z'
loop_
 _atom_site_type_symbol
 _atom_site_label
 _atom_site_symmetry_multiplicity
 _atom_site_fract_x
 _atom_site_fract_y
 _atom_site_fract_z
 _atom_site_occupancy
  Nd  Nd0  1  0.00000000  0.00000000  0.50000000  1
  Nd  Nd1  1  0.00000000  0.00000000  0.00000000  1
  Sb  Sb2  1  0.33333922  0.66667844  0.75000000  1
  Sb  Sb3  1  0.66666078  0.33332156  0.25000000  1
  Pd  Pd4  1  0.33333143  0.66666285  0.25000000  1
  Pd  Pd5  1  0.66666857  0.33333715  0.75000000  1
