# generated using pymatgen
data_PrCuPb
_symmetry_space_group_name_H-M   'P 1'
_cell_length_a   4.66254194
_cell_length_b   4.66321723
_cell_length_c   7.98483441
_cell_angle_alpha   90.00000000
_cell_angle_beta   90.00000000
_cell_angle_gamma   119.99520974
_symmetry_Int_Tables_number   1
_chemical_formula_structural   PrCuPb
_chemical_formula_sum   'Pr2 Cu2 Pb2'
_cell_volume   150.35778035
_cell_formula_units_Z   2
loop_
 _symmetry_equiv_pos_site_id
 _symmetry_equiv_pos_as_xyz
  1  'x, y, z'
loop_
 _atom_site_type_symbol
 _atom_site_label
 _atom_site_symmetry_multiplicity
 _atom_site_fract_x
 _atom_site_fract_y
 _atom_site_fract_z
 _atom_site_occupancy
  Pr  Pr0  1  0.00000000  0.00000000  0.50000000  1
  Pr  Pr1  1  0.00000000  0.00000000  0.00000000  1
  Cu  Cu2  1  0.33334407  0.66668813  0.25000000  1
  Cu  Cu3  1  0.66665593  0.33331187  0.75000000  1
  Pb  Pb4  1  0.33334188  0.66668376  0.75000000  1
  Pb  Pb5  1  0.66665812  0.33331624  0.25000000  1
