# generated using pymatgen
data_PrGeAu
_symmetry_space_group_name_H-M   'P 1'
_cell_length_a   4.52314698
_cell_length_b   4.52346805
_cell_length_c   7.91196184
_cell_angle_alpha   90.00000000
_cell_angle_beta   90.00000000
_cell_angle_gamma   119.99765204
_symmetry_Int_Tables_number   1
_chemical_formula_structural   PrGeAu
_chemical_formula_sum   'Pr2 Ge2 Au2'
_cell_volume   140.19654738
_cell_formula_units_Z   2
loop_
 _symmetry_equiv_pos_site_id
 _symmetry_equiv_pos_as_xyz
  1  'x, y, z'
loop_
 _atom_site_type_symbol
 _atom_site_label
 _atom_site_symmetry_multiplicity
 _atom_site_fract_x
 _atom_site_fract_y
 _atom_site_fract_z
 _atom_site_occupancy
  Pr  Pr0  1  0.00001360  0.00002721  0.75214501  1
  Pr  Pr1  1  0.99998640  0.99997279  0.25214501  1
  Ge  Ge2  1  0.66664620  0.33329239  0.96836203  1
  Ge  Ge3  1  0.33335380  0.66670761  0.46836203  1
  Au  Au4  1  0.66659995  0.33319990  0.51949296  1
  Au  Au5  1  0.33340005  0.66680010  0.01949296  1
