# generated using pymatgen
data_Fe5O7F3
_symmetry_space_group_name_H-M   'P 1'
_cell_length_a   4.65788150
_cell_length_b   4.65692907
_cell_length_c   15.21782341
_cell_angle_alpha   90.00000000
_cell_angle_beta   90.00000000
_cell_angle_gamma   90.04072740
_symmetry_Int_Tables_number   1
_chemical_formula_structural   Fe5O7F3
_chemical_formula_sum   'Fe10 O14 F6'
_cell_volume   330.09617284
_cell_formula_units_Z   2
loop_
 _symmetry_equiv_pos_site_id
 _symmetry_equiv_pos_as_xyz
  1  'x, y, z'
loop_
 _atom_site_type_symbol
 _atom_site_label
 _atom_site_symmetry_multiplicity
 _atom_site_fract_x
 _atom_site_fract_y
 _atom_site_fract_z
 _atom_site_occupancy
  Fe  Fe0  1  0.03748888  0.01432819  0.00735282  1
  Fe  Fe1  1  0.98094444  0.97144727  0.20000000  1
  Fe  Fe2  1  0.03748888  0.01432819  0.39264718  1
  Fe  Fe3  1  0.01065784  0.98022806  0.59908060  1
  Fe  Fe4  1  0.01065784  0.98022806  0.80091940  1
  Fe  Fe5  1  0.50783064  0.49280350  0.10001354  1
  Fe  Fe6  1  0.47061408  0.51061585  0.50608171  1
  Fe  Fe7  1  0.50783064  0.49280350  0.29998646  1
  Fe  Fe8  1  0.48217766  0.51359699  0.70000000  1
  Fe  Fe9  1  0.47061408  0.51061585  0.89391829  1
  O  O10  1  0.19667212  0.79175555  0.10518372  1
  O  O11  1  0.19667212  0.79175555  0.29481628  1
  O  O12  1  0.19106066  0.82032908  0.49623611  1
  O  O13  1  0.18245345  0.80449277  0.70000000  1
  O  O14  1  0.19106066  0.82032908  0.90376389  1
  O  O15  1  0.32090756  0.32006375  0.00070571  1
  O  O16  1  0.32090756  0.32006375  0.39929429  1
  O  O17  1  0.29646552  0.30410309  0.60407291  1
  O  O18  1  0.29646552  0.30410309  0.79592709  1
  O  O19  1  0.68487940  0.67148319  0.20000000  1
  O  O20  1  0.68754689  0.69638983  0.60238046  1
  O  O21  1  0.68754689  0.69638983  0.79761954  1
  O  O22  1  0.80716487  0.18455877  0.10366333  1
  O  O23  1  0.80716487  0.18455877  0.29633667  1
  F  F24  1  0.30268601  0.28707521  0.20000000  1
  F  F25  1  0.70441404  0.70665771  0.99815782  1
  F  F26  1  0.70441404  0.70665771  0.40184218  1
  F  F27  1  0.80386621  0.20649874  0.49807982  1
  F  F28  1  0.80386621  0.20649874  0.90192018  1
  F  F29  1  0.79748046  0.19524035  0.70000000  1
