# generated using pymatgen
data_SmGeAu
_symmetry_space_group_name_H-M   'P 1'
_cell_length_a   4.50410353
_cell_length_b   4.50414707
_cell_length_c   7.61692125
_cell_angle_alpha   90.00000000
_cell_angle_beta   90.00000000
_cell_angle_gamma   119.99968031
_symmetry_Int_Tables_number   1
_chemical_formula_structural   SmGeAu
_chemical_formula_sum   'Sm2 Ge2 Au2'
_cell_volume   133.82351209
_cell_formula_units_Z   2
loop_
 _symmetry_equiv_pos_site_id
 _symmetry_equiv_pos_as_xyz
  1  'x, y, z'
loop_
 _atom_site_type_symbol
 _atom_site_label
 _atom_site_symmetry_multiplicity
 _atom_site_fract_x
 _atom_site_fract_y
 _atom_site_fract_z
 _atom_site_occupancy
  Sm  Sm0  1  0.00000873  0.00001746  0.75097389  1
  Sm  Sm1  1  0.99999127  0.99998254  0.25097389  1
  Ge  Ge2  1  0.66667242  0.33334485  0.96351412  1
  Ge  Ge3  1  0.33332758  0.66665515  0.46351412  1
  Au  Au4  1  0.66667688  0.33335377  0.52551199  1
  Au  Au5  1  0.33332312  0.66664623  0.02551199  1
