# generated using pymatgen
data_Tc2N
_symmetry_space_group_name_H-M   'P 1'
_cell_length_a   2.84937619
_cell_length_b   2.84935729
_cell_length_c   9.74436150
_cell_angle_alpha   90.00000000
_cell_angle_beta   90.00000000
_cell_angle_gamma   120.00021925
_symmetry_Int_Tables_number   1
_chemical_formula_structural   Tc2N
_chemical_formula_sum   'Tc4 N2'
_cell_volume   68.51406909
_cell_formula_units_Z   2
loop_
 _symmetry_equiv_pos_site_id
 _symmetry_equiv_pos_as_xyz
  1  'x, y, z'
loop_
 _atom_site_type_symbol
 _atom_site_label
 _atom_site_symmetry_multiplicity
 _atom_site_fract_x
 _atom_site_fract_y
 _atom_site_fract_z
 _atom_site_occupancy
  Tc  Tc0  1  0.33328734  0.66657468  0.39202894  1
  Tc  Tc1  1  0.66671266  0.33342532  0.60797106  1
  Tc  Tc2  1  0.66671266  0.33342532  0.89202894  1
  Tc  Tc3  1  0.33328734  0.66657468  0.10797106  1
  N  N4  1  0.33330373  0.66660746  0.75000000  1
  N  N5  1  0.66669627  0.33339254  0.25000000  1
