# generated using pymatgen
data_SrHgPb
_symmetry_space_group_name_H-M   'P 1'
_cell_length_a   5.12304725
_cell_length_b   5.12813950
_cell_length_c   8.29971864
_cell_angle_alpha   90.00000000
_cell_angle_beta   90.00000000
_cell_angle_gamma   119.96715713
_symmetry_Int_Tables_number   1
_chemical_formula_structural   SrHgPb
_chemical_formula_sum   'Sr2 Hg2 Pb2'
_cell_volume   188.89733343
_cell_formula_units_Z   2
loop_
 _symmetry_equiv_pos_site_id
 _symmetry_equiv_pos_as_xyz
  1  'x, y, z'
loop_
 _atom_site_type_symbol
 _atom_site_label
 _atom_site_symmetry_multiplicity
 _atom_site_fract_x
 _atom_site_fract_y
 _atom_site_fract_z
 _atom_site_occupancy
  Sr  Sr0  1  0.99983354  0.99966709  0.66536230  1
  Sr  Sr1  1  0.00016646  0.00033291  0.16536230  1
  Hg  Hg2  1  0.66646686  0.33293373  0.47435596  1
  Hg  Hg3  1  0.33353314  0.66706627  0.97435596  1
  Pb  Pb4  1  0.66657793  0.33315585  0.88028174  1
  Pb  Pb5  1  0.33342207  0.66684415  0.38028174  1
