# generated using pymatgen
data_SrSnHg
_symmetry_space_group_name_H-M   'P 1'
_cell_length_a   5.00603047
_cell_length_b   5.00589037
_cell_length_c   8.30871151
_cell_angle_alpha   90.00000000
_cell_angle_beta   90.00000000
_cell_angle_gamma   120.00092573
_symmetry_Int_Tables_number   1
_chemical_formula_structural   SrSnHg
_chemical_formula_sum   'Sr2 Sn2 Hg2'
_cell_volume   180.31633992
_cell_formula_units_Z   2
loop_
 _symmetry_equiv_pos_site_id
 _symmetry_equiv_pos_as_xyz
  1  'x, y, z'
loop_
 _atom_site_type_symbol
 _atom_site_label
 _atom_site_symmetry_multiplicity
 _atom_site_fract_x
 _atom_site_fract_y
 _atom_site_fract_z
 _atom_site_occupancy
  Sr  Sr0  1  0.00000628  0.00001256  0.75087833  1
  Sr  Sr1  1  0.99999372  0.99998744  0.25087833  1
  Sn  Sn2  1  0.66667221  0.33334441  0.96884364  1
  Sn  Sn3  1  0.33332779  0.66665559  0.46884364  1
  Hg  Hg4  1  0.66668218  0.33336436  0.55027803  1
  Hg  Hg5  1  0.33331782  0.66663564  0.05027803  1
