# generated using pymatgen
data_TbGeAu
_symmetry_space_group_name_H-M   'P 1'
_cell_length_a   4.48480030
_cell_length_b   4.48461963
_cell_length_c   7.38158853
_cell_angle_alpha   90.00000000
_cell_angle_beta   90.00000000
_cell_angle_gamma   120.00133268
_symmetry_Int_Tables_number   1
_chemical_formula_structural   TbGeAu
_chemical_formula_sum   'Tb2 Ge2 Au2'
_cell_volume   128.57109873
_cell_formula_units_Z   2
loop_
 _symmetry_equiv_pos_site_id
 _symmetry_equiv_pos_as_xyz
  1  'x, y, z'
loop_
 _atom_site_type_symbol
 _atom_site_label
 _atom_site_symmetry_multiplicity
 _atom_site_fract_x
 _atom_site_fract_y
 _atom_site_fract_z
 _atom_site_occupancy
  Tb  Tb0  1  0.00001866  0.00003732  0.75005738  1
  Tb  Tb1  1  0.99998134  0.99996268  0.25005738  1
  Ge  Ge2  1  0.66668622  0.33337243  0.95591467  1
  Ge  Ge3  1  0.33331378  0.66662757  0.45591467  1
  Au  Au4  1  0.66668019  0.33336038  0.53402794  1
  Au  Au5  1  0.33331981  0.66663962  0.03402794  1
