# generated using pymatgen
data_Li3AlSiO5
_symmetry_space_group_name_H-M   'P 1'
_cell_length_a   4.85174307
_cell_length_b   5.40261394
_cell_length_c   15.76999214
_cell_angle_alpha   90.00000000
_cell_angle_beta   90.00000000
_cell_angle_gamma   90.00000000
_symmetry_Int_Tables_number   1
_chemical_formula_structural   Li3AlSiO5
_chemical_formula_sum   'Li12 Al4 Si4 O20'
_cell_volume   413.36452807
_cell_formula_units_Z   4
loop_
 _symmetry_equiv_pos_site_id
 _symmetry_equiv_pos_as_xyz
  1  'x, y, z'
loop_
 _atom_site_type_symbol
 _atom_site_label
 _atom_site_symmetry_multiplicity
 _atom_site_fract_x
 _atom_site_fract_y
 _atom_site_fract_z
 _atom_site_occupancy
  Li  Li0  1  0.89675921  0.17201620  0.69690706  1
  Li  Li1  1  0.39675921  0.82798380  0.30309294  1
  Li  Li2  1  0.39675921  0.32798380  0.19690706  1
  Li  Li3  1  0.89675921  0.67201620  0.80309294  1
  Li  Li4  1  0.89398840  0.16504944  0.50400194  1
  Li  Li5  1  0.39398840  0.83495056  0.49599806  1
  Li  Li6  1  0.39398840  0.33495056  0.00400194  1
  Li  Li7  1  0.89398840  0.66504944  0.99599806  1
  Li  Li8  1  0.89604922  0.66996242  0.40440480  1
  Li  Li9  1  0.39604922  0.33003758  0.59559520  1
  Li  Li10  1  0.39604922  0.83003758  0.90440480  1
  Li  Li11  1  0.89604922  0.16996242  0.09559520  1
  Al  Al12  1  0.39802397  0.82818970  0.70022203  1
  Al  Al13  1  0.89802397  0.17181030  0.29977797  1
  Al  Al14  1  0.89802397  0.67181030  0.20022203  1
  Al  Al15  1  0.39802397  0.32818970  0.79977797  1
  Si  Si16  1  0.89455430  0.66688051  0.59849382  1
  Si  Si17  1  0.39455430  0.33311949  0.40150618  1
  Si  Si18  1  0.39455430  0.83311949  0.09849382  1
  Si  Si19  1  0.89455430  0.16688051  0.90150618  1
  O  O20  1  0.79919658  0.81226456  0.51360994  1
  O  O21  1  0.29919658  0.18773544  0.48639006  1
  O  O22  1  0.29919658  0.68773544  0.01360994  1
  O  O23  1  0.79919658  0.31226456  0.98639006  1
  O  O24  1  0.80355851  0.37801663  0.60224109  1
  O  O25  1  0.30355851  0.62198337  0.39775891  1
  O  O26  1  0.30355851  0.12198337  0.10224109  1
  O  O27  1  0.80355851  0.87801663  0.89775891  1
  O  O28  1  0.76516456  0.81121039  0.68548786  1
  O  O29  1  0.26516456  0.18878961  0.31451214  1
  O  O30  1  0.26516456  0.68878961  0.18548786  1
  O  O31  1  0.76516456  0.31121039  0.81451214  1
  O  O32  1  0.23807782  0.69264848  0.60971879  1
  O  O33  1  0.73807782  0.30735152  0.39028121  1
  O  O34  1  0.73807782  0.80735152  0.10971879  1
  O  O35  1  0.23807782  0.19264848  0.89028121  1
  O  O36  1  0.31012744  0.64491542  0.78973516  1
  O  O37  1  0.81012744  0.35508458  0.21026484  1
  O  O38  1  0.81012744  0.85508458  0.28973516  1
  O  O39  1  0.31012744  0.14491542  0.71026484  1
