# generated using pymatgen
data_Li2S2O7
_symmetry_space_group_name_H-M   'P 1'
_cell_length_a   13.35716614
_cell_length_b   8.36992265
_cell_length_c   4.93159157
_cell_angle_alpha   90.00000000
_cell_angle_beta   90.00000000
_cell_angle_gamma   90.00000000
_symmetry_Int_Tables_number   1
_chemical_formula_structural   Li2S2O7
_chemical_formula_sum   'Li8 S8 O28'
_cell_volume   551.34428081
_cell_formula_units_Z   4
loop_
 _symmetry_equiv_pos_site_id
 _symmetry_equiv_pos_as_xyz
  1  'x, y, z'
loop_
 _atom_site_type_symbol
 _atom_site_label
 _atom_site_symmetry_multiplicity
 _atom_site_fract_x
 _atom_site_fract_y
 _atom_site_fract_z
 _atom_site_occupancy
  Li  Li0  1  0.39615219  0.56854463  0.60097546  1
  Li  Li1  1  0.89615219  0.93145537  0.89902454  1
  Li  Li2  1  0.60384781  0.06854463  0.39902454  1
  Li  Li3  1  0.10384781  0.43145537  0.10097546  1
  Li  Li4  1  0.60384781  0.43145537  0.39902454  1
  Li  Li5  1  0.10384781  0.06854463  0.10097546  1
  Li  Li6  1  0.39615219  0.93145537  0.60097546  1
  Li  Li7  1  0.89615219  0.56854463  0.89902454  1
  S  S8  1  0.28377388  0.25000000  0.77798429  1
  S  S9  1  0.78377388  0.25000000  0.72201571  1
  S  S10  1  0.71622612  0.75000000  0.22201571  1
  S  S11  1  0.21622612  0.75000000  0.27798429  1
  S  S12  1  0.49604852  0.25000000  0.88546045  1
  S  S13  1  0.99604852  0.25000000  0.61453955  1
  S  S14  1  0.50395148  0.75000000  0.11453955  1
  S  S15  1  0.00395148  0.75000000  0.38546045  1
  O  O16  1  0.29387623  0.39664625  0.62445141  1
  O  O17  1  0.79387623  0.10335375  0.87554859  1
  O  O18  1  0.70612377  0.89664625  0.37554859  1
  O  O19  1  0.20612377  0.60335375  0.12445141  1
  O  O20  1  0.70612377  0.60335375  0.37554859  1
  O  O21  1  0.20612377  0.89664625  0.12445141  1
  O  O22  1  0.29387623  0.10335375  0.62445141  1
  O  O23  1  0.79387623  0.39664625  0.87554859  1
  O  O24  1  0.20078717  0.25000000  0.97027502  1
  O  O25  1  0.70078717  0.25000000  0.52972498  1
  O  O26  1  0.79921283  0.75000000  0.02972498  1
  O  O27  1  0.29921283  0.75000000  0.47027502  1
  O  O28  1  0.38185853  0.25000000  -0.00043702  1
  O  O29  1  0.88185853  0.25000000  0.50043702  1
  O  O30  1  0.61814147  0.75000000  0.00043702  1
  O  O31  1  0.11814147  0.75000000  0.49956298  1
  O  O32  1  0.50775775  0.39627426  0.72579475  1
  O  O33  1  0.00775775  0.10372574  0.77420525  1
  O  O34  1  0.49224225  0.89627426  0.27420525  1
  O  O35  1  0.99224225  0.60372574  0.22579475  1
  O  O36  1  0.49224225  0.60372574  0.27420525  1
  O  O37  1  0.99224225  0.89627426  0.22579475  1
  O  O38  1  0.50775775  0.10372574  0.72579475  1
  O  O39  1  0.00775775  0.39627426  0.77420525  1
  O  O40  1  0.55416010  0.25000000  0.13638620  1
  O  O41  1  0.05416010  0.25000000  0.36361380  1
  O  O42  1  0.44583990  0.75000000  0.86361380  1
  O  O43  1  0.94583990  0.75000000  0.63638620  1
