# generated using pymatgen
data_NaB(SO4)2
_symmetry_space_group_name_H-M   'P 1'
_cell_length_a   5.55282644
_cell_length_b   7.68753202
_cell_length_c   7.88599155
_cell_angle_alpha   90.00000000
_cell_angle_beta   108.66518002
_cell_angle_gamma   90.00000000
_symmetry_Int_Tables_number   1
_chemical_formula_structural   NaB(SO4)2
_chemical_formula_sum   'Na2 B2 S4 O16'
_cell_volume   318.92825188
_cell_formula_units_Z   2
loop_
 _symmetry_equiv_pos_site_id
 _symmetry_equiv_pos_as_xyz
  1  'x, y, z'
loop_
 _atom_site_type_symbol
 _atom_site_label
 _atom_site_symmetry_multiplicity
 _atom_site_fract_x
 _atom_site_fract_y
 _atom_site_fract_z
 _atom_site_occupancy
  Na  Na0  1  0.50000000  0.43295225  0.75000000  1
  Na  Na1  1  0.50000000  0.56704775  0.25000000  1
  B  B2  1  -0.00000000  0.04193563  0.25000000  1
  B  B3  1  -0.00000000  0.95806437  0.75000000  1
  S  S4  1  0.12976870  0.77680536  0.49615919  1
  S  S5  1  0.87023130  0.77680536  0.00384081  1
  S  S6  1  0.87023130  0.22319464  0.50384081  1
  S  S7  1  0.12976870  0.22319464  0.99615919  1
  O  O8  1  0.87317991  0.71503033  0.41758802  1
  O  O9  1  0.12682009  0.71503033  0.08241198  1
  O  O10  1  0.12682009  0.28496967  0.58241198  1
  O  O11  1  0.87317991  0.28496967  0.91758802  1
  O  O12  1  0.17879230  0.93912012  0.39403980  1
  O  O13  1  0.82120770  0.93912012  0.10596020  1
  O  O14  1  0.82120770  0.06087988  0.60596020  1
  O  O15  1  0.17879230  0.06087988  0.89403980  1
  O  O16  1  0.17359113  0.84621759  0.68772145  1
  O  O17  1  0.82640887  0.84621759  0.81227855  1
  O  O18  1  0.82640887  0.15378241  0.31227855  1
  O  O19  1  0.17359113  0.15378241  0.18772145  1
  O  O20  1  0.33490394  0.65655539  0.51069977  1
  O  O21  1  0.66509606  0.65655539  0.98930023  1
  O  O22  1  0.66509606  0.34344461  0.48930023  1
  O  O23  1  0.33490394  0.34344461  0.01069977  1
