# generated using pymatgen
data_SrBeB2O5
_symmetry_space_group_name_H-M   'P 1'
_cell_length_a   5.27556989
_cell_length_b   3.88849064
_cell_length_c   17.66021649
_cell_angle_alpha   90.00000000
_cell_angle_beta   97.65971328
_cell_angle_gamma   90.00000000
_symmetry_Int_Tables_number   1
_chemical_formula_structural   SrBeB2O5
_chemical_formula_sum   'Sr4 Be4 B8 O20'
_cell_volume   359.04917410
_cell_formula_units_Z   4
loop_
 _symmetry_equiv_pos_site_id
 _symmetry_equiv_pos_as_xyz
  1  'x, y, z'
loop_
 _atom_site_type_symbol
 _atom_site_label
 _atom_site_symmetry_multiplicity
 _atom_site_fract_x
 _atom_site_fract_y
 _atom_site_fract_z
 _atom_site_occupancy
  Sr  Sr0  1  0.71236176  0.64691998  0.92828380  1
  Sr  Sr1  1  0.21236176  0.85308002  0.42828380  1
  Sr  Sr2  1  0.28763824  0.35308002  0.07171620  1
  Sr  Sr3  1  0.78763824  0.14691998  0.57171620  1
  Be  Be4  1  0.60570821  0.76318592  0.71368799  1
  Be  Be5  1  0.10570821  0.73681408  0.21368799  1
  Be  Be6  1  0.39429179  0.23681408  0.28631201  1
  Be  Be7  1  0.89429179  0.26318592  0.78631201  1
  B  B8  1  0.19820683  0.01157397  0.90064448  1
  B  B9  1  0.69820683  0.48842603  0.40064448  1
  B  B10  1  0.80179317  0.98842603  0.09935552  1
  B  B11  1  0.30179317  0.51157397  0.59935552  1
  B  B12  1  0.38268047  0.27866942  0.78558864  1
  B  B13  1  0.88268047  0.22133058  0.28558864  1
  B  B14  1  0.61731953  0.72133058  0.21441136  1
  B  B15  1  0.11731953  0.77866942  0.71441136  1
  O  O16  1  0.40556580  0.12906549  0.86464724  1
  O  O17  1  0.90556580  0.37093451  0.36464724  1
  O  O18  1  0.59443420  0.87093451  0.13535276  1
  O  O19  1  0.09443420  0.62906549  0.63535276  1
  O  O20  1  0.62047495  0.46658760  0.77956681  1
  O  O21  1  0.12047495  0.03341240  0.27956681  1
  O  O22  1  0.37952505  0.53341240  0.22043319  1
  O  O23  1  0.87952505  0.96658760  0.72043319  1
  O  O24  1  0.95429616  0.11677701  0.87257833  1
  O  O25  1  0.45429616  0.38322299  0.37257833  1
  O  O26  1  0.04570384  0.88322299  0.12742167  1
  O  O27  1  0.54570384  0.61677701  0.62742167  1
  O  O28  1  0.35158212  0.00111436  0.72628621  1
  O  O29  1  0.85158212  0.49888564  0.22628621  1
  O  O30  1  0.64841788  0.99888564  0.27371379  1
  O  O31  1  0.14841788  0.50111436  0.77371379  1
  O  O32  1  0.24659763  0.80596549  0.96373071  1
  O  O33  1  0.74659763  0.69403451  0.46373071  1
  O  O34  1  0.75340237  0.19403451  0.03626929  1
  O  O35  1  0.25340237  0.30596549  0.53626929  1
