# generated using pymatgen
data_SrGe(PO4)2
_symmetry_space_group_name_H-M   'P 1'
_cell_length_a   5.13223704
_cell_length_b   8.65979537
_cell_length_c   8.02109718
_cell_angle_alpha   114.49089251
_cell_angle_beta   90.00000000
_cell_angle_gamma   107.23703945
_symmetry_Int_Tables_number   1
_chemical_formula_structural   SrGe(PO4)2
_chemical_formula_sum   'Sr2 Ge2 P4 O16'
_cell_volume   306.73540641
_cell_formula_units_Z   2
loop_
 _symmetry_equiv_pos_site_id
 _symmetry_equiv_pos_as_xyz
  1  'x, y, z'
loop_
 _atom_site_type_symbol
 _atom_site_label
 _atom_site_symmetry_multiplicity
 _atom_site_fract_x
 _atom_site_fract_y
 _atom_site_fract_z
 _atom_site_occupancy
  Sr  Sr0  1  0.80262740  0.00000000  0.25000000  1
  Sr  Sr1  1  0.19737260  0.00000000  0.75000000  1
  Ge  Ge2  1  -0.00000000  0.50000000  0.50000000  1
  Ge  Ge3  1  0.50000000  0.50000000  0.00000000  1
  P  P4  1  0.59569126  0.70626233  0.74044913  1
  P  P5  1  0.88942893  0.29373767  0.75955087  1
  P  P6  1  0.40430874  0.29373767  0.25955087  1
  P  P7  1  0.11057107  0.70626233  0.24044913  1
  O  O8  1  0.81198836  0.67312391  0.60167839  1
  O  O9  1  0.13886445  0.32687609  0.89832161  1
  O  O10  1  0.18801164  0.32687609  0.39832161  1
  O  O11  1  0.86113555  0.67312391  0.10167839  1
  O  O12  1  0.33025007  0.69839470  0.63417328  1
  O  O13  1  0.63185537  0.30160530  0.86582672  1
  O  O14  1  0.66974993  0.30160530  0.36582672  1
  O  O15  1  0.36814463  0.69839470  0.13417328  1
  O  O16  1  0.51302789  0.55235561  0.79847079  1
  O  O17  1  0.96067228  0.44764439  0.70152921  1
  O  O18  1  0.48697211  0.44764439  0.20152921  1
  O  O19  1  0.03932772  0.55235561  0.29847079  1
  O  O20  1  0.72035028  0.89566488  0.89320384  1
  O  O21  1  0.82468539  0.10433512  0.60679616  1
  O  O22  1  0.27964972  0.10433512  0.10679616  1
  O  O23  1  0.17531461  0.89566488  0.39320384  1
