# generated using pymatgen
data_Rb2Si(S2O7)3
_symmetry_space_group_name_H-M   'P 1'
_cell_length_a   9.77507234
_cell_length_b   9.77492058
_cell_length_c   11.51023249
_cell_angle_alpha   89.99993873
_cell_angle_beta   90.00041380
_cell_angle_gamma   119.99936286
_symmetry_Int_Tables_number   1
_chemical_formula_structural   Rb2Si(S2O7)3
_chemical_formula_sum   'Rb4 Si2 S12 O42'
_cell_volume   952.46874475
_cell_formula_units_Z   2
loop_
 _symmetry_equiv_pos_site_id
 _symmetry_equiv_pos_as_xyz
  1  'x, y, z'
loop_
 _atom_site_type_symbol
 _atom_site_label
 _atom_site_symmetry_multiplicity
 _atom_site_fract_x
 _atom_site_fract_y
 _atom_site_fract_z
 _atom_site_occupancy
  Rb  Rb0  1  0.33335006  0.66667694  0.56504935  1
  Rb  Rb1  1  0.66664994  0.33332306  0.43495065  1
  Rb  Rb2  1  0.33334008  0.66666925  0.12130092  1
  Rb  Rb3  1  0.66665992  0.33333075  0.87869908  1
  Si  Si4  1  0.00000157  0.00000073  0.76220474  1
  Si  Si5  1  0.99999843  -0.00000073  0.23779526  1
  S  S6  1  0.67037022  0.75758203  0.33798442  1
  S  S7  1  0.08720995  0.32963464  0.33798352  1
  S  S8  1  0.24241704  0.91278285  0.33798434  1
  S  S9  1  0.32962978  0.24241797  0.66201558  1
  S  S10  1  0.91279005  0.67036536  0.66201648  1
  S  S11  1  0.75758296  0.08721715  0.66201566  1
  S  S12  1  0.66005805  0.86003127  0.84868978  1
  S  S13  1  0.19997693  0.33995006  0.84868952  1
  S  S14  1  0.13997242  0.80002062  0.84869024  1
  S  S15  1  0.33994195  0.13996873  0.15131022  1
  S  S16  1  0.80002307  0.66004994  0.15131048  1
  S  S17  1  0.86002758  0.19997938  0.15130976  1
  O  O18  1  0.67581221  0.02385067  0.79236412  1
  O  O19  1  0.34803676  0.32418952  0.79236511  1
  O  O20  1  0.97615361  0.65195924  0.79236714  1
  O  O21  1  0.32418779  0.97614933  0.20763588  1
  O  O22  1  0.65196324  0.67581048  0.20763489  1
  O  O23  1  0.02384639  0.34804076  0.20763286  1
  O  O24  1  0.83273530  0.90407753  0.33234151  1
  O  O25  1  0.07134323  0.16726772  0.33233991  1
  O  O26  1  0.09592097  0.92865181  0.33234008  1
  O  O27  1  0.16726470  0.09592247  0.66765849  1
  O  O28  1  0.92865677  0.83273228  0.66766009  1
  O  O29  1  0.90407903  0.07134819  0.66765992  1
  O  O30  1  0.83255371  0.90203849  0.85610705  1
  O  O31  1  0.06948833  0.16745282  0.85610674  1
  O  O32  1  0.09796647  0.93051323  0.85610708  1
  O  O33  1  0.16744629  0.09796151  0.14389295  1
  O  O34  1  0.93051167  0.83254718  0.14389326  1
  O  O35  1  0.90203353  0.06948677  0.14389292  1
  O  O36  1  0.54726171  0.79664709  0.33476201  1
  O  O37  1  0.24938007  0.45274506  0.33476299  1
  O  O38  1  0.20335893  0.75061018  0.33476144  1
  O  O39  1  0.45273829  0.20335291  0.66523799  1
  O  O40  1  0.75061993  0.54725494  0.66523701  1
  O  O41  1  0.79664107  0.24938982  0.66523856  1
  O  O42  1  0.60060200  0.85686568  0.96284979  1
  O  O43  1  0.25626750  0.39940753  0.96284981  1
  O  O44  1  0.14314256  0.74373230  0.96285147  1
  O  O45  1  0.39939800  0.14313432  0.03715021  1
  O  O46  1  0.74373250  0.60059247  0.03715019  1
  O  O47  1  0.85685744  0.25626770  0.03714853  1
  O  O48  1  0.57093718  0.73295832  0.76933029  1
  O  O49  1  0.16202783  0.42907369  0.76932903  1
  O  O50  1  0.26704131  0.83796797  0.76933019  1
  O  O51  1  0.42906282  0.26704168  0.23066971  1
  O  O52  1  0.83797217  0.57092631  0.23067097  1
  O  O53  1  0.73295869  0.16203203  0.23066981  1
  O  O54  1  0.66518311  0.65034294  0.42506217  1
  O  O55  1  0.98515762  0.33481983  0.42505980  1
  O  O56  1  0.34965206  0.01483386  0.42506343  1
  O  O57  1  0.33481689  0.34965706  0.57493783  1
  O  O58  1  0.01484238  0.66518017  0.57494020  1
  O  O59  1  0.65034794  0.98516614  0.57493657  1
