# generated using pymatgen
data_Na3LiP2O7
_symmetry_space_group_name_H-M   'P 1'
_cell_length_a   5.39316365
_cell_length_b   5.39316365
_cell_length_c   12.42121980
_cell_angle_alpha   90.00000000
_cell_angle_beta   90.00000000
_cell_angle_gamma   117.93748316
_symmetry_Int_Tables_number   1
_chemical_formula_structural   Na3LiP2O7
_chemical_formula_sum   'Na6 Li2 P4 O14'
_cell_volume   319.18171257
_cell_formula_units_Z   2
loop_
 _symmetry_equiv_pos_site_id
 _symmetry_equiv_pos_as_xyz
  1  'x, y, z'
loop_
 _atom_site_type_symbol
 _atom_site_label
 _atom_site_symmetry_multiplicity
 _atom_site_fract_x
 _atom_site_fract_y
 _atom_site_fract_z
 _atom_site_occupancy
  Na  Na0  1  0.65009019  0.65009019  0.00000000  1
  Na  Na1  1  0.34990981  0.34990981  0.50000000  1
  Na  Na2  1  0.29763627  0.95263923  0.88121336  1
  Na  Na3  1  0.95263923  0.29763627  0.11878664  1
  Na  Na4  1  0.70236373  0.04736077  0.38121336  1
  Na  Na5  1  0.04736077  0.70236373  0.61878664  1
  Li  Li6  1  0.53732035  0.46267965  0.75000000  1
  Li  Li7  1  0.46267965  0.53732035  0.25000000  1
  P  P8  1  0.97162840  0.30963452  0.85148210  1
  P  P9  1  0.30963452  0.97162840  0.14851790  1
  P  P10  1  0.02837160  0.69036548  0.35148210  1
  P  P11  1  0.69036548  0.02837160  0.64851790  1
  O  O12  1  0.28643066  0.41474531  0.87171423  1
  O  O13  1  0.41474531  0.28643066  0.12828577  1
  O  O14  1  0.71356934  0.58525469  0.37171423  1
  O  O15  1  0.58525469  0.71356934  0.62828577  1
  O  O16  1  0.78197239  0.13098465  0.94305682  1
  O  O17  1  0.13098465  0.78197239  0.05694318  1
  O  O18  1  0.21802761  0.86901535  0.44305682  1
  O  O19  1  0.86901535  0.21802761  0.55694318  1
  O  O20  1  0.90582933  0.54408354  0.81397975  1
  O  O21  1  0.54408354  0.90582933  0.18602025  1
  O  O22  1  0.09417067  0.45591646  0.31397975  1
  O  O23  1  0.45591646  0.09417067  0.68602025  1
  O  O24  1  0.90696191  0.09303809  0.75000000  1
  O  O25  1  0.09303809  0.90696191  0.25000000  1
