# generated using pymatgen
data_SrMg3SiN4
_symmetry_space_group_name_H-M   'P 1'
_cell_length_a   10.67727237
_cell_length_b   10.67727237
_cell_length_c   10.67727237
_cell_angle_alpha   79.22749202
_cell_angle_beta   66.01201785
_cell_angle_gamma   113.98798215
_symmetry_Int_Tables_number   1
_chemical_formula_structural   SrMg3SiN4
_chemical_formula_sum   'Sr8 Mg24 Si8 N32'
_cell_volume   921.19816087
_cell_formula_units_Z   8
loop_
 _symmetry_equiv_pos_site_id
 _symmetry_equiv_pos_as_xyz
  1  'x, y, z'
loop_
 _atom_site_type_symbol
 _atom_site_label
 _atom_site_symmetry_multiplicity
 _atom_site_fract_x
 _atom_site_fract_y
 _atom_site_fract_z
 _atom_site_occupancy
  Sr  Sr0  1  0.25175203  0.43920746  0.82854893  1
  Sr  Sr1  1  0.24824797  0.91969904  0.31254457  1
  Sr  Sr2  1  0.23224361  0.17145107  0.08030096  1
  Sr  Sr3  1  0.26775639  0.68745543  0.56079254  1
  Sr  Sr4  1  0.74824797  0.56079254  0.17145107  1
  Sr  Sr5  1  0.75175203  0.08030096  0.68745543  1
  Sr  Sr6  1  0.76775639  0.82854893  0.91969904  1
  Sr  Sr7  1  0.73224361  0.31254457  0.43920746  1
  Mg  Mg8  1  0.87807405  0.34169483  0.08789114  1
  Mg  Mg9  1  0.62192595  0.03403481  0.03637922  1
  Mg  Mg10  1  0.07041403  0.91210886  0.96596519  1
  Mg  Mg11  1  0.42958597  0.96362078  0.65830517  1
  Mg  Mg12  1  0.12192595  0.65830517  0.91210886  1
  Mg  Mg13  1  0.37807405  0.96596519  0.96362078  1
  Mg  Mg14  1  0.92958597  0.08789114  0.03403481  1
  Mg  Mg15  1  0.57041403  0.03637922  0.34169483  1
  Mg  Mg16  1  0.60176906  0.81433752  0.57172637  1
  Mg  Mg17  1  0.89823094  0.82650458  0.28743154  1
  Mg  Mg18  1  0.11393612  0.42827363  0.17349542  1
  Mg  Mg19  1  0.38606388  0.71256846  0.18566248  1
  Mg  Mg20  1  0.39823094  0.18566248  0.42827363  1
  Mg  Mg21  1  0.10176906  0.17349542  0.71256846  1
  Mg  Mg22  1  0.88606388  0.57172637  0.82650458  1
  Mg  Mg23  1  0.61393612  0.28743154  0.81433752  1
  Mg  Mg24  1  0.61287922  0.53041958  0.53781098  1
  Mg  Mg25  1  0.88712078  0.84930980  0.58245964  1
  Mg  Mg26  1  0.43176944  0.46218902  0.15069020  1
  Mg  Mg27  1  0.06823056  0.41754036  0.46958042  1
  Mg  Mg28  1  0.38712078  0.46958042  0.46218902  1
  Mg  Mg29  1  0.11287922  0.15069020  0.41754036  1
  Mg  Mg30  1  0.56823056  0.53781098  0.84930980  1
  Mg  Mg31  1  0.93176944  0.58245964  0.53041958  1
  Si  Si32  1  0.96129533  0.34179560  0.76635539  1
  Si  Si33  1  0.53870467  0.27234928  0.11949972  1
  Si  Si34  1  0.39184900  0.23364461  0.72765072  1
  Si  Si35  1  0.10815100  0.88050028  0.65820440  1
  Si  Si36  1  0.03870467  0.65820440  0.23364461  1
  Si  Si37  1  0.46129533  0.72765072  0.88050028  1
  Si  Si38  1  0.60815100  0.76635539  0.27234928  1
  Si  Si39  1  0.89184900  0.11949972  0.34179560  1
  N  N40  1  0.15387375  0.39416094  0.61135365  1
  N  N41  1  0.34612625  0.23477261  0.25971280  1
  N  N42  1  0.49448541  0.38864635  0.76522739  1
  N  N43  1  0.00551459  0.74028720  0.60583906  1
  N  N44  1  0.84612625  0.60583906  0.38864635  1
  N  N45  1  0.65387375  0.76522739  0.74028720  1
  N  N46  1  0.50551459  0.61135365  0.23477261  1
  N  N47  1  0.99448541  0.25971280  0.39416094  1
  N  N48  1  0.36904027  0.74611203  0.77770842  1
  N  N49  1  0.13095973  0.85325132  0.12292823  1
  N  N50  1  0.97617955  0.22229158  0.14674868  1
  N  N51  1  0.52382045  0.87707177  0.25388797  1
  N  N52  1  0.63095973  0.25388797  0.22229158  1
  N  N53  1  0.86904027  0.14674868  0.87707177  1
  N  N54  1  0.02382045  0.77770842  0.85325132  1
  N  N55  1  0.47617955  0.12292823  0.74611203  1
  N  N56  1  0.00651008  0.46520958  0.85406701  1
  N  N57  1  0.49348992  0.13942291  0.04130050  1
  N  N58  1  0.18072341  0.14593299  0.86057709  1
  N  N59  1  0.31927659  0.95869950  0.53479042  1
  N  N60  1  0.99348992  0.53479042  0.14593299  1
  N  N61  1  0.50651008  0.86057709  0.95869950  1
  N  N62  1  0.81927659  0.85406701  0.13942291  1
  N  N63  1  0.68072341  0.04130050  0.46520958  1
  N  N64  1  0.54820120  0.67688437  0.46342130  1
  N  N65  1  0.95179880  0.98837750  0.37131683  1
  N  N66  1  0.35969433  0.53657870  0.01162250  1
  N  N67  1  0.14030567  0.62868317  0.32311563  1
  N  N68  1  0.45179880  0.32311563  0.53657870  1
  N  N69  1  0.04820120  0.01162250  0.62868317  1
  N  N70  1  0.64030567  0.46342130  0.98837750  1
  N  N71  1  0.85969433  0.37131683  0.67688437  1
