# generated using pymatgen
data_K2Sn3O7
_symmetry_space_group_name_H-M   'P 1'
_cell_length_a   3.19823480
_cell_length_b   12.94155960
_cell_length_c   17.11324305
_cell_angle_alpha   90.00000000
_cell_angle_beta   90.00000000
_cell_angle_gamma   90.00000000
_symmetry_Int_Tables_number   1
_chemical_formula_structural   K2Sn3O7
_chemical_formula_sum   'K8 Sn12 O28'
_cell_volume   708.31963315
_cell_formula_units_Z   4
loop_
 _symmetry_equiv_pos_site_id
 _symmetry_equiv_pos_as_xyz
  1  'x, y, z'
loop_
 _atom_site_type_symbol
 _atom_site_label
 _atom_site_symmetry_multiplicity
 _atom_site_fract_x
 _atom_site_fract_y
 _atom_site_fract_z
 _atom_site_occupancy
  K  K0  1  0.25000000  0.44203365  0.30555564  1
  K  K1  1  0.75000000  0.55796635  0.69444436  1
  K  K2  1  0.75000000  0.94203365  0.19444436  1
  K  K3  1  0.25000000  0.05796635  0.80555564  1
  K  K4  1  0.25000000  0.89426901  0.43405642  1
  K  K5  1  0.75000000  0.10573099  0.56594358  1
  K  K6  1  0.75000000  0.39426901  0.06594358  1
  K  K7  1  0.25000000  0.60573099  0.93405642  1
  Sn  Sn8  1  0.25000000  0.11164511  0.01881894  1
  Sn  Sn9  1  0.75000000  0.88835489  0.98118106  1
  Sn  Sn10  1  0.75000000  0.61164511  0.48118106  1
  Sn  Sn11  1  0.25000000  0.38835489  0.51881894  1
  Sn  Sn12  1  0.25000000  0.70978638  0.29191101  1
  Sn  Sn13  1  0.75000000  0.29021362  0.70808899  1
  Sn  Sn14  1  0.75000000  0.20978638  0.20808899  1
  Sn  Sn15  1  0.25000000  0.79021362  0.79191101  1
  Sn  Sn16  1  0.25000000  0.16733210  0.37551018  1
  Sn  Sn17  1  0.75000000  0.83266790  0.62448982  1
  Sn  Sn18  1  0.75000000  0.66733210  0.12448982  1
  Sn  Sn19  1  0.25000000  0.33266790  0.87551018  1
  O  O20  1  0.25000000  0.57206610  0.09498621  1
  O  O21  1  0.75000000  0.42793390  0.90501379  1
  O  O22  1  0.75000000  0.07206610  0.40501379  1
  O  O23  1  0.25000000  0.92793390  0.59498621  1
  O  O24  1  0.25000000  0.76130935  0.17404683  1
  O  O25  1  0.75000000  0.23869065  0.82595317  1
  O  O26  1  0.75000000  0.26130935  0.32595317  1
  O  O27  1  0.25000000  0.73869065  0.67404683  1
  O  O28  1  0.25000000  0.30393615  0.17827745  1
  O  O29  1  0.75000000  0.69606385  0.82172255  1
  O  O30  1  0.75000000  0.80393615  0.32172255  1
  O  O31  1  0.25000000  0.19606385  0.67827745  1
  O  O32  1  0.25000000  0.11238415  0.25092358  1
  O  O33  1  0.75000000  0.88761585  0.74907642  1
  O  O34  1  0.75000000  0.61238415  0.24907642  1
  O  O35  1  0.25000000  0.38761585  0.75092358  1
  O  O36  1  0.25000000  0.63069883  0.40038666  1
  O  O37  1  0.75000000  0.36930117  0.59961334  1
  O  O38  1  0.75000000  0.13069883  0.09961334  1
  O  O39  1  0.25000000  0.86930117  0.90038666  1
  O  O40  1  0.25000000  0.24211244  0.48088834  1
  O  O41  1  0.75000000  0.75788756  0.51911166  1
  O  O42  1  0.75000000  0.74211244  0.01911166  1
  O  O43  1  0.25000000  0.25788756  0.98088834  1
  O  O44  1  0.25000000  0.55315875  0.55138402  1
  O  O45  1  0.75000000  0.44684125  0.44861598  1
  O  O46  1  0.75000000  0.05315875  0.94861598  1
  O  O47  1  0.25000000  0.94684125  0.05138402  1
