# generated using pymatgen
data_Na4Zn3Se5
_symmetry_space_group_name_H-M   'P 1'
_cell_length_a   4.13433097
_cell_length_b   13.78183504
_cell_length_c   19.68580446
_cell_angle_alpha   90.00000000
_cell_angle_beta   90.00000000
_cell_angle_gamma   90.00000000
_symmetry_Int_Tables_number   1
_chemical_formula_structural   Na4Zn3Se5
_chemical_formula_sum   'Na16 Zn12 Se20'
_cell_volume   1121.67090540
_cell_formula_units_Z   4
loop_
 _symmetry_equiv_pos_site_id
 _symmetry_equiv_pos_as_xyz
  1  'x, y, z'
loop_
 _atom_site_type_symbol
 _atom_site_label
 _atom_site_symmetry_multiplicity
 _atom_site_fract_x
 _atom_site_fract_y
 _atom_site_fract_z
 _atom_site_occupancy
  Na  Na0  1  0.75000000  0.50105576  0.73280718  1
  Na  Na1  1  0.75000000  1.00105576  0.76719282  1
  Na  Na2  1  0.25000000  0.49894424  0.26719282  1
  Na  Na3  1  0.25000000  -0.00105576  0.23280718  1
  Na  Na4  1  0.75000000  0.49281054  0.08277672  1
  Na  Na5  1  0.75000000  0.99281054  0.41722328  1
  Na  Na6  1  0.25000000  0.50718946  0.91722328  1
  Na  Na7  1  0.25000000  0.00718946  0.58277672  1
  Na  Na8  1  0.75000000  0.38892954  0.54971669  1
  Na  Na9  1  0.75000000  0.88892954  0.95028331  1
  Na  Na10  1  0.25000000  0.61107046  0.45028331  1
  Na  Na11  1  0.25000000  0.11107046  0.04971669  1
  Na  Na12  1  0.75000000  0.22660942  0.66715388  1
  Na  Na13  1  0.75000000  0.72660942  0.83284612  1
  Na  Na14  1  0.25000000  0.77339058  0.33284612  1
  Na  Na15  1  0.25000000  0.27339058  0.16715388  1
  Zn  Zn16  1  0.75000000  0.29132864  0.96031778  1
  Zn  Zn17  1  0.75000000  0.79132864  0.53968222  1
  Zn  Zn18  1  0.25000000  0.70867136  0.03968222  1
  Zn  Zn19  1  0.25000000  0.20867136  0.46031778  1
  Zn  Zn20  1  0.75000000  0.18097241  0.28269269  1
  Zn  Zn21  1  0.75000000  0.68097241  0.21730731  1
  Zn  Zn22  1  0.25000000  0.81902759  0.71730731  1
  Zn  Zn23  1  0.25000000  0.31902759  0.78269269  1
  Zn  Zn24  1  0.75000000  0.92486220  0.13119315  1
  Zn  Zn25  1  0.75000000  0.42486220  0.36880685  1
  Zn  Zn26  1  0.25000000  0.07513780  0.86880685  1
  Zn  Zn27  1  0.25000000  0.57513780  0.63119315  1
  Se  Se28  1  0.75000000  0.37557829  0.84688735  1
  Se  Se29  1  0.75000000  0.87557829  0.65311265  1
  Se  Se30  1  0.25000000  0.62442171  0.15311265  1
  Se  Se31  1  0.25000000  0.12442171  0.34688735  1
  Se  Se32  1  0.75000000  0.35343961  0.25338804  1
  Se  Se33  1  0.75000000  0.85343961  0.24661196  1
  Se  Se34  1  0.25000000  0.64656039  0.74661196  1
  Se  Se35  1  0.25000000  0.14656039  0.75338804  1
  Se  Se36  1  0.75000000  0.15575192  0.52443183  1
  Se  Se37  1  0.75000000  0.65575192  0.97556817  1
  Se  Se38  1  0.25000000  0.84424808  0.47556817  1
  Se  Se39  1  0.25000000  0.34424808  0.02443183  1
  Se  Se40  1  0.75000000  0.10931812  0.15970851  1
  Se  Se41  1  0.75000000  0.60931812  0.34029149  1
  Se  Se42  1  0.25000000  0.89068188  0.84029149  1
  Se  Se43  1  0.25000000  0.39068188  0.65970851  1
  Se  Se44  1  0.75000000  0.11132672  0.93773187  1
  Se  Se45  1  0.75000000  0.61132672  0.56226813  1
  Se  Se46  1  0.25000000  0.88867328  0.06226813  1
  Se  Se47  1  0.25000000  0.38867328  0.43773187  1
