# generated using pymatgen
data_Sr2BN2F
_symmetry_space_group_name_H-M   'P 1'
_cell_length_a   3.93708053
_cell_length_b   9.93011586
_cell_length_c   10.30454153
_cell_angle_alpha   90.00000000
_cell_angle_beta   90.00000000
_cell_angle_gamma   90.00000000
_symmetry_Int_Tables_number   1
_chemical_formula_structural   Sr2BN2F
_chemical_formula_sum   'Sr8 B4 N8 F4'
_cell_volume   402.86291201
_cell_formula_units_Z   4
loop_
 _symmetry_equiv_pos_site_id
 _symmetry_equiv_pos_as_xyz
  1  'x, y, z'
loop_
 _atom_site_type_symbol
 _atom_site_label
 _atom_site_symmetry_multiplicity
 _atom_site_fract_x
 _atom_site_fract_y
 _atom_site_fract_z
 _atom_site_occupancy
  B  B0  1  0.25000000  0.72931469  0.67299662  1
  B  B1  1  0.75000000  0.27068531  0.32700338  1
  B  B2  1  0.25000000  0.22931469  0.82700338  1
  B  B3  1  0.75000000  0.77068531  0.17299662  1
  N  N4  1  0.25000000  0.64821206  0.56681750  1
  N  N5  1  0.75000000  0.35178794  0.43318250  1
  N  N6  1  0.25000000  0.14821206  0.93318250  1
  N  N7  1  0.75000000  0.18374311  0.22786212  1
  N  N8  1  0.25000000  0.31625689  0.72786212  1
  N  N9  1  0.75000000  0.68374311  0.27213788  1
  N  N10  1  0.25000000  0.81625689  0.77213788  1
  N  N11  1  0.75000000  0.85178794  0.06681750  1
  F  F12  1  0.75000000  0.54558829  0.89823992  1
  F  F13  1  0.75000000  0.04558829  0.60176008  1
  F  F14  1  0.25000000  0.45441171  0.10176008  1
  F  F15  1  0.25000000  0.95441171  0.39823992  1
  Sr  Sr16  1  0.25000000  0.67741782  0.97943575  1
  Sr  Sr17  1  0.75000000  0.82258218  0.47943575  1
  Sr  Sr18  1  0.25000000  0.17741782  0.52056425  1
  Sr  Sr19  1  0.75000000  0.32258218  0.02056425  1
  Sr  Sr20  1  0.25000000  0.52757723  0.33887261  1
  Sr  Sr21  1  0.75000000  0.47242277  0.66112739  1
  Sr  Sr22  1  0.25000000  0.02757723  0.16112739  1
  Sr  Sr23  1  0.75000000  0.97242277  0.83887261  1
