# generated using pymatgen
data_Ba4NbFeO8
_symmetry_space_group_name_H-M   'P 1'
_cell_length_a   6.13406059
_cell_length_b   7.65502907
_cell_length_c   21.23204190
_cell_angle_alpha   97.98404085
_cell_angle_beta   90.00000000
_cell_angle_gamma   90.00000000
_symmetry_Int_Tables_number   1
_chemical_formula_structural   Ba4NbFeO8
_chemical_formula_sum   'Ba16 Nb4 Fe4 O32'
_cell_volume   987.31657454
_cell_formula_units_Z   4
loop_
 _symmetry_equiv_pos_site_id
 _symmetry_equiv_pos_as_xyz
  1  'x, y, z'
loop_
 _atom_site_type_symbol
 _atom_site_label
 _atom_site_symmetry_multiplicity
 _atom_site_fract_x
 _atom_site_fract_y
 _atom_site_fract_z
 _atom_site_occupancy
  Ba  Ba0  1  0.26062861  0.03141242  0.40174358  1
  Ba  Ba1  1  0.76062861  0.96858758  0.09825642  1
  Ba  Ba2  1  0.73937139  0.96858758  0.59825642  1
  Ba  Ba3  1  0.23937139  0.03141242  0.90174358  1
  Ba  Ba4  1  0.25777731  0.51167895  0.36145790  1
  Ba  Ba5  1  0.75777731  0.48832105  0.13854210  1
  Ba  Ba6  1  0.74222269  0.48832105  0.63854210  1
  Ba  Ba7  1  0.24222269  0.51167895  0.86145790  1
  Ba  Ba8  1  0.77457856  0.29672509  0.45255332  1
  Ba  Ba9  1  0.27457856  0.70327491  0.04744668  1
  Ba  Ba10  1  0.22542144  0.70327491  0.54744668  1
  Ba  Ba11  1  0.72542144  0.29672509  0.95255332  1
  Ba  Ba12  1  0.78085239  0.84602895  0.28849268  1
  Ba  Ba13  1  0.28085239  0.15397105  0.21150732  1
  Ba  Ba14  1  0.21914761  0.15397105  0.71150732  1
  Ba  Ba15  1  0.71914761  0.84602895  0.78849268  1
  Nb  Nb16  1  0.76518141  0.34206096  0.28821726  1
  Nb  Nb17  1  0.26518141  0.65793904  0.21178274  1
  Nb  Nb18  1  0.23481859  0.65793904  0.71178274  1
  Nb  Nb19  1  0.73481859  0.34206096  0.78821726  1
  Fe  Fe20  1  0.72174619  0.73448179  0.44098969  1
  Fe  Fe21  1  0.22174619  0.26551821  0.05901031  1
  Fe  Fe22  1  0.27825381  0.26551821  0.55901031  1
  Fe  Fe23  1  0.77825381  0.73448179  0.94098969  1
  O  O24  1  0.99656294  0.49852863  0.24823121  1
  O  O25  1  0.49656294  0.50147137  0.25176879  1
  O  O26  1  0.00343706  0.50147137  0.75176879  1
  O  O27  1  0.50343706  0.49852863  0.74823121  1
  O  O28  1  0.99537494  0.21229736  0.32187393  1
  O  O29  1  0.49537494  0.78770264  0.17812607  1
  O  O30  1  0.00462506  0.78770264  0.67812607  1
  O  O31  1  0.50462506  0.21229736  0.82187393  1
  O  O32  1  0.73588039  0.18972506  0.20766156  1
  O  O33  1  0.23588039  0.81027494  0.29233844  1
  O  O34  1  0.26411961  0.81027494  0.79233844  1
  O  O35  1  0.76411961  0.18972506  0.70766156  1
  O  O36  1  0.53255482  0.22518005  0.33127292  1
  O  O37  1  0.03255482  0.77481995  0.16872708  1
  O  O38  1  0.46744518  0.77481995  0.66872708  1
  O  O39  1  0.96744518  0.22518005  0.83127292  1
  O  O40  1  0.77457241  0.54893908  0.36861565  1
  O  O41  1  0.27457241  0.45106092  0.13138435  1
  O  O42  1  0.22542759  0.45106092  0.63138435  1
  O  O43  1  0.72542759  0.54893908  0.86861565  1
  O  O44  1  0.84551319  0.94163967  0.41800451  1
  O  O45  1  0.34551319  0.05836033  0.08199549  1
  O  O46  1  0.15448681  0.05836033  0.58199549  1
  O  O47  1  0.65448681  0.94163967  0.91800451  1
  O  O48  1  0.80331862  0.65761145  0.51971854  1
  O  O49  1  0.30331862  0.34238855  0.98028146  1
  O  O50  1  0.19668138  0.34238855  0.48028146  1
  O  O51  1  0.69668138  0.65761145  0.01971854  1
  O  O52  1  0.41507621  0.76061683  0.44477799  1
  O  O53  1  0.91507621  0.23938317  0.05522201  1
  O  O54  1  0.58492379  0.23938317  0.55522201  1
  O  O55  1  0.08492379  0.76061683  0.94477799  1
