# generated using pymatgen
data_Al13(CuSe8)3
_symmetry_space_group_name_H-M   'P 1'
_cell_length_a   7.42514990
_cell_length_b   7.42515008
_cell_length_c   22.29828254
_cell_angle_alpha   60.48853895
_cell_angle_beta   60.48853667
_cell_angle_gamma   60.50049388
_symmetry_Int_Tables_number   1
_chemical_formula_structural   Al13(CuSe8)3
_chemical_formula_sum   'Al13 Cu3 Se24'
_cell_volume   878.97092929
_cell_formula_units_Z   1
loop_
 _symmetry_equiv_pos_site_id
 _symmetry_equiv_pos_as_xyz
  1  'x, y, z'
loop_
 _atom_site_type_symbol
 _atom_site_label
 _atom_site_symmetry_multiplicity
 _atom_site_fract_x
 _atom_site_fract_y
 _atom_site_fract_z
 _atom_site_occupancy
  Al  Al0  1  0.24155897  0.24155897  0.09137521  1
  Al  Al1  1  0.24227253  0.24227253  0.41647659  1
  Al  Al2  1  0.24904641  0.24904641  0.74777455  1
  Al  Al3  1  0.12137958  0.62914217  0.20651403  1
  Al  Al4  1  0.11383306  0.62926610  0.54250451  1
  Al  Al5  1  0.10819915  0.62770266  0.87873936  1
  Al  Al6  1  0.62967177  0.62967177  0.37308227  1
  Al  Al7  1  0.62845144  0.62845144  0.70223134  1
  Al  Al8  1  0.62914217  0.12137958  0.20651403  1
  Al  Al9  1  0.62926610  0.11383306  0.54250451  1
  Al  Al10  1  0.62770266  0.10819915  0.87873936  1
  Al  Al11  1  0.62976494  0.62976494  0.20659989  1
  Al  Al12  1  0.62777672  0.62777672  0.87900785  1
  Cu  Cu13  1  0.00381197  0.00381197  0.99675557  1
  Cu  Cu14  1  0.99825097  0.99825097  0.33556199  1
  Cu  Cu15  1  0.00538206  0.00538206  0.66552840  1
  Se  Se16  1  0.38499997  0.38499997  0.12700316  1
  Se  Se17  1  0.38225679  0.38225679  0.46110384  1
  Se  Se18  1  0.38329090  0.38329090  0.79434591  1
  Se  Se19  1  0.38436055  0.85003861  0.12682695  1
  Se  Se20  1  0.38423989  0.85049947  0.46159584  1
  Se  Se21  1  0.38464005  0.84647760  0.79505677  1
  Se  Se22  1  0.38422341  0.38422341  0.28320100  1
  Se  Se23  1  0.38338846  0.38338846  0.61750595  1
  Se  Se24  1  0.38204057  0.38204057  0.95114597  1
  Se  Se25  1  0.85003861  0.38436055  0.12682695  1
  Se  Se26  1  0.85049947  0.38423989  0.46159584  1
  Se  Se27  1  0.84647760  0.38464005  0.79505677  1
  Se  Se28  1  0.39657661  0.86649119  0.28956088  1
  Se  Se29  1  0.39469841  0.86906412  0.62199873  1
  Se  Se30  1  0.39504589  0.86649153  0.95751829  1
  Se  Se31  1  0.86959306  0.86959306  0.13026526  1
  Se  Se32  1  0.87045266  0.87045266  0.46398591  1
  Se  Se33  1  0.86800376  0.86800376  0.79819951  1
  Se  Se34  1  0.86649119  0.39657661  0.28956088  1
  Se  Se35  1  0.86906412  0.39469841  0.62199873  1
  Se  Se36  1  0.86649153  0.39504589  0.95751829  1
  Se  Se37  1  0.86944341  0.86944341  0.28862609  1
  Se  Se38  1  0.86815991  0.86815991  0.62351016  1
  Se  Se39  1  0.86580068  0.86580068  0.95748686  1
