# generated using pymatgen
data_Ba3IrN3
_symmetry_space_group_name_H-M   'P 1'
_cell_length_a   8.17119045
_cell_length_b   8.17291698
_cell_length_c   5.68351202
_cell_angle_alpha   90.00000000
_cell_angle_beta   90.00000000
_cell_angle_gamma   119.98935780
_symmetry_Int_Tables_number   1
_chemical_formula_structural   Ba3IrN3
_chemical_formula_sum   'Ba6 Ir2 N6'
_cell_volume   328.74291225
_cell_formula_units_Z   2
loop_
 _symmetry_equiv_pos_site_id
 _symmetry_equiv_pos_as_xyz
  1  'x, y, z'
loop_
 _atom_site_type_symbol
 _atom_site_label
 _atom_site_symmetry_multiplicity
 _atom_site_fract_x
 _atom_site_fract_y
 _atom_site_fract_z
 _atom_site_occupancy
  Ba  Ba0  1  0.90117254  0.63546809  0.25000000  1
  Ba  Ba1  1  0.73420087  0.09873314  0.25000000  1
  Ba  Ba2  1  0.36459476  0.26578734  0.25000000  1
  Ba  Ba3  1  0.09882746  0.36453191  0.75000000  1
  Ba  Ba4  1  0.26579913  0.90126686  0.75000000  1
  Ba  Ba5  1  0.63540524  0.73421266  0.75000000  1
  Ir  Ir6  1  0.66659082  0.33334399  0.75000000  1
  Ir  Ir7  1  0.33340918  0.66665601  0.25000000  1
  N  N8  1  0.88554092  0.57513695  0.75000000  1
  N  N9  1  0.68956663  0.11441157  0.75000000  1
  N  N10  1  0.42491855  0.31039269  0.75000000  1
  N  N11  1  0.11445908  0.42486305  0.25000000  1
  N  N12  1  0.31043337  0.88558843  0.25000000  1
  N  N13  1  0.57508145  0.68960731  0.25000000  1
