# generated using pymatgen
data_Ba3OsN3
_symmetry_space_group_name_H-M   'P 1'
_cell_length_a   8.25737744
_cell_length_b   5.70411321
_cell_length_c   8.25828548
_cell_angle_alpha   90.00000000
_cell_angle_beta   119.97977288
_cell_angle_gamma   90.00000000
_symmetry_Int_Tables_number   1
_chemical_formula_structural   Ba3OsN3
_chemical_formula_sum   'Ba6 Os2 N6'
_cell_volume   336.92968721
_cell_formula_units_Z   2
loop_
 _symmetry_equiv_pos_site_id
 _symmetry_equiv_pos_as_xyz
  1  'x, y, z'
loop_
 _atom_site_type_symbol
 _atom_site_label
 _atom_site_symmetry_multiplicity
 _atom_site_fract_x
 _atom_site_fract_y
 _atom_site_fract_z
 _atom_site_occupancy
  Ba  Ba0  1  0.64035082  0.75000000  0.40222131  1
  Ba  Ba1  1  0.09930326  0.75000000  0.23591446  1
  Ba  Ba2  1  0.26296651  0.75000000  0.86241101  1
  Ba  Ba3  1  0.35964918  0.25000000  0.59777869  1
  Ba  Ba4  1  0.90069674  0.25000000  0.76408554  1
  Ba  Ba5  1  0.73703349  0.25000000  0.13758899  1
  Os  Os6  1  0.33276413  0.25000000  0.16628020  1
  Os  Os7  1  0.66723587  0.75000000  0.83371980  1
  N  N8  1  0.56557465  0.25000000  0.38175607  1
  N  N9  1  0.11728481  0.25000000  0.18360934  1
  N  N10  1  0.31416231  0.25000000  0.93279493  1
  N  N11  1  0.43442535  0.75000000  0.61824393  1
  N  N12  1  0.88271519  0.75000000  0.81639066  1
  N  N13  1  0.68583769  0.75000000  0.06720507  1
