# generated using pymatgen
data_Ba3RuN3
_symmetry_space_group_name_H-M   'P 1'
_cell_length_a   8.26586445
_cell_length_b   8.26509888
_cell_length_c   5.65996558
_cell_angle_alpha   90.00000000
_cell_angle_beta   90.00000000
_cell_angle_gamma   120.00007666
_symmetry_Int_Tables_number   1
_chemical_formula_structural   Ba3RuN3
_chemical_formula_sum   'Ba6 Ru2 N6'
_cell_volume   334.87322093
_cell_formula_units_Z   2
loop_
 _symmetry_equiv_pos_site_id
 _symmetry_equiv_pos_as_xyz
  1  'x, y, z'
loop_
 _atom_site_type_symbol
 _atom_site_label
 _atom_site_symmetry_multiplicity
 _atom_site_fract_x
 _atom_site_fract_y
 _atom_site_fract_z
 _atom_site_occupancy
  Ba  Ba0  1  0.90704810  0.63685621  0.25000000  1
  Ba  Ba1  1  0.72990071  0.09299713  0.25000000  1
  Ba  Ba2  1  0.36302992  0.27015796  0.25000000  1
  Ba  Ba3  1  0.09295190  0.36314379  0.75000000  1
  Ba  Ba4  1  0.27009929  0.90700287  0.75000000  1
  Ba  Ba5  1  0.63697008  0.72984204  0.75000000  1
  Ru  Ru6  1  0.66674885  0.33345322  0.75000000  1
  Ru  Ru7  1  0.33325115  0.66654678  0.25000000  1
  N  N8  1  0.88078481  0.56783062  0.75000000  1
  N  N9  1  0.68709498  0.11913414  0.75000000  1
  N  N10  1  0.43212496  0.31297297  0.75000000  1
  N  N11  1  0.11921519  0.43216938  0.25000000  1
  N  N12  1  0.31290502  0.88086586  0.25000000  1
  N  N13  1  0.56787504  0.68702703  0.25000000  1
