# generated using pymatgen
data_Al13(CuS8)3
_symmetry_space_group_name_H-M   'P 1'
_cell_length_a   7.01683561
_cell_length_b   7.01683599
_cell_length_c   21.05437391
_cell_angle_alpha   60.33430786
_cell_angle_beta   60.33430844
_cell_angle_gamma   60.38304870
_symmetry_Int_Tables_number   1
_chemical_formula_structural   Al13(CuS8)3
_chemical_formula_sum   'Al13 Cu3 S24'
_cell_volume   738.82266853
_cell_formula_units_Z   1
loop_
 _symmetry_equiv_pos_site_id
 _symmetry_equiv_pos_as_xyz
  1  'x, y, z'
loop_
 _atom_site_type_symbol
 _atom_site_label
 _atom_site_symmetry_multiplicity
 _atom_site_fract_x
 _atom_site_fract_y
 _atom_site_fract_z
 _atom_site_occupancy
  Al  Al0  1  0.01566621  0.49803368  0.16278102  1
  Al  Al1  1  0.00801917  0.49616995  0.49932740  1
  Al  Al2  1  0.00111696  0.49616628  0.83593059  1
  Al  Al3  1  0.49741511  0.49741511  0.33901289  1
  Al  Al4  1  0.49543446  0.49543446  0.66767907  1
  Al  Al5  1  0.49803368  0.01566621  0.16278102  1
  Al  Al6  1  0.49616995  0.00801917  0.49932740  1
  Al  Al7  1  0.49616628  0.00111696  0.83593059  1
  Al  Al8  1  0.49808877  0.49808877  0.16250890  1
  Al  Al9  1  0.49533779  0.49533779  0.83585693  1
  Al  Al10  1  0.87578382  0.87578382  0.29377599  1
  Al  Al11  1  0.88244533  0.88244533  0.62481499  1
  Al  Al12  1  0.88268841  0.88268841  0.95094976  1
  Cu  Cu13  1  0.12146450  0.12146450  0.04478985  1
  Cu  Cu14  1  0.11956704  0.11956704  0.37688713  1
  Cu  Cu15  1  0.12765969  0.12765969  0.70593290  1
  S  S16  1  0.25732857  0.25732857  0.08546827  1
  S  S17  1  0.25808905  0.25808905  0.41809045  1
  S  S18  1  0.25595042  0.25595042  0.75353706  1
  S  S19  1  0.25674059  0.72962979  0.08545842  1
  S  S20  1  0.25385421  0.72932484  0.41924986  1
  S  S21  1  0.25961430  0.72583138  0.75223080  1
  S  S22  1  0.25769149  0.25769149  0.24265296  1
  S  S23  1  0.25280474  0.25280474  0.57715406  1
  S  S24  1  0.25623032  0.25623032  0.91060282  1
  S  S25  1  0.72962979  0.25674059  0.08545842  1
  S  S26  1  0.72932484  0.25385421  0.41924986  1
  S  S27  1  0.72583138  0.25961430  0.75223080  1
  S  S28  1  0.27743579  0.74071570  0.24678696  1
  S  S29  1  0.27306544  0.74391490  0.58083851  1
  S  S30  1  0.27286778  0.74345396  0.91358642  1
  S  S31  1  0.74346661  0.74346661  0.09003217  1
  S  S32  1  0.74470978  0.74470978  0.42364141  1
  S  S33  1  0.74132508  0.74132508  0.75810818  1
  S  S34  1  0.74071570  0.27743579  0.24678696  1
  S  S35  1  0.74391490  0.27306544  0.58083851  1
  S  S36  1  0.74345396  0.27286778  0.91358642  1
  S  S37  1  0.74212439  0.74212439  0.24741271  1
  S  S38  1  0.74328447  0.74328447  0.58077815  1
  S  S39  1  0.74311722  0.74311722  0.91339039  1
