# generated using pymatgen
data_KBaBiTeO6
_symmetry_space_group_name_H-M   'P 1'
_cell_length_a   6.07679270
_cell_length_b   6.04757356
_cell_length_c   8.58621212
_cell_angle_alpha   90.00000000
_cell_angle_beta   89.99057926
_cell_angle_gamma   90.00000000
_symmetry_Int_Tables_number   1
_chemical_formula_structural   KBaBiTeO6
_chemical_formula_sum   'K2 Ba2 Bi2 Te2 O12'
_cell_volume   315.54201061
_cell_formula_units_Z   2
loop_
 _symmetry_equiv_pos_site_id
 _symmetry_equiv_pos_as_xyz
  1  'x, y, z'
loop_
 _atom_site_type_symbol
 _atom_site_label
 _atom_site_symmetry_multiplicity
 _atom_site_fract_x
 _atom_site_fract_y
 _atom_site_fract_z
 _atom_site_occupancy
  K  K0  1  0.50634796  0.00000000  0.25060938  1
  K  K1  1  0.99365204  0.50000000  0.24939062  1
  Ba  Ba2  1  0.50441101  0.00000000  0.74979036  1
  Ba  Ba3  1  0.99558899  0.50000000  0.75020964  1
  Bi  Bi4  1  0.49775583  0.50000000  0.01509427  1
  Bi  Bi5  1  0.00224417  0.00000000  0.48490573  1
  Te  Te6  1  0.00207152  0.00000000  0.99516271  1
  Te  Te7  1  0.49792848  0.50000000  0.50483729  1
  O  O8  1  0.03938141  0.00000000  0.22029573  1
  O  O9  1  0.96935745  0.00000000  0.76369272  1
  O  O10  1  0.53064255  0.50000000  0.73630728  1
  O  O11  1  0.46061859  0.50000000  0.27970427  1
  O  O12  1  0.23073613  0.22978314  0.96909667  1
  O  O13  1  0.77394106  0.76930206  0.00283578  1
  O  O14  1  0.77394106  0.23069794  0.00283578  1
  O  O15  1  0.23073613  0.77021686  0.96909667  1
  O  O16  1  0.72605894  0.73069794  0.49716422  1
  O  O17  1  0.26926387  0.27021686  0.53090333  1
  O  O18  1  0.26926387  0.72978314  0.53090333  1
  O  O19  1  0.72605894  0.26930206  0.49716422  1
