# generated using pymatgen
data_MgB4Os3
_symmetry_space_group_name_H-M   'P 1'
_cell_length_a   2.92136945
_cell_length_b   6.13421551
_cell_length_c   9.80732208
_cell_angle_alpha   90.00000000
_cell_angle_beta   90.00000000
_cell_angle_gamma   103.77565896
_symmetry_Int_Tables_number   1
_chemical_formula_structural   MgB4Os3
_chemical_formula_sum   'Mg2 B8 Os6'
_cell_volume   170.69488676
_cell_formula_units_Z   2
loop_
 _symmetry_equiv_pos_site_id
 _symmetry_equiv_pos_as_xyz
  1  'x, y, z'
loop_
 _atom_site_type_symbol
 _atom_site_label
 _atom_site_symmetry_multiplicity
 _atom_site_fract_x
 _atom_site_fract_y
 _atom_site_fract_z
 _atom_site_occupancy
  B  B0  1  0.62334902  0.24669804  0.25000000  1
  B  B1  1  0.37665098  0.75330196  0.75000000  1
  B  B2  1  0.34580142  0.69160283  0.25000000  1
  B  B3  1  0.65419858  0.30839717  0.75000000  1
  B  B4  1  0.15909808  0.31819616  0.88944103  1
  B  B5  1  0.84090192  0.68180384  0.38944103  1
  B  B6  1  0.84090192  0.68180384  0.11055897  1
  B  B7  1  0.15909808  0.31819616  0.61055897  1
  Mg  Mg8  1  0.50000000  0.00000000  0.00000000  1
  Mg  Mg9  1  0.50000000  0.00000000  0.50000000  1
  Os  Os10  1  0.19971049  0.39942098  0.10708043  1
  Os  Os11  1  0.01640177  0.03280353  0.75000000  1
  Os  Os12  1  0.98359823  0.96719647  0.25000000  1
  Os  Os13  1  0.80028951  0.60057902  0.89291957  1
  Os  Os14  1  0.80028951  0.60057902  0.60708043  1
  Os  Os15  1  0.19971049  0.39942098  0.39291957  1
