# generated using pymatgen
data_LaCrS3
_symmetry_space_group_name_H-M   'P 1'
_cell_length_a   3.82887027
_cell_length_b   7.88366292
_cell_length_c   13.14069475
_cell_angle_alpha   90.00000000
_cell_angle_beta   90.00000000
_cell_angle_gamma   90.00000000
_symmetry_Int_Tables_number   1
_chemical_formula_structural   LaCrS3
_chemical_formula_sum   'La4 Cr4 S12'
_cell_volume   396.65873800
_cell_formula_units_Z   4
loop_
 _symmetry_equiv_pos_site_id
 _symmetry_equiv_pos_as_xyz
  1  'x, y, z'
loop_
 _atom_site_type_symbol
 _atom_site_label
 _atom_site_symmetry_multiplicity
 _atom_site_fract_x
 _atom_site_fract_y
 _atom_site_fract_z
 _atom_site_occupancy
  S  S0  1  0.25000000  0.98881174  0.39570094  1
  S  S1  1  0.75000000  0.01118826  0.60429906  1
  S  S2  1  0.25000000  0.48881174  0.10429906  1
  S  S3  1  0.75000000  0.51118826  0.89570094  1
  S  S4  1  0.25000000  0.83664422  0.99464027  1
  S  S5  1  0.75000000  0.16335578  0.00535973  1
  S  S6  1  0.25000000  0.33664422  0.50535973  1
  S  S7  1  0.75000000  0.66335578  0.49464027  1
  S  S8  1  0.75000000  0.80424841  0.21294541  1
  S  S9  1  0.25000000  0.19575159  0.78705459  1
  S  S10  1  0.75000000  0.30424841  0.28705459  1
  S  S11  1  0.25000000  0.69575159  0.71294541  1
  Cr  Cr12  1  0.25000000  0.83842723  0.55247069  1
  Cr  Cr13  1  0.75000000  0.16157277  0.44752931  1
  Cr  Cr14  1  0.25000000  0.33842723  0.94752931  1
  Cr  Cr15  1  0.75000000  0.66157277  0.05247069  1
  La  La16  1  0.25000000  0.58690574  0.32849712  1
  La  La17  1  0.75000000  0.41309426  0.67150288  1
  La  La18  1  0.25000000  0.08690574  0.17150288  1
  La  La19  1  0.75000000  0.91309426  0.82849712  1
