# generated using pymatgen
data_Cs2Ti(CuSe2)2
_symmetry_space_group_name_H-M   'P 1'
_cell_length_a   5.91354259
_cell_length_b   5.91354259
_cell_length_c   14.54037929
_cell_angle_alpha   90.00000000
_cell_angle_beta   90.00000000
_cell_angle_gamma   90.00000000
_symmetry_Int_Tables_number   1
_chemical_formula_structural   Cs2Ti(CuSe2)2
_chemical_formula_sum   'Cs4 Ti2 Cu4 Se8'
_cell_volume   508.47685968
_cell_formula_units_Z   2
loop_
 _symmetry_equiv_pos_site_id
 _symmetry_equiv_pos_as_xyz
  1  'x, y, z'
loop_
 _atom_site_type_symbol
 _atom_site_label
 _atom_site_symmetry_multiplicity
 _atom_site_fract_x
 _atom_site_fract_y
 _atom_site_fract_z
 _atom_site_occupancy
  Ti  Ti0  1  0.50000000  0.50000000  0.25000000  1
  Ti  Ti1  1  0.50000000  0.50000000  0.75000000  1
  Cu  Cu2  1  0.00000000  0.50000000  0.75000000  1
  Cu  Cu3  1  0.50000000  0.00000000  0.75000000  1
  Cu  Cu4  1  0.50000000  0.00000000  0.25000000  1
  Cu  Cu5  1  0.00000000  0.50000000  0.25000000  1
  Se  Se6  1  0.73986738  0.26013262  0.15682348  1
  Se  Se7  1  0.73986738  0.73986738  0.34317652  1
  Se  Se8  1  0.26013262  0.26013262  0.65682348  1
  Se  Se9  1  0.73986738  0.73986738  0.65682348  1
  Se  Se10  1  0.26013262  0.26013262  0.34317652  1
  Se  Se11  1  0.73986738  0.26013262  0.84317652  1
  Se  Se12  1  0.26013262  0.73986738  0.84317652  1
  Se  Se13  1  0.26013262  0.73986738  0.15682348  1
  Cs  Cs14  1  0.75743059  0.75743059  0.00000000  1
  Cs  Cs15  1  0.24256941  0.75743059  0.50000000  1
  Cs  Cs16  1  0.75743059  0.24256941  0.50000000  1
  Cs  Cs17  1  0.24256941  0.24256941  0.00000000  1
