# generated using pymatgen
data_FeB
_symmetry_space_group_name_H-M   'P 1'
_cell_length_a   2.93164764
_cell_length_b   2.93164764
_cell_length_c   7.76109239
_cell_angle_alpha   100.88674608
_cell_angle_beta   100.88674608
_cell_angle_gamma   90.00000000
_symmetry_Int_Tables_number   1
_chemical_formula_structural   FeB
_chemical_formula_sum   'Fe4 B4'
_cell_volume   64.27975151
_cell_formula_units_Z   4
loop_
 _symmetry_equiv_pos_site_id
 _symmetry_equiv_pos_as_xyz
  1  'x, y, z'
loop_
 _atom_site_type_symbol
 _atom_site_label
 _atom_site_symmetry_multiplicity
 _atom_site_fract_x
 _atom_site_fract_y
 _atom_site_fract_z
 _atom_site_occupancy
  Fe  Fe0  1  0.67901380  0.92901380  0.35802760  1
  Fe  Fe1  1  0.92901380  0.67901380  0.85802760  1
  Fe  Fe2  1  0.32098620  0.07098620  0.64197240  1
  Fe  Fe3  1  0.07098620  0.32098620  0.14197240  1
  B  B4  1  0.21509650  0.46509650  0.43019300  1
  B  B5  1  0.46509650  0.21509650  0.93019300  1
  B  B6  1  0.78490350  0.53490350  0.56980700  1
  B  B7  1  0.53490350  0.78490350  0.06980700  1
