# generated using pymatgen
data_SmAu6
_symmetry_space_group_name_H-M   'P 1'
_cell_length_a   9.95138199
_cell_length_b   10.58958415
_cell_length_c   10.58958415
_cell_angle_alpha   90.00000000
_cell_angle_beta   90.00000000
_cell_angle_gamma   90.00000000
_symmetry_Int_Tables_number   1
_chemical_formula_structural   SmAu6
_chemical_formula_sum   'Sm8 Au48'
_cell_volume   1115.94093546
_cell_formula_units_Z   8
loop_
 _symmetry_equiv_pos_site_id
 _symmetry_equiv_pos_as_xyz
  1  'x, y, z'
loop_
 _atom_site_type_symbol
 _atom_site_label
 _atom_site_symmetry_multiplicity
 _atom_site_fract_x
 _atom_site_fract_y
 _atom_site_fract_z
 _atom_site_occupancy
  Sm  Sm0  1  0.28955102  0.92533355  0.92533355  1
  Sm  Sm1  1  0.28955102  0.57466645  0.57466645  1
  Sm  Sm2  1  0.78955102  0.92533355  0.57466645  1
  Sm  Sm3  1  0.78955102  0.57466645  0.92533355  1
  Sm  Sm4  1  0.71044898  0.42533355  0.42533355  1
  Sm  Sm5  1  0.21044898  0.07466645  0.42533355  1
  Sm  Sm6  1  0.21044898  0.42533355  0.07466645  1
  Sm  Sm7  1  0.71044898  0.07466645  0.07466645  1
  Au  Au8  1  0.18099598  0.14645809  0.14645809  1
  Au  Au9  1  0.68099598  0.35354191  0.14645809  1
  Au  Au10  1  0.68099598  0.14645809  0.35354191  1
  Au  Au11  1  0.18099598  0.35354191  0.35354191  1
  Au  Au12  1  0.31900402  0.64645809  0.85354191  1
  Au  Au13  1  0.31900402  0.85354191  0.64645809  1
  Au  Au14  1  0.81900402  0.64645809  0.64645809  1
  Au  Au15  1  0.81900402  0.85354191  0.85354191  1
  Au  Au16  1  0.14469319  0.62357326  0.30139598  1
  Au  Au17  1  0.64469319  0.19860402  0.62357326  1
  Au  Au18  1  0.64469319  0.30139598  0.87642674  1
  Au  Au19  1  0.14469319  0.87642674  0.19860402  1
  Au  Au20  1  0.35530681  0.12357326  0.69860402  1
  Au  Au21  1  0.35530681  0.37642674  0.80139598  1
  Au  Au22  1  0.85530681  0.80139598  0.12357326  1
  Au  Au23  1  0.85530681  0.69860402  0.37642674  1
  Au  Au24  1  0.85530681  0.37642674  0.69860402  1
  Au  Au25  1  0.35530681  0.80139598  0.37642674  1
  Au  Au26  1  0.35530681  0.69860402  0.12357326  1
  Au  Au27  1  0.85530681  0.12357326  0.80139598  1
  Au  Au28  1  0.64469319  0.87642674  0.30139598  1
  Au  Au29  1  0.64469319  0.62357326  0.19860402  1
  Au  Au30  1  0.14469319  0.19860402  0.87642674  1
  Au  Au31  1  0.14469319  0.30139598  0.62357326  1
  Au  Au32  1  0.07872301  0.68111673  0.01350663  1
  Au  Au33  1  0.57872301  0.48649337  0.68111673  1
  Au  Au34  1  0.57872301  0.01350663  0.81888327  1
  Au  Au35  1  0.07872301  0.81888327  0.48649337  1
  Au  Au36  1  0.42127699  0.18111673  0.98649337  1
  Au  Au37  1  0.42127699  0.31888327  0.51350663  1
  Au  Au38  1  0.92127699  0.51350663  0.18111673  1
  Au  Au39  1  0.92127699  0.98649337  0.31888327  1
  Au  Au40  1  0.92127699  0.31888327  0.98649337  1
  Au  Au41  1  0.42127699  0.51350663  0.31888327  1
  Au  Au42  1  0.42127699  0.98649337  0.18111673  1
  Au  Au43  1  0.92127699  0.18111673  0.51350663  1
  Au  Au44  1  0.57872301  0.81888327  0.01350663  1
  Au  Au45  1  0.57872301  0.68111673  0.48649337  1
  Au  Au46  1  0.07872301  0.48649337  0.81888327  1
  Au  Au47  1  0.07872301  0.01350663  0.68111673  1
  Au  Au48  1  0.56326174  0.75000000  0.75000000  1
  Au  Au49  1  0.06326174  0.75000000  0.75000000  1
  Au  Au50  1  0.93673826  0.25000000  0.25000000  1
  Au  Au51  1  0.43673826  0.25000000  0.25000000  1
  Au  Au52  1  0.00000000  0.50000000  0.50000000  1
  Au  Au53  1  0.50000000  0.00000000  0.50000000  1
  Au  Au54  1  0.50000000  0.50000000  0.00000000  1
  Au  Au55  1  0.00000000  0.00000000  0.00000000  1
