# generated using pymatgen
data_Lu3BC3
_symmetry_space_group_name_H-M   'P 1'
_cell_length_a   3.53598631
_cell_length_b   3.53598631
_cell_length_c   15.70778629
_cell_angle_alpha   90.00000000
_cell_angle_beta   90.00000000
_cell_angle_gamma   90.39146370
_symmetry_Int_Tables_number   1
_chemical_formula_structural   Lu3BC3
_chemical_formula_sum   'Lu6 B2 C6'
_cell_volume   196.39299669
_cell_formula_units_Z   2
loop_
 _symmetry_equiv_pos_site_id
 _symmetry_equiv_pos_as_xyz
  1  'x, y, z'
loop_
 _atom_site_type_symbol
 _atom_site_label
 _atom_site_symmetry_multiplicity
 _atom_site_fract_x
 _atom_site_fract_y
 _atom_site_fract_z
 _atom_site_occupancy
  B  B0  1  0.00000000  0.00000000  0.00000000  1
  B  B1  1  0.00000000  0.00000000  0.50000000  1
  C  C2  1  0.09550867  0.90449133  0.91230785  1
  C  C3  1  0.90449133  0.09550867  0.41230785  1
  C  C4  1  0.90449133  0.09550867  0.08769215  1
  C  C5  1  0.09550867  0.90449133  0.58769215  1
  C  C6  1  0.59808556  0.40191444  0.75000000  1
  C  C7  1  0.40191444  0.59808556  0.25000000  1
  Lu  Lu8  1  0.58353872  0.41646128  0.89583427  1
  Lu  Lu9  1  0.41646128  0.58353872  0.39583427  1
  Lu  Lu10  1  0.41646128  0.58353872  0.10416573  1
  Lu  Lu11  1  0.58353872  0.41646128  0.60416573  1
  Lu  Lu12  1  0.91026618  0.08973382  0.25000000  1
  Lu  Lu13  1  0.08973382  0.91026618  0.75000000  1
