# generated using pymatgen
data_CoMo4N5
_symmetry_space_group_name_H-M   'P 1'
_cell_length_a   2.81244599
_cell_length_b   2.85399497
_cell_length_c   12.42613393
_cell_angle_alpha   96.59435589
_cell_angle_beta   90.00000000
_cell_angle_gamma   90.00000000
_symmetry_Int_Tables_number   1
_chemical_formula_structural   CoMo4N5
_chemical_formula_sum   'Co1 Mo4 N5'
_cell_volume   99.08105487
_cell_formula_units_Z   1
loop_
 _symmetry_equiv_pos_site_id
 _symmetry_equiv_pos_as_xyz
  1  'x, y, z'
loop_
 _atom_site_type_symbol
 _atom_site_label
 _atom_site_symmetry_multiplicity
 _atom_site_fract_x
 _atom_site_fract_y
 _atom_site_fract_z
 _atom_site_occupancy
  Co  Co0  1  -0.00000000  0.00964366  0.01926521  1
  Mo  Mo1  1  0.00000000  0.59578729  0.19147843  1
  Mo  Mo2  1  0.00000000  0.19819288  0.39642129  1
  Mo  Mo3  1  0.00000000  0.80125597  0.60242185  1
  Mo  Mo4  1  0.00000000  0.40072294  0.80130573  1
  N  N5  1  0.50000000  0.53078971  0.06159372  1
  N  N6  1  0.50000000  0.13049923  0.26093424  1
  N  N7  1  0.50000000  0.73325155  0.46652619  1
  N  N8  1  0.50000000  0.33371721  0.66736161  1
  N  N9  1  0.50000000  0.93303956  0.86599173  1
