# generated using pymatgen
data_CaCo2O5
_symmetry_space_group_name_H-M   'P 1'
_cell_length_a   3.47398369
_cell_length_b   5.07440797
_cell_length_c   11.26992939
_cell_angle_alpha   89.99245751
_cell_angle_beta   90.00002420
_cell_angle_gamma   90.00000106
_symmetry_Int_Tables_number   1
_chemical_formula_structural   CaCo2O5
_chemical_formula_sum   'Ca2 Co4 O10'
_cell_volume   198.67094009
_cell_formula_units_Z   2
loop_
 _symmetry_equiv_pos_site_id
 _symmetry_equiv_pos_as_xyz
  1  'x, y, z'
loop_
 _atom_site_type_symbol
 _atom_site_label
 _atom_site_symmetry_multiplicity
 _atom_site_fract_x
 _atom_site_fract_y
 _atom_site_fract_z
 _atom_site_occupancy
  Ca  Ca0  1  0.74999924  0.87755125  0.24991465  1
  Ca  Ca1  1  0.25000065  0.12260055  0.74989667  1
  Co  Co2  1  0.24999952  0.40822195  0.09698664  1
  Co  Co3  1  0.74999940  0.59179750  0.90301865  1
  Co  Co4  1  0.74999947  0.59186261  0.59696659  1
  Co  Co5  1  0.24999937  0.40807980  0.40303573  1
  O  O6  1  0.74999885  0.45167687  0.75000041  1
  O  O7  1  0.24999940  0.54825193  0.25000978  1
  O  O8  1  0.74999959  0.58439067  0.07021303  1
  O  O9  1  0.24999946  0.41571665  0.92981193  1
  O  O10  1  0.74999947  0.58422611  0.42978556  1
  O  O11  1  0.24999963  0.41571069  0.57022193  1
  O  O12  1  0.24999949  0.08380858  0.37054682  1
  O  O13  1  0.74999943  0.91614159  0.62954864  1
  O  O14  1  0.75000013  0.91602188  0.87044203  1
  O  O15  1  0.24999889  0.08394138  0.12959994  1
