# generated using pymatgen
data_K3Cu5O4
_symmetry_space_group_name_H-M   'P 1'
_cell_length_a   7.32420790
_cell_length_b   9.54726250
_cell_length_c   14.07141246
_cell_angle_alpha   106.90567999
_cell_angle_beta   90.00000000
_cell_angle_gamma   90.00000000
_symmetry_Int_Tables_number   1
_chemical_formula_structural   K3Cu5O4
_chemical_formula_sum   'K12 Cu20 O16'
_cell_volume   941.43744862
_cell_formula_units_Z   4
loop_
 _symmetry_equiv_pos_site_id
 _symmetry_equiv_pos_as_xyz
  1  'x, y, z'
loop_
 _atom_site_type_symbol
 _atom_site_label
 _atom_site_symmetry_multiplicity
 _atom_site_fract_x
 _atom_site_fract_y
 _atom_site_fract_z
 _atom_site_occupancy
  O  O0  1  0.56739584  0.61285921  0.40219214  1
  O  O1  1  0.45356286  0.48363725  0.87113873  1
  O  O2  1  0.04643714  0.48363725  0.37113873  1
  O  O3  1  0.95356286  0.51636275  0.62886127  1
  O  O4  1  0.54643714  0.51636275  0.12886127  1
  O  O5  1  0.15236177  0.86909603  0.61725799  1
  O  O6  1  0.65236177  0.13090397  0.88274201  1
  O  O7  1  0.84763823  0.13090397  0.38274201  1
  O  O8  1  0.34763823  0.86909603  0.11725799  1
  O  O9  1  0.67877017  0.99692080  0.60843145  1
  O  O10  1  0.17877017  0.00307920  0.89156855  1
  O  O11  1  0.32122983  0.00307920  0.39156855  1
  O  O12  1  0.06739584  0.38714079  0.09780786  1
  O  O13  1  0.43260416  0.38714079  0.59780786  1
  O  O14  1  0.93260416  0.61285921  0.90219214  1
  O  O15  1  0.82122983  0.99692080  0.10843145  1
  K  K16  1  0.41815373  0.32689511  0.39576262  1
  K  K17  1  0.91815373  0.67310489  0.10423738  1
  K  K18  1  0.58184627  0.67310489  0.60423738  1
  K  K19  1  0.08184627  0.32689511  0.89576262  1
  K  K20  1  0.72581063  0.26763405  0.08191624  1
  K  K21  1  0.22581063  0.73236595  0.41808376  1
  K  K22  1  0.27418937  0.73236595  0.91808376  1
  K  K23  1  0.77418937  0.26763405  0.58191624  1
  K  K24  1  0.83793120  0.90091809  0.90845879  1
  K  K25  1  0.16206880  0.09908191  0.09154121  1
  K  K26  1  0.33793120  0.09908191  0.59154121  1
  K  K27  1  0.66206880  0.90091809  0.40845879  1
  Cu  Cu28  1  0.05009340  0.69531513  0.62815627  1
  Cu  Cu29  1  0.55009340  0.30468487  0.87184373  1
  Cu  Cu30  1  0.94990660  0.30468487  0.37184373  1
  Cu  Cu31  1  0.44990660  0.69531513  0.12815627  1
  Cu  Cu32  1  0.30587073  0.44902939  0.11465134  1
  Cu  Cu33  1  0.80587073  0.55097061  0.38534866  1
  Cu  Cu34  1  0.69412927  0.55097061  0.88534866  1
  Cu  Cu35  1  0.33444345  0.93729511  0.25583751  1
  Cu  Cu36  1  0.83444345  0.06270489  0.24416249  1
  Cu  Cu37  1  0.66555655  0.06270489  0.74416249  1
  Cu  Cu38  1  0.16555655  0.93729511  0.75583751  1
  Cu  Cu39  1  0.55177857  0.56522229  0.26597937  1
  Cu  Cu40  1  0.05177857  0.43477771  0.23402063  1
  Cu  Cu41  1  0.44822143  0.43477771  0.73402063  1
  Cu  Cu42  1  0.94822143  0.56522229  0.76597937  1
  Cu  Cu43  1  0.58659453  0.93688201  0.11618808  1
  Cu  Cu44  1  0.08659453  0.06311799  0.38381192  1
  Cu  Cu45  1  0.41340547  0.06311799  0.88381192  1
  Cu  Cu46  1  0.91340547  0.93688201  0.61618808  1
  Cu  Cu47  1  0.19412927  0.44902939  0.61465134  1
