# generated using pymatgen
data_Yb4As3
_symmetry_space_group_name_H-M   'P 1'
_cell_length_a   7.69178994
_cell_length_b   7.69178994
_cell_length_c   7.69178994
_cell_angle_alpha   109.47122063
_cell_angle_beta   109.47122064
_cell_angle_gamma   109.47122062
_symmetry_Int_Tables_number   1
_chemical_formula_structural   Yb4As3
_chemical_formula_sum   'Yb8 As6'
_cell_volume   350.31630809
_cell_formula_units_Z   2
loop_
 _symmetry_equiv_pos_site_id
 _symmetry_equiv_pos_as_xyz
  1  'x, y, z'
loop_
 _atom_site_type_symbol
 _atom_site_label
 _atom_site_symmetry_multiplicity
 _atom_site_fract_x
 _atom_site_fract_y
 _atom_site_fract_z
 _atom_site_occupancy
  As  As0  1  0.75000000  0.87500000  0.12500000  1
  As  As1  1  0.62500000  0.37500000  0.25000000  1
  As  As2  1  0.87500000  0.12500000  0.75000000  1
  As  As3  1  0.12500000  0.75000000  0.87500000  1
  As  As4  1  0.37500000  0.25000000  0.62500000  1
  As  As5  1  0.25000000  0.62500000  0.37500000  1
  Yb  Yb6  1  0.35620140  0.50000000  0.00000000  1
  Yb  Yb7  1  0.64379860  0.64379860  0.64379860  1
  Yb  Yb8  1  0.50000000  0.00000000  0.35620140  1
  Yb  Yb9  1  0.00000000  0.35620140  0.50000000  1
  Yb  Yb10  1  0.50000000  0.00000000  0.85620140  1
  Yb  Yb11  1  0.00000000  0.85620140  0.50000000  1
  Yb  Yb12  1  0.85620140  0.50000000  0.00000000  1
  Yb  Yb13  1  0.14379860  0.14379860  0.14379860  1
