# generated using pymatgen
data_Yb2Ge2Ir
_symmetry_space_group_name_H-M   'P 1'
_cell_length_a   4.32038776
_cell_length_b   5.87360638
_cell_length_c   9.26777338
_cell_angle_alpha   82.63075600
_cell_angle_beta   76.52113816
_cell_angle_gamma   68.42124211
_symmetry_Int_Tables_number   1
_chemical_formula_structural   Yb2Ge2Ir
_chemical_formula_sum   'Yb4 Ge4 Ir2'
_cell_volume   212.43895586
_cell_formula_units_Z   2
loop_
 _symmetry_equiv_pos_site_id
 _symmetry_equiv_pos_as_xyz
  1  'x, y, z'
loop_
 _atom_site_type_symbol
 _atom_site_label
 _atom_site_symmetry_multiplicity
 _atom_site_fract_x
 _atom_site_fract_y
 _atom_site_fract_z
 _atom_site_occupancy
  Ge  Ge0  1  0.49035755  0.14043580  0.87884910  1
  Ge  Ge1  1  0.35208877  0.73305907  0.56276339  1
  Ge  Ge2  1  0.50964245  0.85956420  0.12115090  1
  Ge  Ge3  1  0.64791123  0.26694093  0.43723661  1
  Yb  Yb4  1  0.81607294  0.25744894  0.11040517  1
  Yb  Yb5  1  0.00315002  0.66835560  0.32534437  1
  Yb  Yb6  1  0.18392706  0.74255106  0.88959483  1
  Yb  Yb7  1  0.99684998  0.33164440  0.67465563  1
  Ir  Ir8  1  0.72432272  0.92038413  0.63097043  1
  Ir  Ir9  1  0.27567728  0.07961587  0.36902957  1
