# generated using pymatgen
data_LaAlAu
_symmetry_space_group_name_H-M   'P 1'
_cell_length_a   4.66142386
_cell_length_b   7.73004079
_cell_length_c   7.77708938
_cell_angle_alpha   90.00000000
_cell_angle_beta   90.00000000
_cell_angle_gamma   90.00000000
_symmetry_Int_Tables_number   1
_chemical_formula_structural   LaAlAu
_chemical_formula_sum   'La4 Al4 Au4'
_cell_volume   280.23183501
_cell_formula_units_Z   4
loop_
 _symmetry_equiv_pos_site_id
 _symmetry_equiv_pos_as_xyz
  1  'x, y, z'
loop_
 _atom_site_type_symbol
 _atom_site_label
 _atom_site_symmetry_multiplicity
 _atom_site_fract_x
 _atom_site_fract_y
 _atom_site_fract_z
 _atom_site_occupancy
  La  La0  1  0.75000000  0.48961320  0.19060542  1
  La  La1  1  0.75000000  0.98961320  0.30939458  1
  La  La2  1  0.25000000  0.51038680  0.80939458  1
  La  La3  1  0.25000000  0.01038680  0.69060542  1
  Al  Al4  1  0.75000000  0.33520240  0.57830822  1
  Al  Al5  1  0.75000000  0.83520240  0.92169178  1
  Al  Al6  1  0.25000000  0.66479760  0.42169178  1
  Al  Al7  1  0.25000000  0.16479760  0.07830822  1
  Au  Au8  1  0.75000000  0.19983560  0.90422458  1
  Au  Au9  1  0.75000000  0.69983560  0.59577542  1
  Au  Au10  1  0.25000000  0.80016440  0.09577542  1
  Au  Au11  1  0.25000000  0.30016440  0.40422458  1
