# generated using pymatgen
data_Mn2ZnTe4
_symmetry_space_group_name_H-M   'P 1'
_cell_length_a   8.16061238
_cell_length_b   8.16061238
_cell_length_c   8.16061238
_cell_angle_alpha   60.00000000
_cell_angle_beta   60.00000000
_cell_angle_gamma   60.00000000
_symmetry_Int_Tables_number   1
_chemical_formula_structural   Mn2ZnTe4
_chemical_formula_sum   'Mn4 Zn2 Te8'
_cell_volume   384.28483929
_cell_formula_units_Z   2
loop_
 _symmetry_equiv_pos_site_id
 _symmetry_equiv_pos_as_xyz
  1  'x, y, z'
loop_
 _atom_site_type_symbol
 _atom_site_label
 _atom_site_symmetry_multiplicity
 _atom_site_fract_x
 _atom_site_fract_y
 _atom_site_fract_z
 _atom_site_occupancy
  Mn  Mn0  1  0.00000000  -0.00000000  0.50000000  1
  Mn  Mn1  1  0.00000000  0.50000000  0.00000000  1
  Mn  Mn2  1  0.50000000  -0.00000000  -0.00000000  1
  Mn  Mn3  1  0.00000000  -0.00000000  0.00000000  1
  Zn  Zn4  1  0.37500000  0.37500000  0.37500000  1
  Zn  Zn5  1  0.62500000  0.62500000  0.62500000  1
  Te  Te6  1  0.24108048  0.24108048  0.77675855  1
  Te  Te7  1  0.24108048  0.77675855  0.24108048  1
  Te  Te8  1  0.77675855  0.24108048  0.24108048  1
  Te  Te9  1  0.24108048  0.24108048  0.24108048  1
  Te  Te10  1  0.75891952  0.75891952  0.22324145  1
  Te  Te11  1  0.75891952  0.22324145  0.75891952  1
  Te  Te12  1  0.22324145  0.75891952  0.75891952  1
  Te  Te13  1  0.75891952  0.75891952  0.75891952  1
