# generated using pymatgen
data_CaAgSb
_symmetry_space_group_name_H-M   'P 1'
_cell_length_a   4.62570803
_cell_length_b   7.74745821
_cell_length_c   8.52533072
_cell_angle_alpha   90.00000000
_cell_angle_beta   90.00000000
_cell_angle_gamma   90.00000000
_symmetry_Int_Tables_number   1
_chemical_formula_structural   CaAgSb
_chemical_formula_sum   'Ca4 Ag4 Sb4'
_cell_volume   305.52636622
_cell_formula_units_Z   4
loop_
 _symmetry_equiv_pos_site_id
 _symmetry_equiv_pos_as_xyz
  1  'x, y, z'
loop_
 _atom_site_type_symbol
 _atom_site_label
 _atom_site_symmetry_multiplicity
 _atom_site_fract_x
 _atom_site_fract_y
 _atom_site_fract_z
 _atom_site_occupancy
  Ca  Ca0  1  0.75000000  0.47883765  0.19332314  1
  Ca  Ca1  1  0.25000000  0.52116235  0.80667686  1
  Ca  Ca2  1  0.25000000  0.02116235  0.69332314  1
  Ca  Ca3  1  0.75000000  0.97883765  0.30667686  1
  Ag  Ag4  1  0.75000000  0.85846519  0.93590061  1
  Ag  Ag5  1  0.75000000  0.35846519  0.56409939  1
  Ag  Ag6  1  0.25000000  0.14153481  0.06409939  1
  Ag  Ag7  1  0.25000000  0.64153481  0.43590061  1
  Sb  Sb8  1  0.75000000  0.74238685  0.61481386  1
  Sb  Sb9  1  0.25000000  0.25761315  0.38518614  1
  Sb  Sb10  1  0.75000000  0.24238685  0.88518614  1
  Sb  Sb11  1  0.25000000  0.75761315  0.11481386  1
