# generated using pymatgen
data_Cs2NaYI6
_symmetry_space_group_name_H-M   'P 1'
_cell_length_a   8.76573098
_cell_length_b   8.76573149
_cell_length_c   8.76573147
_cell_angle_alpha   59.99999847
_cell_angle_beta   59.99999776
_cell_angle_gamma   59.99999781
_symmetry_Int_Tables_number   1
_chemical_formula_structural   Cs2NaYI6
_chemical_formula_sum   'Cs2 Na1 Y1 I6'
_cell_volume   476.26585503
_cell_formula_units_Z   1
loop_
 _symmetry_equiv_pos_site_id
 _symmetry_equiv_pos_as_xyz
  1  'x, y, z'
loop_
 _atom_site_type_symbol
 _atom_site_label
 _atom_site_symmetry_multiplicity
 _atom_site_fract_x
 _atom_site_fract_y
 _atom_site_fract_z
 _atom_site_occupancy
  Cs  Cs0  1  0.25000000  0.25000000  0.25000000  1
  Cs  Cs1  1  0.75000000  0.75000000  0.75000000  1
  Na  Na2  1  0.50000000  0.50000000  0.50000000  1
  Y  Y3  1  0.00000000  -0.00000000  -0.00000000  1
  I  I4  1  0.24421155  0.75578845  0.24421155  1
  I  I5  1  0.75578845  0.75578845  0.24421155  1
  I  I6  1  0.75578845  0.24421155  0.75578845  1
  I  I7  1  0.75578845  0.24421155  0.24421155  1
  I  I8  1  0.24421155  0.75578845  0.75578845  1
  I  I9  1  0.24421155  0.24421155  0.75578845  1
