# generated using pymatgen
data_RbCuPdSe5
_symmetry_space_group_name_H-M   'P 1'
_cell_length_a   6.37993654
_cell_length_b   7.42393972
_cell_length_c   9.30308710
_cell_angle_alpha   90.00000000
_cell_angle_beta   103.03357515
_cell_angle_gamma   90.00000000
_symmetry_Int_Tables_number   1
_chemical_formula_structural   RbCuPdSe5
_chemical_formula_sum   'Rb2 Cu2 Pd2 Se10'
_cell_volume   429.28229989
_cell_formula_units_Z   2
loop_
 _symmetry_equiv_pos_site_id
 _symmetry_equiv_pos_as_xyz
  1  'x, y, z'
loop_
 _atom_site_type_symbol
 _atom_site_label
 _atom_site_symmetry_multiplicity
 _atom_site_fract_x
 _atom_site_fract_y
 _atom_site_fract_z
 _atom_site_occupancy
  Cu  Cu0  1  0.11036432  0.25000000  0.60919444  1
  Cu  Cu1  1  0.88963568  0.75000000  0.39080556  1
  Se  Se2  1  0.04478435  0.75000000  0.65157113  1
  Se  Se3  1  0.68626451  0.00883859  0.29109765  1
  Se  Se4  1  0.72647054  0.25000000  0.63274293  1
  Se  Se5  1  0.27352946  0.75000000  0.36725707  1
  Se  Se6  1  0.68626451  0.49116141  0.29109765  1
  Se  Se7  1  0.29927552  0.75000000  0.11547078  1
  Se  Se8  1  0.70072448  0.25000000  0.88452922  1
  Se  Se9  1  0.95521565  0.25000000  0.34842887  1
  Se  Se10  1  0.31373549  0.99116141  0.70890235  1
  Se  Se11  1  0.31373549  0.50883859  0.70890235  1
  Rb  Rb12  1  0.25376069  0.25000000  0.05105173  1
  Rb  Rb13  1  0.74623931  0.75000000  0.94894827  1
  Pd  Pd14  1  0.50000000  0.50000000  0.50000000  1
  Pd  Pd15  1  0.50000000  0.00000000  0.50000000  1
