# generated using pymatgen
data_CaMnSi2O7
_symmetry_space_group_name_H-M   'P 1'
_cell_length_a   7.66379082
_cell_length_b   9.49540530
_cell_length_c   9.48764720
_cell_angle_alpha   64.25848890
_cell_angle_beta   66.17887676
_cell_angle_gamma   66.19954148
_symmetry_Int_Tables_number   1
_chemical_formula_structural   CaMnSi2O7
_chemical_formula_sum   'Ca4 Mn4 Si8 O28'
_cell_volume   546.68848565
_cell_formula_units_Z   4
loop_
 _symmetry_equiv_pos_site_id
 _symmetry_equiv_pos_as_xyz
  1  'x, y, z'
loop_
 _atom_site_type_symbol
 _atom_site_label
 _atom_site_symmetry_multiplicity
 _atom_site_fract_x
 _atom_site_fract_y
 _atom_site_fract_z
 _atom_site_occupancy
  Ca  Ca0  1  0.84531004  0.93237044  0.46399076  1
  Ca  Ca1  1  0.24167124  0.56762956  0.03600924  1
  Ca  Ca2  1  0.75832876  0.43237044  0.96399076  1
  Ca  Ca3  1  0.15468996  0.06762956  0.53600924  1
  Mn  Mn4  1  0.21166694  0.25000000  0.75000000  1
  Mn  Mn5  1  0.78833306  0.75000000  0.25000000  1
  Mn  Mn6  1  0.00000000  0.00000000  0.00000000  1
  Mn  Mn7  1  0.00000000  0.50000000  0.50000000  1
  Si  Si8  1  0.47201816  0.30524519  0.35177375  1
  Si  Si9  1  0.87096189  0.80524519  0.85177375  1
  Si  Si10  1  0.45318641  0.89983868  0.84247243  1
  Si  Si11  1  0.80450347  0.39983868  0.34247243  1
  Si  Si12  1  0.12903811  0.19475481  0.14822625  1
  Si  Si13  1  0.54681359  0.10016132  0.15752757  1
  Si  Si14  1  0.19549653  0.60016132  0.65752757  1
  Si  Si15  1  0.52798184  0.69475481  0.64822625  1
  O  O16  1  0.08786413  0.66072664  0.51455133  1
  O  O17  1  0.03135577  0.59054740  0.27585839  1
  O  O18  1  0.55131769  0.91206693  0.21339367  1
  O  O19  1  0.10223844  0.09054740  0.77585839  1
  O  O20  1  0.73881440  0.67717536  0.49634226  1
  O  O21  1  0.96387175  0.37282859  0.16279995  1
  O  O22  1  0.32322071  0.41206693  0.71339367  1
  O  O23  1  0.91233202  0.82282464  0.00365774  1
  O  O24  1  0.03612825  0.62717141  0.83720005  1
  O  O25  1  0.33633245  0.72541361  0.59059231  1
  O  O26  1  0.96864423  0.40945260  0.72414161  1
  O  O27  1  0.26118560  0.32282464  0.50365774  1
  O  O28  1  0.49950129  0.12717141  0.33720005  1
  O  O29  1  0.73685690  0.16072664  0.01455133  1
  O  O30  1  0.34766163  0.22541361  0.09059231  1
  O  O31  1  0.08766798  0.17717536  0.99634226  1
  O  O32  1  0.08659456  0.06057256  0.32179156  1
  O  O33  1  0.66366755  0.27458639  0.40940769  1
  O  O34  1  0.46895768  0.43942744  0.17820844  1
  O  O35  1  0.65233837  0.77458639  0.90940769  1
  O  O36  1  0.50049871  0.87282859  0.66279995  1
  O  O37  1  0.89776156  0.90945260  0.22414161  1
  O  O38  1  0.53104232  0.56057256  0.82179156  1
  O  O39  1  0.44868231  0.08793307  0.78660633  1
  O  O40  1  0.91340544  0.93942744  0.67820844  1
  O  O41  1  0.67677929  0.58793307  0.28660633  1
  O  O42  1  0.26314310  0.83927336  0.98544867  1
  O  O43  1  0.91213587  0.33927336  0.48544867  1
