# generated using pymatgen
data_NaSn
_symmetry_space_group_name_H-M   'P 1'
_cell_length_a   10.48463487
_cell_length_b   10.48463487
_cell_length_c   11.50637342
_cell_angle_alpha   117.10362258
_cell_angle_beta   117.10362260
_cell_angle_gamma   89.99999999
_symmetry_Int_Tables_number   1
_chemical_formula_structural   NaSn
_chemical_formula_sum   'Na16 Sn16'
_cell_volume   967.31791243
_cell_formula_units_Z   16
loop_
 _symmetry_equiv_pos_site_id
 _symmetry_equiv_pos_as_xyz
  1  'x, y, z'
loop_
 _atom_site_type_symbol
 _atom_site_label
 _atom_site_symmetry_multiplicity
 _atom_site_fract_x
 _atom_site_fract_y
 _atom_site_fract_z
 _atom_site_occupancy
  Na  Na0  1  0.12781036  0.25000000  0.50000000  1
  Na  Na1  1  0.75000000  0.12781036  0.00000000  1
  Na  Na2  1  0.25000000  0.37218964  0.00000000  1
  Na  Na3  1  0.37218964  0.75000000  0.50000000  1
  Na  Na4  1  0.87218964  0.75000000  0.50000000  1
  Na  Na5  1  0.25000000  0.87218964  0.00000000  1
  Na  Na6  1  0.75000000  0.62781036  0.00000000  1
  Na  Na7  1  0.62781036  0.25000000  0.50000000  1
  Na  Na8  1  0.49757122  0.74757122  0.25000000  1
  Na  Na9  1  0.00242878  0.49757122  0.75000000  1
  Na  Na10  1  0.74757122  0.75242878  0.75000000  1
  Na  Na11  1  0.75242878  0.00242878  0.25000000  1
  Na  Na12  1  0.50242878  0.25242878  0.75000000  1
  Na  Na13  1  0.99757122  0.50242878  0.25000000  1
  Na  Na14  1  0.25242878  0.24757122  0.25000000  1
  Na  Na15  1  0.24757122  0.99757122  0.75000000  1
  Sn  Sn16  1  0.00504016  0.05926259  0.87296834  1
  Sn  Sn17  1  0.31370575  0.00504016  0.37296834  1
  Sn  Sn18  1  0.05926259  0.86792818  0.37296834  1
  Sn  Sn19  1  0.63207182  0.44073741  0.12703166  1
  Sn  Sn20  1  0.49495984  0.18629425  0.12703166  1
  Sn  Sn21  1  0.18629425  0.63207182  0.62703166  1
  Sn  Sn22  1  0.44073741  0.49495984  0.62703166  1
  Sn  Sn23  1  0.86792818  0.31370575  0.87296834  1
  Sn  Sn24  1  0.99495984  0.94073741  0.12703166  1
  Sn  Sn25  1  0.68629425  0.99495984  0.62703166  1
  Sn  Sn26  1  0.94073741  0.13207182  0.62703166  1
  Sn  Sn27  1  0.36792818  0.55926259  0.87296834  1
  Sn  Sn28  1  0.50504016  0.81370575  0.87296834  1
  Sn  Sn29  1  0.81370575  0.36792818  0.37296834  1
  Sn  Sn30  1  0.55926259  0.50504016  0.37296834  1
  Sn  Sn31  1  0.13207182  0.68629425  0.12703166  1
