# generated using pymatgen
data_KNd2CuS4
_symmetry_space_group_name_H-M   'P 1'
_cell_length_a   4.07319719
_cell_length_b   7.25824566
_cell_length_c   14.03878108
_cell_angle_alpha   90.00000000
_cell_angle_beta   90.00000000
_cell_angle_gamma   106.29548208
_symmetry_Int_Tables_number   1
_chemical_formula_structural   KNd2CuS4
_chemical_formula_sum   'K2 Nd4 Cu2 S8'
_cell_volume   398.37277707
_cell_formula_units_Z   2
loop_
 _symmetry_equiv_pos_site_id
 _symmetry_equiv_pos_as_xyz
  1  'x, y, z'
loop_
 _atom_site_type_symbol
 _atom_site_label
 _atom_site_symmetry_multiplicity
 _atom_site_fract_x
 _atom_site_fract_y
 _atom_site_fract_z
 _atom_site_occupancy
  S  S0  1  0.00000000  0.00000000  0.50000000  1
  S  S1  1  0.00000000  0.00000000  0.00000000  1
  S  S2  1  0.26276274  0.52552549  0.11510472  1
  S  S3  1  0.73723726  0.47447451  0.88489528  1
  S  S4  1  0.42991784  0.85983568  0.75000000  1
  S  S5  1  0.26276274  0.52552549  0.38489528  1
  S  S6  1  0.57008216  0.14016432  0.25000000  1
  S  S7  1  0.73723726  0.47447451  0.61510472  1
  K  K8  1  0.89236764  0.78473529  0.25000000  1
  K  K9  1  0.10763236  0.21526471  0.75000000  1
  Cu  Cu10  1  0.83760175  0.67520351  0.75000000  1
  Cu  Cu11  1  0.16239825  0.32479649  0.25000000  1
  Nd  Nd12  1  0.36538962  0.73077925  0.93747548  1
  Nd  Nd13  1  0.63461038  0.26922075  0.43747548  1
  Nd  Nd14  1  0.36538962  0.73077925  0.56252452  1
  Nd  Nd15  1  0.63461038  0.26922075  0.06252452  1
