# generated using pymatgen
data_PrGa
_symmetry_space_group_name_H-M   'P 1'
_cell_length_a   4.20530999
_cell_length_b   4.50633576
_cell_length_c   6.15225838
_cell_angle_alpha   111.48356185
_cell_angle_beta   90.00000000
_cell_angle_gamma   90.00000000
_symmetry_Int_Tables_number   1
_chemical_formula_structural   PrGa
_chemical_formula_sum   'Pr2 Ga2'
_cell_volume   108.48834679
_cell_formula_units_Z   2
loop_
 _symmetry_equiv_pos_site_id
 _symmetry_equiv_pos_as_xyz
  1  'x, y, z'
loop_
 _atom_site_type_symbol
 _atom_site_label
 _atom_site_symmetry_multiplicity
 _atom_site_fract_x
 _atom_site_fract_y
 _atom_site_fract_z
 _atom_site_occupancy
  Ga  Ga0  1  0.75000000  0.43036854  0.86073708  1
  Ga  Ga1  1  0.25000000  0.56963146  0.13926292  1
  Pr  Pr2  1  0.75000000  0.14098510  0.28197021  1
  Pr  Pr3  1  0.25000000  0.85901490  0.71802979  1
