# generated using pymatgen
data_KSm2CuS4
_symmetry_space_group_name_H-M   'P 1'
_cell_length_a   4.03038116
_cell_length_b   7.17603845
_cell_length_c   13.92419206
_cell_angle_alpha   90.00000000
_cell_angle_beta   90.00000000
_cell_angle_gamma   106.30927959
_symmetry_Int_Tables_number   1
_chemical_formula_structural   KSm2CuS4
_chemical_formula_sum   'K2 Sm4 Cu2 S8'
_cell_volume   386.51241447
_cell_formula_units_Z   2
loop_
 _symmetry_equiv_pos_site_id
 _symmetry_equiv_pos_as_xyz
  1  'x, y, z'
loop_
 _atom_site_type_symbol
 _atom_site_label
 _atom_site_symmetry_multiplicity
 _atom_site_fract_x
 _atom_site_fract_y
 _atom_site_fract_z
 _atom_site_occupancy
  S  S0  1  0.00000000  0.00000000  0.50000000  1
  S  S1  1  0.00000000  0.00000000  0.00000000  1
  S  S2  1  0.26278974  0.52557948  0.11367315  1
  S  S3  1  0.73721026  0.47442052  0.88632685  1
  S  S4  1  0.43052169  0.86104337  0.75000000  1
  S  S5  1  0.26278974  0.52557948  0.38632685  1
  S  S6  1  0.56947831  0.13895663  0.25000000  1
  S  S7  1  0.73721026  0.47442052  0.61367315  1
  K  K8  1  0.89165287  0.78330574  0.25000000  1
  K  K9  1  0.10834713  0.21669426  0.75000000  1
  Cu  Cu10  1  0.83783340  0.67566680  0.75000000  1
  Cu  Cu11  1  0.16216660  0.32433320  0.25000000  1
  Sm  Sm12  1  0.36552686  0.73105371  0.93718751  1
  Sm  Sm13  1  0.63447314  0.26894629  0.43718751  1
  Sm  Sm14  1  0.36552686  0.73105371  0.56281249  1
  Sm  Sm15  1  0.63447314  0.26894629  0.06281249  1
