# generated using pymatgen
data_Tb2Pt
_symmetry_space_group_name_H-M   'P 1'
_cell_length_a   4.80274756
_cell_length_b   7.20805710
_cell_length_c   8.85233804
_cell_angle_alpha   90.00000000
_cell_angle_beta   90.00000000
_cell_angle_gamma   90.00000000
_symmetry_Int_Tables_number   1
_chemical_formula_structural   Tb2Pt
_chemical_formula_sum   'Tb8 Pt4'
_cell_volume   306.45447543
_cell_formula_units_Z   4
loop_
 _symmetry_equiv_pos_site_id
 _symmetry_equiv_pos_as_xyz
  1  'x, y, z'
loop_
 _atom_site_type_symbol
 _atom_site_label
 _atom_site_symmetry_multiplicity
 _atom_site_fract_x
 _atom_site_fract_y
 _atom_site_fract_z
 _atom_site_occupancy
  Pt  Pt0  1  0.75000000  0.74095376  0.90853444  1
  Pt  Pt1  1  0.25000000  0.25904624  0.09146556  1
  Pt  Pt2  1  0.75000000  0.24095376  0.59146556  1
  Pt  Pt3  1  0.25000000  0.75904624  0.40853444  1
  Tb  Tb4  1  0.75000000  0.14274680  0.91751687  1
  Tb  Tb5  1  0.25000000  0.85725320  0.08248313  1
  Tb  Tb6  1  0.75000000  0.64274680  0.58248313  1
  Tb  Tb7  1  0.25000000  0.35725320  0.41751687  1
  Tb  Tb8  1  0.75000000  0.00858179  0.33387289  1
  Tb  Tb9  1  0.25000000  0.99141821  0.66612711  1
  Tb  Tb10  1  0.75000000  0.50858179  0.16612711  1
  Tb  Tb11  1  0.25000000  0.49141821  0.83387289  1
