# generated using pymatgen
data_Ca6Mn3Al2O15
_symmetry_space_group_name_H-M   'P 1'
_cell_length_a   16.24451631
_cell_length_b   5.57704282
_cell_length_c   8.23304948
_cell_angle_alpha   109.79988824
_cell_angle_beta   108.87158858
_cell_angle_gamma   89.99959835
_symmetry_Int_Tables_number   1
_chemical_formula_structural   Ca6Mn3Al2O15
_chemical_formula_sum   'Ca12 Mn6 Al4 O30'
_cell_volume   659.01768151
_cell_formula_units_Z   2
loop_
 _symmetry_equiv_pos_site_id
 _symmetry_equiv_pos_as_xyz
  1  'x, y, z'
loop_
 _atom_site_type_symbol
 _atom_site_label
 _atom_site_symmetry_multiplicity
 _atom_site_fract_x
 _atom_site_fract_y
 _atom_site_fract_z
 _atom_site_occupancy
  Ca  Ca0  1  0.02730973  0.64924374  0.22890413  1
  Ca  Ca1  1  0.37936280  0.61684316  0.24295821  1
  Ca  Ca2  1  0.71228258  0.63921932  0.22330762  1
  Ca  Ca3  1  0.11859747  0.91621078  0.76818324  1
  Ca  Ca4  1  0.46602553  0.87092003  0.76182225  1
  Ca  Ca5  1  0.80446036  0.92455224  0.77595682  1
  Ca  Ca6  1  0.30437667  0.35144979  0.77597358  1
  Ca  Ca7  1  0.61865462  0.35183337  0.76803388  1
  Ca  Ca8  1  0.96601778  0.39097071  0.76202598  1
  Ca  Ca9  1  0.21252075  0.08419629  0.22340902  1
  Ca  Ca10  1  0.52727536  0.07955484  0.22876910  1
  Ca  Ca11  1  0.87928210  0.12613833  0.24304190  1
  Mn  Mn12  1  0.16415880  0.50393740  0.00378474  1
  Mn  Mn13  1  0.49952535  0.48591696  0.00662120  1
  Mn  Mn14  1  0.82685840  0.51016207  0.98836771  1
  Mn  Mn15  1  0.32685630  0.97820602  0.98813873  1
  Mn  Mn16  1  0.66412206  0.99991156  0.00365029  1
  Mn  Mn17  1  0.99955831  0.02088934  0.00697279  1
  Al  Al18  1  0.10364081  0.33669623  0.50389599  1
  Al  Al19  1  0.75856995  0.32597521  0.49805155  1
  Al  Al20  1  0.25856992  0.67200791  0.49804340  1
  Al  Al21  1  0.60365025  0.66706485  0.50382868  1
  O  O22  1  0.21442739  0.37230024  0.50035909  1
  O  O23  1  0.56571698  0.37540265  0.49922923  1
  O  O24  1  0.86592522  0.34992599  0.50257819  1
  O  O25  1  0.06575670  0.62383074  0.49933239  1
  O  O26  1  0.36590652  0.65248171  0.50239463  1
  O  O27  1  0.71443612  0.62802179  0.50040259  1
  O  O28  1  0.20252666  0.70116080  0.27521305  1
  O  O29  1  0.53783299  0.70850652  0.29533866  1
  O  O30  1  0.86329040  0.69571660  0.23432546  1
  O  O31  1  0.10956245  0.30716281  0.72233269  1
  O  O32  1  0.45956073  0.30207381  0.76127161  1
  O  O33  1  0.76705259  0.28763758  0.70980915  1
  O  O34  1  0.03775250  0.08684577  0.29548267  1
  O  O35  1  0.36343216  0.03860409  0.23418225  1
  O  O36  1  0.70247029  0.07414962  0.27516551  1
  O  O37  1  0.26706976  0.92212639  0.70974242  1
  O  O38  1  0.60952832  0.91505440  0.72221322  1
  O  O39  1  0.95960423  0.95926105  0.76154515  1
  O  O40  1  0.07790078  0.74819945  0.98095171  1
  O  O41  1  0.40736152  0.72492154  0.95527875  1
  O  O42  1  0.73539758  0.72628152  0.94631774  1
  O  O43  1  0.09173270  0.27614392  0.05359992  1
  O  O44  1  0.41878590  0.25731904  0.03346483  1
  O  O45  1  0.75309627  0.25446824  0.02803772  1
  O  O46  1  0.25316250  0.27367127  0.02801013  1
  O  O47  1  0.59163967  0.27719546  0.05329516  1
  O  O48  1  0.91877632  0.27636104  0.03366473  1
  O  O49  1  0.23539556  0.72020199  0.94632517  1
  O  O50  1  0.57791225  0.73252322  0.98079834  1
  O  O51  1  0.90738601  0.73055060  0.95560101  1
