# generated using pymatgen
data_KHo2CuS4
_symmetry_space_group_name_H-M   'P 1'
_cell_length_a   3.94230306
_cell_length_b   7.01912784
_cell_length_c   13.69523438
_cell_angle_alpha   90.00000000
_cell_angle_beta   90.00000000
_cell_angle_gamma   106.30949158
_symmetry_Int_Tables_number   1
_chemical_formula_structural   KHo2CuS4
_chemical_formula_sum   'K2 Ho4 Cu2 S8'
_cell_volume   363.71794124
_cell_formula_units_Z   2
loop_
 _symmetry_equiv_pos_site_id
 _symmetry_equiv_pos_as_xyz
  1  'x, y, z'
loop_
 _atom_site_type_symbol
 _atom_site_label
 _atom_site_symmetry_multiplicity
 _atom_site_fract_x
 _atom_site_fract_y
 _atom_site_fract_z
 _atom_site_occupancy
  S  S0  1  0.00000000  0.00000000  0.50000000  1
  S  S1  1  0.00000000  0.00000000  0.00000000  1
  S  S2  1  0.26262236  0.52524471  0.11036357  1
  S  S3  1  0.73737764  0.47475529  0.88963643  1
  S  S4  1  0.43114272  0.86228543  0.75000000  1
  S  S5  1  0.26262236  0.52524471  0.38963643  1
  S  S6  1  0.56885728  0.13771457  0.25000000  1
  S  S7  1  0.73737764  0.47475529  0.61036357  1
  K  K8  1  0.89032216  0.78064433  0.25000000  1
  K  K9  1  0.10967784  0.21935567  0.75000000  1
  Cu  Cu10  1  0.83714054  0.67428108  0.75000000  1
  Cu  Cu11  1  0.16285946  0.32571892  0.25000000  1
  Ho  Ho12  1  0.36581270  0.73162541  0.93666448  1
  Ho  Ho13  1  0.63418730  0.26837459  0.43666448  1
  Ho  Ho14  1  0.36581270  0.73162541  0.56333552  1
  Ho  Ho15  1  0.63418730  0.26837459  0.06333552  1
