# generated using pymatgen
data_KY2CuS4
_symmetry_space_group_name_H-M   'P 1'
_cell_length_a   3.96229228
_cell_length_b   7.05305551
_cell_length_c   13.75467726
_cell_angle_alpha   90.00000000
_cell_angle_beta   90.00000000
_cell_angle_gamma   106.31344310
_symmetry_Int_Tables_number   1
_chemical_formula_structural   KY2CuS4
_chemical_formula_sum   'K2 Y4 Cu2 S8'
_cell_volume   368.91604587
_cell_formula_units_Z   2
loop_
 _symmetry_equiv_pos_site_id
 _symmetry_equiv_pos_as_xyz
  1  'x, y, z'
loop_
 _atom_site_type_symbol
 _atom_site_label
 _atom_site_symmetry_multiplicity
 _atom_site_fract_x
 _atom_site_fract_y
 _atom_site_fract_z
 _atom_site_occupancy
  S  S0  1  0.00000000  0.00000000  0.50000000  1
  S  S1  1  0.00000000  0.00000000  0.00000000  1
  S  S2  1  0.26274288  0.52548576  0.11119782  1
  S  S3  1  0.73725712  0.47451424  0.88880218  1
  S  S4  1  0.43098911  0.86197821  0.75000000  1
  S  S5  1  0.26274288  0.52548576  0.38880218  1
  S  S6  1  0.56901089  0.13802179  0.25000000  1
  S  S7  1  0.73725712  0.47451424  0.61119782  1
  K  K8  1  0.89053862  0.78107724  0.25000000  1
  K  K9  1  0.10946138  0.21892276  0.75000000  1
  Cu  Cu10  1  0.83744908  0.67489815  0.75000000  1
  Cu  Cu11  1  0.16255092  0.32510185  0.25000000  1
  Y  Y12  1  0.36571420  0.73142840  0.93698305  1
  Y  Y13  1  0.63428580  0.26857160  0.43698305  1
  Y  Y14  1  0.36571420  0.73142840  0.56301695  1
  Y  Y15  1  0.63428580  0.26857160  0.06301695  1
