# generated using pymatgen
data_Pr(AlZn)2
_symmetry_space_group_name_H-M   'P 1'
_cell_length_a   4.21550270
_cell_length_b   4.21550270
_cell_length_c   6.27008821
_cell_angle_alpha   109.64307780
_cell_angle_beta   109.64307789
_cell_angle_gamma   90.00000000
_symmetry_Int_Tables_number   1
_chemical_formula_structural   Pr(AlZn)2
_chemical_formula_sum   'Pr1 Al2 Zn2'
_cell_volume   98.02593103
_cell_formula_units_Z   1
loop_
 _symmetry_equiv_pos_site_id
 _symmetry_equiv_pos_as_xyz
  1  'x, y, z'
loop_
 _atom_site_type_symbol
 _atom_site_label
 _atom_site_symmetry_multiplicity
 _atom_site_fract_x
 _atom_site_fract_y
 _atom_site_fract_z
 _atom_site_occupancy
  Al  Al0  1  0.75000000  0.25000000  0.50000000  1
  Al  Al1  1  0.25000000  0.75000000  0.50000000  1
  Zn  Zn2  1  0.61172161  0.61172161  0.22344322  1
  Zn  Zn3  1  0.38827839  0.38827839  0.77655678  1
  Pr  Pr4  1  0.00000000  0.00000000  0.00000000  1
