# generated using pymatgen
data_Cs2Pd3Se4
_symmetry_space_group_name_H-M   'P 1'
_cell_length_a   6.55405661
_cell_length_b   6.55202731
_cell_length_c   8.15787524
_cell_angle_alpha   101.95672547
_cell_angle_beta   101.96753513
_cell_angle_gamma   118.94381250
_symmetry_Int_Tables_number   1
_chemical_formula_structural   Cs2Pd3Se4
_chemical_formula_sum   'Cs2 Pd3 Se4'
_cell_volume   279.88074058
_cell_formula_units_Z   1
loop_
 _symmetry_equiv_pos_site_id
 _symmetry_equiv_pos_as_xyz
  1  'x, y, z'
loop_
 _atom_site_type_symbol
 _atom_site_label
 _atom_site_symmetry_multiplicity
 _atom_site_fract_x
 _atom_site_fract_y
 _atom_site_fract_z
 _atom_site_occupancy
  Se  Se0  1  0.44037341  0.77636579  0.21686321  1
  Se  Se1  1  0.77648980  0.44049741  0.21686321  1
  Se  Se2  1  0.55962659  0.22363421  0.78313679  1
  Se  Se3  1  0.22351020  0.55950259  0.78313679  1
  Pd  Pd4  1  0.50000000  0.00000000  0.00000000  1
  Pd  Pd5  1  0.00000000  0.50000000  0.00000000  1
  Pd  Pd6  1  0.50000000  0.50000000  0.00000000  1
  Cs  Cs7  1  0.84814856  0.84814856  0.69629713  1
  Cs  Cs8  1  0.15185144  0.15185144  0.30370287  1
