# generated using pymatgen
data_CaLa2Ti2Cr2O12
_symmetry_space_group_name_H-M   'P 1'
_cell_length_a   5.44832583
_cell_length_b   5.46771920
_cell_length_c   7.71416020
_cell_angle_alpha   90.31326068
_cell_angle_beta   90.03845091
_cell_angle_gamma   89.10392601
_symmetry_Int_Tables_number   1
_chemical_formula_structural   CaLa2Ti2Cr2O12
_chemical_formula_sum   'Ca1 La2 Ti2 Cr2 O12'
_cell_volume   229.77260512
_cell_formula_units_Z   1
loop_
 _symmetry_equiv_pos_site_id
 _symmetry_equiv_pos_as_xyz
  1  'x, y, z'
loop_
 _atom_site_type_symbol
 _atom_site_label
 _atom_site_symmetry_multiplicity
 _atom_site_fract_x
 _atom_site_fract_y
 _atom_site_fract_z
 _atom_site_occupancy
  Ca  Ca0  1  0.49690756  0.46739756  0.75078989  1
  La  La1  1  0.00707932  0.97235568  0.75125937  1
  La  La2  1  0.50483039  0.52135714  0.24883388  1
  Ti  Ti3  1  0.50459361  0.00213109  0.01081481  1
  Ti  Ti4  1  0.00102656  0.48788479  0.49259871  1
  Cr  Cr5  1  0.50585307  0.99598504  0.49707112  1
  Cr  Cr6  1  0.00074693  0.49676316  0.00242540  1
  O  O7  1  0.05312418  0.48870221  0.24770179  1
  O  O8  1  0.22645329  0.23244181  0.96016647  1
  O  O9  1  0.23249915  0.22611280  0.53980456  1
  O  O10  1  0.27790379  0.71951108  0.96506889  1
  O  O11  1  0.28130422  0.71923593  0.53407453  1
  O  O12  1  0.44927967  0.99826832  0.25120119  1
  O  O13  1  0.55987355  0.00707875  0.74763767  1
  O  O14  1  0.71460812  0.28443631  0.47985281  1
  O  O15  1  0.71479533  0.28607634  0.01946585  1
  O  O16  1  0.76777938  0.77345835  0.47418976  1
  O  O17  1  0.77274446  0.76903108  0.02506258  1
  O  O18  1  0.93862543  0.51080356  0.75218774  1
