# generated using pymatgen
data_HoSnPd
_symmetry_space_group_name_H-M   'P 1'
_cell_length_a   4.62923313
_cell_length_b   7.18916624
_cell_length_c   7.99619325
_cell_angle_alpha   90.00000000
_cell_angle_beta   90.00000000
_cell_angle_gamma   90.00000000
_symmetry_Int_Tables_number   1
_chemical_formula_structural   HoSnPd
_chemical_formula_sum   'Ho4 Sn4 Pd4'
_cell_volume   266.11592240
_cell_formula_units_Z   4
loop_
 _symmetry_equiv_pos_site_id
 _symmetry_equiv_pos_as_xyz
  1  'x, y, z'
loop_
 _atom_site_type_symbol
 _atom_site_label
 _atom_site_symmetry_multiplicity
 _atom_site_fract_x
 _atom_site_fract_y
 _atom_site_fract_z
 _atom_site_occupancy
  Pd  Pd0  1  0.75000000  0.20599480  0.91543734  1
  Pd  Pd1  1  0.25000000  0.29400520  0.41543734  1
  Pd  Pd2  1  0.75000000  0.70599480  0.58456266  1
  Pd  Pd3  1  0.25000000  0.79400520  0.08456266  1
  Sn  Sn4  1  0.25000000  0.69565258  0.41251513  1
  Sn  Sn5  1  0.75000000  0.80434742  0.91251513  1
  Sn  Sn6  1  0.25000000  0.19565258  0.08748487  1
  Sn  Sn7  1  0.75000000  0.30434742  0.58748487  1
  Ho  Ho8  1  0.25000000  0.50901099  0.79323489  1
  Ho  Ho9  1  0.75000000  0.49098901  0.20676511  1
  Ho  Ho10  1  0.25000000  0.00901099  0.70676511  1
  Ho  Ho11  1  0.75000000  0.99098901  0.29323489  1
