# generated using pymatgen
data_Rb2SiS3
_symmetry_space_group_name_H-M   'P 1'
_cell_length_a   6.96189995
_cell_length_b   7.62519283
_cell_length_c   8.74545240
_cell_angle_alpha   73.29597334
_cell_angle_beta   66.54493558
_cell_angle_gamma   62.83809396
_symmetry_Int_Tables_number   1
_chemical_formula_structural   Rb2SiS3
_chemical_formula_sum   'Rb4 Si2 S6'
_cell_volume   375.73848688
_cell_formula_units_Z   2
loop_
 _symmetry_equiv_pos_site_id
 _symmetry_equiv_pos_as_xyz
  1  'x, y, z'
loop_
 _atom_site_type_symbol
 _atom_site_label
 _atom_site_symmetry_multiplicity
 _atom_site_fract_x
 _atom_site_fract_y
 _atom_site_fract_z
 _atom_site_occupancy
  Si  Si0  1  0.11490457  0.94604930  0.82414156  1
  Si  Si1  1  0.88509543  0.05395070  0.17585844  1
  S  S2  1  0.23383893  0.00000000  0.00000000  1
  S  S3  1  0.76616107  0.00000000  0.00000000  1
  S  S4  1  0.88782365  0.83802475  0.38632795  1
  S  S5  1  0.11217635  0.16197525  0.61367205  1
  S  S6  1  0.71403134  0.35148130  0.22045602  1
  S  S7  1  0.28596866  0.64851870  0.77954398  1
  Rb  Rb8  1  0.80820351  0.56963457  0.81395841  1
  Rb  Rb9  1  0.19179649  0.43036543  0.18604159  1
  Rb  Rb10  1  0.58292848  0.20063571  0.63350733  1
  Rb  Rb11  1  0.41707152  0.79936429  0.36649267  1
