# generated using pymatgen
data_Tb(PO3)3
_symmetry_space_group_name_H-M   'P 1'
_cell_length_a   10.17944645
_cell_length_b   13.36765737
_cell_length_c   13.36765737
_cell_angle_alpha   61.20354806
_cell_angle_beta   84.25526549
_cell_angle_gamma   84.25526549
_symmetry_Int_Tables_number   1
_chemical_formula_structural   Tb(PO3)3
_chemical_formula_sum   'Tb8 P24 O72'
_cell_volume   1583.24788611
_cell_formula_units_Z   8
loop_
 _symmetry_equiv_pos_site_id
 _symmetry_equiv_pos_as_xyz
  1  'x, y, z'
loop_
 _atom_site_type_symbol
 _atom_site_label
 _atom_site_symmetry_multiplicity
 _atom_site_fract_x
 _atom_site_fract_y
 _atom_site_fract_z
 _atom_site_occupancy
  Tb  Tb0  1  0.23041339  0.75220496  0.97998016  1
  Tb  Tb1  1  0.26958661  0.52001984  0.74779504  1
  Tb  Tb2  1  0.76958661  0.24779504  0.02001984  1
  Tb  Tb3  1  0.73041339  0.47998016  0.25220496  1
  Tb  Tb4  1  0.73387781  0.74543184  0.48484858  1
  Tb  Tb5  1  0.76612219  0.01515142  0.75456816  1
  Tb  Tb6  1  0.26612219  0.25456816  0.51515142  1
  Tb  Tb7  1  0.23387781  0.98484858  0.24543184  1
  P  P8  1  0.93721382  0.72757724  0.15630802  1
  P  P9  1  0.56278618  0.34369198  0.77242276  1
  P  P10  1  0.06278618  0.27242276  0.84369198  1
  P  P11  1  0.43721382  0.65630802  0.22757724  1
  P  P12  1  0.56723948  0.85527952  0.21262314  1
  P  P13  1  0.93276052  0.28737686  0.64472048  1
  P  P14  1  0.43276052  0.14472048  0.78737686  1
  P  P15  1  0.06723948  0.71262314  0.35527952  1
  P  P16  1  0.79339037  0.96126446  0.04919144  1
  P  P17  1  0.70660963  0.45080856  0.53873554  1
  P  P18  1  0.20660963  0.03873554  0.95080856  1
  P  P19  1  0.29339037  0.54919144  0.46126446  1
  P  P20  1  0.25000000  0.97078387  0.52921613  1
  P  P21  1  0.75000000  0.02921613  0.47078387  1
  P  P22  1  0.05012872  0.85835252  0.71989071  1
  P  P23  1  0.44987128  0.78010929  0.64164748  1
  P  P24  1  0.94987128  0.14164748  0.28010929  1
  P  P25  1  0.55012872  0.21989071  0.35835252  1
  P  P26  1  0.92648374  0.65840552  0.73566712  1
  P  P27  1  0.57351626  0.76433288  0.84159448  1
  P  P28  1  0.07351626  0.34159448  0.26433288  1
  P  P29  1  0.42648374  0.23566712  0.15840552  1
  P  P30  1  0.75000000  0.54825434  0.95174566  1
  P  P31  1  0.25000000  0.45174566  0.04825434  1
  O  O32  1  0.33009034  0.71377812  0.14505014  1
  O  O33  1  0.16990966  0.35494986  0.78622188  1
  O  O34  1  0.66990966  0.28622188  0.85494986  1
  O  O35  1  0.83009034  0.64505014  0.21377812  1
  O  O36  1  0.01355680  0.73359133  0.05171160  1
  O  O37  1  0.48644320  0.44828840  0.76640867  1
  O  O38  1  0.98644320  0.26640867  0.94828840  1
  O  O39  1  0.51355680  0.55171160  0.23359133  1
  O  O40  1  0.43619481  0.91725483  0.21217226  1
  O  O41  1  0.06380519  0.28782774  0.58274517  1
  O  O42  1  0.56380519  0.08274517  0.78782774  1
  O  O43  1  0.93619481  0.71217226  0.41725483  1
  O  O44  1  0.65661364  0.82502156  0.30699421  1
  O  O45  1  0.84338636  0.19300579  0.67497844  1
  O  O46  1  0.34338636  0.17497844  0.69300579  1
  O  O47  1  0.15661364  0.80699421  0.32502156  1
  O  O48  1  0.81658895  0.97651192  0.93038258  1
  O  O49  1  0.68341105  0.56961742  0.52348808  1
  O  O50  1  0.18341105  0.02348808  0.06961742  1
  O  O51  1  0.31658895  0.43038258  0.47651192  1
  O  O52  1  0.81239800  0.06030911  0.06851265  1
  O  O53  1  0.68760200  0.43148735  0.43969089  1
  O  O54  1  0.18760200  0.93969089  0.93148735  1
  O  O55  1  0.31239800  0.56851265  0.56030911  1
  O  O56  1  0.27094371  0.96903967  0.41757742  1
  O  O57  1  0.22905629  0.08242258  0.53096033  1
  O  O58  1  0.72905629  0.03096033  0.58242258  1
  O  O59  1  0.77094371  0.91757742  0.46903967  1
  O  O60  1  0.97588287  0.96107100  0.71982145  1
  O  O61  1  0.52411713  0.78017855  0.53892900  1
  O  O62  1  0.02411713  0.03892900  0.28017855  1
  O  O63  1  0.47588287  0.21982145  0.46107100  1
  O  O64  1  0.13853983  0.78631283  0.81589959  1
  O  O65  1  0.36146017  0.68410041  0.71368717  1
  O  O66  1  0.86146017  0.21368717  0.18410041  1
  O  O67  1  0.63853983  0.31589959  0.28631283  1
  O  O68  1  0.81989398  0.66157994  0.66413935  1
  O  O69  1  0.68010602  0.83586065  0.83842006  1
  O  O70  1  0.18010602  0.33842006  0.33586065  1
  O  O71  1  0.31989398  0.16413935  0.16157994  1
  O  O72  1  0.06028147  0.60336050  0.72858597  1
  O  O73  1  0.43971853  0.77141403  0.89663950  1
  O  O74  1  0.93971853  0.39663950  0.27141403  1
  O  O75  1  0.56028147  0.22858597  0.10336050  1
  O  O76  1  0.73244382  0.43723368  0.95401452  1
  O  O77  1  0.76755618  0.54598548  0.06276632  1
  O  O78  1  0.26755618  0.56276632  0.04598548  1
  O  O79  1  0.23244382  0.45401452  0.93723368  1
  O  O80  1  0.04849246  0.70263198  0.24310602  1
  O  O81  1  0.45150754  0.25689398  0.79736802  1
  O  O82  1  0.95150754  0.29736802  0.75689398  1
  O  O83  1  0.54849246  0.74310602  0.20263198  1
  O  O84  1  0.64364411  0.92505588  0.09017736  1
  O  O85  1  0.85635589  0.40982264  0.57494412  1
  O  O86  1  0.35635589  0.07494412  0.90982264  1
  O  O87  1  0.14364411  0.59017736  0.42505588  1
  O  O88  1  0.88272436  0.85395607  0.13560196  1
  O  O89  1  0.61727564  0.36439804  0.64604393  1
  O  O90  1  0.11727564  0.14604393  0.86439804  1
  O  O91  1  0.38272436  0.63560196  0.35395607  1
  O  O92  1  0.12894368  0.89185705  0.59814599  1
  O  O93  1  0.37105632  0.90185401  0.60814295  1
  O  O94  1  0.87105632  0.10814295  0.40185401  1
  O  O95  1  0.62894368  0.09814599  0.39185705  1
  O  O96  1  0.94016668  0.78810156  0.70708206  1
  O  O97  1  0.55983332  0.79291794  0.71189844  1
  O  O98  1  0.05983332  0.21189844  0.29291794  1
  O  O99  1  0.44016668  0.20708206  0.28810156  1
  O  O100  1  0.87608170  0.60610530  0.86844320  1
  O  O101  1  0.62391830  0.63155680  0.89389470  1
  O  O102  1  0.12391830  0.39389470  0.13155680  1
  O  O103  1  0.37608170  0.36844320  0.10610530  1
