# generated using pymatgen
data_Rb3Na(RuO4)2
_symmetry_space_group_name_H-M   'P 1'
_cell_length_a   6.20753048
_cell_length_b   6.20753048
_cell_length_c   8.06452676
_cell_angle_alpha   90.00000000
_cell_angle_beta   90.00000000
_cell_angle_gamma   120.00000000
_symmetry_Int_Tables_number   1
_chemical_formula_structural   Rb3Na(RuO4)2
_chemical_formula_sum   'Rb3 Na1 Ru2 O8'
_cell_volume   269.12078467
_cell_formula_units_Z   1
loop_
 _symmetry_equiv_pos_site_id
 _symmetry_equiv_pos_as_xyz
  1  'x, y, z'
loop_
 _atom_site_type_symbol
 _atom_site_label
 _atom_site_symmetry_multiplicity
 _atom_site_fract_x
 _atom_site_fract_y
 _atom_site_fract_z
 _atom_site_occupancy
  O  O0  1  0.17799004  0.35598009  0.30752573  1
  O  O1  1  0.64401991  0.82200996  0.30752573  1
  O  O2  1  0.17799004  0.82200996  0.30752573  1
  O  O3  1  0.82200996  0.64401991  0.69247427  1
  O  O4  1  0.82200996  0.17799004  0.69247427  1
  O  O5  1  0.35598009  0.17799004  0.69247427  1
  O  O6  1  0.66666667  0.33333333  0.99846413  1
  O  O7  1  0.33333333  0.66666667  0.00153587  1
  Na  Na8  1  0.00000000  0.00000000  0.50000000  1
  Rb  Rb9  1  0.66666667  0.33333333  0.34091605  1
  Rb  Rb10  1  0.00000000  0.00000000  0.00000000  1
  Rb  Rb11  1  0.33333333  0.66666667  0.65908395  1
  Ru  Ru12  1  0.66666667  0.33333333  0.77882231  1
  Ru  Ru13  1  0.33333333  0.66666667  0.22117769  1
