# generated using pymatgen
data_Dy2Re3Si5
_symmetry_space_group_name_H-M   'P 1'
_cell_length_a   5.56028936
_cell_length_b   10.99953106
_cell_length_c   10.99953106
_cell_angle_alpha   90.00000000
_cell_angle_beta   90.00000000
_cell_angle_gamma   90.00000000
_symmetry_Int_Tables_number   1
_chemical_formula_structural   Dy2Re3Si5
_chemical_formula_sum   'Dy8 Re12 Si20'
_cell_volume   672.73765006
_cell_formula_units_Z   4
loop_
 _symmetry_equiv_pos_site_id
 _symmetry_equiv_pos_as_xyz
  1  'x, y, z'
loop_
 _atom_site_type_symbol
 _atom_site_label
 _atom_site_symmetry_multiplicity
 _atom_site_fract_x
 _atom_site_fract_y
 _atom_site_fract_z
 _atom_site_occupancy
  Dy  Dy0  1  0.50000000  0.73779796  0.57696581  1
  Dy  Dy1  1  0.50000000  0.26220204  0.42303419  1
  Dy  Dy2  1  0.00000000  0.76220204  0.07696581  1
  Dy  Dy3  1  -0.00000000  0.23779796  0.92303419  1
  Dy  Dy4  1  0.50000000  0.57696581  0.26220204  1
  Dy  Dy5  1  0.50000000  0.42303419  0.73779796  1
  Dy  Dy6  1  0.00000000  0.07696581  0.23779796  1
  Dy  Dy7  1  -0.00000000  0.92303419  0.76220204  1
  Re  Re8  1  0.50000000  0.85318076  0.87577578  1
  Re  Re9  1  0.50000000  0.14681924  0.12422422  1
  Re  Re10  1  0.00000000  0.64681924  0.37577578  1
  Re  Re11  1  -0.00000000  0.35318076  0.62422422  1
  Re  Re12  1  0.50000000  0.87577578  0.14681924  1
  Re  Re13  1  0.50000000  0.12422422  0.85318076  1
  Re  Re14  1  0.00000000  0.37577578  0.35318076  1
  Re  Re15  1  -0.00000000  0.62422422  0.64681924  1
  Re  Re16  1  0.25000000  0.00000000  0.50000000  1
  Re  Re17  1  0.75000000  0.50000000  0.00000000  1
  Re  Re18  1  0.25000000  0.50000000  0.00000000  1
  Re  Re19  1  0.75000000  0.00000000  0.50000000  1
  Si  Si20  1  0.25000000  0.17297471  0.67297471  1
  Si  Si21  1  0.25000000  0.82702529  0.32702529  1
  Si  Si22  1  0.75000000  0.32702529  0.17297471  1
  Si  Si23  1  0.75000000  0.67297471  0.82702529  1
  Si  Si24  1  0.25000000  0.67297471  0.82702529  1
  Si  Si25  1  0.25000000  0.32702529  0.17297471  1
  Si  Si26  1  0.75000000  0.17297471  0.67297471  1
  Si  Si27  1  0.75000000  0.82702529  0.32702529  1
  Si  Si28  1  0.25618182  0.50000000  0.50000000  1
  Si  Si29  1  0.75618182  0.00000000  0.00000000  1
  Si  Si30  1  0.74381818  0.50000000  0.50000000  1
  Si  Si31  1  0.24381818  -0.00000000  0.00000000  1
  Si  Si32  1  0.50000000  0.97296588  0.68525763  1
  Si  Si33  1  0.50000000  0.02703412  0.31474237  1
  Si  Si34  1  0.00000000  0.52703412  0.18525763  1
  Si  Si35  1  -0.00000000  0.47296588  0.81474237  1
  Si  Si36  1  0.50000000  0.68525763  0.02703412  1
  Si  Si37  1  0.50000000  0.31474237  0.97296588  1
  Si  Si38  1  0.00000000  0.18525763  0.47296588  1
  Si  Si39  1  -0.00000000  0.81474237  0.52703412  1
