# generated using pymatgen
data_CaLa2FeO6
_symmetry_space_group_name_H-M   'P 1'
_cell_length_a   5.61658867
_cell_length_b   5.61658830
_cell_length_c   5.61658890
_cell_angle_alpha   62.66468576
_cell_angle_beta   62.66468699
_cell_angle_gamma   62.66468995
_symmetry_Int_Tables_number   1
_chemical_formula_structural   CaLa2FeO6
_chemical_formula_sum   'Ca1 La2 Fe1 O6'
_cell_volume   132.71675786
_cell_formula_units_Z   1
loop_
 _symmetry_equiv_pos_site_id
 _symmetry_equiv_pos_as_xyz
  1  'x, y, z'
loop_
 _atom_site_type_symbol
 _atom_site_label
 _atom_site_symmetry_multiplicity
 _atom_site_fract_x
 _atom_site_fract_y
 _atom_site_fract_z
 _atom_site_occupancy
  Ca  Ca0  1  0.50000000  0.50000000  0.50000000  1
  La  La1  1  0.76044025  0.76044025  0.76044025  1
  La  La2  1  0.23955975  0.23955975  0.23955975  1
  Fe  Fe3  1  0.00000000  0.00000000  0.00000000  1
  O  O4  1  0.31968522  0.78665921  0.13806766  1
  O  O5  1  0.78665921  0.13806766  0.31968522  1
  O  O6  1  0.13806766  0.31968522  0.78665921  1
  O  O7  1  0.68031478  0.21334079  0.86193234  1
  O  O8  1  0.86193234  0.68031478  0.21334079  1
  O  O9  1  0.21334079  0.86193234  0.68031478  1
