# generated using pymatgen
data_NaNd2IrO6
_symmetry_space_group_name_H-M   'P 1'
_cell_length_a   5.55198378
_cell_length_b   5.98614977
_cell_length_c   8.02507122
_cell_angle_alpha   90.00000000
_cell_angle_beta   90.99418235
_cell_angle_gamma   90.00000000
_symmetry_Int_Tables_number   1
_chemical_formula_structural   NaNd2IrO6
_chemical_formula_sum   'Na2 Nd4 Ir2 O12'
_cell_volume   266.67314331
_cell_formula_units_Z   2
loop_
 _symmetry_equiv_pos_site_id
 _symmetry_equiv_pos_as_xyz
  1  'x, y, z'
loop_
 _atom_site_type_symbol
 _atom_site_label
 _atom_site_symmetry_multiplicity
 _atom_site_fract_x
 _atom_site_fract_y
 _atom_site_fract_z
 _atom_site_occupancy
  O  O0  1  0.83802177  0.71817278  0.56879521  1
  O  O1  1  0.66197823  0.21817278  0.93120479  1
  O  O2  1  0.16197823  0.28182722  0.43120479  1
  O  O3  1  0.33802177  0.78182722  0.06879521  1
  O  O4  1  0.12253829  0.05062971  0.73255864  1
  O  O5  1  0.37746171  0.55062971  0.76744136  1
  O  O6  1  0.87746171  0.94937029  0.26744136  1
  O  O7  1  0.62253829  0.44937029  0.23255864  1
  O  O8  1  0.20359296  0.32612826  0.05310466  1
  O  O9  1  0.29640704  0.82612826  0.44689534  1
  O  O10  1  0.79640704  0.67387174  0.94689534  1
  O  O11  1  0.70359296  0.17387174  0.55310466  1
  Na  Na12  1  0.50000000  0.50000000  0.50000000  1
  Na  Na13  1  0.00000000  0.00000000  0.00000000  1
  Nd  Nd14  1  0.47830521  0.07417464  0.25382705  1
  Nd  Nd15  1  0.02169479  0.57417464  0.24617295  1
  Nd  Nd16  1  0.97830521  0.42582536  0.75382705  1
  Nd  Nd17  1  0.52169479  0.92582536  0.74617295  1
  Ir  Ir18  1  0.50000000  0.50000000  0.00000000  1
  Ir  Ir19  1  0.00000000  0.00000000  0.50000000  1
