# generated using pymatgen
data_Ca3Sb2O7
_symmetry_space_group_name_H-M   'P 1'
_cell_length_a   5.94648712
_cell_length_b   5.74005808
_cell_length_c   10.42383681
_cell_angle_alpha   105.98186973
_cell_angle_beta   90.00000000
_cell_angle_gamma   90.00000000
_symmetry_Int_Tables_number   1
_chemical_formula_structural   Ca3Sb2O7
_chemical_formula_sum   'Ca6 Sb4 O14'
_cell_volume   342.04669028
_cell_formula_units_Z   2
loop_
 _symmetry_equiv_pos_site_id
 _symmetry_equiv_pos_as_xyz
  1  'x, y, z'
loop_
 _atom_site_type_symbol
 _atom_site_label
 _atom_site_symmetry_multiplicity
 _atom_site_fract_x
 _atom_site_fract_y
 _atom_site_fract_z
 _atom_site_occupancy
  Ca  Ca0  1  0.69455674  0.76930332  1.00000000  1
  Ca  Ca1  1  0.19455674  0.23069668  0.00000000  1
  Ca  Ca2  1  0.81217123  0.56891835  0.61367475  1
  Ca  Ca3  1  0.31217123  0.43108165  0.38632525  1
  Ca  Ca4  1  0.81217123  0.95524261  0.38632525  1
  Ca  Ca5  1  0.31217123  0.04475739  0.61367475  1
  Sb  Sb6  1  0.75149681  0.35696553  0.20553462  1
  Sb  Sb7  1  0.25149681  0.64303447  0.79446538  1
  Sb  Sb8  1  0.25149681  0.84856908  0.20553462  1
  Sb  Sb9  1  0.75149681  0.15143092  0.79446538  1
  O  O10  1  0.70503840  0.94580248  0.59618211  1
  O  O11  1  0.20503840  0.05419752  0.40381789  1
  O  O12  1  0.20503840  0.65037863  0.59618211  1
  O  O13  1  0.70503840  0.34962137  0.40381789  1
  O  O14  1  0.04341418  0.31855333  0.74172641  1
  O  O15  1  0.54341418  0.68144667  0.25827359  1
  O  O16  1  0.54341418  0.42317308  0.74172641  1
  O  O17  1  0.04341418  0.57682692  0.25827359  1
  O  O18  1  0.94626037  0.87002518  0.84067283  1
  O  O19  1  0.44626037  0.12997482  0.15932717  1
  O  O20  1  0.80868327  0.37695119  0.00000000  1
  O  O21  1  0.30868327  0.62304881  1.00000000  1
  O  O22  1  0.94626037  0.02935236  0.15932717  1
  O  O23  1  0.44626037  0.97064764  0.84067283  1
