# generated using pymatgen
data_LaSbRh
_symmetry_space_group_name_H-M   'P 1'
_cell_length_a   4.70029452
_cell_length_b   7.61511241
_cell_length_c   7.99059858
_cell_angle_alpha   90.00000000
_cell_angle_beta   90.00000000
_cell_angle_gamma   90.00000000
_symmetry_Int_Tables_number   1
_chemical_formula_structural   LaSbRh
_chemical_formula_sum   'La4 Sb4 Rh4'
_cell_volume   286.00966146
_cell_formula_units_Z   4
loop_
 _symmetry_equiv_pos_site_id
 _symmetry_equiv_pos_as_xyz
  1  'x, y, z'
loop_
 _atom_site_type_symbol
 _atom_site_label
 _atom_site_symmetry_multiplicity
 _atom_site_fract_x
 _atom_site_fract_y
 _atom_site_fract_z
 _atom_site_occupancy
  La  La0  1  0.75000000  0.98089429  0.30292103  1
  La  La1  1  0.25000000  0.01910571  0.69707897  1
  La  La2  1  0.25000000  0.51910571  0.80292103  1
  La  La3  1  0.75000000  0.48089429  0.19707897  1
  Sb  Sb4  1  0.75000000  0.81729285  0.91149213  1
  Sb  Sb5  1  0.25000000  0.18270715  0.08850787  1
  Sb  Sb6  1  0.25000000  0.68270715  0.41149213  1
  Sb  Sb7  1  0.75000000  0.31729285  0.58850787  1
  Rh  Rh8  1  0.75000000  0.69493560  0.58869023  1
  Rh  Rh9  1  0.25000000  0.30506440  0.41130977  1
  Rh  Rh10  1  0.25000000  0.80506440  0.08869023  1
  Rh  Rh11  1  0.75000000  0.19493560  0.91130977  1
