# generated using pymatgen
data_K5In4(Ge3As7)2
_symmetry_space_group_name_H-M   'P 1'
_cell_length_a   4.04579590
_cell_length_b   10.54511121
_cell_length_c   20.43997396
_cell_angle_alpha   100.46982066
_cell_angle_beta   95.67973125
_cell_angle_gamma   90.00000000
_symmetry_Int_Tables_number   1
_chemical_formula_structural   K5In4(Ge3As7)2
_chemical_formula_sum   'K5 In4 Ge6 As14'
_cell_volume   853.16535460
_cell_formula_units_Z   1
loop_
 _symmetry_equiv_pos_site_id
 _symmetry_equiv_pos_as_xyz
  1  'x, y, z'
loop_
 _atom_site_type_symbol
 _atom_site_label
 _atom_site_symmetry_multiplicity
 _atom_site_fract_x
 _atom_site_fract_y
 _atom_site_fract_z
 _atom_site_occupancy
  K  K0  1  0.18029624  0.54480845  0.36059248  1
  K  K1  1  0.81970376  0.45519155  0.63940752  1
  K  K2  1  -0.00000000  -0.00000000  -0.00000000  1
  K  K3  1  0.41234091  0.17518475  0.82468181  1
  K  K4  1  0.58765909  0.82481525  0.17531819  1
  In  In5  1  0.57263095  0.23059103  0.14526191  1
  In  In6  1  0.42736905  0.76940897  0.85473809  1
  In  In7  1  0.14867111  0.12980093  0.29734223  1
  In  In8  1  0.85132889  0.87019907  0.70265777  1
  Ge  Ge9  1  0.72591470  0.16320614  0.45182941  1
  Ge  Ge10  1  0.27408530  0.83679386  0.54817059  1
  Ge  Ge11  1  0.01979643  0.42117946  0.03959286  1
  Ge  Ge12  1  0.98020357  0.57882054  0.96040714  1
  Ge  Ge13  1  0.29758855  0.07370184  0.59517709  1
  Ge  Ge14  1  0.70241145  0.92629816  0.40482291  1
  As  As15  1  0.83503411  0.11384203  0.67006822  1
  As  As16  1  0.16496589  0.88615797  0.32993178  1
  As  As17  1  0.50829724  0.27790541  0.01659447  1
  As  As18  1  0.49170276  0.72209459  0.98340553  1
  As  As19  1  0.67825370  0.27380644  0.35650740  1
  As  As20  1  0.32174630  0.72619356  0.64349260  1
  As  As21  1  0.26167470  0.23968130  0.52334939  1
  As  As22  1  0.73832530  0.76031870  0.47665061  1
  As  As23  1  0.07839511  0.55429674  0.15679022  1
  As  As24  1  0.92160489  0.44570326  0.84320978  1
  As  As25  1  0.39364386  0.52581799  0.78728771  1
  As  As26  1  0.60635614  0.47418201  0.21271229  1
  As  As27  1  0.08197758  0.07876722  0.16395516  1
  As  As28  1  0.91802242  0.92123278  0.83604484  1
