# generated using pymatgen
data_KB5O8
_symmetry_space_group_name_H-M   'P 1'
_cell_length_a   8.60486610
_cell_length_b   8.63880756
_cell_length_c   21.72114684
_cell_angle_alpha   90.00000000
_cell_angle_beta   90.00000000
_cell_angle_gamma   90.00000000
_symmetry_Int_Tables_number   1
_chemical_formula_structural   KB5O8
_chemical_formula_sum   'K8 B40 O64'
_cell_volume   1614.65844318
_cell_formula_units_Z   8
loop_
 _symmetry_equiv_pos_site_id
 _symmetry_equiv_pos_as_xyz
  1  'x, y, z'
loop_
 _atom_site_type_symbol
 _atom_site_label
 _atom_site_symmetry_multiplicity
 _atom_site_fract_x
 _atom_site_fract_y
 _atom_site_fract_z
 _atom_site_occupancy
  B  B0  1  0.53309724  0.00252859  0.20155747  1
  B  B1  1  0.03309724  0.49747141  0.79844253  1
  B  B2  1  0.46690276  0.50252859  0.29844253  1
  B  B3  1  0.96690276  0.99747141  0.70155747  1
  B  B4  1  0.46690276  0.99747141  0.79844253  1
  B  B5  1  0.96690276  0.50252859  0.20155747  1
  B  B6  1  0.53309724  0.49747141  0.70155747  1
  B  B7  1  0.03309724  0.00252859  0.29844253  1
  B  B8  1  0.53259849  0.24527909  0.26683408  1
  B  B9  1  0.03259849  0.25472091  0.73316592  1
  B  B10  1  0.46740151  0.74527909  0.23316592  1
  B  B11  1  0.96740151  0.75472091  0.76683408  1
  B  B12  1  0.46740151  0.75472091  0.73316592  1
  B  B13  1  0.96740151  0.74527909  0.26683408  1
  B  B14  1  0.53259849  0.25472091  0.76683408  1
  B  B15  1  0.03259849  0.24527909  0.23316592  1
  B  B16  1  0.96012975  0.21894776  0.01625888  1
  B  B17  1  0.46012975  0.28105224  0.98374112  1
  B  B18  1  0.03987025  0.71894776  0.48374112  1
  B  B19  1  0.53987025  0.78105224  0.51625888  1
  B  B20  1  0.03987025  0.78105224  0.98374112  1
  B  B21  1  0.53987025  0.71894776  0.01625888  1
  B  B22  1  0.96012975  0.28105224  0.51625888  1
  B  B23  1  0.46012975  0.21894776  0.48374112  1
  B  B24  1  0.71444709  0.30065076  0.45309883  1
  B  B25  1  0.21444709  0.19934924  0.54690117  1
  B  B26  1  0.28555291  0.80065076  0.04690117  1
  B  B27  1  0.78555291  0.69934924  0.95309883  1
  B  B28  1  0.28555291  0.69934924  0.54690117  1
  B  B29  1  0.78555291  0.80065076  0.45309883  1
  B  B30  1  0.71444709  0.19934924  0.95309883  1
  B  B31  1  0.21444709  0.30065076  0.04690117  1
  B  B32  1  0.50206508  0.30268092  0.37598608  1
  B  B33  1  0.00206508  0.19731908  0.62401392  1
  B  B34  1  0.49793492  0.80268092  0.12401392  1
  B  B35  1  0.99793492  0.69731908  0.87598608  1
  B  B36  1  0.49793492  0.69731908  0.62401392  1
  B  B37  1  0.99793492  0.80268092  0.37598608  1
  B  B38  1  0.50206508  0.19731908  0.87598608  1
  B  B39  1  0.00206508  0.30268092  0.12401392  1
  O  O40  1  0.55989624  0.15648702  0.21485263  1
  O  O41  1  0.05989624  0.34351298  0.78514737  1
  O  O42  1  0.44010376  0.65648702  0.28514737  1
  O  O43  1  0.94010376  0.84351298  0.71485263  1
  O  O44  1  0.44010376  0.84351298  0.78514737  1
  O  O45  1  0.94010376  0.65648702  0.21485263  1
  O  O46  1  0.55989624  0.34351298  0.71485263  1
  O  O47  1  0.05989624  0.15648702  0.28514737  1
  O  O48  1  0.53041726  0.40447116  0.25410947  1
  O  O49  1  0.03041726  0.09552884  0.74589053  1
  O  O50  1  0.46958274  0.90447116  0.24589053  1
  O  O51  1  0.96958274  0.59552884  0.75410947  1
  O  O52  1  0.46958274  0.59552884  0.74589053  1
  O  O53  1  0.96958274  0.90447116  0.25410947  1
  O  O54  1  0.53041726  0.09552884  0.75410947  1
  O  O55  1  0.03041726  0.40447116  0.24589053  1
  O  O56  1  0.61668882  0.23941493  0.49830764  1
  O  O57  1  0.11668882  0.26058507  0.50169236  1
  O  O58  1  0.38331118  0.73941493  0.00169236  1
  O  O59  1  0.88331118  0.76058507  0.99830764  1
  O  O60  1  0.38331118  0.76058507  0.50169236  1
  O  O61  1  0.88331118  0.73941493  0.49830764  1
  O  O62  1  0.61668882  0.26058507  0.99830764  1
  O  O63  1  0.11668882  0.23941493  0.00169236  1
  O  O64  1  0.87024787  0.32471437  0.46631372  1
  O  O65  1  0.37024787  0.17528563  0.53368628  1
  O  O66  1  0.12975213  0.82471437  0.03368628  1
  O  O67  1  0.62975213  0.67528563  0.96631372  1
  O  O68  1  0.12975213  0.67528563  0.53368628  1
  O  O69  1  0.62975213  0.82471437  0.46631372  1
  O  O70  1  0.87024787  0.17528563  0.96631372  1
  O  O71  1  0.37024787  0.32471437  0.03368628  1
  O  O72  1  0.92809636  0.44896765  0.14479038  1
  O  O73  1  0.42809636  0.05103235  0.85520962  1
  O  O74  1  0.07190364  0.94896765  0.35520962  1
  O  O75  1  0.57190364  0.55103235  0.64479038  1
  O  O76  1  0.07190364  0.55103235  0.85520962  1
  O  O77  1  0.57190364  0.94896765  0.14479038  1
  O  O78  1  0.92809636  0.05103235  0.64479038  1
  O  O79  1  0.42809636  0.44896765  0.35520962  1
  O  O80  1  0.90516082  0.23560720  0.07437305  1
  O  O81  1  0.40516082  0.26439280  0.92562695  1
  O  O82  1  0.09483918  0.73560720  0.42562695  1
  O  O83  1  0.59483918  0.76439280  0.57437305  1
  O  O84  1  0.09483918  0.76439280  0.92562695  1
  O  O85  1  0.59483918  0.73560720  0.07437305  1
  O  O86  1  0.90516082  0.26439280  0.57437305  1
  O  O87  1  0.40516082  0.23560720  0.42562695  1
  O  O88  1  0.50854964  0.18952397  0.32419195  1
  O  O89  1  0.00854964  0.31047603  0.67580805  1
  O  O90  1  0.49145036  0.68952397  0.17580805  1
  O  O91  1  0.99145036  0.81047603  0.82419195  1
  O  O92  1  0.49145036  0.81047603  0.67580805  1
  O  O93  1  0.99145036  0.68952397  0.32419195  1
  O  O94  1  0.50854964  0.31047603  0.82419195  1
  O  O95  1  0.00854964  0.18952397  0.17580805  1
  O  O96  1  0.66187822  0.33632361  0.39645727  1
  O  O97  1  0.16187822  0.16367639  0.60354273  1
  O  O98  1  0.33812178  0.83632361  0.10354273  1
  O  O99  1  0.83812178  0.66367639  0.89645727  1
  O  O100  1  0.33812178  0.66367639  0.60354273  1
  O  O101  1  0.83812178  0.83632361  0.39645727  1
  O  O102  1  0.66187822  0.16367639  0.89645727  1
  O  O103  1  0.16187822  0.33632361  0.10354273  1
  K  K104  1  0.60441856  0.39857728  0.12377606  1
  K  K105  1  0.10441856  0.10142272  0.87622394  1
  K  K106  1  0.39558144  0.89857728  0.37622394  1
  K  K107  1  0.89558144  0.60142272  0.62377606  1
  K  K108  1  0.39558144  0.60142272  0.87622394  1
  K  K109  1  0.89558144  0.89857728  0.12377606  1
  K  K110  1  0.60441856  0.10142272  0.62377606  1
  K  K111  1  0.10441856  0.39857728  0.37622394  1
