# generated using pymatgen
data_CaB2F8
_symmetry_space_group_name_H-M   'P 1'
_cell_length_a   9.05665322
_cell_length_b   9.41320209
_cell_length_c   13.59525420
_cell_angle_alpha   90.00000000
_cell_angle_beta   90.00000000
_cell_angle_gamma   90.00000000
_symmetry_Int_Tables_number   1
_chemical_formula_structural   CaB2F8
_chemical_formula_sum   'Ca8 B16 F64'
_cell_volume   1159.02406601
_cell_formula_units_Z   8
loop_
 _symmetry_equiv_pos_site_id
 _symmetry_equiv_pos_as_xyz
  1  'x, y, z'
loop_
 _atom_site_type_symbol
 _atom_site_label
 _atom_site_symmetry_multiplicity
 _atom_site_fract_x
 _atom_site_fract_y
 _atom_site_fract_z
 _atom_site_occupancy
  B  B0  1  0.00275128  0.72115750  0.05631773  1
  B  B1  1  0.67574873  0.10358661  0.65878588  1
  B  B2  1  0.17574873  0.89641339  0.84121412  1
  B  B3  1  0.82425127  0.60358661  0.34121412  1
  B  B4  1  0.32425127  0.39641339  0.15878588  1
  B  B5  1  0.32425127  0.89641339  0.34121412  1
  B  B6  1  0.82425127  0.10358661  0.15878588  1
  B  B7  1  0.17574873  0.39641339  0.65878588  1
  B  B8  1  0.67574873  0.60358661  0.84121412  1
  B  B9  1  0.50275128  0.27884250  0.44368227  1
  B  B10  1  0.49724872  0.22115750  0.94368227  1
  B  B11  1  0.99724872  0.77884250  0.55631773  1
  B  B12  1  0.99724872  0.27884250  0.94368227  1
  B  B13  1  0.49724872  0.72115750  0.55631773  1
  B  B14  1  0.50275128  0.77884250  0.05631773  1
  B  B15  1  0.00275128  0.22115750  0.44368227  1
  F  F16  1  0.97897611  0.08549711  0.16899408  1
  F  F17  1  0.74967602  0.51302683  0.77407821  1
  F  F18  1  0.24967602  0.48697317  0.72592179  1
  F  F19  1  0.75032398  0.01302683  0.22592179  1
  F  F20  1  0.25032398  0.98697317  0.27407821  1
  F  F21  1  0.25032398  0.48697317  0.22592179  1
  F  F22  1  0.75032398  0.51302683  0.27407821  1
  F  F23  1  0.24967602  0.98697317  0.77407821  1
  F  F24  1  0.90445246  0.81306854  0.00546774  1
  F  F25  1  0.40445246  0.18693146  0.49453226  1
  F  F26  1  0.59554754  0.31306854  0.99453226  1
  F  F27  1  0.09554754  0.68693146  0.50546774  1
  F  F28  1  0.09554754  0.18693146  0.99453226  1
  F  F29  1  0.59554754  0.81306854  0.50546774  1
  F  F30  1  0.40445246  0.68693146  0.00546774  1
  F  F31  1  0.90445246  0.31306854  0.49453226  1
  F  F32  1  0.58020054  0.12731556  0.88406031  1
  F  F33  1  0.08020054  0.87268444  0.61593969  1
  F  F34  1  0.91979946  0.62731556  0.11593969  1
  F  F35  1  0.41979946  0.37268444  0.38406031  1
  F  F36  1  0.41979946  0.87268444  0.11593969  1
  F  F37  1  0.91979946  0.12731556  0.38406031  1
  F  F38  1  0.08020054  0.37268444  0.88406031  1
  F  F39  1  0.58020054  0.62731556  0.61593969  1
  F  F40  1  0.90226367  0.19519970  0.88479855  1
  F  F41  1  0.40226367  0.80480030  0.61520145  1
  F  F42  1  0.59773633  0.69519970  0.11520145  1
  F  F43  1  0.09773633  0.30480030  0.38479855  1
  F  F44  1  0.09773633  0.80480030  0.11520145  1
  F  F45  1  0.59773633  0.19519970  0.38479855  1
  F  F46  1  0.40226367  0.30480030  0.88479855  1
  F  F47  1  0.90226367  0.69519970  0.61520145  1
  F  F48  1  0.58479241  0.85833744  0.98719559  1
  F  F49  1  0.08479241  0.14166256  0.51280441  1
  F  F50  1  0.91520759  0.35833744  0.01280441  1
  F  F51  1  0.41520759  0.64166256  0.48719559  1
  F  F52  1  0.41520759  0.14166256  0.01280441  1
  F  F53  1  0.91520759  0.85833744  0.48719559  1
  F  F54  1  0.08479241  0.64166256  0.98719559  1
  F  F55  1  0.58479241  0.35833744  0.51280441  1
  F  F56  1  0.52102389  0.58549711  0.83100592  1
  F  F57  1  0.02102389  0.41450289  0.66899408  1
  F  F58  1  0.74967602  0.01302683  0.72592179  1
  F  F59  1  0.47897611  0.91450289  0.33100592  1
  F  F60  1  0.47897611  0.41450289  0.16899408  1
  F  F61  1  0.97897611  0.58549711  0.33100592  1
  F  F62  1  0.02102389  0.91450289  0.83100592  1
  F  F63  1  0.52102389  0.08549711  0.66899408  1
  F  F64  1  0.71814591  0.56927500  0.93873311  1
  F  F65  1  0.21814591  0.43072500  0.56126689  1
  F  F66  1  0.71528332  0.24639172  0.67913228  1
  F  F67  1  0.28185409  0.93072500  0.43873311  1
  F  F68  1  0.28185409  0.43072500  0.06126689  1
  F  F69  1  0.78185409  0.56927500  0.43873311  1
  F  F70  1  0.21814591  0.93072500  0.93873311  1
  F  F71  1  0.71814591  0.06927500  0.56126689  1
  F  F72  1  0.71528332  0.74639172  0.82086772  1
  F  F73  1  0.21528332  0.25360828  0.67913228  1
  F  F74  1  0.78471668  0.24639172  0.17913228  1
  F  F75  1  0.28471668  0.75360828  0.32086772  1
  F  F76  1  0.28471668  0.25360828  0.17913228  1
  F  F77  1  0.78471668  0.74639172  0.32086772  1
  F  F78  1  0.21528332  0.75360828  0.82086772  1
  F  F79  1  0.78185409  0.06927500  0.06126689  1
  Ca  Ca80  1  0.78074995  0.46609109  0.60383561  1
  Ca  Ca81  1  0.28074995  0.53390891  0.89616439  1
  Ca  Ca82  1  0.71925005  0.96609109  0.39616439  1
  Ca  Ca83  1  0.21925005  0.03390891  0.10383561  1
  Ca  Ca84  1  0.21925005  0.53390891  0.39616439  1
  Ca  Ca85  1  0.71925005  0.46609109  0.10383561  1
  Ca  Ca86  1  0.28074995  0.03390891  0.60383561  1
  Ca  Ca87  1  0.78074995  0.96609109  0.89616439  1
