# generated using pymatgen
data_La2Ti2O7
_symmetry_space_group_name_H-M   'P 1'
_cell_length_a   5.60438506
_cell_length_b   7.79742340
_cell_length_c   26.23729947
_cell_angle_alpha   90.00000000
_cell_angle_beta   90.00000000
_cell_angle_gamma   90.00000000
_symmetry_Int_Tables_number   1
_chemical_formula_structural   La2Ti2O7
_chemical_formula_sum   'La16 Ti16 O56'
_cell_volume   1146.56377409
_cell_formula_units_Z   8
loop_
 _symmetry_equiv_pos_site_id
 _symmetry_equiv_pos_as_xyz
  1  'x, y, z'
loop_
 _atom_site_type_symbol
 _atom_site_label
 _atom_site_symmetry_multiplicity
 _atom_site_fract_x
 _atom_site_fract_y
 _atom_site_fract_z
 _atom_site_occupancy
  O  O0  1  0.41771794  0.39040981  0.96947073  1
  O  O1  1  0.91771794  0.60959019  0.03052927  1
  O  O2  1  0.41771794  0.10959019  0.46947073  1
  O  O3  1  0.91771794  0.89040981  0.53052927  1
  O  O4  1  0.92872785  0.35403001  0.94622177  1
  O  O5  1  0.42872785  0.64596999  0.05377823  1
  O  O6  1  0.92872785  0.14596999  0.44622177  1
  O  O7  1  0.42872785  0.85403001  0.55377823  1
  O  O8  1  0.29779384  0.12490598  0.90270950  1
  O  O9  1  0.79779384  0.87509402  0.09729050  1
  O  O10  1  0.29779384  0.37509402  0.40270950  1
  O  O11  1  0.79779384  0.62490598  0.59729050  1
  O  O12  1  0.55503026  0.42867653  0.86476911  1
  O  O13  1  0.05503026  0.57132347  0.13523089  1
  O  O14  1  0.55503026  0.07132347  0.36476911  1
  O  O15  1  0.05503026  0.92867653  0.63523089  1
  O  O16  1  0.06404289  0.35633371  0.84146021  1
  O  O17  1  0.56404289  0.64366629  0.15853979  1
  O  O18  1  0.06404289  0.14366629  0.34146021  1
  O  O19  1  0.56404289  0.85633371  0.65853979  1
  O  O20  1  0.70514469  0.12505286  0.80455063  1
  O  O21  1  0.33068053  0.12518509  0.70399978  1
  O  O22  1  0.20514469  0.87494714  0.19544937  1
  O  O23  1  0.20514469  0.62505286  0.69544937  1
  O  O24  1  0.49211904  0.40851253  0.76049794  1
  O  O25  1  0.99211904  0.59148747  0.23950206  1
  O  O26  1  0.49211904  0.09148747  0.26049794  1
  O  O27  1  0.99211904  0.90851253  0.73950206  1
  O  O28  1  0.99229275  0.34146561  0.73982261  1
  O  O29  1  0.49229275  0.65853439  0.26017739  1
  O  O30  1  0.99229275  0.15853439  0.23982261  1
  O  O31  1  0.49229275  0.84146561  0.76017739  1
  O  O32  1  0.43032643  0.85782224  0.96468134  1
  O  O33  1  0.93032643  0.14217776  0.03531866  1
  O  O34  1  0.43032643  0.64217776  0.46468134  1
  O  O35  1  0.93032643  0.35782224  0.53531866  1
  O  O36  1  0.94912683  0.89379326  0.95295380  1
  O  O37  1  0.44912683  0.10620674  0.04704620  1
  O  O38  1  0.94912683  0.60620674  0.45295380  1
  O  O39  1  0.44912683  0.39379326  0.54704620  1
  O  O40  1  0.17139824  0.62408942  0.90368608  1
  O  O41  1  0.67139824  0.37591058  0.09631392  1
  O  O42  1  0.17139824  0.87591058  0.40368608  1
  O  O43  1  0.67139824  0.12408942  0.59631392  1
  O  O44  1  0.55087682  0.82208443  0.86380084  1
  O  O45  1  0.05087682  0.17791557  0.13619916  1
  O  O46  1  0.55087682  0.67791557  0.36380084  1
  O  O47  1  0.05087682  0.32208443  0.63619916  1
  O  O48  1  0.06096960  0.89406997  0.84203169  1
  O  O49  1  0.56096960  0.10593003  0.15796831  1
  O  O50  1  0.06096960  0.60593003  0.34203169  1
  O  O51  1  0.56096960  0.39406997  0.65796831  1
  O  O52  1  0.83068053  0.62518509  0.79600022  1
  O  O53  1  0.33068053  0.37481491  0.20399978  1
  O  O54  1  0.83068053  0.87481491  0.29600022  1
  O  O55  1  0.70514469  0.37494714  0.30455063  1
  Ti  Ti56  1  0.21131546  0.88184134  0.91068339  1
  Ti  Ti57  1  0.71131546  0.11815866  0.08931661  1
  Ti  Ti58  1  0.21131546  0.61815866  0.41068339  1
  Ti  Ti59  1  0.71131546  0.38184134  0.58931661  1
  Ti  Ti60  1  0.74348635  0.87279838  0.81016925  1
  Ti  Ti61  1  0.24348635  0.12720162  0.18983075  1
  Ti  Ti62  1  0.74348635  0.62720162  0.31016925  1
  Ti  Ti63  1  0.24348635  0.37279838  0.68983075  1
  Ti  Ti64  1  0.24564201  0.87791413  0.68912818  1
  Ti  Ti65  1  0.74564201  0.12208587  0.31087182  1
  Ti  Ti66  1  0.24564201  0.62208587  0.18912818  1
  Ti  Ti67  1  0.74564201  0.37791413  0.81087182  1
  Ti  Ti68  1  0.70462462  0.87412097  0.58730609  1
  Ti  Ti69  1  0.20462462  0.12587903  0.41269391  1
  Ti  Ti70  1  0.70462462  0.62587903  0.08730609  1
  Ti  Ti71  1  0.20462462  0.37412097  0.91269391  1
  La  La72  1  0.70383606  0.62133140  0.94297660  1
  La  La73  1  0.20383606  0.37866860  0.05702340  1
  La  La74  1  0.70383606  0.87866860  0.44297660  1
  La  La75  1  0.20383606  0.12133140  0.55702340  1
  La  La76  1  0.25765457  0.62430246  0.80848409  1
  La  La77  1  0.75765457  0.37569754  0.19151591  1
  La  La78  1  0.25765457  0.87569754  0.30848409  1
  La  La79  1  0.75765457  0.12430246  0.69151591  1
  La  La80  1  0.75057507  0.62579745  0.70311452  1
  La  La81  1  0.25057507  0.37420255  0.29688548  1
  La  La82  1  0.75057507  0.87420255  0.20311452  1
  La  La83  1  0.25057507  0.12579745  0.79688548  1
  La  La84  1  0.15131816  0.62799291  0.53870052  1
  La  La85  1  0.65131816  0.37200709  0.46129948  1
  La  La86  1  0.15131816  0.87200709  0.03870052  1
  La  La87  1  0.65131816  0.12799291  0.96129948  1
