# generated using pymatgen
data_Nd2Ti2O7
_symmetry_space_group_name_H-M   'P 1'
_cell_length_a   5.52429401
_cell_length_b   7.70291396
_cell_length_c   26.56776638
_cell_angle_alpha   98.23149042
_cell_angle_beta   90.00000000
_cell_angle_gamma   90.00000000
_symmetry_Int_Tables_number   1
_chemical_formula_structural   Nd2Ti2O7
_chemical_formula_sum   'Nd16 Ti16 O56'
_cell_volume   1118.89525500
_cell_formula_units_Z   8
loop_
 _symmetry_equiv_pos_site_id
 _symmetry_equiv_pos_as_xyz
  1  'x, y, z'
loop_
 _atom_site_type_symbol
 _atom_site_label
 _atom_site_symmetry_multiplicity
 _atom_site_fract_x
 _atom_site_fract_y
 _atom_site_fract_z
 _atom_site_occupancy
  O  O0  1  0.98751540  0.03609601  0.48915971  1
  O  O1  1  0.48751540  0.96390399  0.51084029  1
  O  O2  1  0.98865440  0.45289199  0.48818700  1
  O  O3  1  0.48865440  0.54710801  0.51181300  1
  O  O4  1  0.68855719  0.27785584  0.55571099  1
  O  O5  1  0.18855719  0.72214416  0.44428901  1
  O  O6  1  0.84125975  0.77327612  0.54620993  1
  O  O7  1  0.34125975  0.22672388  0.45379007  1
  O  O8  1  0.06853067  0.52059203  0.59028400  1
  O  O9  1  0.56853067  0.47940797  0.40971600  1
  O  O10  1  0.06547486  0.07117399  0.59109755  1
  O  O11  1  0.56547486  0.92882601  0.40890245  1
  O  O12  1  0.55540238  0.62122987  0.61589144  1
  O  O13  1  0.05540238  0.37877013  0.38410856  1
  O  O14  1  0.55195826  0.99537620  0.61448552  1
  O  O15  1  0.05195826  0.00462380  0.38551448  1
  O  O16  1  0.31229210  0.32739834  0.65389327  1
  O  O17  1  0.81229210  0.67260166  0.34610673  1
  O  O18  1  0.14885005  0.82537212  0.65308966  1
  O  O19  1  0.64885005  0.17462788  0.34691034  1
  O  O20  1  0.92231445  0.56529706  0.69348092  1
  O  O21  1  0.93248801  0.41731880  0.78587790  1
  O  O22  1  0.42231445  0.43470294  0.30651908  1
  O  O23  1  0.44778052  0.87385493  0.29730299  1
  O  O24  1  0.41538231  0.63102344  0.72078943  1
  O  O25  1  0.91538231  0.36897656  0.27921057  1
  O  O26  1  0.43301765  0.08277813  0.71418254  1
  O  O27  1  0.93301765  0.91722187  0.28581746  1
  O  O28  1  0.44722106  0.37398187  0.79728121  1
  O  O29  1  0.94722106  0.62601813  0.20271879  1
  O  O30  1  0.42153366  0.93482290  0.80657259  1
  O  O31  1  0.92153366  0.06517710  0.19342741  1
  O  O32  1  0.48597429  0.46395226  0.01083203  1
  O  O33  1  0.98597429  0.53604774  0.98916797  1
  O  O34  1  0.48710604  0.04708111  0.01183275  1
  O  O35  1  0.98710604  0.95291889  0.98816725  1
  O  O36  1  0.68705146  0.77785897  0.05571373  1
  O  O37  1  0.18705146  0.22214103  0.94428627  1
  O  O38  1  0.83972626  0.27328379  0.04622259  1
  O  O39  1  0.33972626  0.72671621  0.95377741  1
  O  O40  1  0.06713498  0.02054547  0.09026998  1
  O  O41  1  0.56713498  0.97945453  0.90973002  1
  O  O42  1  0.06398822  0.57124440  0.09111437  1
  O  O43  1  0.56398822  0.42875560  0.90888563  1
  O  O44  1  0.55046598  0.49533554  0.11446013  1
  O  O45  1  0.05046598  0.50466446  0.88553987  1
  O  O46  1  0.55405671  0.12121397  0.11591469  1
  O  O47  1  0.05405671  0.87878603  0.88408531  1
  O  O48  1  0.31150949  0.82733470  0.15386939  1
  O  O49  1  0.81150949  0.17266530  0.84613061  1
  O  O50  1  0.14766591  0.32530004  0.15307071  1
  O  O51  1  0.64766591  0.67469996  0.84692929  1
  O  O52  1  0.41468563  0.13087261  0.22078251  1
  O  O53  1  0.91468563  0.86912739  0.77921749  1
  O  O54  1  0.43248801  0.58268120  0.21412210  1
  O  O55  1  0.94778052  0.12614507  0.70269701  1
  Ti  Ti56  1  0.74489018  0.53334095  0.56202563  1
  Ti  Ti57  1  0.24489018  0.46665905  0.43797437  1
  Ti  Ti58  1  0.74303356  0.02890496  0.56062342  1
  Ti  Ti59  1  0.24303356  0.97109504  0.43937658  1
  Ti  Ti60  1  0.20693621  0.57745985  0.66304041  1
  Ti  Ti61  1  0.70693621  0.42254015  0.33695959  1
  Ti  Ti62  1  0.21615629  0.08991510  0.66016327  1
  Ti  Ti63  1  0.71615629  0.91008490  0.33983673  1
  Ti  Ti64  1  0.71542503  0.41014836  0.83987874  1
  Ti  Ti65  1  0.21542503  0.58985164  0.16012126  1
  Ti  Ti66  1  0.70627608  0.92260038  0.83697664  1
  Ti  Ti67  1  0.20627608  0.07739962  0.16302336  1
  Ti  Ti68  1  0.24160078  0.47107372  0.93938712  1
  Ti  Ti69  1  0.74160078  0.52892628  0.06061288  1
  Ti  Ti70  1  0.24347799  0.96665362  0.93796391  1
  Ti  Ti71  1  0.74347799  0.03334638  0.06203609  1
  Nd  Nd72  1  0.24727539  0.27329107  0.54270966  1
  Nd  Nd73  1  0.74727539  0.72670893  0.45729034  1
  Nd  Nd74  1  0.26081050  0.77974896  0.56198802  1
  Nd  Nd75  1  0.76081050  0.22025104  0.43801198  1
  Nd  Nd76  1  0.64520637  0.36052945  0.71535129  1
  Nd  Nd77  1  0.14520637  0.63947055  0.28464871  1
  Nd  Nd78  1  0.71783681  0.84006214  0.69102549  1
  Nd  Nd79  1  0.21783681  0.15993786  0.30897451  1
  Nd  Nd80  1  0.21742037  0.66000576  0.80893817  1
  Nd  Nd81  1  0.71742037  0.33999424  0.19106183  1
  Nd  Nd82  1  0.14483545  0.13962218  0.78467393  1
  Nd  Nd83  1  0.64483545  0.86037782  0.21532607  1
  Nd  Nd84  1  0.75926511  0.72023110  0.93802904  1
  Nd  Nd85  1  0.25926511  0.27976890  0.06197096  1
  Nd  Nd86  1  0.74595621  0.22668523  0.95729355  1
  Nd  Nd87  1  0.24595621  0.77331477  0.04270645  1
