# generated using pymatgen
data_YbP5O14
_symmetry_space_group_name_H-M   'P 1'
_cell_length_a   9.26586342
_cell_length_b   9.26586342
_cell_length_c   12.85977912
_cell_angle_alpha   88.45953260
_cell_angle_beta   88.45953260
_cell_angle_gamma   89.12003680
_symmetry_Int_Tables_number   1
_chemical_formula_structural   YbP5O14
_chemical_formula_sum   'Yb4 P20 O56'
_cell_volume   1103.17583562
_cell_formula_units_Z   4
loop_
 _symmetry_equiv_pos_site_id
 _symmetry_equiv_pos_as_xyz
  1  'x, y, z'
loop_
 _atom_site_type_symbol
 _atom_site_label
 _atom_site_symmetry_multiplicity
 _atom_site_fract_x
 _atom_site_fract_y
 _atom_site_fract_z
 _atom_site_occupancy
  O  O0  1  0.89315797  0.71973365  0.03901542  1
  O  O1  1  0.28026635  0.10684203  0.46098458  1
  O  O2  1  0.10684203  0.28026635  0.96098458  1
  O  O3  1  0.71973365  0.89315797  0.53901542  1
  O  O4  1  0.03849128  0.77788580  0.20158341  1
  O  O5  1  0.22211420  0.96150872  0.29841659  1
  O  O6  1  0.96150872  0.22211420  0.79841659  1
  O  O7  1  0.77788580  0.03849128  0.70158341  1
  O  O8  1  0.21261234  0.60140134  0.44346975  1
  O  O9  1  0.39859866  0.78738766  0.05653025  1
  O  O10  1  0.78738766  0.39859866  0.55653025  1
  O  O11  1  0.60140134  0.21261234  0.94346975  1
  O  O12  1  0.35404845  0.52747824  0.12153884  1
  O  O13  1  0.47252176  0.64595155  0.37846116  1
  O  O14  1  0.64595155  0.47252176  0.87846116  1
  O  O15  1  0.52747824  0.35404845  0.62153884  1
  O  O16  1  0.01505005  0.14310320  0.40872630  1
  O  O17  1  0.85689680  0.98494995  0.09127370  1
  O  O18  1  0.98494995  0.85689680  0.59127370  1
  O  O19  1  0.63511730  0.40995173  0.07623965  1
  O  O20  1  0.14310320  0.01505005  0.90872630  1
  O  O21  1  0.13868090  0.08141877  0.10149656  1
  O  O22  1  0.08141877  0.13868090  0.60149656  1
  O  O23  1  0.86131910  0.91858123  0.89850344  1
  O  O24  1  0.40287209  0.30057910  0.81519009  1
  O  O25  1  0.69942090  0.59712791  0.68480991  1
  O  O26  1  0.59712791  0.69942090  0.18480991  1
  O  O27  1  0.30057910  0.40287209  0.31519009  1
  O  O28  1  0.34684469  0.15663271  0.98472469  1
  O  O29  1  0.84336729  0.65315531  0.51527531  1
  O  O30  1  0.65315531  0.84336729  0.01527531  1
  O  O31  1  0.15663271  0.34684469  0.48472469  1
  O  O32  1  0.27251091  0.97350455  0.72430178  1
  O  O33  1  0.02649545  0.72748909  0.77569822  1
  O  O34  1  0.72748909  0.02649545  0.27569822  1
  O  O35  1  0.97350455  0.27251091  0.22430178  1
  O  O36  1  0.48637618  0.03369365  0.83912554  1
  O  O37  1  0.96630635  0.51362382  0.66087446  1
  O  O38  1  0.51362382  0.96630635  0.16087446  1
  O  O39  1  0.03369365  0.48637618  0.33912554  1
  O  O40  1  0.68107727  0.15708014  0.53219196  1
  O  O41  1  0.84291986  0.31892273  0.96780804  1
  O  O42  1  0.31892273  0.84291986  0.46780804  1
  O  O43  1  0.15708014  0.68107727  0.03219196  1
  O  O44  1  0.51716087  0.00435849  0.64257020  1
  O  O45  1  0.99564151  0.48283913  0.85742980  1
  O  O46  1  0.48283913  0.99564151  0.35742980  1
  O  O47  1  0.00435849  0.51716087  0.14257020  1
  O  O48  1  0.47609287  0.78733532  0.76720598  1
  O  O49  1  0.21266468  0.52390713  0.73279402  1
  O  O50  1  0.52390713  0.21266468  0.23279402  1
  O  O51  1  0.78733532  0.47609287  0.26720598  1
  O  O52  1  0.40995173  0.63511730  0.57623965  1
  O  O53  1  0.36488270  0.59004827  0.92376035  1
  O  O54  1  0.59004827  0.36488270  0.42376035  1
  O  O55  1  0.91858123  0.86131910  0.39850344  1
  P  P56  1  0.02428778  0.68277428  0.11305650  1
  P  P57  1  0.31722572  0.97571222  0.38694350  1
  P  P58  1  0.97571222  0.31722572  0.88694350  1
  P  P59  1  0.68277428  0.02428778  0.61305650  1
  P  P60  1  0.93794853  0.42690472  0.24423124  1
  P  P61  1  0.57309528  0.06205147  0.25576876  1
  P  P62  1  0.06205147  0.57309528  0.75576876  1
  P  P63  1  0.42690472  0.93794853  0.74423124  1
  P  P64  1  0.32589827  0.62992817  0.03244635  1
  P  P65  1  0.37007183  0.67410173  0.46755365  1
  P  P66  1  0.67410173  0.37007183  0.96755365  1
  P  P67  1  0.62992817  0.32589827  0.53244635  1
  P  P68  1  0.18639429  0.45420437  0.38734008  1
  P  P69  1  0.54579563  0.81360571  0.11265992  1
  P  P70  1  0.81360571  0.54579563  0.61265992  1
  P  P71  1  0.45420437  0.18639429  0.88734008  1
  P  P72  1  0.12007096  0.17613014  0.49116246  1
  P  P73  1  0.82386986  0.87992904  0.00883754  1
  P  P74  1  0.87992904  0.82386986  0.50883754  1
  P  P75  1  0.17613014  0.12007096  0.99116246  1
  Yb  Yb76  1  0.53665517  0.46334483  0.25000000  1
  Yb  Yb77  1  0.46334483  0.53665517  0.75000000  1
  Yb  Yb78  1  0.98201471  0.01798529  0.25000000  1
  Yb  Yb79  1  0.01798529  0.98201471  0.75000000  1
