# generated using pymatgen
data_NaPr9(Ge3O13)2
_symmetry_space_group_name_H-M   'P 1'
_cell_length_a   7.24670729
_cell_length_b   9.90797756
_cell_length_c   9.90795177
_cell_angle_alpha   120.00110962
_cell_angle_beta   90.00015730
_cell_angle_gamma   89.99968044
_symmetry_Int_Tables_number   1
_chemical_formula_structural   NaPr9(Ge3O13)2
_chemical_formula_sum   'Na1 Pr9 Ge6 O26'
_cell_volume   616.07756435
_cell_formula_units_Z   1
loop_
 _symmetry_equiv_pos_site_id
 _symmetry_equiv_pos_as_xyz
  1  'x, y, z'
loop_
 _atom_site_type_symbol
 _atom_site_label
 _atom_site_symmetry_multiplicity
 _atom_site_fract_x
 _atom_site_fract_y
 _atom_site_fract_z
 _atom_site_occupancy
  Na  Na0  1  0.50786543  0.33336038  0.66667924  1
  Pr  Pr1  1  0.00107433  0.66666102  0.33332982  1
  Pr  Pr2  1  0.50066795  0.66666421  0.33333685  1
  Pr  Pr3  1  0.00023816  0.33333601  0.66666896  1
  Pr  Pr4  1  0.74998893  0.00720340  0.24017774  1
  Pr  Pr5  1  0.74999113  0.75982434  0.76703332  1
  Pr  Pr6  1  0.74999021  0.23296755  0.99279272  1
  Pr  Pr7  1  0.25173954  0.99290411  0.76253140  1
  Pr  Pr8  1  0.25173895  0.23746534  0.23036645  1
  Pr  Pr9  1  0.25173614  0.76963573  0.00709609  1
  Ge  Ge10  1  0.75190132  0.62734579  0.02521482  1
  Ge  Ge11  1  0.75190682  0.97478538  0.60213343  1
  Ge  Ge12  1  0.75190792  0.39787246  0.37264546  1
  Ge  Ge13  1  0.25227533  0.37211654  0.96944168  1
  Ge  Ge14  1  0.25227838  0.03055554  0.40268052  1
  Ge  Ge15  1  0.25227673  0.59732394  0.62787854  1
  O  O16  1  0.75789333  0.51860966  0.82291322  1
  O  O17  1  0.75789779  0.17708344  0.69568692  1
  O  O18  1  0.75789703  0.30430176  0.48139437  1
  O  O19  1  0.25125427  0.49373324  0.17560534  1
  O  O20  1  0.25125154  0.82439257  0.31813629  1
  O  O21  1  0.25124965  0.68186930  0.50626495  1
  O  O22  1  0.74972482  0.00000104  0.00000510  1
  O  O23  1  0.24140994  0.00000104  0.99999697  1
  O  O24  1  0.55639470  0.75221903  0.10037616  1
  O  O25  1  0.55639838  0.89963313  0.65184976  1
  O  O26  1  0.55640170  0.34815462  0.24778326  1
  O  O27  1  0.05727368  0.24561295  0.90502347  1
  O  O28  1  0.05727871  0.09497089  0.34058335  1
  O  O29  1  0.05727322  0.65941102  0.75438595  1
  O  O30  1  0.43671908  0.23824888  0.91793132  1
  O  O31  1  0.43672239  0.08205890  0.32030943  1
  O  O32  1  0.43671836  0.67968399  0.76175007  1
  O  O33  1  0.94429809  0.75657115  0.10489124  1
  O  O34  1  0.94429618  0.89510511  0.65168368  1
  O  O35  1  0.94430019  0.34832329  0.24342894  1
  O  O36  1  0.75017806  0.52582277  0.13188171  1
  O  O37  1  0.75018192  0.86811017  0.39393860  1
  O  O38  1  0.75017875  0.60605732  0.47417415  1
  O  O39  1  0.23974473  0.47966271  0.87277239  1
  O  O40  1  0.23973872  0.12723233  0.60688784  1
  O  O41  1  0.23974749  0.39310793  0.52033845  1
