# generated using pymatgen
data_LiCu(PO3)3
_symmetry_space_group_name_H-M   'P 1'
_cell_length_a   8.26246991
_cell_length_b   8.76878388
_cell_length_c   8.91923469
_cell_angle_alpha   90.00000000
_cell_angle_beta   90.00000000
_cell_angle_gamma   90.00000000
_symmetry_Int_Tables_number   1
_chemical_formula_structural   LiCu(PO3)3
_chemical_formula_sum   'Li4 Cu4 P12 O36'
_cell_volume   646.21472347
_cell_formula_units_Z   4
loop_
 _symmetry_equiv_pos_site_id
 _symmetry_equiv_pos_as_xyz
  1  'x, y, z'
loop_
 _atom_site_type_symbol
 _atom_site_label
 _atom_site_symmetry_multiplicity
 _atom_site_fract_x
 _atom_site_fract_y
 _atom_site_fract_z
 _atom_site_occupancy
  Li  Li0  1  0.37926968  0.08380442  0.88684713  1
  Li  Li1  1  0.87926968  0.41619558  0.11315287  1
  Li  Li2  1  0.62073032  0.58380442  0.61315287  1
  Li  Li3  1  0.12073032  0.91619558  0.38684713  1
  O  O4  1  0.97064509  0.30320620  0.61776010  1
  O  O5  1  0.47064509  0.19679380  0.38223990  1
  O  O6  1  0.02935491  0.80320620  0.88223990  1
  O  O7  1  0.52935491  0.69679380  0.11776010  1
  O  O8  1  0.11062084  0.47605586  0.79817487  1
  O  O9  1  0.61062084  0.02394414  0.20182513  1
  O  O10  1  0.88937916  0.97605586  0.70182513  1
  O  O11  1  0.38937916  0.52394414  0.29817487  1
  O  O12  1  0.28896593  0.58770522  0.98875300  1
  O  O13  1  0.78896593  0.91229478  0.01124700  1
  O  O14  1  0.71103407  0.08770522  0.51124700  1
  O  O15  1  0.21103407  0.41229478  0.48875300  1
  O  O16  1  0.33370330  0.12246655  0.13605087  1
  O  O17  1  0.83370330  0.37753345  0.86394913  1
  O  O18  1  0.66629670  0.62246655  0.36394913  1
  O  O19  1  0.16629670  0.87753345  0.63605087  1
  O  O20  1  0.86027602  0.17296460  0.11925594  1
  O  O21  1  0.36027602  0.32703540  0.88074406  1
  O  O22  1  0.13972398  0.67296460  0.38074406  1
  O  O23  1  0.63972398  0.82703540  0.61925594  1
  O  O24  1  0.06088063  0.91709726  0.14868009  1
  O  O25  1  0.56088063  0.58290274  0.85131991  1
  O  O26  1  0.93911937  0.41709726  0.35131991  1
  O  O27  1  0.43911937  0.08290274  0.64868009  1
  O  O28  1  0.08575689  0.16241882  0.39639732  1
  O  O29  1  0.58575689  0.33758118  0.60360268  1
  O  O30  1  0.91424311  0.66241882  0.10360268  1
  O  O31  1  0.41424311  0.83758118  0.89639732  1
  O  O32  1  0.12992648  0.07494381  0.85059277  1
  O  O33  1  0.62992648  0.42505619  0.14940723  1
  O  O34  1  0.87007352  0.57494381  0.64940723  1
  O  O35  1  0.37007352  0.92505619  0.35059277  1
  O  O36  1  0.11863649  0.36079472  0.06080951  1
  O  O37  1  0.61863649  0.13920528  0.93919049  1
  O  O38  1  0.88136351  0.86079472  0.43919049  1
  O  O39  1  0.38136351  0.63920528  0.56080951  1
  P  P40  1  0.06834038  0.94034978  0.76551590  1
  P  P41  1  0.56834038  0.55965022  0.23448410  1
  P  P42  1  0.93165962  0.44034978  0.73448410  1
  P  P43  1  0.43165962  0.05965022  0.26551590  1
  P  P44  1  0.22238079  0.42514213  0.93616030  1
  P  P45  1  0.72238079  0.07485787  0.06383970  1
  P  P46  1  0.77761921  0.92514213  0.56383970  1
  P  P47  1  0.27761921  0.57485787  0.43616030  1
  P  P48  1  0.45432304  0.68195035  0.95118638  1
  P  P49  1  0.95432304  0.81804965  0.04881362  1
  P  P50  1  0.54567696  0.18195035  0.54881362  1
  P  P51  1  0.04567696  0.31804965  0.45118638  1
  Cu  Cu52  1  0.40326795  0.86181481  0.61504403  1
  Cu  Cu53  1  0.90326795  0.63818519  0.38495597  1
  Cu  Cu54  1  0.59673205  0.36181481  0.88495597  1
  Cu  Cu55  1  0.09673205  0.13818519  0.11504403  1
