# generated using pymatgen
data_Na2Mg2(Si2O5)3
_symmetry_space_group_name_H-M   'P 1'
_cell_length_a   10.32022060
_cell_length_b   11.43694169
_cell_length_c   11.43694168
_cell_angle_alpha   101.90639476
_cell_angle_beta   90.00000000
_cell_angle_gamma   90.00000000
_symmetry_Int_Tables_number   1
_chemical_formula_structural   Na2Mg2(Si2O5)3
_chemical_formula_sum   'Na8 Mg8 Si24 O60'
_cell_volume   1320.88009170
_cell_formula_units_Z   4
loop_
 _symmetry_equiv_pos_site_id
 _symmetry_equiv_pos_as_xyz
  1  'x, y, z'
loop_
 _atom_site_type_symbol
 _atom_site_label
 _atom_site_symmetry_multiplicity
 _atom_site_fract_x
 _atom_site_fract_y
 _atom_site_fract_z
 _atom_site_occupancy
  O  O0  1  0.05998810  0.18159675  0.81840325  1
  O  O1  1  0.55998810  0.31840325  0.68159675  1
  O  O2  1  0.94001190  0.81840325  0.18159675  1
  O  O3  1  0.44001190  0.68159675  0.31840325  1
  O  O4  1  0.82185809  0.05250156  0.94749844  1
  O  O5  1  0.32185809  0.44749844  0.55250156  1
  O  O6  1  0.17814191  0.94749844  0.05250156  1
  O  O7  1  0.67814191  0.55250156  0.44749844  1
  O  O8  1  0.47562196  0.12010444  0.87989556  1
  O  O9  1  0.97562196  0.37989556  0.62010444  1
  O  O10  1  0.52437804  0.87989556  0.12010444  1
  O  O11  1  0.02437804  0.62010444  0.37989556  1
  O  O12  1  0.82896505  0.67010388  0.00533337  1
  O  O13  1  0.32896505  0.82989612  0.49466663  1
  O  O14  1  0.17103495  0.00533337  0.67010388  1
  O  O15  1  0.67103495  0.49466663  0.82989612  1
  O  O16  1  0.17103495  0.32989612  0.99466663  1
  O  O17  1  0.67103495  0.17010388  0.50533337  1
  O  O18  1  0.82896505  0.99466663  0.32989612  1
  O  O19  1  0.32896505  0.50533337  0.17010388  1
  O  O20  1  0.09048942  0.71599588  0.00224719  1
  O  O21  1  0.59048942  0.78400412  0.49775281  1
  O  O22  1  0.90951058  0.00224719  0.71599588  1
  O  O23  1  0.40951058  0.49775281  0.78400412  1
  O  O24  1  0.66669633  0.24034691  0.01801221  1
  O  O25  1  0.90951058  0.28400412  0.99775281  1
  O  O26  1  0.09048942  0.99775281  0.28400412  1
  O  O27  1  0.59048942  0.50224719  0.21599588  1
  O  O28  1  0.15828739  0.82797141  0.83022444  1
  O  O29  1  0.65828739  0.67202859  0.66977556  1
  O  O30  1  0.84171261  0.83022444  0.82797141  1
  O  O31  1  0.34171261  0.66977556  0.67202859  1
  O  O32  1  0.84171261  0.17202859  0.16977556  1
  O  O33  1  0.34171261  0.32797141  0.33022444  1
  O  O34  1  0.15828739  0.16977556  0.17202859  1
  O  O35  1  0.65828739  0.33022444  0.32797141  1
  O  O36  1  0.33330367  0.75965309  0.98198779  1
  O  O37  1  0.83330367  0.74034691  0.51801221  1
  O  O38  1  0.66669633  0.98198779  0.75965309  1
  O  O39  1  0.16669633  0.51801221  0.74034691  1
  O  O40  1  0.00276443  0.58424688  0.14238808  1
  O  O41  1  0.50276443  0.91575312  0.35761192  1
  O  O42  1  0.99723557  0.14238808  0.58424688  1
  O  O43  1  0.49723557  0.35761192  0.91575312  1
  O  O44  1  0.99723557  0.41575312  0.85761192  1
  O  O45  1  0.49723557  0.08424688  0.64238808  1
  O  O46  1  0.00276443  0.85761192  0.41575312  1
  O  O47  1  0.50276443  0.64238808  0.08424688  1
  O  O48  1  0.07729379  0.40672331  0.24965566  1
  O  O49  1  0.57729379  0.09327669  0.25034434  1
  O  O50  1  0.92270621  0.24965566  0.40672331  1
  O  O51  1  0.42270621  0.25034434  0.09327669  1
  O  O52  1  0.92270621  0.59327669  0.75034434  1
  O  O53  1  0.42270621  0.90672331  0.74965566  1
  O  O54  1  0.07729379  0.75034434  0.59327669  1
  O  O55  1  0.57729379  0.74965566  0.90672331  1
  O  O56  1  0.83330367  0.48198779  0.25965309  1
  O  O57  1  0.33330367  0.01801221  0.24034691  1
  O  O58  1  0.16669633  0.25965309  0.48198779  1
  O  O59  1  0.40951058  0.21599588  0.50224719  1
  Na  Na60  1  0.75000000  0.98085015  0.51914985  1
  Na  Na61  1  0.25000000  0.51914985  0.98085015  1
  Na  Na62  1  0.25000000  0.01914985  0.48085015  1
  Na  Na63  1  0.75000000  0.48085015  0.01914985  1
  Na  Na64  1  0.76079993  0.90847543  0.09152457  1
  Na  Na65  1  0.26079993  0.59152457  0.40847543  1
  Na  Na66  1  0.23920007  0.09152457  0.90847543  1
  Na  Na67  1  0.73920007  0.40847543  0.59152457  1
  Mg  Mg68  1  0.75000000  0.66070087  0.83929913  1
  Mg  Mg69  1  0.25000000  0.83929913  0.66070087  1
  Mg  Mg70  1  0.25000000  0.33929913  0.16070087  1
  Mg  Mg71  1  0.75000000  0.16070087  0.33929913  1
  Mg  Mg72  1  0.50000000  0.74865524  0.74865524  1
  Mg  Mg73  1  0.00000000  0.75134476  0.75134476  1
  Mg  Mg74  1  0.50000000  0.25134476  0.25134476  1
  Mg  Mg75  1  0.00000000  0.24865524  0.24865524  1
  Si  Si76  1  0.95972478  0.69558036  0.07946650  1
  Si  Si77  1  0.45972478  0.80441964  0.42053350  1
  Si  Si78  1  0.04027522  0.07946650  0.69558036  1
  Si  Si79  1  0.54027522  0.42053350  0.80441964  1
  Si  Si80  1  0.04027522  0.30441964  0.92053350  1
  Si  Si81  1  0.54027522  0.19558036  0.57946650  1
  Si  Si82  1  0.95972478  0.92053350  0.30441964  1
  Si  Si83  1  0.45972478  0.57946650  0.19558036  1
  Si  Si84  1  0.18959575  0.81444814  0.96392342  1
  Si  Si85  1  0.68959575  0.68555186  0.53607658  1
  Si  Si86  1  0.81040425  0.96392342  0.81444814  1
  Si  Si87  1  0.31040425  0.53607658  0.68555186  1
  Si  Si88  1  0.81040425  0.18555186  0.03607658  1
  Si  Si89  1  0.31040425  0.31444814  0.46392342  1
  Si  Si90  1  0.18959575  0.03607658  0.18555186  1
  Si  Si91  1  0.68959575  0.46392342  0.31444814  1
  Si  Si92  1  0.48633183  0.75764860  0.02143563  1
  Si  Si93  1  0.98633183  0.74235140  0.47856437  1
  Si  Si94  1  0.51366817  0.02143563  0.75764860  1
  Si  Si95  1  0.01366817  0.47856437  0.74235140  1
  Si  Si96  1  0.51366817  0.24235140  0.97856437  1
  Si  Si97  1  0.01366817  0.25764860  0.52143563  1
  Si  Si98  1  0.48633183  0.97856437  0.24235140  1
  Si  Si99  1  0.98633183  0.52143563  0.25764860  1
