# generated using pymatgen
data_MgCrF4
_symmetry_space_group_name_H-M   'P 1'
_cell_length_a   5.09909743
_cell_length_b   5.18773724
_cell_length_c   6.33211666
_cell_angle_alpha   114.17916061
_cell_angle_beta   113.35358181
_cell_angle_gamma   89.99551491
_symmetry_Int_Tables_number   1
_chemical_formula_structural   MgCrF4
_chemical_formula_sum   'Mg2 Cr2 F8'
_cell_volume   137.62964594
_cell_formula_units_Z   2
loop_
 _symmetry_equiv_pos_site_id
 _symmetry_equiv_pos_as_xyz
  1  'x, y, z'
loop_
 _atom_site_type_symbol
 _atom_site_label
 _atom_site_symmetry_multiplicity
 _atom_site_fract_x
 _atom_site_fract_y
 _atom_site_fract_z
 _atom_site_occupancy
  Mg  Mg0  1  0.24862294  0.24836367  0.49853363  1
  Mg  Mg1  1  0.74854116  0.75308111  0.49845713  1
  Cr  Cr2  1  0.99736782  0.50094889  0.99838902  1
  Cr  Cr3  1  0.49819333  0.00117944  0.99989004  1
  F  F4  1  0.92539404  0.44340659  0.26984771  1
  F  F5  1  0.65617139  0.17508636  0.72419563  1
  F  F6  1  0.07439316  0.55189861  0.72647214  1
  F  F7  1  0.15688253  0.05192168  0.72537695  1
  F  F8  1  0.33416077  0.83075342  0.27254112  1
  F  F9  1  0.42658956  0.32967896  0.27185891  1
  F  F10  1  0.83481813  0.94471182  0.27394937  1
  F  F11  1  0.57572717  0.67793345  0.72848734  1
