# generated using pymatgen
data_LaCuGe
_symmetry_space_group_name_H-M   'P 1'
_cell_length_a   4.21595905
_cell_length_b   4.26955558
_cell_length_c   4.26933259
_cell_angle_alpha   59.99327773
_cell_angle_beta   90.00000000
_cell_angle_gamma   90.00000000
_symmetry_Int_Tables_number   1
_chemical_formula_structural   LaCuGe
_chemical_formula_sum   'La1 Cu1 Ge1'
_cell_volume   66.54880377
_cell_formula_units_Z   1
loop_
 _symmetry_equiv_pos_site_id
 _symmetry_equiv_pos_as_xyz
  1  'x, y, z'
loop_
 _atom_site_type_symbol
 _atom_site_label
 _atom_site_symmetry_multiplicity
 _atom_site_fract_x
 _atom_site_fract_y
 _atom_site_fract_z
 _atom_site_occupancy
  La  La0  1  -0.00000000  0.99999302  0.00001048  1
  Cu  Cu1  1  0.50000000  0.33329462  0.33341267  1
  Ge  Ge2  1  0.50000000  0.66661235  0.66667685  1
