# generated using pymatgen
data_ZnB4O7
_symmetry_space_group_name_H-M   'P 1'
_cell_length_a   8.29707993
_cell_length_b   8.81794915
_cell_length_c   13.89058480
_cell_angle_alpha   90.00000000
_cell_angle_beta   90.00000000
_cell_angle_gamma   90.00000000
_symmetry_Int_Tables_number   1
_chemical_formula_structural   ZnB4O7
_chemical_formula_sum   'Zn8 B32 O56'
_cell_volume   1016.28003550
_cell_formula_units_Z   8
loop_
 _symmetry_equiv_pos_site_id
 _symmetry_equiv_pos_as_xyz
  1  'x, y, z'
loop_
 _atom_site_type_symbol
 _atom_site_label
 _atom_site_symmetry_multiplicity
 _atom_site_fract_x
 _atom_site_fract_y
 _atom_site_fract_z
 _atom_site_occupancy
  B  B0  1  0.15964877  0.14461246  0.46222186  1
  B  B1  1  0.65964877  0.35538754  0.53777814  1
  B  B2  1  0.84035123  0.64461246  0.03777814  1
  B  B3  1  0.34035123  0.85538754  0.96222186  1
  B  B4  1  0.84035123  0.85538754  0.53777814  1
  B  B5  1  0.34035123  0.64461246  0.46222186  1
  B  B6  1  0.15964877  0.35538754  0.96222186  1
  B  B7  1  0.65964877  0.14461246  0.03777814  1
  B  B8  1  0.96891860  0.09025845  0.33049631  1
  B  B9  1  0.46891860  0.40974155  0.66950369  1
  B  B10  1  0.03108140  0.59025845  0.16950369  1
  B  B11  1  0.53108140  0.90974155  0.83049631  1
  B  B12  1  0.03108140  0.90974155  0.66950369  1
  B  B13  1  0.53108140  0.59025845  0.33049631  1
  B  B14  1  0.96891860  0.40974155  0.83049631  1
  B  B15  1  0.46891860  0.09025845  0.16950369  1
  B  B16  1  0.02657208  0.35676756  0.27011306  1
  B  B17  1  0.52657208  0.14323244  0.72988694  1
  B  B18  1  0.97342792  0.85676756  0.22988694  1
  B  B19  1  0.47342792  0.64323244  0.77011306  1
  B  B20  1  0.97342792  0.64323244  0.72988694  1
  B  B21  1  0.47342792  0.85676756  0.27011306  1
  B  B22  1  0.02657208  0.14323244  0.77011306  1
  B  B23  1  0.52657208  0.35676756  0.22988694  1
  B  B24  1  0.91042677  0.30277654  0.43626754  1
  B  B25  1  0.41042677  0.19722346  0.56373246  1
  B  B26  1  0.08957323  0.80277654  0.06373246  1
  B  B27  1  0.58957323  0.69722346  0.93626754  1
  B  B28  1  0.08957323  0.69722346  0.56373246  1
  B  B29  1  0.58957323  0.80277654  0.43626754  1
  B  B30  1  0.91042677  0.19722346  0.93626754  1
  B  B31  1  0.41042677  0.30277654  0.06373246  1
  O  O32  1  0.11530736  0.06215660  0.38464279  1
  O  O33  1  0.61530736  0.43784340  0.61535721  1
  O  O34  1  0.88469264  0.56215660  0.11535721  1
  O  O35  1  0.38469264  0.93784340  0.88464279  1
  O  O36  1  0.88469264  0.93784340  0.61535721  1
  O  O37  1  0.38469264  0.56215660  0.38464279  1
  O  O38  1  0.11530736  0.43784340  0.88464279  1
  O  O39  1  0.61530736  0.06215660  0.11535721  1
  O  O40  1  0.84587611  0.16765256  0.38955508  1
  O  O41  1  0.34587611  0.33234744  0.61044492  1
  O  O42  1  0.15412389  0.66765256  0.11044492  1
  O  O43  1  0.65412389  0.83234744  0.88955508  1
  O  O44  1  0.15412389  0.83234744  0.61044492  1
  O  O45  1  0.65412389  0.66765256  0.38955508  1
  O  O46  1  0.84587611  0.33234744  0.88955508  1
  O  O47  1  0.34587611  0.16765256  0.11044492  1
  O  O48  1  0.01726599  0.20287893  0.24833317  1
  O  O49  1  0.51726599  0.29712107  0.75166683  1
  O  O50  1  0.98273401  0.70287893  0.25166683  1
  O  O51  1  0.48273401  0.79712107  0.74833317  1
  O  O52  1  0.98273401  0.79712107  0.75166683  1
  O  O53  1  0.48273401  0.70287893  0.24833317  1
  O  O54  1  0.01726599  0.29712107  0.74833317  1
  O  O55  1  0.51726599  0.20287893  0.25166683  1
  O  O56  1  0.59597741  0.45180360  0.29385384  1
  O  O57  1  0.09597741  0.04819640  0.70614616  1
  O  O58  1  0.40402259  0.95180360  0.20614616  1
  O  O59  1  0.90402259  0.54819640  0.79385384  1
  O  O60  1  0.40402259  0.54819640  0.70614616  1
  O  O61  1  0.90402259  0.95180360  0.29385384  1
  O  O62  1  0.59597741  0.04819640  0.79385384  1
  O  O63  1  0.09597741  0.45180360  0.20614616  1
  O  O64  1  0.96786421  0.41063396  0.35790604  1
  O  O65  1  0.46786421  0.08936604  0.64209396  1
  O  O66  1  0.03213579  0.91063396  0.14209396  1
  O  O67  1  0.53213579  0.58936604  0.85790604  1
  O  O68  1  0.03213579  0.58936604  0.64209396  1
  O  O69  1  0.53213579  0.91063396  0.35790604  1
  O  O70  1  0.96786421  0.08936604  0.85790604  1
  O  O71  1  0.46786421  0.41063396  0.14209396  1
  O  O72  1  0.80411334  0.38656252  0.49545414  1
  O  O73  1  0.30411334  0.11343748  0.50454586  1
  O  O74  1  0.19588666  0.88656252  0.00454586  1
  O  O75  1  0.69588666  0.61343748  0.99545414  1
  O  O76  1  0.19588666  0.61343748  0.50454586  1
  O  O77  1  0.69588666  0.88656252  0.49545414  1
  O  O78  1  0.80411334  0.11343748  0.99545414  1
  O  O79  1  0.30411334  0.38656252  0.00454586  1
  O  O80  1  0.05753664  0.26051782  0.49680917  1
  O  O81  1  0.55753664  0.23948218  0.50319083  1
  O  O82  1  0.94246336  0.76051782  0.00319083  1
  O  O83  1  0.44246336  0.73948218  0.99680917  1
  O  O84  1  0.94246336  0.73948218  0.50319083  1
  O  O85  1  0.44246336  0.76051782  0.49680917  1
  O  O86  1  0.05753664  0.23948218  0.99680917  1
  O  O87  1  0.55753664  0.26051782  0.00319083  1
  Zn  Zn88  1  0.60913692  0.12643535  0.38021317  1
  Zn  Zn89  1  0.10913692  0.37356465  0.61978683  1
  Zn  Zn90  1  0.39086308  0.62643535  0.11978683  1
  Zn  Zn91  1  0.89086308  0.87356465  0.88021317  1
  Zn  Zn92  1  0.39086308  0.87356465  0.61978683  1
  Zn  Zn93  1  0.89086308  0.62643535  0.38021317  1
  Zn  Zn94  1  0.60913692  0.37356465  0.88021317  1
  Zn  Zn95  1  0.10913692  0.12643535  0.11978683  1
