# generated using pymatgen
data_Y2Cu3(WO4)6
_symmetry_space_group_name_H-M   'P 1'
_cell_length_a   15.10272813
_cell_length_b   6.20211418
_cell_length_c   6.05966530
_cell_angle_alpha   109.04210310
_cell_angle_beta   115.15105550
_cell_angle_gamma   90.85550612
_symmetry_Int_Tables_number   1
_chemical_formula_structural   Y2Cu3(WO4)6
_chemical_formula_sum   'Y2 Cu3 W6 O24'
_cell_volume   477.78409644
_cell_formula_units_Z   1
loop_
 _symmetry_equiv_pos_site_id
 _symmetry_equiv_pos_as_xyz
  1  'x, y, z'
loop_
 _atom_site_type_symbol
 _atom_site_label
 _atom_site_symmetry_multiplicity
 _atom_site_fract_x
 _atom_site_fract_y
 _atom_site_fract_z
 _atom_site_occupancy
  Y  Y0  1  0.21184238  0.71497125  0.10311011  1
  Y  Y1  1  0.87107966  0.73112127  0.09544730  1
  Cu  Cu2  1  0.04330188  0.22713226  0.10262710  1
  Cu  Cu3  1  0.39736544  0.26588539  0.12700625  1
  Cu  Cu4  1  0.68612017  0.18270613  0.07325266  1
  W  W5  1  0.29401969  0.39762713  0.59329710  1
  W  W6  1  0.61862513  0.39222642  0.59787774  1
  W  W7  1  0.95497310  0.39627731  0.58828254  1
  W  W8  1  0.12798449  0.04971460  0.61072143  1
  W  W9  1  0.46478142  0.05408130  0.60177979  1
  W  W10  1  0.78906002  0.04761304  0.60567860  1
  O  O11  1  0.04734860  0.65407190  0.82514310  1
  O  O12  1  0.36564107  0.67025914  0.80689458  1
  O  O13  1  0.71085744  0.65757870  0.81722986  1
  O  O14  1  0.19387126  0.47158214  0.32216019  1
  O  O15  1  0.52453006  0.47159675  0.34075561  1
  O  O16  1  0.87300045  0.50231556  0.34071542  1
  O  O17  1  0.05264421  0.20078832  0.79893749  1
  O  O18  1  0.38502796  0.20392688  0.79221990  1
  O  O19  1  0.71737403  0.19404389  0.80577168  1
  O  O20  1  0.19069134  0.03887771  0.38826627  1
  O  O21  1  0.52566229  0.05705119  0.39182170  1
  O  O22  1  0.85999228  0.06177708  0.39833224  1
  O  O23  1  0.20959105  0.94304222  0.85814257  1
  O  O24  1  0.55882274  0.97517458  0.85918199  1
  O  O25  1  0.88781706  0.97234173  0.87584160  1
  O  O26  1  0.03551504  0.79225460  0.37361762  1
  O  O27  1  0.37202382  0.78917591  0.38251938  1
  O  O28  1  0.71680245  0.77591687  0.39032459  1
  O  O29  1  0.03073587  0.24589955  0.40068818  1
  O  O30  1  0.36568221  0.25261519  0.39322920  1
  O  O31  1  0.69818637  0.24312524  0.40743383  1
  O  O32  1  0.22340717  0.38405643  0.80144398  1
  O  O33  1  0.55750465  0.38900480  0.80759959  1
  O  O34  1  0.89266920  0.40679249  0.81145582  1
