# generated using pymatgen
data_Er3Ga5O12
_symmetry_space_group_name_H-M   'P 1'
_cell_length_a   10.69694501
_cell_length_b   10.69694500
_cell_length_c   10.69694501
_cell_angle_alpha   109.47122067
_cell_angle_beta   109.47122066
_cell_angle_gamma   109.47122060
_symmetry_Int_Tables_number   1
_chemical_formula_structural   Er3Ga5O12
_chemical_formula_sum   'Er12 Ga20 O48'
_cell_volume   942.23102115
_cell_formula_units_Z   4
loop_
 _symmetry_equiv_pos_site_id
 _symmetry_equiv_pos_as_xyz
  1  'x, y, z'
loop_
 _atom_site_type_symbol
 _atom_site_label
 _atom_site_symmetry_multiplicity
 _atom_site_fract_x
 _atom_site_fract_y
 _atom_site_fract_z
 _atom_site_occupancy
  O  O0  1  0.29262620  0.46978209  0.37555692  1
  O  O1  1  0.03021791  0.32284411  0.90577483  1
  O  O2  1  0.12444308  0.59422517  0.91706927  1
  O  O3  1  0.20737380  0.58293073  0.17715589  1
  O  O4  1  0.20737380  0.12444308  0.03021791  1
  O  O5  1  0.58293073  0.17715589  0.20737380  1
  O  O6  1  0.59422517  0.17715589  0.46978209  1
  O  O7  1  0.17715589  0.20737380  0.58293073  1
  O  O8  1  0.90577483  0.37555692  0.58293073  1
  O  O9  1  0.32284411  0.91706927  0.29262620  1
  O  O10  1  0.91706927  0.29262620  0.32284411  1
  O  O11  1  0.03021791  0.20737380  0.12444308  1
  O  O12  1  0.17715589  0.46978209  0.59422517  1
  O  O13  1  0.58293073  0.90577483  0.37555692  1
  O  O14  1  0.12444308  0.03021791  0.20737380  1
  O  O15  1  0.46978209  0.59422517  0.17715589  1
  O  O16  1  0.37555692  0.58293073  0.90577483  1
  O  O17  1  0.90577483  0.03021791  0.32284411  1
  O  O18  1  0.59422517  0.91706927  0.12444308  1
  O  O19  1  0.09422517  0.62444308  0.41706927  1
  O  O20  1  0.91706927  0.12444308  0.59422517  1
  O  O21  1  0.37555692  0.29262620  0.46978209  1
  O  O22  1  0.32284411  0.90577483  0.03021791  1
  O  O23  1  0.29262620  0.32284411  0.91706927  1
  O  O24  1  0.70737380  0.53021791  0.62444308  1
  O  O25  1  0.96978209  0.67715589  0.09422517  1
  O  O26  1  0.87555692  0.40577483  0.08293073  1
  O  O27  1  0.79262620  0.41706927  0.82284411  1
  O  O28  1  0.79262620  0.87555692  0.96978209  1
  O  O29  1  0.41706927  0.82284411  0.79262620  1
  O  O30  1  0.40577483  0.82284411  0.53021791  1
  O  O31  1  0.82284411  0.79262620  0.41706927  1
  O  O32  1  0.70737380  0.67715589  0.08293073  1
  O  O33  1  0.67715589  0.09422517  0.96978209  1
  O  O34  1  0.62444308  0.70737380  0.53021791  1
  O  O35  1  0.53021791  0.62444308  0.70737380  1
  O  O36  1  0.08293073  0.87555692  0.40577483  1
  O  O37  1  0.40577483  0.08293073  0.87555692  1
  O  O38  1  0.09422517  0.96978209  0.67715589  1
  O  O39  1  0.62444308  0.41706927  0.09422517  1
  O  O40  1  0.53021791  0.40577483  0.82284411  1
  O  O41  1  0.87555692  0.96978209  0.79262620  1
  O  O42  1  0.41706927  0.09422517  0.62444308  1
  O  O43  1  0.82284411  0.53021791  0.40577483  1
  O  O44  1  0.96978209  0.79262620  0.87555692  1
  O  O45  1  0.08293073  0.70737380  0.67715589  1
  O  O46  1  0.67715589  0.08293073  0.70737380  1
  O  O47  1  0.46978209  0.37555692  0.29262620  1
  Ga  Ga48  1  0.25000000  0.12500000  0.87500000  1
  Ga  Ga49  1  0.75000000  0.87500000  0.12500000  1
  Ga  Ga50  1  0.37500000  0.25000000  0.62500000  1
  Ga  Ga51  1  0.62500000  0.37500000  0.25000000  1
  Ga  Ga52  1  0.12500000  0.75000000  0.87500000  1
  Ga  Ga53  1  0.87500000  0.12500000  0.75000000  1
  Ga  Ga54  1  0.75000000  0.37500000  0.62500000  1
  Ga  Ga55  1  0.37500000  0.62500000  0.75000000  1
  Ga  Ga56  1  0.12500000  0.87500000  0.25000000  1
  Ga  Ga57  1  0.87500000  0.25000000  0.12500000  1
  Ga  Ga58  1  0.62500000  0.75000000  0.37500000  1
  Ga  Ga59  1  0.25000000  0.62500000  0.37500000  1
  Ga  Ga60  1  0.50000000  0.50000000  0.50000000  1
  Ga  Ga61  1  0.50000000  0.50000000  0.00000000  1
  Ga  Ga62  1  0.50000000  0.00000000  0.50000000  1
  Ga  Ga63  1  0.00000000  0.50000000  0.50000000  1
  Ga  Ga64  1  0.50000000  0.00000000  0.00000000  1
  Ga  Ga65  1  0.00000000  0.00000000  0.50000000  1
  Ga  Ga66  1  0.00000000  0.50000000  0.00000000  1
  Ga  Ga67  1  0.00000000  0.00000000  0.00000000  1
  Er  Er68  1  0.25000000  0.87500000  0.62500000  1
  Er  Er69  1  0.87500000  0.62500000  0.25000000  1
  Er  Er70  1  0.62500000  0.87500000  0.75000000  1
  Er  Er71  1  0.87500000  0.75000000  0.62500000  1
  Er  Er72  1  0.62500000  0.25000000  0.87500000  1
  Er  Er73  1  0.75000000  0.62500000  0.87500000  1
  Er  Er74  1  0.75000000  0.12500000  0.37500000  1
  Er  Er75  1  0.12500000  0.37500000  0.75000000  1
  Er  Er76  1  0.37500000  0.12500000  0.25000000  1
  Er  Er77  1  0.12500000  0.25000000  0.37500000  1
  Er  Er78  1  0.37500000  0.75000000  0.12500000  1
  Er  Er79  1  0.25000000  0.37500000  0.12500000  1
