# generated using pymatgen
data_PrSnRh
_symmetry_space_group_name_H-M   'P 1'
_cell_length_a   7.53155658
_cell_length_b   7.53155658
_cell_length_c   4.20446236
_cell_angle_alpha   90.00000000
_cell_angle_beta   90.00000000
_cell_angle_gamma   119.99999999
_symmetry_Int_Tables_number   1
_chemical_formula_structural   PrSnRh
_chemical_formula_sum   'Pr3 Sn3 Rh3'
_cell_volume   206.54305039
_cell_formula_units_Z   3
loop_
 _symmetry_equiv_pos_site_id
 _symmetry_equiv_pos_as_xyz
  1  'x, y, z'
loop_
 _atom_site_type_symbol
 _atom_site_label
 _atom_site_symmetry_multiplicity
 _atom_site_fract_x
 _atom_site_fract_y
 _atom_site_fract_z
 _atom_site_occupancy
  Rh  Rh0  1  0.00000000  0.00000000  0.50000000  1
  Rh  Rh1  1  0.33333333  0.66666667  0.00000000  1
  Rh  Rh2  1  0.66666667  0.33333333  0.00000000  1
  Sn  Sn3  1  0.24876721  0.00000000  0.00000000  1
  Sn  Sn4  1  0.75123279  0.75123279  0.00000000  1
  Sn  Sn5  1  0.00000000  0.24876721  0.00000000  1
  Pr  Pr6  1  0.58685370  0.00000000  0.50000000  1
  Pr  Pr7  1  0.41314630  0.41314630  0.50000000  1
  Pr  Pr8  1  0.00000000  0.58685370  0.50000000  1
