# generated using pymatgen
data_Ba3Ho(BO3)3
_symmetry_space_group_name_H-M   'P 1'
_cell_length_a   9.49391902
_cell_length_b   9.49391902
_cell_length_c   18.04160928
_cell_angle_alpha   90.00000000
_cell_angle_beta   90.00000000
_cell_angle_gamma   120.00000001
_symmetry_Int_Tables_number   1
_chemical_formula_structural   Ba3Ho(BO3)3
_chemical_formula_sum   'Ba18 Ho6 B18 O54'
_cell_volume   1408.30574459
_cell_formula_units_Z   6
loop_
 _symmetry_equiv_pos_site_id
 _symmetry_equiv_pos_as_xyz
  1  'x, y, z'
loop_
 _atom_site_type_symbol
 _atom_site_label
 _atom_site_symmetry_multiplicity
 _atom_site_fract_x
 _atom_site_fract_y
 _atom_site_fract_z
 _atom_site_occupancy
  B  B0  1  0.65985508  0.65985508  0.42049605  1
  B  B1  1  0.00000000  0.65985508  0.92049605  1
  B  B2  1  0.65985508  0.00000000  0.92049605  1
  B  B3  1  0.34014492  0.00000000  0.42049605  1
  B  B4  1  0.00000000  0.34014492  0.42049605  1
  B  B5  1  0.34014492  0.34014492  0.92049605  1
  B  B6  1  0.66738920  0.66738920  0.24846413  1
  B  B7  1  0.00000000  0.66738920  0.74846413  1
  B  B8  1  0.66738920  0.00000000  0.74846413  1
  B  B9  1  0.33261080  0.00000000  0.24846413  1
  B  B10  1  0.00000000  0.33261080  0.24846413  1
  B  B11  1  0.33261080  0.33261080  0.74846413  1
  B  B12  1  0.67374342  0.67374342  0.07301543  1
  B  B13  1  0.00000000  0.67374342  0.57301543  1
  B  B14  1  0.67374342  0.00000000  0.57301543  1
  B  B15  1  0.32625658  0.00000000  0.07301543  1
  B  B16  1  0.00000000  0.32625658  0.07301543  1
  B  B17  1  0.32625658  0.32625658  0.57301543  1
  O  O18  1  0.80581877  0.80581877  0.43035127  1
  O  O19  1  0.00000000  0.80581877  0.93035127  1
  O  O20  1  0.80581877  0.00000000  0.93035127  1
  O  O21  1  0.19418123  0.00000000  0.43035127  1
  O  O22  1  0.00000000  0.19418123  0.43035127  1
  O  O23  1  0.19418123  0.19418123  0.93035127  1
  O  O24  1  0.66099413  0.14685333  0.91523780  1
  O  O25  1  0.85314667  0.51414080  0.91523780  1
  O  O26  1  0.48585920  0.33900587  0.91523780  1
  O  O27  1  0.51414080  0.66099413  0.41523780  1
  O  O28  1  0.33900587  0.85314667  0.41523780  1
  O  O29  1  0.14685333  0.48585920  0.41523780  1
  O  O30  1  0.66099413  0.51414080  0.41523780  1
  O  O31  1  0.14685333  0.66099413  0.91523780  1
  O  O32  1  0.51414080  0.85314667  0.91523780  1
  O  O33  1  0.48585920  0.14685333  0.41523780  1
  O  O34  1  0.85314667  0.33900587  0.41523780  1
  O  O35  1  0.33900587  0.48585920  0.91523780  1
  O  O36  1  0.52036058  0.52036058  0.24820620  1
  O  O37  1  0.00000000  0.52036058  0.74820620  1
  O  O38  1  0.52036058  0.00000000  0.74820620  1
  O  O39  1  0.47963942  0.00000000  0.24820620  1
  O  O40  1  0.00000000  0.47963942  0.24820620  1
  O  O41  1  0.47963942  0.47963942  0.74820620  1
  O  O42  1  0.81431174  0.14702883  0.74893545  1
  O  O43  1  0.85297117  0.66728291  0.74893545  1
  O  O44  1  0.33271709  0.18568826  0.74893545  1
  O  O45  1  0.66728291  0.81431174  0.24893545  1
  O  O46  1  0.18568826  0.85297117  0.24893545  1
  O  O47  1  0.14702883  0.33271709  0.24893545  1
  O  O48  1  0.81431174  0.66728291  0.24893545  1
  O  O49  1  0.14702883  0.81431174  0.74893545  1
  O  O50  1  0.66728291  0.85297117  0.74893545  1
  O  O51  1  0.33271709  0.14702883  0.24893545  1
  O  O52  1  0.85297117  0.18568826  0.24893545  1
  O  O53  1  0.18568826  0.33271709  0.74893545  1
  O  O54  1  0.67390150  0.14624845  0.56826200  1
  O  O55  1  0.85375155  0.52765306  0.56826200  1
  O  O56  1  0.47234694  0.32609850  0.56826200  1
  O  O57  1  0.52765306  0.67390150  0.06826200  1
  O  O58  1  0.32609850  0.85375155  0.06826200  1
  O  O59  1  0.14624845  0.47234694  0.06826200  1
  O  O60  1  0.67390150  0.52765306  0.06826200  1
  O  O61  1  0.14624845  0.67390150  0.56826200  1
  O  O62  1  0.52765306  0.85375155  0.56826200  1
  O  O63  1  0.47234694  0.14624845  0.06826200  1
  O  O64  1  0.85375155  0.32609850  0.06826200  1
  O  O65  1  0.32609850  0.47234694  0.56826200  1
  O  O66  1  0.81896827  0.81896827  0.08283880  1
  O  O67  1  0.00000000  0.81896827  0.58283880  1
  O  O68  1  0.81896827  0.00000000  0.58283880  1
  O  O69  1  0.18103173  0.00000000  0.08283880  1
  O  O70  1  0.00000000  0.18103173  0.08283880  1
  O  O71  1  0.18103173  0.18103173  0.58283880  1
  Ba  Ba72  1  0.68265033  0.68265033  0.86865455  1
  Ba  Ba73  1  0.00000000  0.68265033  0.36865455  1
  Ba  Ba74  1  0.68265033  0.00000000  0.36865455  1
  Ba  Ba75  1  0.31734967  0.00000000  0.86865455  1
  Ba  Ba76  1  0.00000000  0.31734967  0.86865455  1
  Ba  Ba77  1  0.31734967  0.31734967  0.36865455  1
  Ba  Ba78  1  0.65163858  0.65163858  0.63008154  1
  Ba  Ba79  1  0.00000000  0.65163858  0.13008154  1
  Ba  Ba80  1  0.65163858  0.00000000  0.13008154  1
  Ba  Ba81  1  0.34836142  0.00000000  0.63008154  1
  Ba  Ba82  1  0.00000000  0.34836142  0.63008154  1
  Ba  Ba83  1  0.34836142  0.34836142  0.13008154  1
  Ba  Ba84  1  0.33333333  0.66666667  0.27665729  1
  Ba  Ba85  1  0.66666667  0.33333333  0.77665729  1
  Ba  Ba86  1  0.33333333  0.66666667  0.77665729  1
  Ba  Ba87  1  0.66666667  0.33333333  0.27665729  1
  Ba  Ba88  1  0.00000000  0.00000000  0.71598892  1
  Ba  Ba89  1  0.00000000  0.00000000  0.21598892  1
  Ho  Ho90  1  0.33333333  0.66666667  0.99634552  1
  Ho  Ho91  1  0.66666667  0.33333333  0.49634552  1
  Ho  Ho92  1  0.33333333  0.66666667  0.49634552  1
  Ho  Ho93  1  0.66666667  0.33333333  0.99634552  1
  Ho  Ho94  1  0.00000000  0.00000000  0.50227011  1
  Ho  Ho95  1  0.00000000  0.00000000  0.00227011  1
