# generated using pymatgen
data_KTb3F10
_symmetry_space_group_name_H-M   'P 1'
_cell_length_a   8.29645588
_cell_length_b   8.29645587
_cell_length_c   8.29645587
_cell_angle_alpha   59.99999997
_cell_angle_beta   59.99999999
_cell_angle_gamma   59.99999995
_symmetry_Int_Tables_number   1
_chemical_formula_structural   KTb3F10
_chemical_formula_sum   'K2 Tb6 F20'
_cell_volume   403.79675520
_cell_formula_units_Z   2
loop_
 _symmetry_equiv_pos_site_id
 _symmetry_equiv_pos_as_xyz
  1  'x, y, z'
loop_
 _atom_site_type_symbol
 _atom_site_label
 _atom_site_symmetry_multiplicity
 _atom_site_fract_x
 _atom_site_fract_y
 _atom_site_fract_z
 _atom_site_occupancy
  F  F0  1  0.88827054  0.88827054  0.88827054  1
  F  F1  1  0.11172946  0.11172946  0.66481162  1
  F  F2  1  0.11172946  0.66481162  0.11172946  1
  F  F3  1  0.66481162  0.11172946  0.11172946  1
  F  F4  1  0.88827054  0.33518838  0.88827054  1
  F  F5  1  0.33518838  0.88827054  0.88827054  1
  F  F6  1  0.88827054  0.88827054  0.33518838  1
  F  F7  1  0.11172946  0.11172946  0.11172946  1
  F  F8  1  0.16970580  0.50000000  0.50000000  1
  F  F9  1  0.50000000  0.50000000  0.16970580  1
  F  F10  1  0.16970580  0.83029420  0.50000000  1
  F  F11  1  0.50000000  0.16970580  0.83029420  1
  F  F12  1  0.50000000  0.83029420  0.16970580  1
  F  F13  1  0.50000000  0.16970580  0.50000000  1
  F  F14  1  0.16970580  0.50000000  0.83029420  1
  F  F15  1  0.83029420  0.16970580  0.50000000  1
  F  F16  1  0.50000000  0.83029420  0.50000000  1
  F  F17  1  0.83029420  0.50000000  0.16970580  1
  F  F18  1  0.50000000  0.50000000  0.83029420  1
  F  F19  1  0.83029420  0.50000000  0.50000000  1
  K  K20  1  0.25000000  0.25000000  0.25000000  1
  K  K21  1  0.75000000  0.75000000  0.75000000  1
  Tb  Tb22  1  0.75967210  0.24032790  0.75967210  1
  Tb  Tb23  1  0.24032790  0.24032790  0.75967210  1
  Tb  Tb24  1  0.75967210  0.75967210  0.24032790  1
  Tb  Tb25  1  0.75967210  0.24032790  0.24032790  1
  Tb  Tb26  1  0.24032790  0.75967210  0.24032790  1
  Tb  Tb27  1  0.24032790  0.75967210  0.75967210  1
