# generated using pymatgen
data_MgAgF5
_symmetry_space_group_name_H-M   'P 1'
_cell_length_a   5.50044912
_cell_length_b   5.50044869
_cell_length_c   8.05660168
_cell_angle_alpha   100.24161807
_cell_angle_beta   105.36824388
_cell_angle_gamma   110.57248024
_symmetry_Int_Tables_number   1
_chemical_formula_structural   MgAgF5
_chemical_formula_sum   'Mg2 Ag2 F10'
_cell_volume   209.90410853
_cell_formula_units_Z   2
loop_
 _symmetry_equiv_pos_site_id
 _symmetry_equiv_pos_as_xyz
  1  'x, y, z'
loop_
 _atom_site_type_symbol
 _atom_site_label
 _atom_site_symmetry_multiplicity
 _atom_site_fract_x
 _atom_site_fract_y
 _atom_site_fract_z
 _atom_site_occupancy
  Mg  Mg0  1  0.26118091  0.51118091  0.75000000  1
  Mg  Mg1  1  0.73881909  0.48881909  0.25000000  1
  Ag  Ag2  1  0.00000000  0.00000000  0.00000000  1
  Ag  Ag3  1  0.50000000  0.00000000  0.50000000  1
  F  F4  1  0.43061771  0.18061771  0.25000000  1
  F  F5  1  0.56938229  0.81938229  0.75000000  1
  F  F6  1  0.59447600  0.73234405  0.36689556  1
  F  F7  1  0.86544749  0.22758044  0.13310444  1
  F  F8  1  0.76341027  0.67415650  0.06094960  1
  F  F9  1  0.11320690  0.70246067  0.43905040  1
  F  F10  1  0.23658973  0.32584350  0.93905040  1
  F  F11  1  0.88679310  0.29753933  0.56094960  1
  F  F12  1  0.13455251  0.77241956  0.86689556  1
  F  F13  1  0.40552400  0.26765595  0.63310444  1
