# generated using pymatgen
data_Rb3P6N11
_symmetry_space_group_name_H-M   'P 1'
_cell_length_a   10.61422676
_cell_length_b   10.61422676
_cell_length_c   10.61422676
_cell_angle_alpha   90.00000000
_cell_angle_beta   90.00000000
_cell_angle_gamma   90.00000000
_symmetry_Int_Tables_number   1
_chemical_formula_structural   Rb3P6N11
_chemical_formula_sum   'Rb12 P24 N44'
_cell_volume   1195.81799548
_cell_formula_units_Z   4
loop_
 _symmetry_equiv_pos_site_id
 _symmetry_equiv_pos_as_xyz
  1  'x, y, z'
loop_
 _atom_site_type_symbol
 _atom_site_label
 _atom_site_symmetry_multiplicity
 _atom_site_fract_x
 _atom_site_fract_y
 _atom_site_fract_z
 _atom_site_occupancy
  N  N0  1  0.55180910  0.55180910  0.55180910  1
  N  N1  1  0.80180910  0.69819090  0.30180910  1
  N  N2  1  0.69819090  0.30180910  0.80180910  1
  N  N3  1  0.30180910  0.80180910  0.69819090  1
  N  N4  1  0.05180910  0.94819090  0.44819090  1
  N  N5  1  0.94819090  0.44819090  0.05180910  1
  N  N6  1  0.44819090  0.05180910  0.94819090  1
  N  N7  1  0.19819090  0.19819090  0.19819090  1
  N  N8  1  0.62500000  0.30942539  0.55942539  1
  N  N9  1  0.69057461  0.05942539  0.87500000  1
  N  N10  1  0.55942539  0.62500000  0.30942539  1
  N  N11  1  0.94057461  0.37500000  0.80942539  1
  N  N12  1  0.30942539  0.55942539  0.62500000  1
  N  N13  1  0.44057461  0.12500000  0.19057461  1
  N  N14  1  0.05942539  0.87500000  0.69057461  1
  N  N15  1  0.80942539  0.94057461  0.37500000  1
  N  N16  1  0.19057461  0.44057461  0.12500000  1
  N  N17  1  0.87500000  0.69057461  0.05942539  1
  N  N18  1  0.37500000  0.80942539  0.94057461  1
  N  N19  1  0.27702810  0.01093248  0.34521171  1
  N  N20  1  0.12500000  0.19057461  0.44057461  1
  N  N21  1  0.23906752  0.02702810  0.59521171  1
  N  N22  1  0.47297190  0.40478829  0.73906752  1
  N  N23  1  0.52702810  0.90478829  0.76093248  1
  N  N24  1  0.40478829  0.73906752  0.47297190  1
  N  N25  1  0.09521171  0.26093248  0.97297190  1
  N  N26  1  0.48906752  0.65478829  0.77702810  1
  N  N27  1  0.98906752  0.84521171  0.22297190  1
  N  N28  1  0.51093248  0.15478829  0.72297190  1
  N  N29  1  0.84521171  0.22297190  0.98906752  1
  N  N30  1  0.72297190  0.51093248  0.15478829  1
  N  N31  1  0.22297190  0.98906752  0.84521171  1
  N  N32  1  0.65478829  0.77702810  0.48906752  1
  N  N33  1  0.77702810  0.48906752  0.65478829  1
  N  N34  1  0.15478829  0.72297190  0.51093248  1
  N  N35  1  0.34521171  0.27702810  0.01093248  1
  N  N36  1  0.01093248  0.34521171  0.27702810  1
  N  N37  1  0.26093248  0.97297190  0.09521171  1
  N  N38  1  0.76093248  0.52702810  0.90478829  1
  N  N39  1  0.02702810  0.59521171  0.23906752  1
  N  N40  1  0.97297190  0.09521171  0.26093248  1
  N  N41  1  0.90478829  0.76093248  0.52702810  1
  N  N42  1  0.59521171  0.23906752  0.02702810  1
  N  N43  1  0.73906752  0.47297190  0.40478829  1
  P  P44  1  0.67962787  0.45299385  0.54197397  1
  P  P45  1  0.17962787  0.04700615  0.45802603  1
  P  P46  1  0.45299385  0.54197397  0.67962787  1
  P  P47  1  0.54700615  0.04197397  0.82037213  1
  P  P48  1  0.54197397  0.67962787  0.45299385  1
  P  P49  1  0.95802603  0.32037213  0.95299385  1
  P  P50  1  0.42962787  0.79197397  0.79700615  1
  P  P51  1  0.92962787  0.70802603  0.20299385  1
  P  P52  1  0.57037213  0.29197397  0.70299385  1
  P  P53  1  0.70802603  0.20299385  0.92962787  1
  P  P54  1  0.70299385  0.57037213  0.29197397  1
  P  P55  1  0.20299385  0.92962787  0.70802603  1
  P  P56  1  0.79197397  0.79700615  0.42962787  1
  P  P57  1  0.79700615  0.42962787  0.79197397  1
  P  P58  1  0.29197397  0.70299385  0.57037213  1
  P  P59  1  0.20802603  0.29700615  0.07037213  1
  P  P60  1  0.29700615  0.07037213  0.20802603  1
  P  P61  1  0.45802603  0.17962787  0.04700615  1
  P  P62  1  0.04197397  0.82037213  0.54700615  1
  P  P63  1  0.95299385  0.95802603  0.32037213  1
  P  P64  1  0.04700615  0.45802603  0.17962787  1
  P  P65  1  0.82037213  0.54700615  0.04197397  1
  P  P66  1  0.32037213  0.95299385  0.95802603  1
  P  P67  1  0.07037213  0.20802603  0.29700615  1
  Rb  Rb68  1  0.98917457  0.98917457  0.98917457  1
  Rb  Rb69  1  0.23917457  0.26082543  0.73917457  1
  Rb  Rb70  1  0.26082543  0.73917457  0.23917457  1
  Rb  Rb71  1  0.73917457  0.23917457  0.26082543  1
  Rb  Rb72  1  0.48917457  0.51082543  0.01082543  1
  Rb  Rb73  1  0.51082543  0.01082543  0.48917457  1
  Rb  Rb74  1  0.01082543  0.48917457  0.51082543  1
  Rb  Rb75  1  0.76082543  0.76082543  0.76082543  1
  Rb  Rb76  1  0.87500000  0.12500000  0.62500000  1
  Rb  Rb77  1  0.12500000  0.62500000  0.87500000  1
  Rb  Rb78  1  0.62500000  0.87500000  0.12500000  1
  Rb  Rb79  1  0.37500000  0.37500000  0.37500000  1
