# generated using pymatgen
data_Li7PN4
_symmetry_space_group_name_H-M   'P 1'
_cell_length_a   9.40237787
_cell_length_b   9.40237787
_cell_length_c   9.40237787
_cell_angle_alpha   90.00000000
_cell_angle_beta   90.00000000
_cell_angle_gamma   90.00000000
_symmetry_Int_Tables_number   1
_chemical_formula_structural   Li7PN4
_chemical_formula_sum   'Li56 P8 N32'
_cell_volume   831.21448524
_cell_formula_units_Z   8
loop_
 _symmetry_equiv_pos_site_id
 _symmetry_equiv_pos_as_xyz
  1  'x, y, z'
loop_
 _atom_site_type_symbol
 _atom_site_label
 _atom_site_symmetry_multiplicity
 _atom_site_fract_x
 _atom_site_fract_y
 _atom_site_fract_z
 _atom_site_occupancy
  Li  Li0  1  0.00000000  0.50000000  0.50000000  1
  Li  Li1  1  0.50000000  0.00000000  0.00000000  1
  Li  Li2  1  0.00000000  0.00000000  0.50000000  1
  Li  Li3  1  0.00000000  0.50000000  0.00000000  1
  Li  Li4  1  0.50000000  0.00000000  0.50000000  1
  Li  Li5  1  0.50000000  0.50000000  0.00000000  1
  Li  Li6  1  0.25000000  0.00000000  0.50000000  1
  Li  Li7  1  0.00000000  0.50000000  0.75000000  1
  Li  Li8  1  0.00000000  0.50000000  0.25000000  1
  Li  Li9  1  0.50000000  0.25000000  0.00000000  1
  Li  Li10  1  0.50000000  0.75000000  0.00000000  1
  Li  Li11  1  0.75000000  0.00000000  0.50000000  1
  Li  Li12  1  0.22537442  0.22537442  0.22537442  1
  Li  Li13  1  0.27462558  0.72537442  0.27462558  1
  Li  Li14  1  0.27462558  0.27462558  0.72537442  1
  Li  Li15  1  0.72537442  0.27462558  0.27462558  1
  Li  Li16  1  0.77462558  0.77462558  0.22537442  1
  Li  Li17  1  0.22537442  0.77462558  0.77462558  1
  Li  Li18  1  0.77462558  0.22537442  0.77462558  1
  Li  Li19  1  0.72537442  0.72537442  0.72537442  1
  Li  Li20  1  0.25333629  0.23708262  0.97516404  1
  Li  Li21  1  0.24666371  0.47516404  0.26291738  1
  Li  Li22  1  0.24666371  0.52483596  0.73708262  1
  Li  Li23  1  0.52483596  0.26291738  0.75333629  1
  Li  Li24  1  0.47516404  0.26291738  0.24666371  1
  Li  Li25  1  0.73708262  0.24666371  0.52483596  1
  Li  Li26  1  0.26291738  0.75333629  0.52483596  1
  Li  Li27  1  0.97516404  0.25333629  0.23708262  1
  Li  Li28  1  0.23708262  0.97516404  0.25333629  1
  Li  Li29  1  0.76291738  0.02483596  0.25333629  1
  Li  Li30  1  0.97516404  0.74666371  0.76291738  1
  Li  Li31  1  0.76291738  0.97516404  0.74666371  1
  Li  Li32  1  0.02483596  0.74666371  0.23708262  1
  Li  Li33  1  0.02483596  0.25333629  0.76291738  1
  Li  Li34  1  0.23708262  0.02483596  0.74666371  1
  Li  Li35  1  0.25333629  0.76291738  0.02483596  1
  Li  Li36  1  0.74666371  0.23708262  0.02483596  1
  Li  Li37  1  0.74666371  0.76291738  0.97516404  1
  Li  Li38  1  0.26291738  0.24666371  0.47516404  1
  Li  Li39  1  0.73708262  0.75333629  0.47516404  1
  Li  Li40  1  0.52483596  0.73708262  0.24666371  1
  Li  Li41  1  0.47516404  0.73708262  0.75333629  1
  Li  Li42  1  0.75333629  0.52483596  0.26291738  1
  Li  Li43  1  0.75333629  0.47516404  0.73708262  1
  Li  Li44  1  0.26438736  0.00000000  0.00000000  1
  Li  Li45  1  0.23561264  0.50000000  0.50000000  1
  Li  Li46  1  0.50000000  0.50000000  0.76438736  1
  Li  Li47  1  0.50000000  0.50000000  0.23561264  1
  Li  Li48  1  0.50000000  0.23561264  0.50000000  1
  Li  Li49  1  0.50000000  0.76438736  0.50000000  1
  Li  Li50  1  0.00000000  0.26438736  0.00000000  1
  Li  Li51  1  0.00000000  0.00000000  0.26438736  1
  Li  Li52  1  0.00000000  0.73561264  0.00000000  1
  Li  Li53  1  0.00000000  0.00000000  0.73561264  1
  Li  Li54  1  0.73561264  0.00000000  0.00000000  1
  Li  Li55  1  0.76438736  0.50000000  0.50000000  1
  N  N56  1  0.60346117  0.60346117  0.60346117  1
  N  N57  1  0.89653883  0.10346117  0.89653883  1
  N  N58  1  0.10346117  0.89653883  0.89653883  1
  N  N59  1  0.89653883  0.89653883  0.10346117  1
  N  N60  1  0.60346117  0.39653883  0.39653883  1
  N  N61  1  0.39653883  0.39653883  0.60346117  1
  N  N62  1  0.39653883  0.60346117  0.39653883  1
  N  N63  1  0.10346117  0.10346117  0.10346117  1
  N  N64  1  0.35073108  0.38738482  0.09942106  1
  N  N65  1  0.14926892  0.59942106  0.11261518  1
  N  N66  1  0.14926892  0.40057894  0.88738482  1
  N  N67  1  0.40057894  0.11261518  0.85073108  1
  N  N68  1  0.59942106  0.11261518  0.14926892  1
  N  N69  1  0.88738482  0.14926892  0.40057894  1
  N  N70  1  0.11261518  0.85073108  0.40057894  1
  N  N71  1  0.09942106  0.35073108  0.38738482  1
  N  N72  1  0.38738482  0.09942106  0.35073108  1
  N  N73  1  0.61261518  0.90057894  0.35073108  1
  N  N74  1  0.09942106  0.64926892  0.61261518  1
  N  N75  1  0.61261518  0.09942106  0.64926892  1
  N  N76  1  0.90057894  0.64926892  0.38738482  1
  N  N77  1  0.90057894  0.35073108  0.61261518  1
  N  N78  1  0.38738482  0.90057894  0.64926892  1
  N  N79  1  0.35073108  0.61261518  0.90057894  1
  N  N80  1  0.64926892  0.38738482  0.90057894  1
  N  N81  1  0.64926892  0.61261518  0.09942106  1
  N  N82  1  0.11261518  0.14926892  0.59942106  1
  N  N83  1  0.88738482  0.85073108  0.59942106  1
  N  N84  1  0.40057894  0.88738482  0.14926892  1
  N  N85  1  0.59942106  0.88738482  0.85073108  1
  N  N86  1  0.85073108  0.40057894  0.11261518  1
  N  N87  1  0.85073108  0.59942106  0.88738482  1
  P  P88  1  0.50000000  0.50000000  0.50000000  1
  P  P89  1  0.00000000  0.00000000  0.00000000  1
  P  P90  1  0.50000000  0.00000000  0.75000000  1
  P  P91  1  0.75000000  0.50000000  0.00000000  1
  P  P92  1  0.25000000  0.50000000  0.00000000  1
  P  P93  1  0.00000000  0.25000000  0.50000000  1
  P  P94  1  0.00000000  0.75000000  0.50000000  1
  P  P95  1  0.50000000  0.00000000  0.25000000  1
