# generated using pymatgen
data_Ta5N6
_symmetry_space_group_name_H-M   'P 1'
_cell_length_a   5.21835629
_cell_length_b   5.21784763
_cell_length_c   10.46213292
_cell_angle_alpha   90.00000000
_cell_angle_beta   90.00000000
_cell_angle_gamma   120.00321811
_symmetry_Int_Tables_number   1
_chemical_formula_structural   Ta5N6
_chemical_formula_sum   'Ta10 N12'
_cell_volume   246.69588279
_cell_formula_units_Z   2
loop_
 _symmetry_equiv_pos_site_id
 _symmetry_equiv_pos_as_xyz
  1  'x, y, z'
loop_
 _atom_site_type_symbol
 _atom_site_label
 _atom_site_symmetry_multiplicity
 _atom_site_fract_x
 _atom_site_fract_y
 _atom_site_fract_z
 _atom_site_occupancy
  Ta  Ta0  1  0.32463894  0.00000000  0.75000151  1
  Ta  Ta1  1  0.67539711  0.67539434  0.74999951  1
  Ta  Ta2  1  0.00000277  0.32460566  0.74999951  1
  Ta  Ta3  1  0.67536106  1.00000000  0.25000151  1
  Ta  Ta4  1  0.32460289  0.32460566  0.24999951  1
  Ta  Ta5  1  0.99999723  0.67539434  0.24999951  1
  Ta  Ta6  1  0.33332103  0.66668420  0.49999994  1
  Ta  Ta7  1  0.66663683  0.33331580  0.49999994  1
  Ta  Ta8  1  0.66667897  0.33331580  -0.00000006  1
  Ta  Ta9  1  0.33336317  0.66668420  -0.00000006  1
  N  N10  1  0.33899210  1.00000000  0.12193434  1
  N  N11  1  0.66100774  0.66098159  0.12192023  1
  N  N12  1  0.00002615  0.33901841  0.12192023  1
  N  N13  1  0.66102437  0.00000000  0.87806195  1
  N  N14  1  0.33900853  0.33901650  0.87808142  1
  N  N15  1  0.99999202  0.66098350  0.87808142  1
  N  N16  1  0.66100790  0.00000000  0.62193434  1
  N  N17  1  0.33899226  0.33901841  0.62192023  1
  N  N18  1  0.99997385  0.66098159  0.62192023  1
  N  N19  1  0.33897563  1.00000000  0.37806195  1
  N  N20  1  0.66099147  0.66098350  0.37808142  1
  N  N21  1  0.00000798  0.33901650  0.37808142  1
