# generated using pymatgen
data_DyVO4
_symmetry_space_group_name_H-M   'P 1'
_cell_length_a   6.00947231
_cell_length_b   6.00947231
_cell_length_c   6.00947231
_cell_angle_alpha   106.24546693
_cell_angle_beta   106.24546686
_cell_angle_gamma   116.13539734
_symmetry_Int_Tables_number   1
_chemical_formula_structural   DyVO4
_chemical_formula_sum   'Dy2 V2 O8'
_cell_volume   165.35139177
_cell_formula_units_Z   2
loop_
 _symmetry_equiv_pos_site_id
 _symmetry_equiv_pos_as_xyz
  1  'x, y, z'
loop_
 _atom_site_type_symbol
 _atom_site_label
 _atom_site_symmetry_multiplicity
 _atom_site_fract_x
 _atom_site_fract_y
 _atom_site_fract_z
 _atom_site_occupancy
  O  O0  1  0.80085959  0.73561192  0.43475263  1
  O  O1  1  0.80085940  0.36610873  0.06524749  1
  O  O2  1  0.26438867  0.19914013  0.06524817  1
  O  O3  1  0.19914067  0.63389242  0.93475203  1
  O  O4  1  0.19914048  0.26438922  0.56524855  1
  O  O5  1  0.63389161  0.19914013  0.43475153  1
  O  O6  1  0.73561196  0.80085892  0.93475092  1
  O  O7  1  0.36610728  0.80085892  0.56524707  1
  V  V8  1  0.62499879  0.37499918  0.24999896  1
  V  V9  1  0.37500010  0.62499987  0.74999964  1
  Dy  Dy10  1  0.87500028  0.12499903  0.74999946  1
  Dy  Dy11  1  0.12500034  0.87500002  0.24999963  1
