# generated using pymatgen
data_CrCdO4
_symmetry_space_group_name_H-M   'P 1'
_cell_length_a   5.31932699
_cell_length_b   5.31932699
_cell_length_c   7.11341599
_cell_angle_alpha   90.00000000
_cell_angle_beta   90.00000000
_cell_angle_gamma   114.55253456
_symmetry_Int_Tables_number   1
_chemical_formula_structural   CrCdO4
_chemical_formula_sum   'Cr2 Cd2 O8'
_cell_volume   183.07658325
_cell_formula_units_Z   2
loop_
 _symmetry_equiv_pos_site_id
 _symmetry_equiv_pos_as_xyz
  1  'x, y, z'
loop_
 _atom_site_type_symbol
 _atom_site_label
 _atom_site_symmetry_multiplicity
 _atom_site_fract_x
 _atom_site_fract_y
 _atom_site_fract_z
 _atom_site_occupancy
  O  O0  1  0.70910569  0.77806995  0.75000000  1
  O  O1  1  0.29089431  0.22193005  0.25000000  1
  O  O2  1  0.77806995  0.70910569  0.25000000  1
  O  O3  1  0.22193005  0.29089431  0.75000000  1
  O  O4  1  0.25206780  0.74793220  0.93858832  1
  O  O5  1  0.74793220  0.25206780  0.43858832  1
  O  O6  1  0.74793220  0.25206780  0.06141168  1
  O  O7  1  0.25206780  0.74793220  0.56141168  1
  Cr  Cr8  1  0.64290673  0.35709327  0.25000000  1
  Cr  Cr9  1  0.35709327  0.64290673  0.75000000  1
  Cd  Cd10  1  0.00000000  0.00000000  0.50000000  1
  Cd  Cd11  1  0.00000000  0.00000000  0.00000000  1
