# generated using pymatgen
data_Mn3O4
_symmetry_space_group_name_H-M   'P 1'
_cell_length_a   5.87428361
_cell_length_b   6.34999263
_cell_length_c   5.87614252
_cell_angle_alpha   62.28741774
_cell_angle_beta   90.00000283
_cell_angle_gamma   62.44870087
_symmetry_Int_Tables_number   1
_chemical_formula_structural   Mn3O4
_chemical_formula_sum   'Mn6 O8'
_cell_volume   165.45501004
_cell_formula_units_Z   2
loop_
 _symmetry_equiv_pos_site_id
 _symmetry_equiv_pos_as_xyz
  1  'x, y, z'
loop_
 _atom_site_type_symbol
 _atom_site_label
 _atom_site_symmetry_multiplicity
 _atom_site_fract_x
 _atom_site_fract_y
 _atom_site_fract_z
 _atom_site_occupancy
  Mn  Mn0  1  0.12514568  0.24970865  0.37401812  1
  Mn  Mn1  1  0.87485432  0.75029135  0.62598188  1
  Mn  Mn2  1  0.50000000  0.50000000  0.50000000  1
  Mn  Mn3  1  0.00000000  0.00000000  0.00000000  1
  Mn  Mn4  1  0.50000000  0.00000000  0.00000000  1
  Mn  Mn5  1  0.50000000  0.50000000  0.00000000  1
  O  O6  1  0.26992483  0.51511394  0.24141699  1
  O  O7  1  0.25794719  0.98410562  0.22855983  1
  O  O8  1  0.74169248  0.01661505  0.21439694  1
  O  O9  1  0.74205281  0.01589438  0.77144017  1
  O  O10  1  0.28503877  0.48488606  0.75858301  1
  O  O11  1  0.73007517  0.48488606  0.75858301  1
  O  O12  1  0.71496123  0.51511394  0.24141699  1
  O  O13  1  0.25830752  0.98338495  0.78560306  1
