# generated using pymatgen
data_MgFeO3
_symmetry_space_group_name_H-M   'P 1'
_cell_length_a   5.06412050
_cell_length_b   5.27674876
_cell_length_c   7.45073286
_cell_angle_alpha   89.99976007
_cell_angle_beta   89.99873631
_cell_angle_gamma   90.00070712
_symmetry_Int_Tables_number   1
_chemical_formula_structural   MgFeO3
_chemical_formula_sum   'Mg4 Fe4 O12'
_cell_volume   199.09916571
_cell_formula_units_Z   4
loop_
 _symmetry_equiv_pos_site_id
 _symmetry_equiv_pos_as_xyz
  1  'x, y, z'
loop_
 _atom_site_type_symbol
 _atom_site_label
 _atom_site_symmetry_multiplicity
 _atom_site_fract_x
 _atom_site_fract_y
 _atom_site_fract_z
 _atom_site_occupancy
  Mg  Mg0  1  0.98516501  0.06383325  0.25003241  1
  Mg  Mg1  1  0.48515424  0.43617045  0.74998401  1
  Mg  Mg2  1  0.51484823  0.56383136  0.25001565  1
  Mg  Mg3  1  0.01483253  0.93616069  0.74996745  1
  Fe  Fe4  1  0.50000425  0.99999556  0.99999748  1
  Fe  Fe5  1  -0.00000015  0.50000024  0.00000058  1
  Fe  Fe6  1  -0.00000121  0.50000039  0.50000060  1
  Fe  Fe7  1  0.50000073  0.00000315  0.50000008  1
  O  O8  1  0.87333093  0.55787389  0.75005956  1
  O  O9  1  0.37332484  0.94212323  0.25008993  1
  O  O10  1  0.62667501  0.05787858  0.74991012  1
  O  O11  1  0.12666857  0.44212592  0.24994128  1
  O  O12  1  0.68838591  0.31005142  0.43310563  1
  O  O13  1  0.18853379  0.18981344  0.56686304  1
  O  O14  1  0.81163489  0.81002813  0.06701304  1
  O  O15  1  0.31150087  0.68984673  0.93302167  1
  O  O16  1  0.68849815  0.31015189  0.06697727  1
  O  O17  1  0.18836492  0.18997175  0.93298521  1
  O  O18  1  0.31161397  0.68995389  0.56689423  1
  O  O19  1  0.81146453  0.81018805  0.43313875  1
