# generated using pymatgen
data_NaFeP2O7
_symmetry_space_group_name_H-M   'P 1'
_cell_length_a   7.42402068
_cell_length_b   8.04038607
_cell_length_c   9.69184993
_cell_angle_alpha   90.00000000
_cell_angle_beta   111.71638011
_cell_angle_gamma   90.00000000
_symmetry_Int_Tables_number   1
_chemical_formula_structural   NaFeP2O7
_chemical_formula_sum   'Na4 Fe4 P8 O28'
_cell_volume   537.46601971
_cell_formula_units_Z   4
loop_
 _symmetry_equiv_pos_site_id
 _symmetry_equiv_pos_as_xyz
  1  'x, y, z'
loop_
 _atom_site_type_symbol
 _atom_site_label
 _atom_site_symmetry_multiplicity
 _atom_site_fract_x
 _atom_site_fract_y
 _atom_site_fract_z
 _atom_site_occupancy
  O  O0  1  0.63536870  0.10754441  0.89701789  1
  O  O1  1  0.36463130  0.60754441  0.60298211  1
  O  O2  1  0.36463130  0.89245559  0.10298211  1
  O  O3  1  0.63536870  0.39245559  0.39701789  1
  O  O4  1  0.69149561  0.29967532  0.11503015  1
  O  O5  1  0.30850439  0.79967532  0.38496985  1
  O  O6  1  0.30850439  0.70032468  0.88496985  1
  O  O7  1  0.69149561  0.20032468  0.61503015  1
  O  O8  1  0.53259615  0.41276492  0.84799191  1
  O  O9  1  0.46740385  0.91276492  0.65200809  1
  O  O10  1  0.46740385  0.58723508  0.15200809  1
  O  O11  1  0.53259615  0.08723508  0.34799191  1
  O  O12  1  0.18145238  0.36407087  0.89243470  1
  O  O13  1  0.81854762  0.86407087  0.60756530  1
  O  O14  1  0.81854762  0.63592913  0.10756530  1
  O  O15  1  0.18145238  0.13592913  0.39243470  1
  O  O16  1  0.87571264  0.15409882  0.43844949  1
  O  O17  1  0.12428736  0.65409882  0.06155051  1
  O  O18  1  0.12428736  0.84590118  0.56155051  1
  O  O19  1  0.87571264  0.34590118  0.93844949  1
  O  O20  1  0.18542590  0.28582200  0.61960455  1
  O  O21  1  0.81457410  0.78582200  0.88039545  1
  O  O22  1  0.81457410  0.71417800  0.38039545  1
  O  O23  1  0.18542590  0.21417800  0.11960455  1
  O  O24  1  0.01112633  0.41455097  0.36148521  1
  O  O25  1  0.98887367  0.91455097  0.13851479  1
  O  O26  1  0.98887367  0.58544903  0.63851479  1
  O  O27  1  0.01112633  0.08544903  0.86148521  1
  Na  Na28  1  0.28753107  0.47577689  0.29118205  1
  Na  Na29  1  0.71246893  0.97577689  0.20881795  1
  Na  Na30  1  0.28753107  0.02422311  0.79118205  1
  Na  Na31  1  0.71246893  0.52422311  0.70881795  1
  P  P32  1  0.67214277  0.21153584  0.45283392  1
  P  P33  1  0.07220066  0.24508913  0.95446629  1
  P  P34  1  0.92779934  0.75491087  0.04553371  1
  P  P35  1  0.07220066  0.25491087  0.45446629  1
  P  P36  1  0.67214277  0.28846416  0.95283392  1
  P  P37  1  0.32785723  0.78846416  0.54716608  1
  P  P38  1  0.92779934  0.74508913  0.54553371  1
  P  P39  1  0.32785723  0.71153584  0.04716608  1
  Fe  Fe40  1  0.25886737  0.00859188  0.24985709  1
  Fe  Fe41  1  0.74113263  0.50859188  0.25014291  1
  Fe  Fe42  1  0.74113263  0.99140812  0.75014291  1
  Fe  Fe43  1  0.25886737  0.49140812  0.74985709  1
