# generated using pymatgen
data_Ba2SrWO6
_symmetry_space_group_name_H-M   'P 1'
_cell_length_a   6.12427492
_cell_length_b   6.11553200
_cell_length_c   6.19434164
_cell_angle_alpha   60.63546617
_cell_angle_beta   60.37347821
_cell_angle_gamma   59.95269713
_symmetry_Int_Tables_number   1
_chemical_formula_structural   Ba2SrWO6
_chemical_formula_sum   'Ba2 Sr1 W1 O6'
_cell_volume   165.22528336
_cell_formula_units_Z   1
loop_
 _symmetry_equiv_pos_site_id
 _symmetry_equiv_pos_as_xyz
  1  'x, y, z'
loop_
 _atom_site_type_symbol
 _atom_site_label
 _atom_site_symmetry_multiplicity
 _atom_site_fract_x
 _atom_site_fract_y
 _atom_site_fract_z
 _atom_site_occupancy
  O  O0  1  0.23242917  0.25972517  0.82316676  1
  O  O1  1  0.31532110  0.74027483  0.17683324  1
  O  O2  1  0.76757083  0.74027483  0.17683324  1
  O  O3  1  0.68467890  0.25972517  0.82316676  1
  O  O4  1  0.71914178  0.85493888  0.70677756  1
  O  O5  1  0.28085822  0.14506112  0.29322244  1
  Sr  Sr6  1  0.00000000  0.50000000  0.50000000  1
  Ba  Ba7  1  0.24736545  0.74434376  0.76092535  1
  Ba  Ba8  1  0.75263455  0.25565624  0.23907465  1
  W  W9  1  0.50000000  0.00000000  0.00000000  1
