# generated using pymatgen
data_K3V3O8
_symmetry_space_group_name_H-M   'P 1'
_cell_length_a   5.75550801
_cell_length_b   5.75550801
_cell_length_c   7.56128312
_cell_angle_alpha   90.00000000
_cell_angle_beta   90.00000000
_cell_angle_gamma   119.99999995
_symmetry_Int_Tables_number   1
_chemical_formula_structural   K3V3O8
_chemical_formula_sum   'K3 V3 O8'
_cell_volume   216.91693385
_cell_formula_units_Z   1
loop_
 _symmetry_equiv_pos_site_id
 _symmetry_equiv_pos_as_xyz
  1  'x, y, z'
loop_
 _atom_site_type_symbol
 _atom_site_label
 _atom_site_symmetry_multiplicity
 _atom_site_fract_x
 _atom_site_fract_y
 _atom_site_fract_z
 _atom_site_occupancy
  O  O0  1  0.83339489  0.16660511  0.34026744  1
  O  O1  1  0.83339489  0.66678979  0.34026744  1
  O  O2  1  0.33321021  0.16660511  0.34026744  1
  O  O3  1  0.66678979  0.83339489  0.65973256  1
  O  O4  1  0.16660511  0.33321021  0.65973256  1
  O  O5  1  0.16660511  0.83339489  0.65973256  1
  O  O6  1  0.33333333  0.66666667  0.96196691  1
  O  O7  1  0.66666667  0.33333333  0.03803309  1
  K  K8  1  0.00000000  0.00000000  0.00000000  1
  K  K9  1  0.33333333  0.66666667  0.30860565  1
  K  K10  1  0.66666667  0.33333333  0.69139435  1
  V  V11  1  0.00000000  0.00000000  0.50000000  1
  V  V12  1  0.33333333  0.66666667  0.73950557  1
  V  V13  1  0.66666667  0.33333333  0.26049443  1
