# generated using pymatgen
data_K2WO4
_symmetry_space_group_name_H-M   'P 1'
_cell_length_a   6.29049412
_cell_length_b   7.04594922
_cell_length_c   7.69784399
_cell_angle_alpha   113.24726384
_cell_angle_beta   90.00000000
_cell_angle_gamma   116.51235749
_symmetry_Int_Tables_number   1
_chemical_formula_structural   K2WO4
_chemical_formula_sum   'K4 W2 O8'
_cell_volume   274.00307875
_cell_formula_units_Z   2
loop_
 _symmetry_equiv_pos_site_id
 _symmetry_equiv_pos_as_xyz
  1  'x, y, z'
loop_
 _atom_site_type_symbol
 _atom_site_label
 _atom_site_symmetry_multiplicity
 _atom_site_fract_x
 _atom_site_fract_y
 _atom_site_fract_z
 _atom_site_occupancy
  O  O0  1  0.37923365  0.28567873  0.07771729  1
  O  O1  1  0.09355493  0.71432127  0.92228271  1
  O  O2  1  0.62076635  0.71432127  0.92228271  1
  O  O3  1  0.90644507  0.28567873  0.07771729  1
  O  O4  1  0.91174777  0.82349553  0.63629428  1
  O  O5  1  0.08825223  0.17650447  0.36370572  1
  O  O6  1  0.33421408  0.66842816  0.38783269  1
  O  O7  1  0.66578592  0.33157184  0.61216731  1
  K  K8  1  0.50711727  0.01423454  0.23290769  1
  K  K9  1  0.49288273  0.98576546  0.76709231  1
  K  K10  1  0.15617230  0.31234459  0.74825764  1
  K  K11  1  0.84382770  0.68765541  0.25174236  1
  W  W12  1  0.17612231  0.35224462  0.22894156  1
  W  W13  1  0.82387769  0.64775538  0.77105844  1
