# generated using pymatgen
data_LiTi2(PO4)3
_symmetry_space_group_name_H-M   'P 1'
_cell_length_a   8.61194408
_cell_length_b   8.61194408
_cell_length_c   8.61194408
_cell_angle_alpha   60.08291520
_cell_angle_beta   60.08291520
_cell_angle_gamma   60.08291522
_symmetry_Int_Tables_number   1
_chemical_formula_structural   LiTi2(PO4)3
_chemical_formula_sum   'Li2 Ti4 P6 O24'
_cell_volume   452.48463910
_cell_formula_units_Z   2
loop_
 _symmetry_equiv_pos_site_id
 _symmetry_equiv_pos_as_xyz
  1  'x, y, z'
loop_
 _atom_site_type_symbol
 _atom_site_label
 _atom_site_symmetry_multiplicity
 _atom_site_fract_x
 _atom_site_fract_y
 _atom_site_fract_z
 _atom_site_occupancy
  Li  Li0  1  0.00000000  0.00000000  0.00000000  1
  Li  Li1  1  0.50000000  0.50000000  0.50000000  1
  O  O2  1  0.37587872  0.00199553  0.19293506  1
  O  O3  1  0.76888333  0.41583732  0.55654976  1
  O  O4  1  0.41583732  0.55654976  0.76888333  1
  O  O5  1  0.55654976  0.76888333  0.41583732  1
  O  O6  1  0.94345024  0.08416268  0.73111667  1
  O  O7  1  0.08416268  0.73111667  0.94345024  1
  O  O8  1  0.73111667  0.94345024  0.08416268  1
  O  O9  1  0.23111667  0.58416268  0.44345024  1
  O  O10  1  0.58416268  0.44345024  0.23111667  1
  O  O11  1  0.44345024  0.23111667  0.58416268  1
  O  O12  1  0.62412128  0.99800447  0.80706494  1
  O  O13  1  0.19293506  0.37587872  0.00199553  1
  O  O14  1  0.00199553  0.19293506  0.37587872  1
  O  O15  1  0.49800447  0.12412128  0.30706494  1
  O  O16  1  0.30706494  0.49800447  0.12412128  1
  O  O17  1  0.12412128  0.30706494  0.49800447  1
  O  O18  1  0.80706494  0.62412128  0.99800447  1
  O  O19  1  0.91583732  0.26888333  0.05654976  1
  O  O20  1  0.99800447  0.80706494  0.62412128  1
  O  O21  1  0.50199553  0.87587872  0.69293506  1
  O  O22  1  0.69293506  0.50199553  0.87587872  1
  O  O23  1  0.87587872  0.69293506  0.50199553  1
  O  O24  1  0.26888333  0.05654976  0.91583732  1
  O  O25  1  0.05654976  0.91583732  0.26888333  1
  P  P26  1  0.25000000  0.54053372  0.95946628  1
  P  P27  1  0.04053372  0.75000000  0.45946628  1
  P  P28  1  0.75000000  0.45946628  0.04053372  1
  P  P29  1  0.45946628  0.04053372  0.75000000  1
  P  P30  1  0.95946628  0.25000000  0.54053372  1
  P  P31  1  0.54053372  0.95946628  0.25000000  1
  Ti  Ti32  1  0.14145535  0.14145535  0.14145535  1
  Ti  Ti33  1  0.64145535  0.64145535  0.64145535  1
  Ti  Ti34  1  0.85854465  0.85854465  0.85854465  1
  Ti  Ti35  1  0.35854465  0.35854465  0.35854465  1
