# generated using pymatgen
data_CrB4Mo
_symmetry_space_group_name_H-M   'P 1'
_cell_length_a   3.01332650
_cell_length_b   4.36408660
_cell_length_c   4.36408660
_cell_angle_alpha   87.30898472
_cell_angle_beta   69.80346320
_cell_angle_gamma   110.19653680
_symmetry_Int_Tables_number   1
_chemical_formula_structural   CrB4Mo
_chemical_formula_sum   'Cr1 B4 Mo1'
_cell_volume   49.64181569
_cell_formula_units_Z   1
loop_
 _symmetry_equiv_pos_site_id
 _symmetry_equiv_pos_as_xyz
  1  'x, y, z'
loop_
 _atom_site_type_symbol
 _atom_site_label
 _atom_site_symmetry_multiplicity
 _atom_site_fract_x
 _atom_site_fract_y
 _atom_site_fract_z
 _atom_site_occupancy
  Cr  Cr0  1  -0.00000885  1.00000000  0.00000000  1
  B  B1  1  0.33335457  0.58717365  0.92038959  1
  B  B2  1  0.33335457  0.07961041  0.41282635  1
  B  B3  1  0.66657052  0.41282635  0.07961041  1
  B  B4  1  0.66657052  0.92038959  0.58717365  1
  Mo  Mo5  1  0.99995867  0.50000000  0.50000000  1
