# generated using pymatgen
data_Ni3(BO3)2
_symmetry_space_group_name_H-M   'P 1'
_cell_length_a   4.49903273
_cell_length_b   5.44754079
_cell_length_c   8.39500153
_cell_angle_alpha   90.00000000
_cell_angle_beta   90.00000000
_cell_angle_gamma   90.00000000
_symmetry_Int_Tables_number   1
_chemical_formula_structural   Ni3(BO3)2
_chemical_formula_sum   'Ni6 B4 O12'
_cell_volume   205.75027440
_cell_formula_units_Z   2
loop_
 _symmetry_equiv_pos_site_id
 _symmetry_equiv_pos_as_xyz
  1  'x, y, z'
loop_
 _atom_site_type_symbol
 _atom_site_label
 _atom_site_symmetry_multiplicity
 _atom_site_fract_x
 _atom_site_fract_y
 _atom_site_fract_z
 _atom_site_occupancy
  B  B0  1  0.04227973  0.24600370  0.50000000  1
  B  B1  1  0.45772027  0.74600370  0.00000000  1
  B  B2  1  0.95772027  0.75399630  0.50000000  1
  B  B3  1  0.54227973  0.25399630  0.00000000  1
  O  O4  1  0.29952338  0.79848827  0.13985809  1
  O  O5  1  0.79952338  0.70151173  0.36014191  1
  O  O6  1  0.29952338  0.79848827  0.86014191  1
  O  O7  1  0.70047662  0.20151173  0.86014191  1
  O  O8  1  0.79952338  0.70151173  0.63985809  1
  O  O9  1  0.20047662  0.29848827  0.63985809  1
  O  O10  1  0.24699911  0.32437495  0.00000000  1
  O  O11  1  0.74699911  0.17562505  0.50000000  1
  O  O12  1  0.25300089  0.82437495  0.50000000  1
  O  O13  1  0.75300089  0.67562505  0.00000000  1
  O  O14  1  0.70047662  0.20151173  0.13985809  1
  O  O15  1  0.20047662  0.29848827  0.36014191  1
  Ni  Ni16  1  0.00000000  0.50000000  0.81603951  1
  Ni  Ni17  1  0.50000000  0.00000000  0.68396049  1
  Ni  Ni18  1  0.00000000  0.50000000  0.18396049  1
  Ni  Ni19  1  0.50000000  0.00000000  0.31603951  1
  Ni  Ni20  1  0.50000000  0.50000000  0.50000000  1
  Ni  Ni21  1  0.00000000  0.00000000  0.00000000  1
