# generated using pymatgen
data_K2VO2F3
_symmetry_space_group_name_H-M   'P 1'
_cell_length_a   5.77548046
_cell_length_b   7.51780682
_cell_length_c   11.57112120
_cell_angle_alpha   90.00000000
_cell_angle_beta   90.00000000
_cell_angle_gamma   90.00000000
_symmetry_Int_Tables_number   1
_chemical_formula_structural   K2VO2F3
_chemical_formula_sum   'K8 V4 O8 F12'
_cell_volume   502.40589107
_cell_formula_units_Z   4
loop_
 _symmetry_equiv_pos_site_id
 _symmetry_equiv_pos_as_xyz
  1  'x, y, z'
loop_
 _atom_site_type_symbol
 _atom_site_label
 _atom_site_symmetry_multiplicity
 _atom_site_fract_x
 _atom_site_fract_y
 _atom_site_fract_z
 _atom_site_occupancy
  O  O0  1  0.02297246  0.32174662  0.11150768  1
  O  O1  1  0.52297246  0.67825338  0.88849232  1
  O  O2  1  0.97702754  0.17825338  0.61150768  1
  O  O3  1  0.02297246  0.82174662  0.38849232  1
  O  O4  1  0.52297246  0.17825338  0.61150768  1
  O  O5  1  0.47702754  0.32174662  0.11150768  1
  O  O6  1  0.97702754  0.67825338  0.88849232  1
  O  O7  1  0.47702754  0.82174662  0.38849232  1
  F  F8  1  0.75000000  0.96433351  0.80623065  1
  F  F9  1  0.00000000  0.50000000  0.50000000  1
  F  F10  1  0.50000000  0.00000000  0.00000000  1
  F  F11  1  0.00000000  0.00000000  0.00000000  1
  F  F12  1  0.25000000  0.03566649  0.19376935  1
  F  F13  1  0.75000000  0.46433351  0.69376935  1
  F  F14  1  0.25000000  0.53566649  0.30623065  1
  F  F15  1  0.75000000  0.73103133  0.09103546  1
  F  F16  1  0.25000000  0.76896867  0.59103546  1
  F  F17  1  0.75000000  0.23103133  0.40896454  1
  F  F18  1  0.50000000  0.50000000  0.50000000  1
  F  F19  1  0.25000000  0.26896867  0.90896454  1
  K  K20  1  0.25000000  0.97326945  0.78383729  1
  K  K21  1  0.75000000  0.02673055  0.21616271  1
  K  K22  1  0.25000000  0.47326945  0.71616271  1
  K  K23  1  0.75000000  0.52673055  0.28383729  1
  K  K24  1  0.25000000  0.68585959  0.08749514  1
  K  K25  1  0.75000000  0.31414041  0.91250486  1
  K  K26  1  0.25000000  0.18585959  0.41250486  1
  K  K27  1  0.75000000  0.81414041  0.58749514  1
  V  V28  1  0.25000000  0.70007036  0.43036145  1
  V  V29  1  0.75000000  0.29992964  0.56963855  1
  V  V30  1  0.25000000  0.20007036  0.06963855  1
  V  V31  1  0.75000000  0.79992964  0.93036145  1
