# generated using pymatgen
data_AlVO4
_symmetry_space_group_name_H-M   'P 1'
_cell_length_a   6.62787230
_cell_length_b   7.85185449
_cell_length_c   9.28064756
_cell_angle_alpha   96.13774956
_cell_angle_beta   107.34086540
_cell_angle_gamma   101.51242024
_symmetry_Int_Tables_number   1
_chemical_formula_structural   AlVO4
_chemical_formula_sum   'Al6 V6 O24'
_cell_volume   444.54125816
_cell_formula_units_Z   6
loop_
 _symmetry_equiv_pos_site_id
 _symmetry_equiv_pos_as_xyz
  1  'x, y, z'
loop_
 _atom_site_type_symbol
 _atom_site_label
 _atom_site_symmetry_multiplicity
 _atom_site_fract_x
 _atom_site_fract_y
 _atom_site_fract_z
 _atom_site_occupancy
  O  O0  1  0.04943648  0.85025362  0.85434429  1
  O  O1  1  0.95056352  0.14974638  0.14565571  1
  O  O2  1  0.84367404  0.13348004  0.82523564  1
  O  O3  1  0.15632596  0.86651996  0.17476436  1
  O  O4  1  0.95082383  0.47829718  0.85887568  1
  O  O5  1  0.04917617  0.52170282  0.14112432  1
  O  O6  1  0.74927918  0.70434171  0.96848221  1
  O  O7  1  0.25072082  0.29565829  0.03151779  1
  O  O8  1  0.64607234  0.27176550  0.97614957  1
  O  O9  1  0.35392766  0.72823450  0.02385043  1
  O  O10  1  0.47848620  0.88438257  0.78576006  1
  O  O11  1  0.52151380  0.11561743  0.21423994  1
  O  O12  1  0.64195081  0.49052652  0.25462960  1
  O  O13  1  0.35804919  0.50947348  0.74537040  1
  O  O14  1  0.25645738  0.43581539  0.43630365  1
  O  O15  1  0.74354262  0.56418461  0.56369635  1
  O  O16  1  0.03985998  0.70234821  0.42291568  1
  O  O17  1  0.96014002  0.29765179  0.57708432  1
  O  O18  1  0.16043027  0.10015797  0.43243438  1
  O  O19  1  0.83956973  0.89984203  0.56756562  1
  O  O20  1  0.45740185  0.74212299  0.35977894  1
  O  O21  1  0.54259815  0.25787701  0.64022106  1
  O  O22  1  0.75000167  0.86458942  0.26412381  1
  O  O23  1  0.24999833  0.13541058  0.73587619  1
  Al  Al24  1  0.74857316  0.69899288  0.40762754  1
  Al  Al25  1  0.25142684  0.30100712  0.59237246  1
  Al  Al26  1  0.46066705  0.88164584  0.20947183  1
  Al  Al27  1  0.53933295  0.11835416  0.79052817  1
  Al  Al28  1  0.96286719  0.30666330  0.00737111  1
  Al  Al29  1  0.03713281  0.69333670  0.99262889  1
  V  V30  1  0.00300482  0.99550520  0.25535643  1
  V  V31  1  0.99699518  0.00449480  0.74464357  1
  V  V32  1  0.19501652  0.60063086  0.34275414  1
  V  V33  1  0.80498348  0.39936914  0.65724586  1
  V  V34  1  0.51638601  0.29906534  0.12459841  1
  V  V35  1  0.48361399  0.70093466  0.87540159  1
