# generated using pymatgen
data_LuMnO3
_symmetry_space_group_name_H-M   'P 1'
_cell_length_a   6.10269984
_cell_length_b   6.10269984
_cell_length_c   11.44551300
_cell_angle_alpha   90.00000000
_cell_angle_beta   90.00000000
_cell_angle_gamma   120.00000001
_symmetry_Int_Tables_number   1
_chemical_formula_structural   LuMnO3
_chemical_formula_sum   'Lu6 Mn6 O18'
_cell_volume   369.15598512
_cell_formula_units_Z   6
loop_
 _symmetry_equiv_pos_site_id
 _symmetry_equiv_pos_as_xyz
  1  'x, y, z'
loop_
 _atom_site_type_symbol
 _atom_site_label
 _atom_site_symmetry_multiplicity
 _atom_site_fract_x
 _atom_site_fract_y
 _atom_site_fract_z
 _atom_site_occupancy
  O  O0  1  0.66666641  0.33333332  0.02400029  1
  O  O1  1  0.33333332  0.66666665  0.52399985  1
  O  O2  1  0.66666641  0.33333332  0.52399985  1
  O  O3  1  0.33333332  0.66666665  0.02400029  1
  O  O4  1  0.00000000  0.00000000  0.97320683  1
  O  O5  1  0.00000000  0.00000000  0.47320727  1
  O  O6  1  0.36083730  0.00000000  0.83438000  1
  O  O7  1  0.36083756  0.36083781  0.33438043  1
  O  O8  1  0.99999999  0.63916217  0.33438043  1
  O  O9  1  0.00000025  0.36083781  0.83438000  1
  O  O10  1  0.63916218  0.63916217  0.83438000  1
  O  O11  1  0.63916383  0.00000000  0.33438043  1
  O  O12  1  0.30577448  0.00000000  0.16739320  1
  O  O13  1  0.30577539  0.30577465  0.66739365  1
  O  O14  1  0.00000098  0.69422533  0.66739365  1
  O  O15  1  0.69422501  0.00000000  0.66739365  1
  O  O16  1  0.69422434  0.69422533  0.16739320  1
  O  O17  1  0.99999926  0.30577465  0.16739320  1
  Mn  Mn18  1  0.66672025  0.00000000  0.50071630  1
  Mn  Mn19  1  0.66671922  0.66671984  0.00071673  1
  Mn  Mn20  1  0.99999963  0.33328014  0.00071673  1
  Mn  Mn21  1  0.00000062  0.66671984  0.50071630  1
  Mn  Mn22  1  0.33328051  0.33328014  0.50071630  1
  Mn  Mn23  1  0.33328088  0.00000000  0.00071673  1
  Lu  Lu24  1  0.66666641  0.33333332  0.23151515  1
  Lu  Lu25  1  0.33333332  0.66666665  0.73151559  1
  Lu  Lu26  1  0.66666641  0.33333332  0.73151559  1
  Lu  Lu27  1  0.33333332  0.66666665  0.23151515  1
  Lu  Lu28  1  0.00000000  0.00000000  0.77529231  1
  Lu  Lu29  1  0.00000000  0.00000000  0.27529186  1
