# generated using pymatgen
data_Ba4Mn3O10
_symmetry_space_group_name_H-M   'P 1'
_cell_length_a   5.78167427
_cell_length_b   7.24380771
_cell_length_c   13.08278942
_cell_angle_alpha   90.00000000
_cell_angle_beta   90.00000000
_cell_angle_gamma   113.52049067
_symmetry_Int_Tables_number   1
_chemical_formula_structural   Ba4Mn3O10
_chemical_formula_sum   'Ba8 Mn6 O20'
_cell_volume   502.40170465
_cell_formula_units_Z   2
loop_
 _symmetry_equiv_pos_site_id
 _symmetry_equiv_pos_as_xyz
  1  'x, y, z'
loop_
 _atom_site_type_symbol
 _atom_site_label
 _atom_site_symmetry_multiplicity
 _atom_site_fract_x
 _atom_site_fract_y
 _atom_site_fract_z
 _atom_site_occupancy
  O  O0  1  0.36361771  0.22723543  0.75000000  1
  O  O1  1  0.13638229  0.77276457  0.25000000  1
  O  O2  1  0.63638229  0.77276457  0.25000000  1
  O  O3  1  0.86361771  0.22723543  0.75000000  1
  O  O4  1  0.17690077  0.79275347  0.46138035  1
  O  O5  1  0.38414730  0.20724653  0.53861965  1
  O  O6  1  0.32309923  0.20724653  0.96138035  1
  O  O7  1  0.11585270  0.79275347  0.03861965  1
  O  O8  1  0.82309923  0.20724653  0.53861965  1
  O  O9  1  0.61585270  0.79275347  0.46138035  1
  O  O10  1  0.67690077  0.79275347  0.03861965  1
  O  O11  1  0.88414730  0.20724653  0.96138035  1
  O  O12  1  0.76410448  0.52820896  0.64995184  1
  O  O13  1  0.23589552  0.47179104  0.35004816  1
  O  O14  1  0.03408684  0.06817368  0.14367431  1
  O  O15  1  0.96591316  0.93182632  0.85632569  1
  O  O16  1  0.46591316  0.93182632  0.64367431  1
  O  O17  1  0.53408684  0.06817368  0.35632569  1
  O  O18  1  0.26410448  0.52820896  0.85004816  1
  O  O19  1  0.73589552  0.47179104  0.14995184  1
  Mn  Mn20  1  0.62563401  0.25126802  0.65309604  1
  Mn  Mn21  1  0.37436599  0.74873198  0.34690396  1
  Mn  Mn22  1  0.87436599  0.74873198  0.15309604  1
  Mn  Mn23  1  0.12563401  0.25126802  0.84690396  1
  Mn  Mn24  1  0.50000000  0.00000000  0.50000000  1
  Mn  Mn25  1  0.00000000  0.00000000  0.00000000  1
  Ba  Ba26  1  0.75676461  0.51352922  0.88784781  1
  Ba  Ba27  1  0.24323539  0.48647078  0.11215219  1
  Ba  Ba28  1  0.74323539  0.48647078  0.38784781  1
  Ba  Ba29  1  0.25676461  0.51352922  0.61215219  1
  Ba  Ba30  1  0.96340979  0.92681957  0.64233802  1
  Ba  Ba31  1  0.03659021  0.07318043  0.35766198  1
  Ba  Ba32  1  0.53659021  0.07318043  0.14233802  1
  Ba  Ba33  1  0.46340979  0.92681957  0.85766198  1
