# generated using pymatgen
data_Mn3TeO6
_symmetry_space_group_name_H-M   'P 1'
_cell_length_a   6.32982279
_cell_length_b   6.32982278
_cell_length_c   6.32982278
_cell_angle_alpha   90.59872114
_cell_angle_beta   90.59872113
_cell_angle_gamma   90.59872114
_symmetry_Int_Tables_number   1
_chemical_formula_structural   Mn3TeO6
_chemical_formula_sum   'Mn6 Te2 O12'
_cell_volume   253.57300354
_cell_formula_units_Z   2
loop_
 _symmetry_equiv_pos_site_id
 _symmetry_equiv_pos_as_xyz
  1  'x, y, z'
loop_
 _atom_site_type_symbol
 _atom_site_label
 _atom_site_symmetry_multiplicity
 _atom_site_fract_x
 _atom_site_fract_y
 _atom_site_fract_z
 _atom_site_occupancy
  O  O0  1  0.91596761  0.04455931  0.70494279  1
  O  O1  1  0.04455931  0.70494279  0.91596761  1
  O  O2  1  0.70494279  0.91596761  0.04455931  1
  O  O3  1  0.08403239  0.95544069  0.29505721  1
  O  O4  1  0.95544069  0.29505721  0.08403239  1
  O  O5  1  0.29505721  0.08403239  0.95544069  1
  O  O6  1  0.43110819  0.79519111  0.56453964  1
  O  O7  1  0.79519111  0.56453964  0.43110819  1
  O  O8  1  0.43546036  0.56889181  0.20480889  1
  O  O9  1  0.20480889  0.43546036  0.56889181  1
  O  O10  1  0.56889181  0.20480889  0.43546036  1
  O  O11  1  0.56453964  0.43110819  0.79519111  1
  Mn  Mn12  1  0.25153648  0.43789601  0.94842672  1
  Mn  Mn13  1  0.94842672  0.25153648  0.43789601  1
  Mn  Mn14  1  0.56210399  0.05157328  0.74846352  1
  Mn  Mn15  1  0.05157328  0.74846352  0.56210399  1
  Mn  Mn16  1  0.74846352  0.56210399  0.05157328  1
  Mn  Mn17  1  0.43789601  0.94842672  0.25153648  1
  Te  Te18  1  0.50000000  0.50000000  0.50000000  1
  Te  Te19  1  0.00000000  0.00000000  0.00000000  1
