# generated using pymatgen
data_Ca2Co9O13
_symmetry_space_group_name_H-M   'P 1'
_cell_length_a   3.05104174
_cell_length_b   5.24718350
_cell_length_c   16.61302964
_cell_angle_alpha   98.69985916
_cell_angle_beta   89.87918366
_cell_angle_gamma   107.36738729
_symmetry_Int_Tables_number   1
_chemical_formula_structural   Ca2Co9O13
_chemical_formula_sum   'Ca2 Co9 O13'
_cell_volume   250.65715478
_cell_formula_units_Z   1
loop_
 _symmetry_equiv_pos_site_id
 _symmetry_equiv_pos_as_xyz
  1  'x, y, z'
loop_
 _atom_site_type_symbol
 _atom_site_label
 _atom_site_symmetry_multiplicity
 _atom_site_fract_x
 _atom_site_fract_y
 _atom_site_fract_z
 _atom_site_occupancy
  Ca  Ca0  1  0.22016639  0.43726761  0.22784594  1
  Ca  Ca1  1  0.77983361  0.56273239  0.77215406  1
  Co  Co2  1  0.50000000  -0.00000000  0.50000000  1
  Co  Co3  1  0.65261909  0.29331678  0.03788830  1
  Co  Co4  1  0.34738091  0.70668322  0.96211170  1
  Co  Co5  1  0.75372822  0.51191361  0.42100430  1
  Co  Co6  1  0.24627178  0.48808639  0.57899570  1
  Co  Co7  1  0.93993946  0.87852890  0.12425363  1
  Co  Co8  1  0.06006054  0.12147110  0.87574637  1
  Co  Co9  1  -0.00421543  0.00514429  0.33898948  1
  Co  Co10  1  0.00421543  0.99485571  0.66101052  1
  O  O11  1  -0.00000000  -0.00000000  0.00000000  1
  O  O12  1  0.89567923  0.78663354  0.22501292  1
  O  O13  1  0.10432077  0.21336646  0.77498708  1
  O  O14  1  0.29997272  0.59908861  0.07534303  1
  O  O15  1  0.70002728  0.40091139  0.92465697  1
  O  O16  1  0.57648408  0.15314062  0.14214870  1
  O  O17  1  0.42351592  0.84685938  0.85785130  1
  O  O18  1  0.63888520  0.27017948  0.31904175  1
  O  O19  1  0.36111480  0.72982052  0.68095825  1
  O  O20  1  0.38237815  0.77040843  0.38701923  1
  O  O21  1  0.61762185  0.22959157  0.61298077  1
  O  O22  1  0.14160346  0.26438082  0.46583959  1
  O  O23  1  0.85839654  0.73561918  0.53416041  1
