# generated using pymatgen
data_Yb2V2O7
_symmetry_space_group_name_H-M   'P 1'
_cell_length_a   7.08867315
_cell_length_b   7.08867315
_cell_length_c   7.08867315
_cell_angle_alpha   60.00000004
_cell_angle_beta   60.00000005
_cell_angle_gamma   60.00000000
_symmetry_Int_Tables_number   1
_chemical_formula_structural   Yb2V2O7
_chemical_formula_sum   'Yb4 V4 O14'
_cell_volume   251.87198128
_cell_formula_units_Z   2
loop_
 _symmetry_equiv_pos_site_id
 _symmetry_equiv_pos_as_xyz
  1  'x, y, z'
loop_
 _atom_site_type_symbol
 _atom_site_label
 _atom_site_symmetry_multiplicity
 _atom_site_fract_x
 _atom_site_fract_y
 _atom_site_fract_z
 _atom_site_occupancy
  O  O0  1  0.87499994  0.87500017  0.87500055  1
  O  O1  1  0.12499921  0.12500027  0.12500055  1
  O  O2  1  0.81580776  0.81580792  0.43419219  1
  O  O3  1  0.56580770  0.56580738  0.18419191  1
  O  O4  1  0.43419263  0.81580792  0.81580793  1
  O  O5  1  0.81580879  0.43419133  0.81580815  1
  O  O6  1  0.43419263  0.81580792  0.43419158  1
  O  O7  1  0.81580879  0.43419133  0.43419180  1
  O  O8  1  0.43419202  0.43419133  0.81580835  1
  O  O9  1  0.56580816  0.18419252  0.18419094  1
  O  O10  1  0.18419257  0.56580738  0.56580765  1
  O  O11  1  0.18419139  0.18419252  0.56580750  1
  O  O12  1  0.18419257  0.56580738  0.18419130  1
  O  O13  1  0.56580816  0.18419252  0.56580729  1
  V  V14  1  0.49999953  0.00000000  0.49999969  1
  V  V15  1  0.99999951  0.49999935  0.50000002  1
  V  V16  1  0.50000068  0.49999935  0.00000056  1
  V  V17  1  0.50000068  0.49999935  0.49999972  1
  Yb  Yb18  1  0.99999951  0.49999935  0.00000085  1
  Yb  Yb19  1  0.49999953  0.00000000  0.00000052  1
  Yb  Yb20  1  0.00000000  0.00000000  0.50000058  1
  Yb  Yb21  1  0.00000000  0.00000000  0.00000000  1
