# generated using pymatgen
data_TlV2AgO6
_symmetry_space_group_name_H-M   'P 1'
_cell_length_a   5.98907493
_cell_length_b   7.60458673
_cell_length_c   7.60458674
_cell_angle_alpha   87.01829251
_cell_angle_beta   79.17673359
_cell_angle_gamma   79.17673361
_symmetry_Int_Tables_number   1
_chemical_formula_structural   TlV2AgO6
_chemical_formula_sum   'Tl2 V4 Ag2 O12'
_cell_volume   334.08357627
_cell_formula_units_Z   2
loop_
 _symmetry_equiv_pos_site_id
 _symmetry_equiv_pos_as_xyz
  1  'x, y, z'
loop_
 _atom_site_type_symbol
 _atom_site_label
 _atom_site_symmetry_multiplicity
 _atom_site_fract_x
 _atom_site_fract_y
 _atom_site_fract_z
 _atom_site_occupancy
  O  O0  1  0.48335772  0.64897754  0.66951216  1
  O  O1  1  0.01664228  0.33048784  0.35102246  1
  O  O2  1  0.51664228  0.35102246  0.33048784  1
  O  O3  1  0.98335772  0.66951216  0.64897754  1
  O  O4  1  0.22704572  0.57221880  0.11137530  1
  O  O5  1  0.27295428  0.88862470  0.42778120  1
  O  O6  1  0.77295428  0.42778120  0.88862470  1
  O  O7  1  0.72704572  0.11137530  0.57221880  1
  O  O8  1  0.85599734  0.04440906  0.20674163  1
  O  O9  1  0.64400266  0.79325837  0.95559094  1
  O  O10  1  0.14400266  0.95559094  0.79325837  1
  O  O11  1  0.35599734  0.20674163  0.04440906  1
  V  V12  1  0.21750536  0.79622645  0.63279569  1
  V  V13  1  0.28249464  0.36720431  0.20377355  1
  V  V14  1  0.78249464  0.20377355  0.36720431  1
  V  V15  1  0.71750536  0.63279569  0.79622645  1
  Ag  Ag16  1  0.75000000  0.10391122  0.89608878  1
  Ag  Ag17  1  0.25000000  0.89608878  0.10391122  1
  Tl  Tl18  1  0.75000000  0.71526758  0.28473242  1
  Tl  Tl19  1  0.25000000  0.28473242  0.71526758  1
