# generated using pymatgen
data_K2MnSO4F3
_symmetry_space_group_name_H-M   'P 1'
_cell_length_a   7.40239533
_cell_length_b   8.61656514
_cell_length_c   11.02287493
_cell_angle_alpha   90.00000000
_cell_angle_beta   90.00000000
_cell_angle_gamma   92.41797086
_symmetry_Int_Tables_number   1
_chemical_formula_structural   K2MnSO4F3
_chemical_formula_sum   'K8 Mn4 S4 O16 F12'
_cell_volume   702.44848894
_cell_formula_units_Z   4
loop_
 _symmetry_equiv_pos_site_id
 _symmetry_equiv_pos_as_xyz
  1  'x, y, z'
loop_
 _atom_site_type_symbol
 _atom_site_label
 _atom_site_symmetry_multiplicity
 _atom_site_fract_x
 _atom_site_fract_y
 _atom_site_fract_z
 _atom_site_occupancy
  O  O0  1  0.17145873  0.09690607  0.59956674  1
  O  O1  1  0.82854127  0.40309393  0.09956674  1
  O  O2  1  0.82854127  0.90309393  0.40043326  1
  O  O3  1  0.17145873  0.59690607  0.90043326  1
  O  O4  1  0.34117603  0.09452253  0.40802667  1
  O  O5  1  0.65882397  0.40547747  0.90802667  1
  O  O6  1  0.65882397  0.90547747  0.59197333  1
  O  O7  1  0.34117603  0.59452253  0.09197333  1
  O  O8  1  0.39395480  0.30040052  0.55987739  1
  O  O9  1  0.60604520  0.19959948  0.05987739  1
  O  O10  1  0.60604520  0.69959948  0.44012261  1
  O  O11  1  0.39395480  0.80040052  0.94012261  1
  O  O12  1  0.88589324  0.21516359  0.93883265  1
  O  O13  1  0.88589324  0.71516359  0.56116735  1
  O  O14  1  0.11410676  0.28483641  0.43883265  1
  O  O15  1  0.11410676  0.78483641  0.06116735  1
  F  F16  1  0.02306486  0.94629725  0.83699778  1
  F  F17  1  0.97693514  0.55370275  0.33699778  1
  F  F18  1  0.97693514  0.05370275  0.16300222  1
  F  F19  1  0.02306486  0.44629725  0.66300222  1
  F  F20  1  0.76282660  0.88972013  0.00047782  1
  F  F21  1  0.23717340  0.61027987  0.50047782  1
  F  F22  1  0.23717340  0.11027987  0.99952218  1
  F  F23  1  0.76282660  0.38972013  0.49952218  1
  F  F24  1  0.47718805  0.93875406  0.16306432  1
  F  F25  1  0.52281195  0.06124594  0.83693568  1
  F  F26  1  0.47718805  0.43875406  0.33693568  1
  F  F27  1  0.52281195  0.56124594  0.66306432  1
  S  S28  1  0.25231285  0.18871748  0.49955203  1
  S  S29  1  0.74768715  0.31128252  0.99955203  1
  S  S30  1  0.74768715  0.81128252  0.50044797  1
  S  S31  1  0.25231285  0.68871748  0.00044797  1
  K  K32  1  0.81631371  0.66491454  0.80700292  1
  K  K33  1  0.31228884  0.33272958  0.80737115  1
  K  K34  1  0.18368629  0.83508546  0.30700292  1
  K  K35  1  0.18368629  0.33508546  0.19299708  1
  K  K36  1  0.68771116  0.66727042  0.19262885  1
  K  K37  1  0.68771116  0.16727042  0.30737115  1
  K  K38  1  0.31228884  0.83272958  0.69262885  1
  K  K39  1  0.81631371  0.16491454  0.69299708  1
  Mn  Mn40  1  0.00000000  0.50000000  0.50000000  1
  Mn  Mn41  1  0.50000000  0.00000000  0.00000000  1
  Mn  Mn42  1  0.50000000  0.50000000  0.50000000  1
  Mn  Mn43  1  0.00000000  0.00000000  0.00000000  1
