# generated using pymatgen
data_Na4Mn2O5
_symmetry_space_group_name_H-M   'P 1'
_cell_length_a   5.63490430
_cell_length_b   5.63490430
_cell_length_c   10.36493890
_cell_angle_alpha   98.40968659
_cell_angle_beta   98.40968659
_cell_angle_gamma   117.51426951
_symmetry_Int_Tables_number   1
_chemical_formula_structural   Na4Mn2O5
_chemical_formula_sum   'Na8 Mn4 O10'
_cell_volume   280.04137565
_cell_formula_units_Z   2
loop_
 _symmetry_equiv_pos_site_id
 _symmetry_equiv_pos_as_xyz
  1  'x, y, z'
loop_
 _atom_site_type_symbol
 _atom_site_label
 _atom_site_symmetry_multiplicity
 _atom_site_fract_x
 _atom_site_fract_y
 _atom_site_fract_z
 _atom_site_occupancy
  O  O0  1  0.12500000  0.87500000  0.75000000  1
  O  O1  1  0.69046844  0.94046844  0.88093687  1
  O  O2  1  0.44186103  0.19186103  0.38372205  1
  O  O3  1  0.80813897  0.55813897  0.11627795  1
  O  O4  1  0.55813897  0.80813897  0.61627795  1
  O  O5  1  0.19186103  0.44186103  0.88372205  1
  O  O6  1  0.05953156  0.30953156  0.61906313  1
  O  O7  1  0.30953156  0.05953156  0.11906313  1
  O  O8  1  0.87500000  0.12500000  0.25000000  1
  O  O9  1  0.94046844  0.69046844  0.38093687  1
  Na  Na10  1  0.54102904  0.78928582  0.06981010  1
  Na  Na11  1  0.97121893  0.71947571  0.93018990  1
  Na  Na12  1  0.21071418  0.45897096  0.43018990  1
  Na  Na13  1  0.02878107  0.28052429  0.06981010  1
  Na  Na14  1  0.45897096  0.21071418  0.93018990  1
  Na  Na15  1  0.28052429  0.02878107  0.56981010  1
  Na  Na16  1  0.78928582  0.54102904  0.56981010  1
  Na  Na17  1  0.71947571  0.97121893  0.43018990  1
  Mn  Mn18  1  0.90526857  0.09473143  0.75000000  1
  Mn  Mn19  1  0.65526857  0.34473143  0.25000000  1
  Mn  Mn20  1  0.09473143  0.90526857  0.25000000  1
  Mn  Mn21  1  0.34473143  0.65526857  0.75000000  1
