# generated using pymatgen
data_Sr2YTlFe2O7
_symmetry_space_group_name_H-M   'P 1'
_cell_length_a   3.87296087
_cell_length_b   3.87295558
_cell_length_c   13.00392166
_cell_angle_alpha   90.00004940
_cell_angle_beta   90.00003479
_cell_angle_gamma   89.99996287
_symmetry_Int_Tables_number   1
_chemical_formula_structural   Sr2YTlFe2O7
_chemical_formula_sum   'Sr2 Y1 Tl1 Fe2 O7'
_cell_volume   195.05629450
_cell_formula_units_Z   1
loop_
 _symmetry_equiv_pos_site_id
 _symmetry_equiv_pos_as_xyz
  1  'x, y, z'
loop_
 _atom_site_type_symbol
 _atom_site_label
 _atom_site_symmetry_multiplicity
 _atom_site_fract_x
 _atom_site_fract_y
 _atom_site_fract_z
 _atom_site_occupancy
  Sr  Sr0  1  0.50000131  0.49999881  0.81118346  1
  Sr  Sr1  1  0.50000049  0.50000517  0.18892439  1
  Y  Y2  1  0.50000082  0.49999913  0.49999854  1
  Tl  Tl3  1  0.99999836  0.00000232  0.00004711  1
  Fe  Fe4  1  0.00000151  0.99999805  0.64797426  1
  Fe  Fe5  1  0.99999954  0.00000193  0.35197344  1
  O  O6  1  0.50000018  0.99999722  0.60932724  1
  O  O7  1  0.99999925  0.49999756  0.60932724  1
  O  O8  1  0.49999959  -0.00000001  0.39060998  1
  O  O9  1  -0.00000030  0.50000117  0.39061079  1
  O  O10  1  0.99999928  0.99999953  0.79451520  1
  O  O11  1  0.99999941  0.00000173  0.20544137  1
  O  O12  1  0.50000056  0.49999738  0.00006700  1
