# generated using pymatgen
data_Rb2NaMnO4
_symmetry_space_group_name_H-M   'P 1'
_cell_length_a   6.07124221
_cell_length_b   6.08634823
_cell_length_c   7.97168076
_cell_angle_alpha   90.00000000
_cell_angle_beta   92.83202274
_cell_angle_gamma   90.00000000
_symmetry_Int_Tables_number   1
_chemical_formula_structural   Rb2NaMnO4
_chemical_formula_sum   'Rb4 Na2 Mn2 O8'
_cell_volume   294.20734940
_cell_formula_units_Z   2
loop_
 _symmetry_equiv_pos_site_id
 _symmetry_equiv_pos_as_xyz
  1  'x, y, z'
loop_
 _atom_site_type_symbol
 _atom_site_label
 _atom_site_symmetry_multiplicity
 _atom_site_fract_x
 _atom_site_fract_y
 _atom_site_fract_z
 _atom_site_occupancy
  O  O0  1  0.66938445  0.47729531  0.17082850  1
  O  O1  1  0.33061555  0.97729531  0.82917150  1
  O  O2  1  0.33061555  0.52270469  0.82917150  1
  O  O3  1  0.66938445  0.02270469  0.17082850  1
  O  O4  1  0.79598683  0.25000000  0.46977265  1
  O  O5  1  0.07299028  0.25000000  0.19230035  1
  O  O6  1  0.20401317  0.75000000  0.53022735  1
  O  O7  1  0.92700972  0.75000000  0.80769965  1
  Na  Na8  1  0.38376902  0.25000000  0.03421864  1
  Na  Na9  1  0.61623098  0.75000000  0.96578136  1
  Mn  Mn10  1  0.19488382  0.75000000  0.74457827  1
  Mn  Mn11  1  0.80511618  0.25000000  0.25542173  1
  Rb  Rb12  1  0.88242750  0.25000000  0.82739433  1
  Rb  Rb13  1  0.11757250  0.75000000  0.17260567  1
  Rb  Rb14  1  0.69500422  0.75000000  0.48393024  1
  Rb  Rb15  1  0.30499578  0.25000000  0.51606976  1
