# generated using pymatgen
data_KSc(MoO4)2
_symmetry_space_group_name_H-M   'P 1'
_cell_length_a   5.88498906
_cell_length_b   5.88498905
_cell_length_c   7.40486641
_cell_angle_alpha   90.00000000
_cell_angle_beta   90.00000000
_cell_angle_gamma   120.00000003
_symmetry_Int_Tables_number   1
_chemical_formula_structural   KSc(MoO4)2
_chemical_formula_sum   'K1 Sc1 Mo2 O8'
_cell_volume   222.09520315
_cell_formula_units_Z   1
loop_
 _symmetry_equiv_pos_site_id
 _symmetry_equiv_pos_as_xyz
  1  'x, y, z'
loop_
 _atom_site_type_symbol
 _atom_site_label
 _atom_site_symmetry_multiplicity
 _atom_site_fract_x
 _atom_site_fract_y
 _atom_site_fract_z
 _atom_site_occupancy
  O  O0  1  0.32900028  0.16450014  0.82807670  1
  O  O1  1  0.83549986  0.16450014  0.82807670  1
  O  O2  1  0.83549986  0.67099972  0.82807670  1
  O  O3  1  0.16450014  0.83549986  0.17192330  1
  O  O4  1  0.33333333  0.66666667  0.48436753  1
  O  O5  1  0.66666667  0.33333333  0.51563247  1
  O  O6  1  0.16450014  0.32900028  0.17192330  1
  O  O7  1  0.67099972  0.83549986  0.17192330  1
  K  K8  1  0.00000000  0.00000000  0.50000000  1
  Sc  Sc9  1  0.00000000  0.00000000  0.00000000  1
  Mo  Mo10  1  0.33333333  0.66666667  0.24817964  1
  Mo  Mo11  1  0.66666667  0.33333333  0.75182036  1
