# generated using pymatgen
data_Na4CrO4
_symmetry_space_group_name_H-M   'P 1'
_cell_length_a   5.76940882
_cell_length_b   5.76200042
_cell_length_c   8.74029901
_cell_angle_alpha   71.35358257
_cell_angle_beta   81.43624954
_cell_angle_gamma   68.39712106
_symmetry_Int_Tables_number   1
_chemical_formula_structural   Na4CrO4
_chemical_formula_sum   'Na8 Cr2 O8'
_cell_volume   255.80675749
_cell_formula_units_Z   2
loop_
 _symmetry_equiv_pos_site_id
 _symmetry_equiv_pos_as_xyz
  1  'x, y, z'
loop_
 _atom_site_type_symbol
 _atom_site_label
 _atom_site_symmetry_multiplicity
 _atom_site_fract_x
 _atom_site_fract_y
 _atom_site_fract_z
 _atom_site_occupancy
  O  O0  1  0.15428140  0.14963467  0.06866266  1
  O  O1  1  0.02721386  0.29545491  0.37586240  1
  O  O2  1  0.97278614  0.70454509  0.62413760  1
  O  O3  1  0.52907280  0.63768288  0.80379396  1
  O  O4  1  0.47092720  0.36231712  0.19620604  1
  O  O5  1  0.47165657  0.83632703  0.36139965  1
  O  O6  1  0.84571860  0.85036533  0.93133734  1
  O  O7  1  0.52834343  0.16367297  0.63860035  1
  Na  Na8  1  0.75655824  0.05362744  0.39944787  1
  Na  Na9  1  0.73522538  0.47922772  0.56721333  1
  Na  Na10  1  0.26833326  0.39262544  0.81751429  1
  Na  Na11  1  0.24597370  0.75868621  0.01198038  1
  Na  Na12  1  0.75402630  0.24131379  0.98801962  1
  Na  Na13  1  0.26477462  0.52077228  0.43278667  1
  Na  Na14  1  0.24344176  0.94637256  0.60055213  1
  Na  Na15  1  0.73166674  0.60737456  0.18248571  1
  Cr  Cr16  1  0.27910454  0.15623489  0.24227429  1
  Cr  Cr17  1  0.72089546  0.84376511  0.75772571  1
