# generated using pymatgen
data_MgWO4
_symmetry_space_group_name_H-M   'P 1'
_cell_length_a   4.74247142
_cell_length_b   5.04425302
_cell_length_c   5.75150792
_cell_angle_alpha   90.00000000
_cell_angle_beta   90.00000000
_cell_angle_gamma   91.18339299
_symmetry_Int_Tables_number   1
_chemical_formula_structural   MgWO4
_chemical_formula_sum   'Mg2 W2 O8'
_cell_volume   137.55952480
_cell_formula_units_Z   2
loop_
 _symmetry_equiv_pos_site_id
 _symmetry_equiv_pos_as_xyz
  1  'x, y, z'
loop_
 _atom_site_type_symbol
 _atom_site_label
 _atom_site_symmetry_multiplicity
 _atom_site_fract_x
 _atom_site_fract_y
 _atom_site_fract_z
 _atom_site_occupancy
  O  O0  1  0.74083484  0.10039166  0.37562801  1
  O  O1  1  0.25916516  0.39960834  0.37562801  1
  O  O2  1  0.25916516  0.89960834  0.62437199  1
  O  O3  1  0.74083484  0.60039166  0.62437199  1
  O  O4  1  0.78391638  0.06680762  0.89080869  1
  O  O5  1  0.21608362  0.43319238  0.89080869  1
  O  O6  1  0.21608362  0.93319238  0.10919131  1
  O  O7  1  0.78391638  0.56680762  0.10919131  1
  Mg  Mg8  1  0.50000000  0.75000000  0.33457316  1
  Mg  Mg9  1  0.50000000  0.25000000  0.66542684  1
  W  W10  1  0.00000000  0.75000000  0.82476921  1
  W  W11  1  0.00000000  0.25000000  0.17523079  1
