# generated using pymatgen
data_CaMn2O4
_symmetry_space_group_name_H-M   'P 1'
_cell_length_a   6.40755916
_cell_length_b   9.83278056
_cell_length_c   10.20699695
_cell_angle_alpha   90.00000000
_cell_angle_beta   90.00000000
_cell_angle_gamma   90.00000000
_symmetry_Int_Tables_number   1
_chemical_formula_structural   CaMn2O4
_chemical_formula_sum   'Ca8 Mn16 O32'
_cell_volume   643.08289278
_cell_formula_units_Z   8
loop_
 _symmetry_equiv_pos_site_id
 _symmetry_equiv_pos_as_xyz
  1  'x, y, z'
loop_
 _atom_site_type_symbol
 _atom_site_label
 _atom_site_symmetry_multiplicity
 _atom_site_fract_x
 _atom_site_fract_y
 _atom_site_fract_z
 _atom_site_occupancy
  Ca  Ca0  1  0.83902344  0.75000000  0.14904952  1
  Ca  Ca1  1  0.83902344  0.25000000  0.35095048  1
  Ca  Ca2  1  0.16097656  0.75000000  0.64904952  1
  Ca  Ca3  1  0.66097656  0.75000000  0.64904952  1
  Ca  Ca4  1  0.33902344  0.75000000  0.14904952  1
  Ca  Ca5  1  0.33902344  0.25000000  0.35095048  1
  Ca  Ca6  1  0.66097656  0.25000000  0.85095048  1
  Ca  Ca7  1  0.16097656  0.25000000  0.85095048  1
  Mn  Mn8  1  0.10226863  0.56923536  0.38838384  1
  Mn  Mn9  1  0.60226863  0.06923536  0.11161616  1
  Mn  Mn10  1  0.39773137  0.06923536  0.61161616  1
  Mn  Mn11  1  0.60226863  0.43076464  0.11161616  1
  Mn  Mn12  1  0.89773137  0.06923536  0.61161616  1
  Mn  Mn13  1  0.89773137  0.43076464  0.61161616  1
  Mn  Mn14  1  0.39773137  0.43076464  0.61161616  1
  Mn  Mn15  1  0.60226863  0.93076464  0.38838384  1
  Mn  Mn16  1  0.10226863  0.43076464  0.11161616  1
  Mn  Mn17  1  0.60226863  0.56923536  0.38838384  1
  Mn  Mn18  1  0.39773137  0.93076464  0.88838384  1
  Mn  Mn19  1  0.10226863  0.06923536  0.11161616  1
  Mn  Mn20  1  0.89773137  0.56923536  0.88838384  1
  Mn  Mn21  1  0.10226863  0.93076464  0.38838384  1
  Mn  Mn22  1  0.89773137  0.93076464  0.88838384  1
  Mn  Mn23  1  0.39773137  0.56923536  0.88838384  1
  O  O24  1  0.39953304  0.89120728  0.52751135  1
  O  O25  1  0.89953304  0.89120728  0.52751135  1
  O  O26  1  0.60046696  0.10879272  0.47248865  1
  O  O27  1  0.29433255  0.00000000  0.25000000  1
  O  O28  1  0.10046696  0.89120728  0.02751135  1
  O  O29  1  0.60046696  0.89120728  0.02751135  1
  O  O30  1  0.10046696  0.60879272  0.02751135  1
  O  O31  1  0.09213551  0.25000000  0.18770073  1
  O  O32  1  0.89953304  0.10879272  0.97248865  1
  O  O33  1  0.40786449  0.25000000  0.68770073  1
  O  O34  1  0.90786449  0.25000000  0.68770073  1
  O  O35  1  0.29433255  0.50000000  0.25000000  1
  O  O36  1  0.70566745  0.00000000  0.75000000  1
  O  O37  1  0.60046696  0.60879272  0.02751135  1
  O  O38  1  0.39953304  0.60879272  0.52751135  1
  O  O39  1  0.79433255  0.00000000  0.25000000  1
  O  O40  1  0.90786449  0.75000000  0.81229927  1
  O  O41  1  0.39953304  0.10879272  0.97248865  1
  O  O42  1  0.09213551  0.75000000  0.31229927  1
  O  O43  1  0.20566745  0.50000000  0.75000000  1
  O  O44  1  0.59213551  0.75000000  0.31229927  1
  O  O45  1  0.40786449  0.75000000  0.81229927  1
  O  O46  1  0.39953304  0.39120728  0.97248865  1
  O  O47  1  0.10046696  0.10879272  0.47248865  1
  O  O48  1  0.89953304  0.39120728  0.97248865  1
  O  O49  1  0.79433255  0.50000000  0.25000000  1
  O  O50  1  0.70566745  0.50000000  0.75000000  1
  O  O51  1  0.10046696  0.39120728  0.47248865  1
  O  O52  1  0.20566745  0.00000000  0.75000000  1
  O  O53  1  0.89953304  0.60879272  0.52751135  1
  O  O54  1  0.60046696  0.39120728  0.47248865  1
  O  O55  1  0.59213551  0.25000000  0.18770073  1
