# generated using pymatgen
data_VAg3O4
_symmetry_space_group_name_H-M   'P 1'
_cell_length_a   5.10270470
_cell_length_b   5.84125589
_cell_length_c   9.59821153
_cell_angle_alpha   79.61183278
_cell_angle_beta   74.58459089
_cell_angle_gamma   64.10129403
_symmetry_Int_Tables_number   1
_chemical_formula_structural   VAg3O4
_chemical_formula_sum   'V2 Ag6 O8'
_cell_volume   247.41429677
_cell_formula_units_Z   2
loop_
 _symmetry_equiv_pos_site_id
 _symmetry_equiv_pos_as_xyz
  1  'x, y, z'
loop_
 _atom_site_type_symbol
 _atom_site_label
 _atom_site_symmetry_multiplicity
 _atom_site_fract_x
 _atom_site_fract_y
 _atom_site_fract_z
 _atom_site_occupancy
  O  O0  1  0.86479364  0.97540595  0.79347783  1
  O  O1  1  0.63367742  0.52459405  0.70652217  1
  O  O2  1  0.13520636  0.02459405  0.20652217  1
  O  O3  1  0.36632258  0.47540595  0.29347783  1
  O  O4  1  0.74895674  0.70343946  0.10289017  1
  O  O5  1  0.25104326  0.29656054  0.89710983  1
  O  O6  1  0.55528637  0.79656054  0.39710983  1
  O  O7  1  0.44471363  0.20343946  0.60289017  1
  V  V8  1  0.44808275  0.75000000  0.25000000  1
  V  V9  1  0.55191725  0.25000000  0.75000000  1
  Ag  Ag10  1  0.30070618  0.38675218  0.09737498  1
  Ag  Ag11  1  0.21516666  0.88675218  0.59737498  1
  Ag  Ag12  1  0.69929382  0.61324782  0.90262502  1
  Ag  Ag13  1  0.78483334  0.11324782  0.40262502  1
  Ag  Ag14  1  0.00000000  0.00000000  0.00000000  1
  Ag  Ag15  1  0.00000000  0.50000000  0.50000000  1
