# generated using pymatgen
data_Nd2MnNiO6
_symmetry_space_group_name_H-M   'P 1'
_cell_length_a   5.59806804
_cell_length_b   5.44420726
_cell_length_c   7.75018608
_cell_angle_alpha   89.96311193
_cell_angle_beta   90.00000000
_cell_angle_gamma   90.00000000
_symmetry_Int_Tables_number   1
_chemical_formula_structural   Nd2MnNiO6
_chemical_formula_sum   'Nd4 Mn2 Ni2 O12'
_cell_volume   236.20270292
_cell_formula_units_Z   2
loop_
 _symmetry_equiv_pos_site_id
 _symmetry_equiv_pos_as_xyz
  1  'x, y, z'
loop_
 _atom_site_type_symbol
 _atom_site_label
 _atom_site_symmetry_multiplicity
 _atom_site_fract_x
 _atom_site_fract_y
 _atom_site_fract_z
 _atom_site_occupancy
  O  O0  1  0.80015900  0.78477496  0.04416912  1
  O  O1  1  0.30015900  0.71522504  0.45583088  1
  O  O2  1  0.19984100  0.21522504  0.95583088  1
  O  O3  1  0.69984100  0.28477496  0.54416912  1
  O  O4  1  0.78399652  0.80174759  0.45348986  1
  O  O5  1  0.28399652  0.69825241  0.04651014  1
  O  O6  1  0.21600348  0.19825241  0.54651014  1
  O  O7  1  0.71600348  0.30174759  0.95348986  1
  O  O8  1  0.52176306  0.91484981  0.74226979  1
  O  O9  1  0.02176306  0.58515019  0.75773021  1
  O  O10  1  0.47823694  0.08515019  0.25773021  1
  O  O11  1  0.97823694  0.41484981  0.24226979  1
  Mn  Mn12  1  0.00000000  0.50000000  0.00000000  1
  Mn  Mn13  1  0.50000000  0.00000000  0.50000000  1
  Ni  Ni14  1  0.00000000  0.50000000  0.50000000  1
  Ni  Ni15  1  0.50000000  0.00000000  0.00000000  1
  Nd  Nd16  1  0.55380055  0.51255356  0.25060295  1
  Nd  Nd17  1  0.05380055  0.98744644  0.24939705  1
  Nd  Nd18  1  0.44619945  0.48744644  0.74939705  1
  Nd  Nd19  1  0.94619945  0.01255356  0.75060295  1
