# generated using pymatgen
data_NaVTeO5
_symmetry_space_group_name_H-M   'P 1'
_cell_length_a   5.93747144
_cell_length_b   6.91382193
_cell_length_c   11.75827376
_cell_angle_alpha   90.00000000
_cell_angle_beta   90.00000000
_cell_angle_gamma   103.21933559
_symmetry_Int_Tables_number   1
_chemical_formula_structural   NaVTeO5
_chemical_formula_sum   'Na4 V4 Te4 O20'
_cell_volume   469.89415532
_cell_formula_units_Z   4
loop_
 _symmetry_equiv_pos_site_id
 _symmetry_equiv_pos_as_xyz
  1  'x, y, z'
loop_
 _atom_site_type_symbol
 _atom_site_label
 _atom_site_symmetry_multiplicity
 _atom_site_fract_x
 _atom_site_fract_y
 _atom_site_fract_z
 _atom_site_occupancy
  O  O0  1  0.11842029  0.02085008  0.90870081  1
  O  O1  1  0.88157971  0.47914992  0.40870081  1
  O  O2  1  0.88157971  0.97914992  0.09129919  1
  O  O3  1  0.11842029  0.52085008  0.59129919  1
  O  O4  1  0.56187914  0.22026254  0.97891358  1
  O  O5  1  0.43812086  0.27973746  0.47891358  1
  O  O6  1  0.43812086  0.77973746  0.02108642  1
  O  O7  1  0.56187914  0.72026254  0.52108642  1
  O  O8  1  0.85190096  0.34014331  0.78479067  1
  O  O9  1  0.14809904  0.15985669  0.28479067  1
  O  O10  1  0.14809904  0.65985669  0.21520933  1
  O  O11  1  0.85190096  0.84014331  0.71520933  1
  O  O12  1  0.82668984  0.14221851  0.55623142  1
  O  O13  1  0.17331016  0.35778149  0.05623142  1
  O  O14  1  0.17331016  0.85778149  0.44376858  1
  O  O15  1  0.82668984  0.64221851  0.94376858  1
  O  O16  1  0.44166721  0.95907858  0.69988223  1
  O  O17  1  0.55833279  0.54092142  0.19988223  1
  O  O18  1  0.55833279  0.04092142  0.30011777  1
  O  O19  1  0.44166721  0.45907858  0.80011777  1
  Na  Na20  1  0.16685415  0.18002000  0.71872615  1
  Na  Na21  1  0.83314585  0.31998000  0.21872615  1
  Na  Na22  1  0.83314585  0.81998000  0.28127385  1
  Na  Na23  1  0.16685415  0.68002000  0.78127385  1
  V  V24  1  0.66351808  0.41265750  0.87465109  1
  V  V25  1  0.33648192  0.08734250  0.37465109  1
  V  V26  1  0.33648192  0.58734250  0.12534891  1
  V  V27  1  0.66351808  0.91265750  0.62534891  1
  Te  Te28  1  0.24214321  0.09488140  0.05890994  1
  Te  Te29  1  0.75785679  0.40511860  0.55890994  1
  Te  Te30  1  0.75785679  0.90511860  0.94109006  1
  Te  Te31  1  0.24214321  0.59488140  0.44109006  1
