# generated using pymatgen
data_Sr(NiO2)4
_symmetry_space_group_name_H-M   'P 1'
_cell_length_a   6.83372970
_cell_length_b   6.83372970
_cell_length_c   6.83372970
_cell_angle_alpha   49.47849781
_cell_angle_beta   49.47849778
_cell_angle_gamma   49.47849784
_symmetry_Int_Tables_number   1
_chemical_formula_structural   Sr(NiO2)4
_chemical_formula_sum   'Sr1 Ni4 O8'
_cell_volume   169.50625138
_cell_formula_units_Z   1
loop_
 _symmetry_equiv_pos_site_id
 _symmetry_equiv_pos_as_xyz
  1  'x, y, z'
loop_
 _atom_site_type_symbol
 _atom_site_label
 _atom_site_symmetry_multiplicity
 _atom_site_fract_x
 _atom_site_fract_y
 _atom_site_fract_z
 _atom_site_occupancy
  O  O0  1  0.76703094  0.29882005  0.76703094  1
  O  O1  1  0.23296906  0.23296906  0.70117995  1
  O  O2  1  0.23296906  0.70117995  0.23296906  1
  O  O3  1  0.70117995  0.23296906  0.23296906  1
  O  O4  1  0.27989937  0.27989937  0.27989937  1
  O  O5  1  0.72010063  0.72010063  0.72010063  1
  O  O6  1  0.76703094  0.76703094  0.29882005  1
  O  O7  1  0.29882005  0.76703094  0.76703094  1
  Ni  Ni8  1  0.00000000  0.00000000  0.00000000  1
  Ni  Ni9  1  0.50000000  0.00000000  0.50000000  1
  Ni  Ni10  1  0.50000000  0.50000000  0.00000000  1
  Ni  Ni11  1  0.00000000  0.50000000  0.50000000  1
  Sr  Sr12  1  0.50000000  0.50000000  0.50000000  1
