# generated using pymatgen
data_K2MoO4
_symmetry_space_group_name_H-M   'P 1'
_cell_length_a   6.22991916
_cell_length_b   7.00883541
_cell_length_c   7.67005933
_cell_angle_alpha   113.00156737
_cell_angle_beta   90.00000000
_cell_angle_gamma   116.38708468
_symmetry_Int_Tables_number   1
_chemical_formula_structural   K2MoO4
_chemical_formula_sum   'K4 Mo2 O8'
_cell_volume   269.96846329
_cell_formula_units_Z   2
loop_
 _symmetry_equiv_pos_site_id
 _symmetry_equiv_pos_as_xyz
  1  'x, y, z'
loop_
 _atom_site_type_symbol
 _atom_site_label
 _atom_site_symmetry_multiplicity
 _atom_site_fract_x
 _atom_site_fract_y
 _atom_site_fract_z
 _atom_site_occupancy
  O  O0  1  0.37899957  0.28568541  0.07778936  1
  O  O1  1  0.09331416  0.71431459  0.92221064  1
  O  O2  1  0.62100043  0.71431459  0.92221064  1
  O  O3  1  0.90668584  0.28568541  0.07778936  1
  O  O4  1  0.91092167  0.82184335  0.63767730  1
  O  O5  1  0.08907833  0.17815665  0.36232270  1
  O  O6  1  0.33294744  0.66589488  0.38368701  1
  O  O7  1  0.66705256  0.33410512  0.61631299  1
  K  K8  1  0.50960251  0.01920501  0.23480078  1
  K  K9  1  0.49039749  0.98079499  0.76519922  1
  K  K10  1  0.15671353  0.31342705  0.74908688  1
  K  K11  1  0.84328647  0.68657295  0.25091312  1
  Mo  Mo12  1  0.17614126  0.35228252  0.22761907  1
  Mo  Mo13  1  0.82385874  0.64771748  0.77238093  1
