# generated using pymatgen
data_KBaVO4
_symmetry_space_group_name_H-M   'P 1'
_cell_length_a   6.02528622
_cell_length_b   7.88736386
_cell_length_c   10.57497936
_cell_angle_alpha   90.00000000
_cell_angle_beta   90.00000000
_cell_angle_gamma   90.00000000
_symmetry_Int_Tables_number   1
_chemical_formula_structural   KBaVO4
_chemical_formula_sum   'K4 Ba4 V4 O16'
_cell_volume   502.56135114
_cell_formula_units_Z   4
loop_
 _symmetry_equiv_pos_site_id
 _symmetry_equiv_pos_as_xyz
  1  'x, y, z'
loop_
 _atom_site_type_symbol
 _atom_site_label
 _atom_site_symmetry_multiplicity
 _atom_site_fract_x
 _atom_site_fract_y
 _atom_site_fract_z
 _atom_site_occupancy
  O  O0  1  0.98924527  0.29252373  0.16301088  1
  O  O1  1  0.48924527  0.70747627  0.83698912  1
  O  O2  1  0.51075473  0.79252373  0.33698912  1
  O  O3  1  0.01075473  0.20747627  0.66301088  1
  O  O4  1  0.01075473  0.70747627  0.83698912  1
  O  O5  1  0.51075473  0.29252373  0.16301088  1
  O  O6  1  0.48924527  0.20747627  0.66301088  1
  O  O7  1  0.98924527  0.79252373  0.33698912  1
  O  O8  1  0.25000000  0.68885472  0.07041579  1
  O  O9  1  0.75000000  0.31114528  0.92958421  1
  O  O10  1  0.25000000  0.18885472  0.42958421  1
  O  O11  1  0.75000000  0.81114528  0.57041579  1
  O  O12  1  0.75000000  0.50841376  0.42827761  1
  O  O13  1  0.25000000  0.49158624  0.57172239  1
  O  O14  1  0.75000000  0.00841376  0.07172239  1
  O  O15  1  0.25000000  0.99158624  0.92827761  1
  K  K16  1  0.25000000  0.33638444  0.92658936  1
  K  K17  1  0.75000000  0.66361556  0.07341064  1
  K  K18  1  0.25000000  0.83638444  0.57341064  1
  K  K19  1  0.75000000  0.16361556  0.42658936  1
  V  V20  1  0.25000000  0.77222657  0.91670366  1
  V  V21  1  0.75000000  0.22777343  0.08329634  1
  V  V22  1  0.25000000  0.27222657  0.58329634  1
  V  V23  1  0.75000000  0.72777343  0.41670366  1
  Ba  Ba24  1  0.25000000  0.00247411  0.19623877  1
  Ba  Ba25  1  0.75000000  0.99752589  0.80376123  1
  Ba  Ba26  1  0.25000000  0.50247411  0.30376123  1
  Ba  Ba27  1  0.75000000  0.49752589  0.69623877  1
