# generated using pymatgen
data_BaNi2(PO4)2
_symmetry_space_group_name_H-M   'P 1'
_cell_length_a   8.40549237
_cell_length_b   8.40549237
_cell_length_c   8.40549237
_cell_angle_alpha   33.55465132
_cell_angle_beta   33.55465129
_cell_angle_gamma   33.55465127
_symmetry_Int_Tables_number   1
_chemical_formula_structural   BaNi2(PO4)2
_chemical_formula_sum   'Ba1 Ni2 P2 O8'
_cell_volume   161.60691199
_cell_formula_units_Z   1
loop_
 _symmetry_equiv_pos_site_id
 _symmetry_equiv_pos_as_xyz
  1  'x, y, z'
loop_
 _atom_site_type_symbol
 _atom_site_label
 _atom_site_symmetry_multiplicity
 _atom_site_fract_x
 _atom_site_fract_y
 _atom_site_fract_z
 _atom_site_occupancy
  O  O0  1  0.75983268  0.14636162  0.43998755  1
  O  O1  1  0.14636162  0.43998755  0.75983268  1
  O  O2  1  0.43998755  0.75983268  0.14636162  1
  O  O3  1  0.24016732  0.85363838  0.56001245  1
  O  O4  1  0.85363838  0.56001245  0.24016732  1
  O  O5  1  0.63670595  0.63670595  0.63670595  1
  O  O6  1  0.36329405  0.36329405  0.36329405  1
  O  O7  1  0.56001245  0.24016732  0.85363838  1
  P  P8  1  0.57238746  0.57238746  0.57238746  1
  P  P9  1  0.42761254  0.42761254  0.42761254  1
  Ni  Ni10  1  0.16882812  0.16882812  0.16882812  1
  Ni  Ni11  1  0.83117188  0.83117188  0.83117188  1
  Ba  Ba12  1  0.00000000  0.00000000  0.00000000  1
