# generated using pymatgen
data_LiVP2O7
_symmetry_space_group_name_H-M   'P 1'
_cell_length_a   4.89869288
_cell_length_b   7.04731942
_cell_length_c   8.31958368
_cell_angle_alpha   90.00000000
_cell_angle_beta   90.00000000
_cell_angle_gamma   108.28741313
_symmetry_Int_Tables_number   1
_chemical_formula_structural   LiVP2O7
_chemical_formula_sum   'Li2 V2 P4 O14'
_cell_volume   272.70819322
_cell_formula_units_Z   2
loop_
 _symmetry_equiv_pos_site_id
 _symmetry_equiv_pos_as_xyz
  1  'x, y, z'
loop_
 _atom_site_type_symbol
 _atom_site_label
 _atom_site_symmetry_multiplicity
 _atom_site_fract_x
 _atom_site_fract_y
 _atom_site_fract_z
 _atom_site_occupancy
  Li  Li0  1  0.17308952  0.66733236  0.64264520  1
  Li  Li1  1  0.82691022  0.33266752  0.14264567  1
  O  O2  1  0.81426237  0.51539308  0.96115538  1
  O  O3  1  0.58969458  0.75584749  0.34677347  1
  O  O4  1  0.59077890  0.91505402  0.06672556  1
  O  O5  1  0.40922084  0.08494586  0.56672631  1
  O  O6  1  0.18573737  0.48460679  0.46115585  1
  O  O7  1  0.41030516  0.24415239  0.84677301  1
  O  O8  1  0.60414814  0.39914174  0.32466184  1
  O  O9  1  0.39585160  0.60085814  0.82466138  1
  O  O10  1  0.96274907  0.15256454  0.67290151  1
  O  O11  1  0.13815564  0.88488313  0.80017031  1
  O  O12  1  0.75201409  0.49223318  0.65776487  1
  O  O13  1  0.24798565  0.50776670  0.15776412  1
  O  O14  1  0.86184615  0.11511673  0.30016957  1
  O  O15  1  0.03725271  0.84743533  0.17290077  1
  P  P16  1  0.39941394  0.52539567  0.32062924  1
  P  P17  1  0.60058580  0.47460421  0.82062999  1
  P  P18  1  0.22142017  0.08623949  0.71446878  1
  P  P19  1  0.77857957  0.91376039  0.21446924  1
  V  V20  1  0.21224518  0.72762913  0.00020303  1
  V  V21  1  0.78775457  0.27237075  0.50020377  1
