# generated using pymatgen
data_Mg3Si3(NiO6)2
_symmetry_space_group_name_H-M   'P 1'
_cell_length_a   10.08861222
_cell_length_b   10.08861247
_cell_length_c   10.08861217
_cell_angle_alpha   109.47122178
_cell_angle_beta   109.47122226
_cell_angle_gamma   109.47121850
_symmetry_Int_Tables_number   1
_chemical_formula_structural   Mg3Si3(NiO6)2
_chemical_formula_sum   'Mg12 Si12 Ni8 O48'
_cell_volume   790.44635742
_cell_formula_units_Z   4
loop_
 _symmetry_equiv_pos_site_id
 _symmetry_equiv_pos_as_xyz
  1  'x, y, z'
loop_
 _atom_site_type_symbol
 _atom_site_label
 _atom_site_symmetry_multiplicity
 _atom_site_fract_x
 _atom_site_fract_y
 _atom_site_fract_z
 _atom_site_occupancy
  Mg  Mg0  1  0.37500000  0.75000000  0.12500000  1
  Mg  Mg1  1  0.12500000  0.25000000  0.37500000  1
  Mg  Mg2  1  0.37500000  0.12500000  0.25000000  1
  Mg  Mg3  1  0.12500000  0.37500000  0.75000000  1
  Mg  Mg4  1  0.87500000  0.75000000  0.62500000  1
  Mg  Mg5  1  0.75000000  0.12500000  0.37500000  1
  Mg  Mg6  1  0.75000000  0.62500000  0.87500000  1
  Mg  Mg7  1  0.62500000  0.25000000  0.87500000  1
  Mg  Mg8  1  0.25000000  0.87500000  0.62500000  1
  Mg  Mg9  1  0.87500000  0.62500000  0.25000000  1
  Mg  Mg10  1  0.62500000  0.87500000  0.75000000  1
  Mg  Mg11  1  0.25000000  0.37500000  0.12500000  1
  Si  Si12  1  0.25000000  0.12500000  0.87500000  1
  Si  Si13  1  0.75000000  0.87500000  0.12500000  1
  Si  Si14  1  0.37500000  0.25000000  0.62500000  1
  Si  Si15  1  0.62500000  0.37500000  0.25000000  1
  Si  Si16  1  0.12500000  0.75000000  0.87500000  1
  Si  Si17  1  0.87500000  0.12500000  0.75000000  1
  Si  Si18  1  0.75000000  0.37500000  0.62500000  1
  Si  Si19  1  0.37500000  0.62500000  0.75000000  1
  Si  Si20  1  0.12500000  0.87500000  0.25000000  1
  Si  Si21  1  0.87500000  0.25000000  0.12500000  1
  Si  Si22  1  0.62500000  0.75000000  0.37500000  1
  Si  Si23  1  0.25000000  0.62500000  0.37500000  1
  Ni  Ni24  1  0.00000000  0.00000000  0.00000000  1
  Ni  Ni25  1  0.00000000  0.50000000  0.00000000  1
  Ni  Ni26  1  0.00000000  0.00000000  0.50000000  1
  Ni  Ni27  1  0.00000000  0.50000000  0.50000000  1
  Ni  Ni28  1  0.50000000  0.00000000  0.50000000  1
  Ni  Ni29  1  0.50000000  0.50000000  0.00000000  1
  Ni  Ni30  1  0.50000000  0.50000000  0.50000000  1
  Ni  Ni31  1  0.50000000  0.00000000  0.00000000  1
  O  O32  1  0.28703242  0.47740616  0.37464297  1
  O  O33  1  0.02259384  0.30962626  0.89723681  1
  O  O34  1  0.12535703  0.60276319  0.91238945  1
  O  O35  1  0.21296758  0.58761055  0.19037374  1
  O  O36  1  0.21296758  0.12535703  0.02259384  1
  O  O37  1  0.58761055  0.19037374  0.21296758  1
  O  O38  1  0.60276319  0.19037374  0.47740616  1
  O  O39  1  0.19037374  0.21296758  0.58761055  1
  O  O40  1  0.89723681  0.37464297  0.58761055  1
  O  O41  1  0.30962626  0.91238945  0.28703242  1
  O  O42  1  0.91238945  0.28703242  0.30962626  1
  O  O43  1  0.02259384  0.21296758  0.12535703  1
  O  O44  1  0.19037374  0.47740616  0.60276319  1
  O  O45  1  0.58761055  0.89723681  0.37464297  1
  O  O46  1  0.12535703  0.02259384  0.21296758  1
  O  O47  1  0.47740616  0.60276319  0.19037374  1
  O  O48  1  0.37464297  0.58761055  0.89723681  1
  O  O49  1  0.89723681  0.02259384  0.30962626  1
  O  O50  1  0.60276319  0.91238945  0.12535703  1
  O  O51  1  0.10276319  0.62535703  0.41238945  1
  O  O52  1  0.91238945  0.12535703  0.60276319  1
  O  O53  1  0.37464297  0.28703242  0.47740616  1
  O  O54  1  0.30962626  0.89723681  0.02259384  1
  O  O55  1  0.28703242  0.30962626  0.91238945  1
  O  O56  1  0.71296758  0.52259384  0.62535703  1
  O  O57  1  0.97740616  0.69037374  0.10276319  1
  O  O58  1  0.87464297  0.39723681  0.08761055  1
  O  O59  1  0.78703242  0.41238945  0.80962626  1
  O  O60  1  0.78703242  0.87464297  0.97740616  1
  O  O61  1  0.41238945  0.80962626  0.78703242  1
  O  O62  1  0.39723681  0.80962626  0.52259384  1
  O  O63  1  0.80962626  0.78703242  0.41238945  1
  O  O64  1  0.71296758  0.69037374  0.08761055  1
  O  O65  1  0.69037374  0.10276319  0.97740616  1
  O  O66  1  0.62535703  0.71296758  0.52259384  1
  O  O67  1  0.52259384  0.62535703  0.71296758  1
  O  O68  1  0.08761055  0.87464297  0.39723681  1
  O  O69  1  0.39723681  0.08761055  0.87464297  1
  O  O70  1  0.10276319  0.97740616  0.69037374  1
  O  O71  1  0.62535703  0.41238945  0.10276319  1
  O  O72  1  0.52259384  0.39723681  0.80962626  1
  O  O73  1  0.87464297  0.97740616  0.78703242  1
  O  O74  1  0.41238945  0.10276319  0.62535703  1
  O  O75  1  0.80962626  0.52259384  0.39723681  1
  O  O76  1  0.97740616  0.78703242  0.87464297  1
  O  O77  1  0.08761055  0.71296758  0.69037374  1
  O  O78  1  0.69037374  0.08761055  0.71296758  1
  O  O79  1  0.47740616  0.37464297  0.28703242  1
