# generated using pymatgen
data_Sr2NiTeO6
_symmetry_space_group_name_H-M   'P 1'
_cell_length_a   5.64530176
_cell_length_b   5.66471941
_cell_length_c   5.64928332
_cell_angle_alpha   60.67897113
_cell_angle_beta   60.02331149
_cell_angle_gamma   60.11332681
_symmetry_Int_Tables_number   1
_chemical_formula_structural   Sr2NiTeO6
_chemical_formula_sum   'Sr2 Ni1 Te1 O6'
_cell_volume   128.52120991
_cell_formula_units_Z   1
loop_
 _symmetry_equiv_pos_site_id
 _symmetry_equiv_pos_as_xyz
  1  'x, y, z'
loop_
 _atom_site_type_symbol
 _atom_site_label
 _atom_site_symmetry_multiplicity
 _atom_site_fract_x
 _atom_site_fract_y
 _atom_site_fract_z
 _atom_site_occupancy
  O  O0  1  0.27647060  0.20476704  0.72721235  1
  O  O1  1  0.20844998  0.79523296  0.27278765  1
  O  O2  1  0.72352940  0.79523296  0.27278765  1
  O  O3  1  0.79155002  0.20476704  0.72721235  1
  O  O4  1  0.24043579  0.69668194  0.82244649  1
  O  O5  1  0.75956421  0.30331806  0.17755351  1
  Ni  Ni6  1  0.50000000  0.50000000  0.50000000  1
  Sr  Sr7  1  0.24981696  0.24596748  0.25439859  1
  Sr  Sr8  1  0.75018304  0.75403252  0.74560141  1
  Te  Te9  1  0.00000000  0.00000000  0.00000000  1
