# generated using pymatgen
data_ErVO4
_symmetry_space_group_name_H-M   'P 1'
_cell_length_a   5.96572421
_cell_length_b   5.96572420
_cell_length_c   5.96572421
_cell_angle_alpha   106.29777523
_cell_angle_beta   106.29777517
_cell_angle_gamma   116.02358725
_symmetry_Int_Tables_number   1
_chemical_formula_structural   ErVO4
_chemical_formula_sum   'Er2 V2 O8'
_cell_volume   161.82245565
_cell_formula_units_Z   2
loop_
 _symmetry_equiv_pos_site_id
 _symmetry_equiv_pos_as_xyz
  1  'x, y, z'
loop_
 _atom_site_type_symbol
 _atom_site_label
 _atom_site_symmetry_multiplicity
 _atom_site_fract_x
 _atom_site_fract_y
 _atom_site_fract_z
 _atom_site_occupancy
  O  O0  1  0.80217595  0.36621206  0.06403611  1
  O  O1  1  0.73813983  0.80217595  0.93596389  1
  O  O2  1  0.36621206  0.80217595  0.56403611  1
  O  O3  1  0.80217595  0.73813983  0.43596389  1
  O  O4  1  0.26186017  0.19782405  0.06403611  1
  O  O5  1  0.19782405  0.63378794  0.93596389  1
  O  O6  1  0.19782405  0.26186017  0.56403611  1
  O  O7  1  0.63378794  0.19782405  0.43596389  1
  V  V8  1  0.37500000  0.62500000  0.75000000  1
  V  V9  1  0.62500000  0.37500000  0.25000000  1
  Er  Er10  1  0.12500000  0.87500000  0.25000000  1
  Er  Er11  1  0.87500000  0.12500000  0.75000000  1
