# generated using pymatgen
data_Zn3Si4(AgO7)2
_symmetry_space_group_name_H-M   'P 1'
_cell_length_a   7.70967091
_cell_length_b   9.78171322
_cell_length_c   9.71705671
_cell_angle_alpha   63.83140399
_cell_angle_beta   66.62745061
_cell_angle_gamma   66.79102077
_symmetry_Int_Tables_number   1
_chemical_formula_structural   Zn3Si4(AgO7)2
_chemical_formula_sum   'Zn6 Si8 Ag4 O28'
_cell_volume   581.97396144
_cell_formula_units_Z   2
loop_
 _symmetry_equiv_pos_site_id
 _symmetry_equiv_pos_as_xyz
  1  'x, y, z'
loop_
 _atom_site_type_symbol
 _atom_site_label
 _atom_site_symmetry_multiplicity
 _atom_site_fract_x
 _atom_site_fract_y
 _atom_site_fract_z
 _atom_site_occupancy
  Zn  Zn0  1  0.94832793  0.87374380  0.45438849  1
  Zn  Zn1  1  0.27646023  0.62625620  0.04561151  1
  Zn  Zn2  1  0.72353977  0.37374380  0.95438849  1
  Zn  Zn3  1  0.61725586  0.25000000  0.75000000  1
  Zn  Zn4  1  0.05167207  0.12625620  0.54561151  1
  Zn  Zn5  1  0.38274414  0.75000000  0.25000000  1
  Si  Si6  1  0.42609255  0.29418272  0.32184647  1
  Si  Si7  1  0.95787726  0.79418272  0.82184647  1
  Si  Si8  1  0.51372844  0.89143340  0.87336144  1
  Si  Si9  1  0.72147773  0.39143340  0.37336144  1
  Si  Si10  1  0.04212274  0.20581728  0.17815353  1
  Si  Si11  1  0.48627156  0.10856660  0.12663856  1
  Si  Si12  1  0.27852227  0.60856660  0.62663856  1
  Si  Si13  1  0.57390745  0.70581728  0.67815353  1
  Ag  Ag14  1  0.22357768  0.25000000  0.75000000  1
  Ag  Ag15  1  0.77642232  0.75000000  0.25000000  1
  Ag  Ag16  1  0.00000000  0.00000000  0.00000000  1
  Ag  Ag17  1  0.00000000  0.50000000  0.50000000  1
  O  O18  1  0.20257815  0.68712173  0.46390407  1
  O  O19  1  0.03585824  0.59648037  0.26572412  1
  O  O20  1  0.52522230  0.91690583  0.17966184  1
  O  O21  1  0.10193728  0.09648037  0.76572412  1
  O  O22  1  0.79486511  0.70964083  0.55241920  1
  O  O23  1  0.91068980  0.36881346  0.21972507  1
  O  O24  1  0.37820904  0.41690583  0.67966184  1
  O  O25  1  0.05692514  0.79035917  0.94758080  1
  O  O26  1  0.08931020  0.63118654  0.78027493  1
  O  O27  1  0.42999448  0.70956167  0.58845996  1
  O  O28  1  0.96414176  0.40351963  0.73427588  1
  O  O29  1  0.20513489  0.29035917  0.44758080  1
  O  O30  1  0.49922934  0.13118654  0.28027493  1
  O  O31  1  0.64639504  0.18712173  0.96390407  1
  O  O32  1  0.27198389  0.20956167  0.08845996  1
  O  O33  1  0.94307486  0.20964083  0.05241920  1
  O  O34  1  0.04223059  0.06095522  0.34498087  1
  O  O35  1  0.57000552  0.29043833  0.41154004  1
  O  O36  1  0.44816569  0.43904478  0.15501913  1
  O  O37  1  0.72801611  0.79043833  0.91154004  1
  O  O38  1  0.50077066  0.86881346  0.71972507  1
  O  O39  1  0.89806272  0.90351963  0.23427588  1
  O  O40  1  0.55183431  0.56095522  0.84498087  1
  O  O41  1  0.47477770  0.08309417  0.82033816  1
  O  O42  1  0.95776941  0.93904478  0.65501913  1
  O  O43  1  0.62179096  0.58309417  0.32033816  1
  O  O44  1  0.35360496  0.81287827  0.03609593  1
  O  O45  1  0.79742185  0.31287827  0.53609593  1
