# generated using pymatgen
data_Y2Be2Fe(SiO5)2
_symmetry_space_group_name_H-M   'P 1'
_cell_length_a   4.79307334
_cell_length_b   7.57055018
_cell_length_c   10.04142365
_cell_angle_alpha   90.00000000
_cell_angle_beta   90.54850315
_cell_angle_gamma   90.00000000
_symmetry_Int_Tables_number   1
_chemical_formula_structural   Y2Be2Fe(SiO5)2
_chemical_formula_sum   'Y4 Be4 Fe2 Si4 O20'
_cell_volume   364.34843297
_cell_formula_units_Z   2
loop_
 _symmetry_equiv_pos_site_id
 _symmetry_equiv_pos_as_xyz
  1  'x, y, z'
loop_
 _atom_site_type_symbol
 _atom_site_label
 _atom_site_symmetry_multiplicity
 _atom_site_fract_x
 _atom_site_fract_y
 _atom_site_fract_z
 _atom_site_occupancy
  Be  Be0  1  0.46583007  0.08697500  0.83451666  1
  Be  Be1  1  0.53416993  0.58697500  0.66548334  1
  Be  Be2  1  0.53416993  0.91302500  0.16548334  1
  Be  Be3  1  0.46583007  0.41302500  0.33451666  1
  O  O4  1  0.68636440  0.39347616  0.64168585  1
  O  O5  1  0.31363560  0.89347616  0.85831415  1
  O  O6  1  0.31363560  0.60652384  0.35831415  1
  O  O7  1  0.68636440  0.10652384  0.14168585  1
  O  O8  1  0.20171491  0.58749499  0.66846358  1
  O  O9  1  0.79828509  0.08749499  0.83153642  1
  O  O10  1  0.79828509  0.41250501  0.33153642  1
  O  O11  1  0.67588762  0.78666130  0.04946925  1
  O  O12  1  0.76209434  0.41444908  0.02899247  1
  O  O13  1  0.23790566  0.91444908  0.47100753  1
  O  O14  1  0.30940510  0.15178958  0.69550641  1
  O  O15  1  0.76209434  0.08555092  0.52899247  1
  O  O16  1  0.32411238  0.28666130  0.45053075  1
  O  O17  1  0.23790566  0.58555092  0.97100753  1
  O  O18  1  0.67588762  0.71333870  0.54946925  1
  O  O19  1  0.32411238  0.21333870  0.95053075  1
  O  O20  1  0.30940510  0.34821042  0.19550641  1
  O  O21  1  0.69059490  0.84821042  0.30449359  1
  O  O22  1  0.69059490  0.65178958  0.80449359  1
  O  O23  1  0.20171491  0.91250501  0.16846358  1
  Si  Si24  1  0.51939852  0.22046996  0.57769284  1
  Si  Si25  1  0.48060148  0.72046996  0.92230716  1
  Si  Si26  1  0.48060148  0.77953004  0.42230716  1
  Si  Si27  1  0.51939852  0.27953004  0.07769284  1
  Fe  Fe28  1  0.00000000  0.00000000  0.00000000  1
  Fe  Fe29  1  0.00000000  0.50000000  0.50000000  1
  Y  Y30  1  0.99863032  0.39374326  0.82879466  1
  Y  Y31  1  0.00136968  0.89374326  0.67120534  1
  Y  Y32  1  0.00136968  0.60625674  0.17120534  1
  Y  Y33  1  0.99863032  0.10625674  0.32879466  1
