# generated using pymatgen
data_HoNiO3
_symmetry_space_group_name_H-M   'P 1'
_cell_length_a   5.18422985
_cell_length_b   5.65831817
_cell_length_c   7.40740530
_cell_angle_alpha   90.00004568
_cell_angle_beta   89.80999845
_cell_angle_gamma   90.00003972
_symmetry_Int_Tables_number   1
_chemical_formula_structural   HoNiO3
_chemical_formula_sum   'Ho4 Ni4 O12'
_cell_volume   217.28779511
_cell_formula_units_Z   4
loop_
 _symmetry_equiv_pos_site_id
 _symmetry_equiv_pos_as_xyz
  1  'x, y, z'
loop_
 _atom_site_type_symbol
 _atom_site_label
 _atom_site_symmetry_multiplicity
 _atom_site_fract_x
 _atom_site_fract_y
 _atom_site_fract_z
 _atom_site_occupancy
  O  O0  1  0.69606225  0.31185985  0.44717505  1
  O  O1  1  0.80393786  0.81185999  0.05282404  1
  O  O2  1  0.30393775  0.68814015  0.55282495  1
  O  O3  1  0.19606214  0.18814001  0.94717596  1
  O  O4  1  0.19729473  0.18683257  0.55339619  1
  O  O5  1  0.30270576  0.68683262  0.94660468  1
  O  O6  1  0.80270527  0.81316743  0.44660381  1
  O  O7  1  0.69729424  0.31316738  0.05339532  1
  O  O8  1  0.10903592  0.46734161  0.25104600  1
  O  O9  1  0.39096392  0.96734130  0.24895432  1
  O  O10  1  0.89096408  0.53265839  0.74895400  1
  O  O11  1  0.60903608  0.03265870  0.75104568  1
  Ni  Ni12  1  0.00000000  0.50000000  0.00000000  1
  Ni  Ni13  1  0.50000000  0.00000000  0.50000000  1
  Ni  Ni14  1  0.00000000  0.50000000  0.50000000  1
  Ni  Ni15  1  0.50000000  0.00000000  0.00000000  1
  Ho  Ho16  1  0.47714605  0.41769678  0.74959668  1
  Ho  Ho17  1  0.02285379  0.91769666  0.75040369  1
  Ho  Ho18  1  0.52285395  0.58230322  0.25040332  1
  Ho  Ho19  1  0.97714621  0.08230334  0.24959631  1
