# generated using pymatgen
data_Sr2NiMoO6
_symmetry_space_group_name_H-M   'P 1'
_cell_length_a   5.60973377
_cell_length_b   5.60973377
_cell_length_c   5.65325825
_cell_angle_alpha   119.74564397
_cell_angle_beta   119.74564409
_cell_angle_gamma   90.00000001
_symmetry_Int_Tables_number   1
_chemical_formula_structural   Sr2NiMoO6
_chemical_formula_sum   'Sr2 Ni1 Mo1 O6'
_cell_volume   126.75754146
_cell_formula_units_Z   1
loop_
 _symmetry_equiv_pos_site_id
 _symmetry_equiv_pos_as_xyz
  1  'x, y, z'
loop_
 _atom_site_type_symbol
 _atom_site_label
 _atom_site_symmetry_multiplicity
 _atom_site_fract_x
 _atom_site_fract_y
 _atom_site_fract_z
 _atom_site_occupancy
  O  O0  1  0.79919241  0.71762782  0.00000000  1
  O  O1  1  0.28237218  0.79919241  0.00000000  1
  O  O2  1  0.71762782  0.20080759  0.00000000  1
  O  O3  1  0.20080759  0.28237218  0.00000000  1
  O  O4  1  0.24173517  0.24173517  0.48347034  1
  O  O5  1  0.75826483  0.75826483  0.51652966  1
  Ni  Ni6  1  0.50000000  0.50000000  0.00000000  1
  Sr  Sr7  1  0.75000000  0.25000000  0.50000000  1
  Sr  Sr8  1  0.25000000  0.75000000  0.50000000  1
  Mo  Mo9  1  0.00000000  0.00000000  0.00000000  1
