# generated using pymatgen
data_LiPr(WO4)2
_symmetry_space_group_name_H-M   'P 1'
_cell_length_a   7.20339549
_cell_length_b   7.48887286
_cell_length_c   7.60702084
_cell_angle_alpha   113.67880263
_cell_angle_beta   115.72280069
_cell_angle_gamma   91.06623181
_symmetry_Int_Tables_number   1
_chemical_formula_structural   LiPr(WO4)2
_chemical_formula_sum   'Li2 Pr2 W4 O16'
_cell_volume   329.18838426
_cell_formula_units_Z   2
loop_
 _symmetry_equiv_pos_site_id
 _symmetry_equiv_pos_as_xyz
  1  'x, y, z'
loop_
 _atom_site_type_symbol
 _atom_site_label
 _atom_site_symmetry_multiplicity
 _atom_site_fract_x
 _atom_site_fract_y
 _atom_site_fract_z
 _atom_site_occupancy
  Li  Li0  1  0.25734815  0.66529957  0.00420402  1
  Li  Li1  1  0.74265185  0.33470043  0.99579598  1
  O  O2  1  0.03918144  0.30650143  0.09399788  1
  O  O3  1  0.96081856  0.69349857  0.90600212  1
  O  O4  1  0.18208018  0.36135196  0.80759264  1
  O  O5  1  0.81791982  0.63864804  0.19240736  1
  O  O6  1  0.55724829  0.46326008  0.75461477  1
  O  O7  1  0.44275171  0.53673992  0.24538523  1
  O  O8  1  0.61329148  0.82513376  0.73896918  1
  O  O9  1  0.38670852  0.17486624  0.26103082  1
  O  O10  1  0.48137890  0.82830392  0.00732760  1
  O  O11  1  0.51862110  0.17169608  0.99267240  1
  O  O12  1  0.13520600  0.99163482  0.80378664  1
  O  O13  1  0.86479400  0.00836518  0.19621336  1
  O  O14  1  0.29357275  0.99488138  0.52430487  1
  O  O15  1  0.70642725  0.00511862  0.47569513  1
  O  O16  1  0.17677716  0.64365938  0.56455504  1
  O  O17  1  0.82322284  0.35634062  0.43544496  1
  Pr  Pr18  1  0.18634409  0.28909387  0.46513659  1
  Pr  Pr19  1  0.81365591  0.71090613  0.53486341  1
  W  W20  1  0.25807333  0.29211703  0.03087100  1
  W  W21  1  0.74192667  0.70788297  0.96912900  1
  W  W22  1  0.64785246  0.10205946  0.28149532  1
  W  W23  1  0.35214754  0.89794054  0.71850468  1
