# generated using pymatgen
data_CoSe2O5
_symmetry_space_group_name_H-M   'P 1'
_cell_length_a   6.14540042
_cell_length_b   6.98090159
_cell_length_c   10.51419753
_cell_angle_alpha   90.00000000
_cell_angle_beta   90.00000000
_cell_angle_gamma   90.00000000
_symmetry_Int_Tables_number   1
_chemical_formula_structural   CoSe2O5
_chemical_formula_sum   'Co4 Se8 O20'
_cell_volume   451.06365363
_cell_formula_units_Z   4
loop_
 _symmetry_equiv_pos_site_id
 _symmetry_equiv_pos_as_xyz
  1  'x, y, z'
loop_
 _atom_site_type_symbol
 _atom_site_label
 _atom_site_symmetry_multiplicity
 _atom_site_fract_x
 _atom_site_fract_y
 _atom_site_fract_z
 _atom_site_occupancy
  O  O0  1  0.05228165  0.15476407  0.06641230  1
  O  O1  1  0.55228165  0.34523593  0.43358770  1
  O  O2  1  0.94771835  0.65476407  0.43358770  1
  O  O3  1  0.44771835  0.84523593  0.06641230  1
  O  O4  1  0.94771835  0.84523593  0.93358770  1
  O  O5  1  0.44771835  0.65476407  0.56641230  1
  O  O6  1  0.05228165  0.34523593  0.56641230  1
  O  O7  1  0.55228165  0.15476407  0.93358770  1
  O  O8  1  0.75000000  0.00000000  0.43529112  1
  O  O9  1  0.25000000  0.50000000  0.06470888  1
  O  O10  1  0.25000000  0.00000000  0.56470888  1
  O  O11  1  0.75000000  0.50000000  0.93529112  1
  O  O12  1  0.67026688  0.19564540  0.21018756  1
  O  O13  1  0.17026688  0.30435460  0.28981244  1
  O  O14  1  0.32973312  0.69564540  0.28981244  1
  O  O15  1  0.82973312  0.80435460  0.21018756  1
  O  O16  1  0.32973312  0.80435460  0.78981244  1
  O  O17  1  0.82973312  0.69564540  0.71018756  1
  O  O18  1  0.67026688  0.30435460  0.71018756  1
  O  O19  1  0.17026688  0.19564540  0.78981244  1
  Co  Co20  1  0.25000000  0.00000000  0.93520359  1
  Co  Co21  1  0.75000000  0.50000000  0.56479641  1
  Co  Co22  1  0.75000000  0.00000000  0.06479641  1
  Co  Co23  1  0.25000000  0.50000000  0.43520359  1
  Se  Se24  1  0.46418985  0.63665814  0.15348550  1
  Se  Se25  1  0.96418985  0.86334186  0.34651450  1
  Se  Se26  1  0.53581015  0.13665814  0.34651450  1
  Se  Se27  1  0.03581015  0.36334186  0.15348550  1
  Se  Se28  1  0.96418985  0.63665814  0.84651450  1
  Se  Se29  1  0.46418985  0.86334186  0.65348550  1
  Se  Se30  1  0.03581015  0.13665814  0.65348550  1
  Se  Se31  1  0.53581015  0.36334186  0.84651450  1
