# generated using pymatgen
data_Tl2MoO4
_symmetry_space_group_name_H-M   'P 1'
_cell_length_a   6.36249971
_cell_length_b   6.36249972
_cell_length_c   8.26605708
_cell_angle_alpha   89.22146501
_cell_angle_beta   89.22146502
_cell_angle_gamma   63.11499906
_symmetry_Int_Tables_number   1
_chemical_formula_structural   Tl2MoO4
_chemical_formula_sum   'Tl4 Mo2 O8'
_cell_volume   298.41637907
_cell_formula_units_Z   2
loop_
 _symmetry_equiv_pos_site_id
 _symmetry_equiv_pos_as_xyz
  1  'x, y, z'
loop_
 _atom_site_type_symbol
 _atom_site_label
 _atom_site_symmetry_multiplicity
 _atom_site_fract_x
 _atom_site_fract_y
 _atom_site_fract_z
 _atom_site_occupancy
  O  O0  1  0.23852752  0.59662046  0.19926076  1
  O  O1  1  0.40337954  0.76147248  0.80073924  1
  O  O2  1  0.28596286  0.10986394  0.20576324  1
  O  O3  1  0.89013606  0.71403714  0.79423676  1
  O  O4  1  0.68012061  0.20745753  0.29308264  1
  O  O5  1  0.79254247  0.31987939  0.70691736  1
  O  O6  1  0.64044629  0.74002668  0.49038045  1
  O  O7  1  0.25997332  0.35955371  0.50961955  1
  Mo  Mo8  1  0.36504274  0.31573542  0.30417645  1
  Mo  Mo9  1  0.68426458  0.63495726  0.69582355  1
  Tl  Tl10  1  0.65084516  0.66777382  0.18843701  1
  Tl  Tl11  1  0.33222618  0.34915484  0.81156299  1
  Tl  Tl12  1  0.03771429  0.96228571  0.50000000  1
  Tl  Tl13  1  0.00941838  0.99058162  0.00000000  1
