# generated using pymatgen
data_LiFePO4
_symmetry_space_group_name_H-M   'P 1'
_cell_length_a   4.75213220
_cell_length_b   6.08718732
_cell_length_c   10.45296648
_cell_angle_alpha   90.00000000
_cell_angle_beta   90.00000000
_cell_angle_gamma   90.00000000
_symmetry_Int_Tables_number   1
_chemical_formula_structural   LiFePO4
_chemical_formula_sum   'Li4 Fe4 P4 O16'
_cell_volume   302.37420392
_cell_formula_units_Z   4
loop_
 _symmetry_equiv_pos_site_id
 _symmetry_equiv_pos_as_xyz
  1  'x, y, z'
loop_
 _atom_site_type_symbol
 _atom_site_label
 _atom_site_symmetry_multiplicity
 _atom_site_fract_x
 _atom_site_fract_y
 _atom_site_fract_z
 _atom_site_occupancy
  Li  Li0  1  0.50000000  -0.00000000  0.50000000  1
  Li  Li1  1  -0.00000000  0.50000000  0.00000000  1
  Li  Li2  1  0.50000000  0.50000000  0.50000000  1
  Li  Li3  1  -0.00000000  -0.00000000  0.00000000  1
  Fe  Fe4  1  0.47599781  0.75000000  0.21858953  1
  Fe  Fe5  1  0.02400219  0.75000000  0.71858953  1
  Fe  Fe6  1  0.52400219  0.25000000  0.78141047  1
  Fe  Fe7  1  0.97599781  0.25000000  0.28141047  1
  P  P8  1  0.91826874  0.75000000  0.40552545  1
  P  P9  1  0.58173126  0.75000000  0.90552545  1
  P  P10  1  0.08173126  0.25000000  0.59447455  1
  P  P11  1  0.41826874  0.25000000  0.09447455  1
  O  O12  1  0.24165071  0.75000000  0.40368196  1
  O  O13  1  0.25834929  0.75000000  0.90368196  1
  O  O14  1  0.75834929  0.25000000  0.59631804  1
  O  O15  1  0.74165071  0.25000000  0.09631804  1
  O  O16  1  0.70718506  0.75000000  0.04289403  1
  O  O17  1  0.79281494  0.75000000  0.54289403  1
  O  O18  1  0.29281494  0.25000000  0.95710597  1
  O  O19  1  0.20718506  0.25000000  0.45710597  1
  O  O20  1  0.78526771  0.95291782  0.33460549  1
  O  O21  1  0.71473229  0.54708218  0.83460549  1
  O  O22  1  0.21473229  0.45291782  0.66539451  1
  O  O23  1  0.28526771  0.04708218  0.16539451  1
  O  O24  1  0.21473229  0.04708218  0.66539451  1
  O  O25  1  0.28526771  0.45291782  0.16539451  1
  O  O26  1  0.78526771  0.54708218  0.33460549  1
  O  O27  1  0.71473229  0.95291782  0.83460549  1
