# generated using pymatgen
data_LuVO4
_symmetry_space_group_name_H-M   'P 1'
_cell_length_a   5.90312140
_cell_length_b   5.90312140
_cell_length_c   5.90312140
_cell_angle_alpha   106.43443361
_cell_angle_beta   106.43443370
_cell_angle_gamma   115.73211813
_symmetry_Int_Tables_number   1
_chemical_formula_structural   LuVO4
_chemical_formula_sum   'Lu2 V2 O8'
_cell_volume   156.91853318
_cell_formula_units_Z   2
loop_
 _symmetry_equiv_pos_site_id
 _symmetry_equiv_pos_as_xyz
  1  'x, y, z'
loop_
 _atom_site_type_symbol
 _atom_site_label
 _atom_site_symmetry_multiplicity
 _atom_site_fract_x
 _atom_site_fract_y
 _atom_site_fract_z
 _atom_site_occupancy
  O  O0  1  0.80346217  0.74142148  0.43795930  1
  O  O1  1  0.36550287  0.80346217  0.56204070  1
  O  O2  1  0.74142148  0.80346217  0.93795930  1
  O  O3  1  0.80346217  0.36550287  0.06204070  1
  O  O4  1  0.63449713  0.19653783  0.43795930  1
  O  O5  1  0.19653783  0.25857852  0.56204070  1
  O  O6  1  0.19653783  0.63449713  0.93795930  1
  O  O7  1  0.25857852  0.19653783  0.06204070  1
  V  V8  1  0.37500000  0.62500000  0.75000000  1
  V  V9  1  0.62500000  0.37500000  0.25000000  1
  Lu  Lu10  1  0.12500000  0.87500000  0.25000000  1
  Lu  Lu11  1  0.87500000  0.12500000  0.75000000  1
