# generated using pymatgen
data_Sr2CdWO6
_symmetry_space_group_name_H-M   'P 1'
_cell_length_a   5.80763975
_cell_length_b   5.95888518
_cell_length_c   8.25613022
_cell_angle_alpha   90.00000000
_cell_angle_beta   89.95151566
_cell_angle_gamma   90.00000000
_symmetry_Int_Tables_number   1
_chemical_formula_structural   Sr2CdWO6
_chemical_formula_sum   'Sr4 Cd2 W2 O12'
_cell_volume   285.72027890
_cell_formula_units_Z   2
loop_
 _symmetry_equiv_pos_site_id
 _symmetry_equiv_pos_as_xyz
  1  'x, y, z'
loop_
 _atom_site_type_symbol
 _atom_site_label
 _atom_site_symmetry_multiplicity
 _atom_site_fract_x
 _atom_site_fract_y
 _atom_site_fract_z
 _atom_site_occupancy
  O  O0  1  0.68022757  0.23033782  0.55116600  1
  O  O1  1  0.81977243  0.73033782  0.94883400  1
  O  O2  1  0.31977243  0.76966218  0.44883400  1
  O  O3  1  0.18022757  0.26966218  0.05116600  1
  O  O4  1  0.77275146  0.68491583  0.54082292  1
  O  O5  1  0.72724854  0.18491583  0.95917708  1
  O  O6  1  0.22724854  0.31508417  0.45917708  1
  O  O7  1  0.27275146  0.81508417  0.04082292  1
  O  O8  1  0.08740202  0.03167326  0.77192618  1
  O  O9  1  0.41259798  0.53167326  0.72807382  1
  O  O10  1  0.91259798  0.96832674  0.22807382  1
  O  O11  1  0.58740202  0.46832674  0.27192618  1
  Sr  Sr12  1  0.51020649  0.95367235  0.75197932  1
  Sr  Sr13  1  0.98979351  0.45367235  0.74802068  1
  Sr  Sr14  1  0.48979351  0.04632765  0.24802068  1
  Sr  Sr15  1  0.01020649  0.54632765  0.25197932  1
  Cd  Cd16  1  0.00000000  0.00000000  0.50000000  1
  Cd  Cd17  1  0.50000000  0.50000000  0.00000000  1
  W  W18  1  0.50000000  0.50000000  0.50000000  1
  W  W19  1  0.00000000  0.00000000  0.00000000  1
