# generated using pymatgen
data_V2PO5
_symmetry_space_group_name_H-M   'P 1'
_cell_length_a   5.47400673
_cell_length_b   5.47400673
_cell_length_c   7.38890576
_cell_angle_alpha   111.74156293
_cell_angle_beta   111.74156290
_cell_angle_gamma   90.00000005
_symmetry_Int_Tables_number   1
_chemical_formula_structural   V2PO5
_chemical_formula_sum   'V4 P2 O10'
_cell_volume   188.59603383
_cell_formula_units_Z   2
loop_
 _symmetry_equiv_pos_site_id
 _symmetry_equiv_pos_as_xyz
  1  'x, y, z'
loop_
 _atom_site_type_symbol
 _atom_site_label
 _atom_site_symmetry_multiplicity
 _atom_site_fract_x
 _atom_site_fract_y
 _atom_site_fract_z
 _atom_site_occupancy
  O  O0  1  0.37500000  0.62500000  0.75000000  1
  O  O1  1  0.62500000  0.37500000  0.25000000  1
  O  O2  1  0.19189724  0.70481061  0.38379448  1
  O  O3  1  0.82101613  0.80810276  0.11620552  1
  O  O4  1  0.29518939  0.80810276  0.11620552  1
  O  O5  1  0.80810276  0.29518939  0.61620552  1
  O  O6  1  0.19189724  0.17898387  0.38379448  1
  O  O7  1  0.70481061  0.19189724  0.88379448  1
  O  O8  1  0.17898387  0.19189724  0.88379448  1
  O  O9  1  0.80810276  0.82101613  0.61620552  1
  P  P10  1  0.87500000  0.12500000  0.75000000  1
  P  P11  1  0.12500000  0.87500000  0.25000000  1
  V  V12  1  0.00000000  0.50000000  0.50000000  1
  V  V13  1  0.50000000  0.00000000  0.00000000  1
  V  V14  1  0.50000000  0.50000000  0.00000000  1
  V  V15  1  0.50000000  0.50000000  0.50000000  1
