# generated using pymatgen
data_Y6WO12
_symmetry_space_group_name_H-M   'P 1'
_cell_length_a   6.50970909
_cell_length_b   6.50970909
_cell_length_c   6.50970908
_cell_angle_alpha   98.68717524
_cell_angle_beta   98.68717519
_cell_angle_gamma   98.68717528
_symmetry_Int_Tables_number   1
_chemical_formula_structural   Y6WO12
_chemical_formula_sum   'Y6 W1 O12'
_cell_volume   265.26386221
_cell_formula_units_Z   1
loop_
 _symmetry_equiv_pos_site_id
 _symmetry_equiv_pos_as_xyz
  1  'x, y, z'
loop_
 _atom_site_type_symbol
 _atom_site_label
 _atom_site_symmetry_multiplicity
 _atom_site_fract_x
 _atom_site_fract_y
 _atom_site_fract_z
 _atom_site_occupancy
  O  O0  1  0.43128697  0.17709901  0.59154746  1
  O  O1  1  0.17709901  0.59154746  0.43128697  1
  O  O2  1  0.59154746  0.43128697  0.17709901  1
  O  O3  1  0.56871303  0.82290099  0.40845254  1
  O  O4  1  0.82290099  0.40845254  0.56871303  1
  O  O5  1  0.40845254  0.56871303  0.82290099  1
  O  O6  1  0.03429512  0.92275731  0.70412154  1
  O  O7  1  0.29587846  0.96570488  0.07724269  1
  O  O8  1  0.07724269  0.29587846  0.96570488  1
  O  O9  1  0.96570488  0.07724269  0.29587846  1
  O  O10  1  0.70412154  0.03429512  0.92275731  1
  O  O11  1  0.92275731  0.70412154  0.03429512  1
  Y  Y12  1  0.14387109  0.31602353  0.61048813  1
  Y  Y13  1  0.68397647  0.38951187  0.85612891  1
  Y  Y14  1  0.38951187  0.85612891  0.68397647  1
  Y  Y15  1  0.85612891  0.68397647  0.38951187  1
  Y  Y16  1  0.31602353  0.61048813  0.14387109  1
  Y  Y17  1  0.61048813  0.14387109  0.31602353  1
  W  W18  1  0.00000000  0.00000000  0.00000000  1
