# generated using pymatgen
data_LiMnPO4
_symmetry_space_group_name_H-M   'P 1'
_cell_length_a   4.79119258
_cell_length_b   6.17768033
_cell_length_c   10.58983355
_cell_angle_alpha   90.00000000
_cell_angle_beta   90.00000000
_cell_angle_gamma   90.00000000
_symmetry_Int_Tables_number   1
_chemical_formula_structural   LiMnPO4
_chemical_formula_sum   'Li4 Mn4 P4 O16'
_cell_volume   313.44272406
_cell_formula_units_Z   4
loop_
 _symmetry_equiv_pos_site_id
 _symmetry_equiv_pos_as_xyz
  1  'x, y, z'
loop_
 _atom_site_type_symbol
 _atom_site_label
 _atom_site_symmetry_multiplicity
 _atom_site_fract_x
 _atom_site_fract_y
 _atom_site_fract_z
 _atom_site_occupancy
  Li  Li0  1  0.50000000  -0.00000000  0.50000000  1
  Li  Li1  1  0.00000000  0.50000000  0.00000000  1
  Li  Li2  1  0.50000000  0.50000000  0.50000000  1
  Li  Li3  1  0.00000000  0.00000000  0.00000000  1
  Mn  Mn4  1  0.52757211  0.25000000  0.78092136  1
  Mn  Mn5  1  0.97242789  0.25000000  0.28092136  1
  Mn  Mn6  1  0.47242789  0.75000000  0.21907864  1
  Mn  Mn7  1  0.02757211  0.75000000  0.71907864  1
  P  P8  1  0.08919643  0.25000000  0.59206303  1
  P  P9  1  0.41080357  0.25000000  0.09206303  1
  P  P10  1  0.91080357  0.75000000  0.40793697  1
  P  P11  1  0.58919643  0.75000000  0.90793697  1
  O  O12  1  0.76807512  0.25000000  0.59657769  1
  O  O13  1  0.73192488  0.25000000  0.09657769  1
  O  O14  1  0.23192488  0.75000000  0.40342231  1
  O  O15  1  0.26807512  0.75000000  0.90342231  1
  O  O16  1  0.29020208  0.25000000  0.95558649  1
  O  O17  1  0.20979792  0.25000000  0.45558649  1
  O  O18  1  0.70979792  0.75000000  0.04441351  1
  O  O19  1  0.79020208  0.75000000  0.54441351  1
  O  O20  1  0.22260540  0.04965939  0.66095287  1
  O  O21  1  0.27739460  0.45034061  0.16095287  1
  O  O22  1  0.77739460  0.54965939  0.33904713  1
  O  O23  1  0.72260540  0.95034061  0.83904713  1
  O  O24  1  0.77739460  0.95034061  0.33904713  1
  O  O25  1  0.72260540  0.54965939  0.83904713  1
  O  O26  1  0.22260540  0.45034061  0.66095287  1
  O  O27  1  0.27739460  0.04965939  0.16095287  1
