# generated using pymatgen
data_Ba2NiTeO6
_symmetry_space_group_name_H-M   'P 1'
_cell_length_a   10.24893694
_cell_length_b   10.24893693
_cell_length_c   10.24893694
_cell_angle_alpha   33.36756356
_cell_angle_beta   33.36756362
_cell_angle_gamma   33.36756357
_symmetry_Int_Tables_number   1
_chemical_formula_structural   Ba2NiTeO6
_chemical_formula_sum   'Ba4 Ni2 Te2 O12'
_cell_volume   289.98950630
_cell_formula_units_Z   2
loop_
 _symmetry_equiv_pos_site_id
 _symmetry_equiv_pos_as_xyz
  1  'x, y, z'
loop_
 _atom_site_type_symbol
 _atom_site_label
 _atom_site_symmetry_multiplicity
 _atom_site_fract_x
 _atom_site_fract_y
 _atom_site_fract_z
 _atom_site_occupancy
  O  O0  1  0.19511638  0.19511638  0.72744027  1
  O  O1  1  0.19511638  0.72744027  0.19511638  1
  O  O2  1  0.72744027  0.19511638  0.19511638  1
  O  O3  1  0.27255973  0.80488362  0.80488362  1
  O  O4  1  0.80488362  0.80488362  0.27255973  1
  O  O5  1  0.80488362  0.27255973  0.80488362  1
  O  O6  1  0.38855480  0.38855480  0.84588867  1
  O  O7  1  0.38855480  0.84588867  0.38855480  1
  O  O8  1  0.61144520  0.15411133  0.61144520  1
  O  O9  1  0.61144520  0.61144520  0.15411133  1
  O  O10  1  0.15411133  0.61144520  0.61144520  1
  O  O11  1  0.84588867  0.38855480  0.38855480  1
  Ni  Ni12  1  0.59355687  0.59355687  0.59355687  1
  Ni  Ni13  1  0.40644313  0.40644313  0.40644313  1
  Te  Te14  1  0.50000000  0.50000000  0.50000000  1
  Te  Te15  1  0.00000000  0.00000000  0.00000000  1
  Ba  Ba16  1  0.71557155  0.71557155  0.71557155  1
  Ba  Ba17  1  0.28442845  0.28442845  0.28442845  1
  Ba  Ba18  1  0.87395924  0.87395924  0.87395924  1
  Ba  Ba19  1  0.12604076  0.12604076  0.12604076  1
