# generated using pymatgen
data_CsMnO4
_symmetry_space_group_name_H-M   'P 1'
_cell_length_a   6.00301590
_cell_length_b   8.16277995
_cell_length_c   10.22816261
_cell_angle_alpha   90.00000000
_cell_angle_beta   90.00000000
_cell_angle_gamma   90.00000000
_symmetry_Int_Tables_number   1
_chemical_formula_structural   CsMnO4
_chemical_formula_sum   'Cs4 Mn4 O16'
_cell_volume   501.19324229
_cell_formula_units_Z   4
loop_
 _symmetry_equiv_pos_site_id
 _symmetry_equiv_pos_as_xyz
  1  'x, y, z'
loop_
 _atom_site_type_symbol
 _atom_site_label
 _atom_site_symmetry_multiplicity
 _atom_site_fract_x
 _atom_site_fract_y
 _atom_site_fract_z
 _atom_site_occupancy
  O  O0  1  0.52992695  0.81549519  0.07892603  1
  O  O1  1  0.02992695  0.18450481  0.92107397  1
  O  O2  1  0.47007305  0.31549519  0.42107397  1
  O  O3  1  0.97007305  0.68450481  0.57892603  1
  O  O4  1  0.47007305  0.18450481  0.92107397  1
  O  O5  1  0.97007305  0.81549519  0.07892603  1
  O  O6  1  0.52992695  0.68450481  0.57892603  1
  O  O7  1  0.02992695  0.31549519  0.42107397  1
  O  O8  1  0.25000000  0.04833166  0.35291334  1
  O  O9  1  0.75000000  0.95166834  0.64708666  1
  O  O10  1  0.75000000  0.54833166  0.14708666  1
  O  O11  1  0.25000000  0.45166834  0.85291334  1
  O  O12  1  0.25000000  0.14774254  0.60034492  1
  O  O13  1  0.75000000  0.85225746  0.39965508  1
  O  O14  1  0.75000000  0.64774254  0.89965508  1
  O  O15  1  0.25000000  0.35225746  0.10034492  1
  Mn  Mn16  1  0.25000000  0.29457883  0.94913978  1
  Mn  Mn17  1  0.75000000  0.70542117  0.05086022  1
  Mn  Mn18  1  0.75000000  0.79457883  0.55086022  1
  Mn  Mn19  1  0.25000000  0.20542117  0.44913978  1
  Cs  Cs20  1  0.25000000  0.84617890  0.81067489  1
  Cs  Cs21  1  0.75000000  0.15382110  0.18932511  1
  Cs  Cs22  1  0.75000000  0.34617890  0.68932511  1
  Cs  Cs23  1  0.25000000  0.65382110  0.31067489  1
