# generated using pymatgen
data_LiMoP2O7
_symmetry_space_group_name_H-M   'P 1'
_cell_length_a   5.00521871
_cell_length_b   7.14541959
_cell_length_c   8.59743841
_cell_angle_alpha   90.00000000
_cell_angle_beta   90.00000000
_cell_angle_gamma   108.71422634
_symmetry_Int_Tables_number   1
_chemical_formula_structural   LiMoP2O7
_chemical_formula_sum   'Li2 Mo2 P4 O14'
_cell_volume   291.22573915
_cell_formula_units_Z   2
loop_
 _symmetry_equiv_pos_site_id
 _symmetry_equiv_pos_as_xyz
  1  'x, y, z'
loop_
 _atom_site_type_symbol
 _atom_site_label
 _atom_site_symmetry_multiplicity
 _atom_site_fract_x
 _atom_site_fract_y
 _atom_site_fract_z
 _atom_site_occupancy
  Li  Li0  1  0.81454849  0.83276882  0.14424866  1
  Li  Li1  1  0.18545067  0.16723050  0.64424866  1
  O  O2  1  0.79361681  0.00315370  0.96195766  1
  O  O3  1  0.40899274  0.73757736  0.83819194  1
  O  O4  1  0.23773337  0.00896130  0.16628343  1
  O  O5  1  0.76226580  0.99103801  0.66628343  1
  O  O6  1  0.20638236  0.99684562  0.46195766  1
  O  O7  1  0.59100843  0.26242195  0.33819194  1
  O  O8  1  0.95684786  0.64031187  0.67784504  1
  O  O9  1  0.04315199  0.35968893  0.17784504  1
  O  O10  1  0.60089970  0.90885885  0.31888690  1
  O  O11  1  0.60845268  0.42130330  0.06657231  1
  O  O12  1  0.85858228  0.61839280  0.29569678  1
  O  O13  1  0.14141889  0.38160650  0.79569678  1
  O  O14  1  0.39154717  0.57869750  0.56657231  1
  O  O15  1  0.39909947  0.09114047  0.81888690  1
  P  P16  1  0.78421422  0.41904047  0.21175655  1
  P  P17  1  0.21578563  0.58096033  0.71175655  1
  P  P18  1  0.40267851  0.03373257  0.31998223  1
  P  P19  1  0.59732335  0.96626822  0.81998223  1
  Mo  Mo20  1  0.20914374  0.22496564  0.99847764  1
  Mo  Mo21  1  0.79085543  0.77503368  0.49847764  1
