# generated using pymatgen
data_TmVO4
_symmetry_space_group_name_H-M   'P 1'
_cell_length_a   5.93993278
_cell_length_b   5.93993278
_cell_length_c   5.93993278
_cell_angle_alpha   106.34208119
_cell_angle_beta   106.34208130
_cell_angle_gamma   115.92898877
_symmetry_Int_Tables_number   1
_chemical_formula_structural   TmVO4
_chemical_formula_sum   'Tm2 V2 O8'
_cell_volume   159.77877514
_cell_formula_units_Z   2
loop_
 _symmetry_equiv_pos_site_id
 _symmetry_equiv_pos_as_xyz
  1  'x, y, z'
loop_
 _atom_site_type_symbol
 _atom_site_label
 _atom_site_symmetry_multiplicity
 _atom_site_fract_x
 _atom_site_fract_y
 _atom_site_fract_z
 _atom_site_occupancy
  O  O0  1  0.80281117  0.73951371  0.43670254  1
  O  O1  1  0.36610863  0.80281117  0.56329746  1
  O  O2  1  0.73951371  0.80281117  0.93670254  1
  O  O3  1  0.80281117  0.36610863  0.06329746  1
  O  O4  1  0.63389137  0.19718883  0.43670254  1
  O  O5  1  0.19718883  0.26048629  0.56329746  1
  O  O6  1  0.19718883  0.63389137  0.93670254  1
  O  O7  1  0.26048629  0.19718883  0.06329746  1
  V  V8  1  0.37500000  0.62500000  0.75000000  1
  V  V9  1  0.62500000  0.37500000  0.25000000  1
  Tm  Tm10  1  0.12500000  0.87500000  0.25000000  1
  Tm  Tm11  1  0.87500000  0.12500000  0.75000000  1
