# generated using pymatgen
data_Na3Fe(PO4)2
_symmetry_space_group_name_H-M   'P 1'
_cell_length_a   5.08793433
_cell_length_b   5.25757935
_cell_length_c   14.07404248
_cell_angle_alpha   91.76360461
_cell_angle_beta   90.00000000
_cell_angle_gamma   118.93824335
_symmetry_Int_Tables_number   1
_chemical_formula_structural   Na3Fe(PO4)2
_chemical_formula_sum   'Na6 Fe2 P4 O16'
_cell_volume   329.27282103
_cell_formula_units_Z   2
loop_
 _symmetry_equiv_pos_site_id
 _symmetry_equiv_pos_as_xyz
  1  'x, y, z'
loop_
 _atom_site_type_symbol
 _atom_site_label
 _atom_site_symmetry_multiplicity
 _atom_site_fract_x
 _atom_site_fract_y
 _atom_site_fract_z
 _atom_site_occupancy
  O  O0  1  0.92888101  0.65712108  0.91527066  1
  O  O1  1  0.27175993  0.34287892  0.58472934  1
  O  O2  1  0.07111899  0.34287892  0.08472934  1
  O  O3  1  0.72824007  0.65712108  0.41527066  1
  O  O4  1  0.85391843  0.14959123  0.88505426  1
  O  O5  1  0.70432720  0.85040877  0.61494574  1
  O  O6  1  0.14608157  0.85040877  0.11494574  1
  O  O7  1  0.29567280  0.14959123  0.38505426  1
  O  O8  1  0.43633646  0.21852311  0.96248776  1
  O  O9  1  0.21781335  0.78147689  0.53751224  1
  O  O10  1  0.56366354  0.78147689  0.03751224  1
  O  O11  1  0.78218665  0.21852311  0.46248776  1
  O  O12  1  0.77881053  0.33063906  0.29008651  1
  O  O13  1  0.44817147  0.66936094  0.20991349  1
  O  O14  1  0.22118947  0.66936094  0.70991349  1
  O  O15  1  0.55182853  0.33063906  0.79008651  1
  Na  Na16  1  0.95066046  0.00000000  0.25000000  1
  Na  Na17  1  0.04933954  0.00000000  0.75000000  1
  Na  Na18  1  0.62766506  0.33819695  0.13389156  1
  Na  Na19  1  0.28946812  0.66180305  0.36610844  1
  Na  Na20  1  0.71053188  0.33819695  0.63389156  1
  Na  Na21  1  0.37233494  0.66180305  0.86610844  1
  P  P22  1  0.31214520  0.66395369  0.11267573  1
  P  P23  1  0.35180849  0.66395369  0.61267573  1
  P  P24  1  0.64819151  0.33604631  0.38732427  1
  P  P25  1  0.68785480  0.33604631  0.88732427  1
  Fe  Fe26  1  0.00000000  0.00000000  0.50000000  1
  Fe  Fe27  1  0.00000000  0.00000000  0.00000000  1
