# generated using pymatgen
data_ErCrO3
_symmetry_space_group_name_H-M   'P 1'
_cell_length_a   5.26750362
_cell_length_b   5.59176049
_cell_length_c   7.62117396
_cell_angle_alpha   90.00000000
_cell_angle_beta   90.00000000
_cell_angle_gamma   90.00000000
_symmetry_Int_Tables_number   1
_chemical_formula_structural   ErCrO3
_chemical_formula_sum   'Er4 Cr4 O12'
_cell_volume   224.47877245
_cell_formula_units_Z   4
loop_
 _symmetry_equiv_pos_site_id
 _symmetry_equiv_pos_as_xyz
  1  'x, y, z'
loop_
 _atom_site_type_symbol
 _atom_site_label
 _atom_site_symmetry_multiplicity
 _atom_site_fract_x
 _atom_site_fract_y
 _atom_site_fract_z
 _atom_site_occupancy
  O  O0  1  0.69047521  0.30458480  0.43948856  1
  O  O1  1  0.19047521  0.19541520  0.56051144  1
  O  O2  1  0.80952479  0.80458480  0.06051144  1
  O  O3  1  0.30952479  0.69541520  0.93948856  1
  O  O4  1  0.30952479  0.69541520  0.56051144  1
  O  O5  1  0.80952479  0.80458480  0.43948856  1
  O  O6  1  0.19047521  0.19541520  0.93948856  1
  O  O7  1  0.69047521  0.30458480  0.06051144  1
  O  O8  1  0.11866139  0.45531240  0.25000000  1
  O  O9  1  0.61866139  0.04468760  0.75000000  1
  O  O10  1  0.38133861  0.95531240  0.25000000  1
  O  O11  1  0.88133861  0.54468760  0.75000000  1
  Cr  Cr12  1  0.50000000  0.00000000  0.50000000  1
  Cr  Cr13  1  0.00000000  0.50000000  0.50000000  1
  Cr  Cr14  1  0.00000000  0.50000000  0.00000000  1
  Cr  Cr15  1  0.50000000  0.00000000  0.00000000  1
  Er  Er16  1  0.02084294  0.92990973  0.75000000  1
  Er  Er17  1  0.52084294  0.57009027  0.25000000  1
  Er  Er18  1  0.47915706  0.42990973  0.75000000  1
  Er  Er19  1  0.97915706  0.07009027  0.25000000  1
