# generated using pymatgen
data_Ba3CoRu2O9
_symmetry_space_group_name_H-M   'P 1'
_cell_length_a   5.80034086
_cell_length_b   5.80034158
_cell_length_c   14.30015132
_cell_angle_alpha   90.00000000
_cell_angle_beta   90.00000000
_cell_angle_gamma   119.43082742
_symmetry_Int_Tables_number   1
_chemical_formula_structural   Ba3CoRu2O9
_chemical_formula_sum   'Ba6 Co2 Ru4 O18'
_cell_volume   419.02576031
_cell_formula_units_Z   2
loop_
 _symmetry_equiv_pos_site_id
 _symmetry_equiv_pos_as_xyz
  1  'x, y, z'
loop_
 _atom_site_type_symbol
 _atom_site_label
 _atom_site_symmetry_multiplicity
 _atom_site_fract_x
 _atom_site_fract_y
 _atom_site_fract_z
 _atom_site_occupancy
  Ba  Ba0  1  0.00311137  0.99688863  0.75000000  1
  Ba  Ba1  1  0.99688863  0.00311137  0.25000000  1
  Ba  Ba2  1  0.33513159  0.66486841  0.91021537  1
  Ba  Ba3  1  0.66486841  0.33513159  0.41021537  1
  Ba  Ba4  1  0.66486841  0.33513159  0.08978463  1
  Ba  Ba5  1  0.33513159  0.66486841  0.58978463  1
  Co  Co6  1  0.00000000  0.00000000  0.00000000  1
  Co  Co7  1  0.00000000  0.00000000  0.50000000  1
  Ru  Ru8  1  0.33045232  0.66954768  0.15329228  1
  Ru  Ru9  1  0.66954768  0.33045232  0.65329228  1
  Ru  Ru10  1  0.66954768  0.33045232  0.84670772  1
  Ru  Ru11  1  0.33045232  0.66954768  0.34670772  1
  O  O12  1  0.51797530  0.48202470  0.75000000  1
  O  O13  1  0.48202470  0.51797530  0.25000000  1
  O  O14  1  0.51950957  0.02832449  0.75000000  1
  O  O15  1  0.48049043  0.97167551  0.25000000  1
  O  O16  1  0.02832449  0.51950957  0.25000000  1
  O  O17  1  0.97167551  0.48049043  0.75000000  1
  O  O18  1  0.83610751  0.16389249  0.91943207  1
  O  O19  1  0.16389249  0.83610751  0.41943207  1
  O  O20  1  0.16389249  0.83610751  0.08056793  1
  O  O21  1  0.83610751  0.16389249  0.58056793  1
  O  O22  1  0.34278426  0.16766903  0.91839870  1
  O  O23  1  0.65721574  0.83233097  0.41839870  1
  O  O24  1  0.16766903  0.34278426  0.08160130  1
  O  O25  1  0.83233097  0.65721574  0.58160130  1
  O  O26  1  0.65721574  0.83233097  0.08160130  1
  O  O27  1  0.34278426  0.16766903  0.58160130  1
  O  O28  1  0.83233097  0.65721574  0.91839870  1
  O  O29  1  0.16766903  0.34278426  0.41839870  1
