# generated using pymatgen
data_YbCrO4
_symmetry_space_group_name_H-M   'P 1'
_cell_length_a   5.99130903
_cell_length_b   5.99130903
_cell_length_c   5.99130903
_cell_angle_alpha   105.59111992
_cell_angle_beta   105.59111994
_cell_angle_gamma   117.54589128
_symmetry_Int_Tables_number   1
_chemical_formula_structural   YbCrO4
_chemical_formula_sum   'Yb2 Cr2 O8'
_cell_volume   163.05708376
_cell_formula_units_Z   2
loop_
 _symmetry_equiv_pos_site_id
 _symmetry_equiv_pos_as_xyz
  1  'x, y, z'
loop_
 _atom_site_type_symbol
 _atom_site_label
 _atom_site_symmetry_multiplicity
 _atom_site_fract_x
 _atom_site_fract_y
 _atom_site_fract_z
 _atom_site_occupancy
  O  O0  1  0.78979712  0.72083929  0.43104217  1
  O  O1  1  0.35875495  0.78979712  0.56895783  1
  O  O2  1  0.72083929  0.78979712  0.93104217  1
  O  O3  1  0.78979712  0.35875495  0.06895783  1
  O  O4  1  0.64124505  0.21020288  0.43104217  1
  O  O5  1  0.21020288  0.27916071  0.56895783  1
  O  O6  1  0.21020288  0.64124505  0.93104217  1
  O  O7  1  0.27916071  0.21020288  0.06895783  1
  Cr  Cr8  1  0.37500000  0.62500000  0.75000000  1
  Cr  Cr9  1  0.62500000  0.37500000  0.25000000  1
  Yb  Yb10  1  0.12500000  0.87500000  0.25000000  1
  Yb  Yb11  1  0.87500000  0.12500000  0.75000000  1
