# generated using pymatgen
data_HoMnO3
_symmetry_space_group_name_H-M   'P 1'
_cell_length_a   6.19824871
_cell_length_b   6.19824871
_cell_length_c   11.53951941
_cell_angle_alpha   90.00000000
_cell_angle_beta   90.00000000
_cell_angle_gamma   120.00000005
_symmetry_Int_Tables_number   1
_chemical_formula_structural   HoMnO3
_chemical_formula_sum   'Ho6 Mn6 O18'
_cell_volume   383.93380315
_cell_formula_units_Z   6
loop_
 _symmetry_equiv_pos_site_id
 _symmetry_equiv_pos_as_xyz
  1  'x, y, z'
loop_
 _atom_site_type_symbol
 _atom_site_label
 _atom_site_symmetry_multiplicity
 _atom_site_fract_x
 _atom_site_fract_y
 _atom_site_fract_z
 _atom_site_occupancy
  O  O0  1  0.66666667  0.33333333  0.02025308  1
  O  O1  1  0.33333333  0.66666667  0.52025308  1
  O  O2  1  0.66666667  0.33333333  0.52025308  1
  O  O3  1  0.33333333  0.66666667  0.02025308  1
  O  O4  1  0.00000000  0.00000000  0.97440558  1
  O  O5  1  0.00000000  0.00000000  0.47440558  1
  O  O6  1  0.35923417  0.00000000  0.83441057  1
  O  O7  1  0.35923417  0.35923417  0.33441057  1
  O  O8  1  0.00000000  0.64076583  0.33441057  1
  O  O9  1  0.00000000  0.35923417  0.83441057  1
  O  O10  1  0.64076583  0.64076583  0.83441057  1
  O  O11  1  0.64076583  0.00000000  0.33441057  1
  O  O12  1  0.30703038  0.00000000  0.16422288  1
  O  O13  1  0.30703038  0.30703038  0.66422288  1
  O  O14  1  0.00000000  0.69296962  0.66422288  1
  O  O15  1  0.00000000  0.30703038  0.16422288  1
  O  O16  1  0.69296962  0.69296962  0.16422288  1
  O  O17  1  0.69296962  0.00000000  0.66422288  1
  Mn  Mn18  1  0.66653276  0.00000000  0.49919432  1
  Mn  Mn19  1  0.66653276  0.66653276  0.99919432  1
  Mn  Mn20  1  0.00000000  0.33346724  0.99919432  1
  Mn  Mn21  1  0.00000000  0.66653276  0.49919432  1
  Mn  Mn22  1  0.33346724  0.33346724  0.49919432  1
  Mn  Mn23  1  0.33346724  0.00000000  0.99919432  1
  Ho  Ho24  1  0.66666667  0.33333333  0.23029382  1
  Ho  Ho25  1  0.33333333  0.66666667  0.73029382  1
  Ho  Ho26  1  0.66666667  0.33333333  0.73029382  1
  Ho  Ho27  1  0.33333333  0.66666667  0.23029382  1
  Ho  Ho28  1  0.00000000  0.00000000  0.77401732  1
  Ho  Ho29  1  0.00000000  0.00000000  0.27401732  1
