# generated using pymatgen
data_Si2BiO6
_symmetry_space_group_name_H-M   'P 1'
_cell_length_a   5.46262554
_cell_length_b   7.00860885
_cell_length_c   7.00860850
_cell_angle_alpha   86.13613272
_cell_angle_beta   75.90364329
_cell_angle_gamma   75.90364335
_symmetry_Int_Tables_number   1
_chemical_formula_structural   Si2BiO6
_chemical_formula_sum   'Si4 Bi2 O12'
_cell_volume   252.40142894
_cell_formula_units_Z   2
loop_
 _symmetry_equiv_pos_site_id
 _symmetry_equiv_pos_as_xyz
  1  'x, y, z'
loop_
 _atom_site_type_symbol
 _atom_site_label
 _atom_site_symmetry_multiplicity
 _atom_site_fract_x
 _atom_site_fract_y
 _atom_site_fract_z
 _atom_site_occupancy
  Si  Si0  1  0.23186503  0.22138536  0.37472640  1
  Si  Si1  1  0.26813698  0.62527274  0.77861279  1
  Si  Si2  1  0.73186503  0.37472640  0.22138536  1
  Si  Si3  1  0.76813798  0.77861279  0.62527274  1
  Bi  Bi4  1  0.25000161  0.12926640  0.87073068  1
  Bi  Bi5  1  0.75000161  0.87073168  0.12926540  1
  O  O6  1  0.46443698  0.33580296  0.36823036  1
  O  O7  1  0.03556816  0.63177024  0.66419318  1
  O  O8  1  0.53556916  0.66419318  0.63177124  1
  O  O9  1  0.96443598  0.36823136  0.33580196  1
  O  O10  1  0.17385216  0.10704187  0.58407471  1
  O  O11  1  0.32613761  0.41592882  0.89296514  1
  O  O12  1  0.82613761  0.89296614  0.41592982  1
  O  O13  1  0.67385116  0.58407471  0.10704287  1
  O  O14  1  0.84005340  0.18898281  0.06119460  1
  O  O15  1  0.65994607  0.93880015  0.81101978  1
  O  O16  1  0.34005240  0.06119460  0.18898381  1
  O  O17  1  0.15994707  0.81102078  0.93880015  1
