# generated using pymatgen
data_HoVO3
_symmetry_space_group_name_H-M   'P 1'
_cell_length_a   5.31062637
_cell_length_b   5.73114246
_cell_length_c   7.62643324
_cell_angle_alpha   90.00000000
_cell_angle_beta   90.00000000
_cell_angle_gamma   90.00000000
_symmetry_Int_Tables_number   1
_chemical_formula_structural   HoVO3
_chemical_formula_sum   'Ho4 V4 O12'
_cell_volume   232.11778865
_cell_formula_units_Z   4
loop_
 _symmetry_equiv_pos_site_id
 _symmetry_equiv_pos_as_xyz
  1  'x, y, z'
loop_
 _atom_site_type_symbol
 _atom_site_label
 _atom_site_symmetry_multiplicity
 _atom_site_fract_x
 _atom_site_fract_y
 _atom_site_fract_z
 _atom_site_occupancy
  O  O0  1  0.19332378  0.31227575  0.43952963  1
  O  O1  1  0.69332378  0.18772425  0.56047037  1
  O  O2  1  0.30667622  0.81227575  0.06047037  1
  O  O3  1  0.80667622  0.68772425  0.93952963  1
  O  O4  1  0.80667622  0.68772425  0.56047037  1
  O  O5  1  0.30667622  0.81227575  0.43952963  1
  O  O6  1  0.69332378  0.18772425  0.93952963  1
  O  O7  1  0.19332378  0.31227575  0.06047037  1
  O  O8  1  0.87869507  0.95139283  0.25000000  1
  O  O9  1  0.37869507  0.54860717  0.75000000  1
  O  O10  1  0.62130493  0.45139283  0.25000000  1
  O  O11  1  0.12130493  0.04860717  0.75000000  1
  V  V12  1  0.00000000  0.00000000  0.50000000  1
  V  V13  1  0.50000000  0.50000000  0.50000000  1
  V  V14  1  0.50000000  0.50000000  0.00000000  1
  V  V15  1  0.00000000  0.00000000  0.00000000  1
  Ho  Ho16  1  0.97935449  0.42904469  0.75000000  1
  Ho  Ho17  1  0.47935449  0.07095531  0.25000000  1
  Ho  Ho18  1  0.52064551  0.92904469  0.75000000  1
  Ho  Ho19  1  0.02064551  0.57095531  0.25000000  1
