# generated using pymatgen
data_CdMoO4
_symmetry_space_group_name_H-M   'P 1'
_cell_length_a   5.25476511
_cell_length_b   5.25514389
_cell_length_c   6.81010114
_cell_angle_alpha   112.70084544
_cell_angle_beta   112.70059066
_cell_angle_gamma   89.98877671
_symmetry_Int_Tables_number   1
_chemical_formula_structural   CdMoO4
_chemical_formula_sum   'Cd2 Mo2 O8'
_cell_volume   157.58681880
_cell_formula_units_Z   2
loop_
 _symmetry_equiv_pos_site_id
 _symmetry_equiv_pos_as_xyz
  1  'x, y, z'
loop_
 _atom_site_type_symbol
 _atom_site_label
 _atom_site_symmetry_multiplicity
 _atom_site_fract_x
 _atom_site_fract_y
 _atom_site_fract_z
 _atom_site_occupancy
  O  O0  1  0.20537588  0.55537352  0.92230307  1
  O  O1  1  0.36705580  0.70538865  0.42243497  1
  O  O2  1  0.05537822  0.21693740  0.42243054  1
  O  O3  1  0.71697288  0.86699954  0.92239984  1
  O  O4  1  0.28302712  0.13300046  0.07760016  1
  O  O5  1  0.94462178  0.78306260  0.57756946  1
  O  O6  1  0.63294420  0.29461135  0.57756503  1
  O  O7  1  0.79462412  0.44462648  0.07769693  1
  Mo  Mo8  1  0.12507138  0.37500156  0.25009967  1
  Mo  Mo9  1  0.87492862  0.62499844  0.74990033  1
  Cd  Cd10  1  0.62498109  0.87498158  0.24998109  1
  Cd  Cd11  1  0.37501891  0.12501842  0.75001891  1
