# generated using pymatgen
data_Si(NiO2)2
_symmetry_space_group_name_H-M   'P 1'
_cell_length_a   4.77121708
_cell_length_b   5.97122278
_cell_length_c   10.25234917
_cell_angle_alpha   90.00000000
_cell_angle_beta   90.00000000
_cell_angle_gamma   90.00000000
_symmetry_Int_Tables_number   1
_chemical_formula_structural   Si(NiO2)2
_chemical_formula_sum   'Si4 Ni8 O16'
_cell_volume   292.08942905
_cell_formula_units_Z   4
loop_
 _symmetry_equiv_pos_site_id
 _symmetry_equiv_pos_as_xyz
  1  'x, y, z'
loop_
 _atom_site_type_symbol
 _atom_site_label
 _atom_site_symmetry_multiplicity
 _atom_site_fract_x
 _atom_site_fract_y
 _atom_site_fract_z
 _atom_site_occupancy
  O  O0  1  0.22529124  0.47005844  0.66293037  1
  O  O1  1  0.72529038  0.52994134  0.83706919  1
  O  O2  1  0.77470915  0.97006002  0.33706901  1
  O  O3  1  0.27471001  0.02994145  0.16293117  1
  O  O4  1  0.77470915  0.52994134  0.33706901  1
  O  O5  1  0.27471001  0.47005844  0.16293117  1
  O  O6  1  0.22529124  0.02994145  0.66293037  1
  O  O7  1  0.72529038  0.97006002  0.83706919  1
  O  O8  1  0.71718533  0.74999984  0.05479414  1
  O  O9  1  0.21718619  0.24999995  0.44520604  1
  O  O10  1  0.28281505  0.24999995  0.94520622  1
  O  O11  1  0.78281419  0.74999984  0.55479432  1
  O  O12  1  0.23060448  0.74999984  0.90616505  1
  O  O13  1  0.73060362  0.24999995  0.59383450  1
  O  O14  1  0.26939466  0.74999984  0.40616488  1
  O  O15  1  0.76939591  0.24999995  0.09383530  1
  Si  Si16  1  0.92701462  0.74999984  0.40590997  1
  Si  Si17  1  0.42701338  0.24999995  0.09409021  1
  Si  Si18  1  0.07298576  0.24999995  0.59409039  1
  Si  Si19  1  0.57298490  0.74999984  0.90590917  1
  Ni  Ni20  1  0.50645733  0.24999995  0.77347013  1
  Ni  Ni21  1  0.99354220  0.24999995  0.27346995  1
  Ni  Ni22  1  0.49354095  0.74999984  0.22653023  1
  Ni  Ni23  1  0.00645819  0.74999984  0.72652943  1
  Ni  Ni24  1  0.49999914  0.49999989  0.50000018  1
  Ni  Ni25  1  0.00000000  0.49999989  0.00000000  1
  Ni  Ni26  1  0.49999914  0.00000000  0.50000018  1
  Ni  Ni27  1  0.00000000  0.00000000  0.00000000  1
