# generated using pymatgen
data_Ba2VO4
_symmetry_space_group_name_H-M   'P 1'
_cell_length_a   6.26029933
_cell_length_b   7.79491651
_cell_length_c   10.49023479
_cell_angle_alpha   90.00000000
_cell_angle_beta   94.48578615
_cell_angle_gamma   90.00000000
_symmetry_Int_Tables_number   1
_chemical_formula_structural   Ba2VO4
_chemical_formula_sum   'Ba8 V4 O16'
_cell_volume   510.33974093
_cell_formula_units_Z   4
loop_
 _symmetry_equiv_pos_site_id
 _symmetry_equiv_pos_as_xyz
  1  'x, y, z'
loop_
 _atom_site_type_symbol
 _atom_site_label
 _atom_site_symmetry_multiplicity
 _atom_site_fract_x
 _atom_site_fract_y
 _atom_site_fract_z
 _atom_site_occupancy
  O  O0  1  0.50780946  0.75339520  0.17380729  1
  O  O1  1  0.99219054  0.25339520  0.32619271  1
  O  O2  1  0.49219054  0.24660480  0.82619271  1
  O  O3  1  0.00780946  0.74660480  0.67380729  1
  O  O4  1  0.99231713  0.82679698  0.13342644  1
  O  O5  1  0.50768287  0.32679698  0.36657356  1
  O  O6  1  0.00768287  0.17320302  0.86657356  1
  O  O7  1  0.49231713  0.67320302  0.63342644  1
  O  O8  1  0.66992466  0.82515827  0.92676567  1
  O  O9  1  0.83007534  0.32515827  0.57323433  1
  O  O10  1  0.33007534  0.17484173  0.07323433  1
  O  O11  1  0.16992466  0.67484173  0.42676567  1
  O  O12  1  0.29749382  0.00711203  0.57835919  1
  O  O13  1  0.20250618  0.50711203  0.92164081  1
  O  O14  1  0.70250618  0.99288797  0.42164081  1
  O  O15  1  0.79749382  0.49288797  0.07835919  1
  V  V16  1  0.74035787  0.71984699  0.08193580  1
  V  V17  1  0.75964213  0.21984699  0.41806420  1
  V  V18  1  0.25964213  0.28015301  0.91806420  1
  V  V19  1  0.24035787  0.78015301  0.58193580  1
  Ba  Ba20  1  0.77935449  0.50486180  0.80180139  1
  Ba  Ba21  1  0.72064551  0.00486180  0.69819861  1
  Ba  Ba22  1  0.22064551  0.49513820  0.19819861  1
  Ba  Ba23  1  0.27935449  0.99513820  0.30180139  1
  Ba  Ba24  1  0.76162863  0.15857422  0.07288221  1
  Ba  Ba25  1  0.73837137  0.65857422  0.42711779  1
  Ba  Ba26  1  0.23837137  0.84142578  0.92711779  1
  Ba  Ba27  1  0.26162863  0.34142578  0.57288221  1
