# generated using pymatgen
data_UCoO4
_symmetry_space_group_name_H-M   'P 1'
_cell_length_a   5.82812624
_cell_length_b   5.82812625
_cell_length_c   5.82812625
_cell_angle_alpha   106.18319234
_cell_angle_beta   111.07424242
_cell_angle_gamma   111.20544985
_symmetry_Int_Tables_number   1
_chemical_formula_structural   UCoO4
_chemical_formula_sum   'U2 Co2 O8'
_cell_volume   152.01912977
_cell_formula_units_Z   2
loop_
 _symmetry_equiv_pos_site_id
 _symmetry_equiv_pos_as_xyz
  1  'x, y, z'
loop_
 _atom_site_type_symbol
 _atom_site_label
 _atom_site_symmetry_multiplicity
 _atom_site_fract_x
 _atom_site_fract_y
 _atom_site_fract_z
 _atom_site_occupancy
  O  O0  1  0.19409975  0.71110889  0.51700914  1
  O  O1  1  0.19409975  0.17709061  0.98299086  1
  O  O2  1  0.80590025  0.28889111  0.48299086  1
  O  O3  1  0.80590025  0.82290939  0.01700914  1
  O  O4  1  0.67875332  0.72774457  0.45100875  1
  O  O5  1  0.27673582  0.72774457  0.04899125  1
  O  O6  1  0.72326418  0.27225543  0.95100875  1
  O  O7  1  0.32124668  0.27225543  0.54899125  1
  Co  Co8  1  0.50000000  0.50000000  0.00000000  1
  Co  Co9  1  0.50000000  0.00000000  0.50000000  1
  U  U10  1  0.97683512  0.72683512  0.75000000  1
  U  U11  1  0.02316488  0.27316488  0.25000000  1
