# generated using pymatgen
data_K2SrV4O12
_symmetry_space_group_name_H-M   'P 1'
_cell_length_a   5.44315328
_cell_length_b   11.09957238
_cell_length_c   11.09957238
_cell_angle_alpha   90.00000000
_cell_angle_beta   90.00000000
_cell_angle_gamma   90.00000000
_symmetry_Int_Tables_number   1
_chemical_formula_structural   K2SrV4O12
_chemical_formula_sum   'K4 Sr2 V8 O24'
_cell_volume   670.59924388
_cell_formula_units_Z   2
loop_
 _symmetry_equiv_pos_site_id
 _symmetry_equiv_pos_as_xyz
  1  'x, y, z'
loop_
 _atom_site_type_symbol
 _atom_site_label
 _atom_site_symmetry_multiplicity
 _atom_site_fract_x
 _atom_site_fract_y
 _atom_site_fract_z
 _atom_site_occupancy
  O  O0  1  0.23785389  0.55520537  0.70533514  1
  O  O1  1  0.23785389  0.94479463  0.79466486  1
  O  O2  1  0.23785389  0.70533514  0.94479463  1
  O  O3  1  0.23785389  0.79466486  0.55520537  1
  O  O4  1  0.76214611  0.70533514  0.55520537  1
  O  O5  1  0.76214611  0.94479463  0.70533514  1
  O  O6  1  0.76214611  0.55520537  0.79466486  1
  O  O7  1  0.76214611  0.79466486  0.94479463  1
  O  O8  1  0.76214611  0.44479463  0.29466486  1
  O  O9  1  0.76214611  0.05520537  0.20533514  1
  O  O10  1  0.76214611  0.29466486  0.05520537  1
  O  O11  1  0.76214611  0.20533514  0.44479463  1
  O  O12  1  0.23785389  0.29466486  0.44479463  1
  O  O13  1  0.23785389  0.05520537  0.29466486  1
  O  O14  1  0.10236335  0.62555153  0.37444847  1
  O  O15  1  0.10236335  0.12555153  0.62555153  1
  O  O16  1  0.10236335  0.37444847  0.87444847  1
  O  O17  1  0.10236335  0.87444847  0.12555153  1
  O  O18  1  0.89763665  0.62555153  0.12555153  1
  O  O19  1  0.89763665  0.87444847  0.37444847  1
  O  O20  1  0.89763665  0.37444847  0.62555153  1
  O  O21  1  0.89763665  0.12555153  0.87444847  1
  O  O22  1  0.23785389  0.20533514  0.05520537  1
  O  O23  1  0.23785389  0.44479463  0.20533514  1
  K  K24  1  0.50000000  0.00000000  0.00000000  1
  K  K25  1  0.50000000  0.50000000  0.00000000  1
  K  K26  1  0.50000000  0.00000000  0.50000000  1
  K  K27  1  0.50000000  0.50000000  0.50000000  1
  V  V28  1  0.00000000  0.25000000  0.96993113  1
  V  V29  1  0.00000000  0.53006887  0.25000000  1
  V  V30  1  0.00000000  0.25000000  0.53006887  1
  V  V31  1  0.00000000  0.03006887  0.75000000  1
  V  V32  1  0.00000000  0.75000000  0.03006887  1
  V  V33  1  0.00000000  0.75000000  0.46993113  1
  V  V34  1  0.00000000  0.46993113  0.75000000  1
  V  V35  1  0.00000000  0.96993113  0.25000000  1
  Sr  Sr36  1  0.50000000  0.75000000  0.75000000  1
  Sr  Sr37  1  0.50000000  0.25000000  0.25000000  1
