# generated using pymatgen
data_Mg3Si4(NiO7)2
_symmetry_space_group_name_H-M   'P 1'
_cell_length_a   7.45195750
_cell_length_b   9.28959350
_cell_length_c   9.24079760
_cell_angle_alpha   62.88850648
_cell_angle_beta   66.22101637
_cell_angle_gamma   66.35355532
_symmetry_Int_Tables_number   1
_chemical_formula_structural   Mg3Si4(NiO7)2
_chemical_formula_sum   'Mg6 Si8 Ni4 O28'
_cell_volume   502.18159141
_cell_formula_units_Z   2
loop_
 _symmetry_equiv_pos_site_id
 _symmetry_equiv_pos_as_xyz
  1  'x, y, z'
loop_
 _atom_site_type_symbol
 _atom_site_label
 _atom_site_symmetry_multiplicity
 _atom_site_fract_x
 _atom_site_fract_y
 _atom_site_fract_z
 _atom_site_occupancy
  Mg  Mg0  1  0.90552400  0.89878770  0.44644782  1
  Mg  Mg1  1  0.25075953  0.60121230  0.05355218  1
  Mg  Mg2  1  0.74924047  0.39878770  0.94644782  1
  Mg  Mg3  1  0.62182637  0.25000000  0.75000000  1
  Mg  Mg4  1  0.09447600  0.10121230  0.55355218  1
  Mg  Mg5  1  0.37817363  0.75000000  0.25000000  1
  Si  Si6  1  0.46279946  0.29420154  0.34173897  1
  Si  Si7  1  0.90125903  0.79420154  0.84173897  1
  Si  Si8  1  0.46779894  0.89875154  0.86116102  1
  Si  Si9  1  0.77228950  0.39875154  0.36116102  1
  Si  Si10  1  0.09874097  0.20579846  0.15826103  1
  Si  Si11  1  0.53220106  0.10124846  0.13883898  1
  Si  Si12  1  0.22771050  0.60124846  0.63883898  1
  Si  Si13  1  0.53720054  0.70579846  0.65826103  1
  Ni  Ni14  1  0.21874237  0.25000000  0.75000000  1
  Ni  Ni15  1  0.78125763  0.75000000  0.25000000  1
  Ni  Ni16  1  0.00000000  0.00000000  0.00000000  1
  Ni  Ni17  1  0.00000000  0.50000000  0.50000000  1
  O  O18  1  0.14936790  0.67446326  0.46842230  1
  O  O19  1  0.02039703  0.58209192  0.27485599  1
  O  O20  1  0.53885023  0.90955265  0.18407789  1
  O  O21  1  0.12265505  0.08209192  0.77485599  1
  O  O22  1  0.75839179  0.69399076  0.51841289  1
  O  O23  1  0.94236695  0.38229076  0.18426536  1
  O  O24  1  0.36751823  0.40955265  0.68407789  1
  O  O25  1  0.97079544  0.80600924  0.98158711  1
  O  O26  1  0.05763305  0.61770924  0.81573464  1
  O  O27  1  0.35837458  0.73681741  0.57887717  1
  O  O28  1  0.97960297  0.41790808  0.72514401  1
  O  O29  1  0.24160821  0.30600924  0.48158711  1
  O  O30  1  0.50892406  0.11770924  0.31573464  1
  O  O31  1  0.70774553  0.17446326  0.96842230  1
  O  O32  1  0.32593084  0.23681741  0.07887717  1
  O  O33  1  0.02920456  0.19399076  0.01841289  1
  O  O34  1  0.08996443  0.05459352  0.33846885  1
  O  O35  1  0.64162542  0.26318259  0.42112283  1
  O  O36  1  0.48302579  0.44540648  0.16153115  1
  O  O37  1  0.67406916  0.76318259  0.92112283  1
  O  O38  1  0.49107594  0.88229076  0.68426536  1
  O  O39  1  0.87734495  0.91790808  0.22514401  1
  O  O40  1  0.51697421  0.55459352  0.83846885  1
  O  O41  1  0.46114977  0.09044735  0.81592211  1
  O  O42  1  0.91003557  0.94540648  0.66153115  1
  O  O43  1  0.63248177  0.59044735  0.31592211  1
  O  O44  1  0.29225447  0.82553674  0.03157770  1
  O  O45  1  0.85063210  0.32553674  0.53157770  1
