# generated using pymatgen
data_Na3Co2SbO6
_symmetry_space_group_name_H-M   'P 1'
_cell_length_a   5.41979946
_cell_length_b   5.41979946
_cell_length_c   5.71428834
_cell_angle_alpha   99.12332597
_cell_angle_beta   99.12332592
_cell_angle_gamma   120.04574301
_symmetry_Int_Tables_number   1
_chemical_formula_structural   Na3Co2SbO6
_chemical_formula_sum   'Na3 Co2 Sb1 O6'
_cell_volume   137.78758578
_cell_formula_units_Z   1
loop_
 _symmetry_equiv_pos_site_id
 _symmetry_equiv_pos_as_xyz
  1  'x, y, z'
loop_
 _atom_site_type_symbol
 _atom_site_label
 _atom_site_symmetry_multiplicity
 _atom_site_fract_x
 _atom_site_fract_y
 _atom_site_fract_z
 _atom_site_occupancy
  O  O0  1  0.06728795  0.38300706  0.20550544  1
  O  O1  1  0.24564554  0.24564512  0.79466532  1
  O  O2  1  0.75435443  0.75435387  0.20533536  1
  O  O3  1  0.38300564  0.06728793  0.20550522  1
  O  O4  1  0.61699433  0.93271107  0.79449370  1
  O  O5  1  0.93271131  0.61699417  0.79449372  1
  Na  Na6  1  0.49999998  0.49999950  0.49999946  1
  Na  Na7  1  0.17482841  0.82517203  0.49999961  1
  Na  Na8  1  0.82517085  0.17482920  0.49999955  1
  Co  Co9  1  0.33434012  0.66565956  0.99999943  1
  Co  Co10  1  0.66565992  0.33433980  0.99999944  1
  Sb  Sb11  1  0.00000000  0.00000000  0.00000000  1
