# generated using pymatgen
data_Na2Mn3O7
_symmetry_space_group_name_H-M   'P 1'
_cell_length_a   6.83045989
_cell_length_b   6.84593243
_cell_length_c   7.71388848
_cell_angle_alpha   103.51181804
_cell_angle_beta   109.43773313
_cell_angle_gamma   111.06188493
_symmetry_Int_Tables_number   1
_chemical_formula_structural   Na2Mn3O7
_chemical_formula_sum   'Na4 Mn6 O14'
_cell_volume   290.72919362
_cell_formula_units_Z   2
loop_
 _symmetry_equiv_pos_site_id
 _symmetry_equiv_pos_as_xyz
  1  'x, y, z'
loop_
 _atom_site_type_symbol
 _atom_site_label
 _atom_site_symmetry_multiplicity
 _atom_site_fract_x
 _atom_site_fract_y
 _atom_site_fract_z
 _atom_site_occupancy
  O  O0  1  0.54673421  0.35497666  0.72312149  1
  O  O1  1  0.45326579  0.64502334  0.27687851  1
  O  O2  1  0.87748986  0.05720844  0.58507893  1
  O  O3  1  0.12251014  0.94279156  0.41492107  1
  O  O4  1  0.31134665  0.48996045  0.86642724  1
  O  O5  1  0.68865335  0.51003955  0.13357276  1
  O  O6  1  0.87171500  0.68260433  0.56421439  1
  O  O7  1  0.12828500  0.31739567  0.43578561  1
  O  O8  1  0.97141038  0.79287056  0.98184836  1
  O  O9  1  0.02858962  0.20712944  0.01815164  1
  O  O10  1  0.38551866  0.19686791  0.24469401  1
  O  O11  1  0.61448134  0.80313209  0.75530599  1
  O  O12  1  0.73771017  0.91383947  0.15265500  1
  O  O13  1  0.26228983  0.08616053  0.84734500  1
  Na  Na14  1  0.26697358  0.68471531  0.47733028  1
  Na  Na15  1  0.73302642  0.31528469  0.52266972  1
  Na  Na16  1  0.33549116  0.82704419  0.06378694  1
  Na  Na17  1  0.66450884  0.17295581  0.93621306  1
  Mn  Mn18  1  0.92375527  0.92178024  0.77980891  1
  Mn  Mn19  1  0.07624473  0.07821976  0.22019109  1
  Mn  Mn20  1  0.35743513  0.36008852  0.07967508  1
  Mn  Mn21  1  0.64256487  0.63991148  0.92032492  1
  Mn  Mn22  1  0.21977469  0.21849054  0.64152673  1
  Mn  Mn23  1  0.78022531  0.78150946  0.35847327  1
