# generated using pymatgen
data_BaMg2V2O8
_symmetry_space_group_name_H-M   'P 1'
_cell_length_a   8.61763299
_cell_length_b   9.90113222
_cell_length_c   9.90113222
_cell_angle_alpha   79.08308651
_cell_angle_beta   64.20298340
_cell_angle_gamma   64.20298338
_symmetry_Int_Tables_number   1
_chemical_formula_structural   BaMg2V2O8
_chemical_formula_sum   'Ba4 Mg8 V8 O32'
_cell_volume   684.81330189
_cell_formula_units_Z   4
loop_
 _symmetry_equiv_pos_site_id
 _symmetry_equiv_pos_as_xyz
  1  'x, y, z'
loop_
 _atom_site_type_symbol
 _atom_site_label
 _atom_site_symmetry_multiplicity
 _atom_site_fract_x
 _atom_site_fract_y
 _atom_site_fract_z
 _atom_site_occupancy
  O  O0  1  0.34656565  0.58550989  0.40937404  1
  O  O1  1  0.34144959  0.91449011  0.09062596  1
  O  O2  1  0.25593969  0.09062596  0.58550989  1
  O  O3  1  0.93207554  0.40937404  0.91449011  1
  O  O4  1  0.15343435  0.09062596  0.91449011  1
  O  O5  1  0.56792446  0.58550989  0.09062596  1
  O  O6  1  0.24406031  0.91449011  0.40937404  1
  O  O7  1  0.15855041  0.40937404  0.58550989  1
  O  O8  1  0.65343435  0.41449011  0.59062596  1
  O  O9  1  0.65855041  0.08550989  0.90937404  1
  O  O10  1  0.74406031  0.90937404  0.41449011  1
  O  O11  1  0.06792446  0.59062596  0.08550989  1
  O  O12  1  0.84656565  0.90937404  0.08550989  1
  O  O13  1  0.43207554  0.41449011  0.90937404  1
  O  O14  1  0.75593969  0.08550989  0.59062596  1
  O  O15  1  0.84144959  0.59062596  0.41449011  1
  O  O16  1  0.72548048  0.23100041  0.08643313  1
  O  O17  1  0.04291402  0.26899959  0.41356687  1
  O  O18  1  0.31191361  0.41356687  0.23100041  1
  O  O19  1  0.95648089  0.08643313  0.26899959  1
  O  O20  1  0.54291402  0.91356687  0.76899959  1
  O  O21  1  0.81191361  0.73100041  0.91356687  1
  O  O22  1  0.45648089  0.76899959  0.58643313  1
  O  O23  1  0.22548048  0.58643313  0.73100041  1
  O  O24  1  0.04351911  0.91356687  0.73100041  1
  O  O25  1  0.68808639  0.58643313  0.76899959  1
  O  O26  1  0.95708598  0.73100041  0.58643313  1
  O  O27  1  0.27451952  0.76899959  0.91356687  1
  O  O28  1  0.45708598  0.08643313  0.23100041  1
  O  O29  1  0.18808639  0.26899959  0.08643313  1
  O  O30  1  0.54351911  0.23100041  0.41356687  1
  O  O31  1  0.77451952  0.41356687  0.26899959  1
  Mg  Mg32  1  0.04312643  0.75000000  0.91374713  1
  Mg  Mg33  1  0.45687357  0.58625287  0.75000000  1
  Mg  Mg34  1  0.79312643  0.91374713  0.75000000  1
  Mg  Mg35  1  0.70687357  0.75000000  0.58625287  1
  Mg  Mg36  1  0.95687357  0.25000000  0.08625287  1
  Mg  Mg37  1  0.54312643  0.41374713  0.25000000  1
  Mg  Mg38  1  0.20687357  0.08625287  0.25000000  1
  Mg  Mg39  1  0.29312643  0.25000000  0.41374713  1
  V  V40  1  0.83089310  0.41910690  0.41910690  1
  V  V41  1  0.75000000  0.08089310  0.41910690  1
  V  V42  1  0.25000000  0.41910690  0.08089310  1
  V  V43  1  0.66910690  0.08089310  0.08089310  1
  V  V44  1  0.16910690  0.58089310  0.58089310  1
  V  V45  1  0.25000000  0.91910690  0.58089310  1
  V  V46  1  0.75000000  0.58089310  0.91910690  1
  V  V47  1  0.33089310  0.91910690  0.91910690  1
  Ba  Ba48  1  0.12500000  0.75000000  0.25000000  1
  Ba  Ba49  1  0.87500000  0.25000000  0.75000000  1
  Ba  Ba50  1  0.62500000  0.75000000  0.25000000  1
  Ba  Ba51  1  0.37500000  0.25000000  0.75000000  1
