# generated using pymatgen
data_NaVO3
_symmetry_space_group_name_H-M   'P 1'
_cell_length_a   6.01635140
_cell_length_b   7.32036272
_cell_length_c   7.32036272
_cell_angle_alpha   84.00288652
_cell_angle_beta   75.06110830
_cell_angle_gamma   75.06110823
_symmetry_Int_Tables_number   1
_chemical_formula_structural   NaVO3
_chemical_formula_sum   'Na4 V4 O12'
_cell_volume   300.72747864
_cell_formula_units_Z   4
loop_
 _symmetry_equiv_pos_site_id
 _symmetry_equiv_pos_as_xyz
  1  'x, y, z'
loop_
 _atom_site_type_symbol
 _atom_site_label
 _atom_site_symmetry_multiplicity
 _atom_site_fract_x
 _atom_site_fract_y
 _atom_site_fract_z
 _atom_site_occupancy
  O  O0  1  0.56125776  0.64656273  0.65332169  1
  O  O1  1  0.06125776  0.65332169  0.64656273  1
  O  O2  1  0.82394799  0.88341392  0.39745087  1
  O  O3  1  0.32394799  0.39745087  0.88341392  1
  O  O4  1  0.66755211  0.97106964  0.77383436  1
  O  O5  1  0.16755211  0.77383436  0.97106964  1
  O  O6  1  0.83047972  0.22670285  0.02948513  1
  O  O7  1  0.33047972  0.02948513  0.22670285  1
  O  O8  1  0.67413889  0.60308940  0.11716403  1
  O  O9  1  0.17413889  0.11716403  0.60308940  1
  O  O10  1  0.93675697  0.34722102  0.35403083  1
  O  O11  1  0.43675697  0.35403083  0.34722102  1
  Na  Na12  1  0.74905105  0.90892965  0.09156172  1
  Na  Na13  1  0.24905105  0.09156172  0.90892965  1
  Na  Na14  1  0.74906019  0.27650147  0.72397656  1
  Na  Na15  1  0.24906019  0.72397656  0.27650147  1
  V  V16  1  0.72540800  0.38056616  0.20543790  1
  V  V17  1  0.22540800  0.20543790  0.38056616  1
  V  V18  1  0.77264732  0.79512341  0.61995665  1
  V  V19  1  0.27264732  0.61995665  0.79512341  1
