# generated using pymatgen
data_Sr2CaMoO6
_symmetry_space_group_name_H-M   'P 1'
_cell_length_a   5.80884895
_cell_length_b   5.95549087
_cell_length_c   8.27723460
_cell_angle_alpha   90.00000000
_cell_angle_beta   90.17434877
_cell_angle_gamma   90.00000000
_symmetry_Int_Tables_number   1
_chemical_formula_structural   Sr2CaMoO6
_chemical_formula_sum   'Sr4 Ca2 Mo2 O12'
_cell_volume   286.34585460
_cell_formula_units_Z   2
loop_
 _symmetry_equiv_pos_site_id
 _symmetry_equiv_pos_as_xyz
  1  'x, y, z'
loop_
 _atom_site_type_symbol
 _atom_site_label
 _atom_site_symmetry_multiplicity
 _atom_site_fract_x
 _atom_site_fract_y
 _atom_site_fract_z
 _atom_site_occupancy
  O  O0  1  0.91417107  0.53014133  0.72721156  1
  O  O1  1  0.58582893  0.03014133  0.77278844  1
  O  O2  1  0.08582893  0.46985867  0.27278844  1
  O  O3  1  0.41417107  0.96985867  0.22721156  1
  O  O4  1  0.81754088  0.76906501  0.44977398  1
  O  O5  1  0.68245912  0.26906501  0.05022602  1
  O  O6  1  0.18245912  0.23093499  0.55022602  1
  O  O7  1  0.31754088  0.73093499  0.94977398  1
  O  O8  1  0.22927717  0.18660949  0.95888518  1
  O  O9  1  0.27072283  0.68660949  0.54111482  1
  O  O10  1  0.77072283  0.81339051  0.04111482  1
  O  O11  1  0.72927717  0.31339051  0.45888518  1
  Ca  Ca12  1  0.50000000  0.00000000  0.50000000  1
  Ca  Ca13  1  0.00000000  0.50000000  0.00000000  1
  Sr  Sr14  1  0.51047393  0.54565646  0.25181294  1
  Sr  Sr15  1  0.98952607  0.04565646  0.24818706  1
  Sr  Sr16  1  0.01047393  0.95434354  0.75181294  1
  Sr  Sr17  1  0.48952607  0.45434354  0.74818706  1
  Mo  Mo18  1  0.50000000  0.00000000  0.00000000  1
  Mo  Mo19  1  0.00000000  0.50000000  0.50000000  1
