# generated using pymatgen
data_CaFeO3
_symmetry_space_group_name_H-M   'P 1'
_cell_length_a   5.38551965
_cell_length_b   5.44670094
_cell_length_c   7.64091812
_cell_angle_alpha   90.00000000
_cell_angle_beta   90.00246084
_cell_angle_gamma   90.00000000
_symmetry_Int_Tables_number   1
_chemical_formula_structural   CaFeO3
_chemical_formula_sum   'Ca4 Fe4 O12'
_cell_volume   224.13345728
_cell_formula_units_Z   4
loop_
 _symmetry_equiv_pos_site_id
 _symmetry_equiv_pos_as_xyz
  1  'x, y, z'
loop_
 _atom_site_type_symbol
 _atom_site_label
 _atom_site_symmetry_multiplicity
 _atom_site_fract_x
 _atom_site_fract_y
 _atom_site_fract_z
 _atom_site_occupancy
  Ca  Ca0  1  0.50780687  0.54158587  0.75000683  1
  Ca  Ca1  1  0.49219313  0.45841413  0.24999317  1
  Ca  Ca2  1  0.99219313  0.04158587  0.74999317  1
  Ca  Ca3  1  0.00780687  0.95841413  0.25000683  1
  Fe  Fe4  1  0.50000000  0.00000000  0.50000000  1
  Fe  Fe5  1  0.50000000  0.00000000  0.00000000  1
  Fe  Fe6  1  0.00000000  0.50000000  0.00000000  1
  Fe  Fe7  1  0.00000000  0.50000000  0.50000000  1
  O  O8  1  0.21011417  0.21103120  0.03844463  1
  O  O9  1  0.21009152  0.21105690  0.46153298  1
  O  O10  1  0.71009152  0.28894310  0.96153298  1
  O  O11  1  0.78990848  0.78894310  0.53846702  1
  O  O12  1  0.28988583  0.71103120  0.46155537  1
  O  O13  1  0.78988583  0.78896880  0.96155537  1
  O  O14  1  0.42650499  0.98265679  0.75002987  1
  O  O15  1  0.92650499  0.51734321  0.25002987  1
  O  O16  1  0.07349501  0.48265679  0.74997013  1
  O  O17  1  0.71011417  0.28896880  0.53844463  1
  O  O18  1  0.28990848  0.71105690  0.03846702  1
  O  O19  1  0.57349501  0.01734321  0.24997013  1
