# generated using pymatgen
data_NdCrO4
_symmetry_space_group_name_H-M   'P 1'
_cell_length_a   6.16762898
_cell_length_b   6.16762898
_cell_length_c   6.16762898
_cell_angle_alpha   105.84779367
_cell_angle_beta   105.84779367
_cell_angle_gamma   116.98996336
_symmetry_Int_Tables_number   1
_chemical_formula_structural   NdCrO4
_chemical_formula_sum   'Nd2 Cr2 O8'
_cell_volume   178.24478573
_cell_formula_units_Z   2
loop_
 _symmetry_equiv_pos_site_id
 _symmetry_equiv_pos_as_xyz
  1  'x, y, z'
loop_
 _atom_site_type_symbol
 _atom_site_label
 _atom_site_symmetry_multiplicity
 _atom_site_fract_x
 _atom_site_fract_y
 _atom_site_fract_z
 _atom_site_occupancy
  O  O0  1  0.79374997  0.72401955  0.43026957  1
  O  O1  1  0.36348040  0.79374997  0.56973043  1
  O  O2  1  0.72401955  0.79374997  0.93026957  1
  O  O3  1  0.79374997  0.36348040  0.06973043  1
  O  O4  1  0.63651960  0.20625003  0.43026957  1
  O  O5  1  0.20625003  0.27598045  0.56973043  1
  O  O6  1  0.20625003  0.63651960  0.93026957  1
  O  O7  1  0.27598045  0.20625003  0.06973043  1
  Cr  Cr8  1  0.37500000  0.62500000  0.75000000  1
  Cr  Cr9  1  0.62500000  0.37500000  0.25000000  1
  Nd  Nd10  1  0.12500000  0.87500000  0.25000000  1
  Nd  Nd11  1  0.87500000  0.12500000  0.75000000  1
