# generated using pymatgen
data_Zn2AgWO6
_symmetry_space_group_name_H-M   'P 1'
_cell_length_a   5.29507546
_cell_length_b   5.22724304
_cell_length_c   8.66899106
_cell_angle_alpha   90.00000000
_cell_angle_beta   87.02837762
_cell_angle_gamma   90.00000000
_symmetry_Int_Tables_number   1
_chemical_formula_structural   Zn2AgWO6
_chemical_formula_sum   'Zn4 Ag2 W2 O12'
_cell_volume   239.62329031
_cell_formula_units_Z   2
loop_
 _symmetry_equiv_pos_site_id
 _symmetry_equiv_pos_as_xyz
  1  'x, y, z'
loop_
 _atom_site_type_symbol
 _atom_site_label
 _atom_site_symmetry_multiplicity
 _atom_site_fract_x
 _atom_site_fract_y
 _atom_site_fract_z
 _atom_site_occupancy
  Zn  Zn0  1  0.02355274  0.01661886  0.25929331  1
  Zn  Zn1  1  0.47644726  0.51661986  0.24070669  1
  Zn  Zn2  1  0.97644826  0.98338214  0.74070669  1
  Zn  Zn3  1  0.52355174  0.48338114  0.75929331  1
  Ag  Ag4  1  0.50000000  0.00000000  0.00000000  1
  Ag  Ag5  1  0.00000100  0.49999900  0.50000000  1
  W  W6  1  0.50000000  0.00000000  0.49999900  1
  W  W7  1  0.00000000  0.49999900  0.00000000  1
  O  O8  1  0.62990731  0.30969537  0.40179773  1
  O  O9  1  0.87009269  0.80969637  0.09820227  1
  O  O10  1  0.37009169  0.69030463  0.59820227  1
  O  O11  1  0.12990831  0.19030363  0.90179773  1
  O  O12  1  0.17665681  0.15488291  0.55993679  1
  O  O13  1  0.32334319  0.65488191  0.94006321  1
  O  O14  1  0.82334419  0.84511709  0.44006321  1
  O  O15  1  0.67665581  0.34511809  0.05993679  1
  O  O16  1  0.12943792  0.37511204  0.19832875  1
  O  O17  1  0.37056308  0.87511304  0.30167025  1
  O  O18  1  0.62943792  0.12488696  0.69832975  1
  O  O19  1  0.87056308  0.62488796  0.80167125  1
