# generated using pymatgen
data_BaCrP2O7
_symmetry_space_group_name_H-M   'P 1'
_cell_length_a   5.43988381
_cell_length_b   7.55666757
_cell_length_c   7.69253703
_cell_angle_alpha   76.78134145
_cell_angle_beta   90.97249898
_cell_angle_gamma   85.53208750
_symmetry_Int_Tables_number   1
_chemical_formula_structural   BaCrP2O7
_chemical_formula_sum   'Ba2 Cr2 P4 O14'
_cell_volume   306.70904542
_cell_formula_units_Z   2
loop_
 _symmetry_equiv_pos_site_id
 _symmetry_equiv_pos_as_xyz
  1  'x, y, z'
loop_
 _atom_site_type_symbol
 _atom_site_label
 _atom_site_symmetry_multiplicity
 _atom_site_fract_x
 _atom_site_fract_y
 _atom_site_fract_z
 _atom_site_occupancy
  O  O0  1  0.45736212  0.77864728  0.60671185  1
  O  O1  1  0.54263788  0.22135272  0.39328815  1
  O  O2  1  0.73214553  0.62503783  0.40927351  1
  O  O3  1  0.26785447  0.37496217  0.59072649  1
  O  O4  1  0.71628616  0.65099300  0.07392655  1
  O  O5  1  0.28371384  0.34900700  0.92607345  1
  O  O6  1  0.77617843  0.51389173  0.74457433  1
  O  O7  1  0.22382157  0.48610827  0.25542567  1
  O  O8  1  0.08400290  0.10992989  0.80029290  1
  O  O9  1  0.91599710  0.89007011  0.19970710  1
  O  O10  1  0.55168066  0.12507272  0.79607580  1
  O  O11  1  0.44831934  0.87492728  0.20392420  1
  O  O12  1  0.08290514  0.17587606  0.40552362  1
  O  O13  1  0.91709486  0.82412394  0.59447638  1
  P  P14  1  0.71820517  0.68455154  0.60114220  1
  P  P15  1  0.28179483  0.31544846  0.39885780  1
  P  P16  1  0.70080299  0.76506020  0.21343189  1
  P  P17  1  0.29919701  0.23493980  0.78656811  1
  Cr  Cr18  1  0.19192979  0.85333091  0.40171472  1
  Cr  Cr19  1  0.80807021  0.14666909  0.59828528  1
  Ba  Ba20  1  0.21081345  0.72322579  0.93161394  1
  Ba  Ba21  1  0.78918655  0.27677421  0.06838606  1
