# generated using pymatgen
data_TbVO4
_symmetry_space_group_name_H-M   'P 1'
_cell_length_a   6.03195080
_cell_length_b   6.03195081
_cell_length_c   6.03195080
_cell_angle_alpha   106.20131871
_cell_angle_beta   106.20131871
_cell_angle_gamma   116.22987147
_symmetry_Int_Tables_number   1
_chemical_formula_structural   TbVO4
_chemical_formula_sum   'Tb2 V2 O8'
_cell_volume   167.16411696
_cell_formula_units_Z   2
loop_
 _symmetry_equiv_pos_site_id
 _symmetry_equiv_pos_as_xyz
  1  'x, y, z'
loop_
 _atom_site_type_symbol
 _atom_site_label
 _atom_site_symmetry_multiplicity
 _atom_site_fract_x
 _atom_site_fract_y
 _atom_site_fract_z
 _atom_site_occupancy
  O  O0  1  0.80049237  0.73459718  0.43410481  1
  O  O1  1  0.36638755  0.80049237  0.56589519  1
  O  O2  1  0.73459718  0.80049237  0.93410481  1
  O  O3  1  0.80049237  0.36638755  0.06589519  1
  O  O4  1  0.63361245  0.19950763  0.43410481  1
  O  O5  1  0.19950763  0.26540282  0.56589519  1
  O  O6  1  0.19950763  0.63361245  0.93410481  1
  O  O7  1  0.26540282  0.19950763  0.06589519  1
  V  V8  1  0.37500000  0.62500000  0.75000000  1
  V  V9  1  0.62500000  0.37500000  0.25000000  1
  Tb  Tb10  1  0.12500000  0.87500000  0.25000000  1
  Tb  Tb11  1  0.87500000  0.12500000  0.75000000  1
