# generated using pymatgen
data_Sr2NiOsO6
_symmetry_space_group_name_H-M   'P 1'
_cell_length_a   5.57579311
_cell_length_b   5.57579311
_cell_length_c   5.64444155
_cell_angle_alpha   119.59848893
_cell_angle_beta   119.59848887
_cell_angle_gamma   90.00000006
_symmetry_Int_Tables_number   1
_chemical_formula_structural   Sr2NiOsO6
_chemical_formula_sum   'Sr2 Ni1 Os1 O6'
_cell_volume   125.57600257
_cell_formula_units_Z   1
loop_
 _symmetry_equiv_pos_site_id
 _symmetry_equiv_pos_as_xyz
  1  'x, y, z'
loop_
 _atom_site_type_symbol
 _atom_site_label
 _atom_site_symmetry_multiplicity
 _atom_site_fract_x
 _atom_site_fract_y
 _atom_site_fract_z
 _atom_site_occupancy
  O  O0  1  0.78630380  0.69748227  0.00000129  1
  O  O1  1  0.30251779  0.78630309  0.99999975  1
  O  O2  1  0.69748071  0.21369627  0.99999879  1
  O  O3  1  0.21369726  0.30251902  0.00000093  1
  O  O4  1  0.25898528  0.25898487  0.51796938  1
  O  O5  1  0.74101594  0.74101658  0.48203128  1
  Ni  Ni6  1  0.00000000  0.00000000  0.00000000  1
  Sr  Sr7  1  0.24999908  0.74999937  0.49999994  1
  Sr  Sr8  1  0.74999926  0.24999983  0.50000016  1
  Os  Os9  1  0.50000022  0.49999959  0.00000074  1
