# generated using pymatgen
data_LiMnVO4
_symmetry_space_group_name_H-M   'P 1'
_cell_length_a   5.30230068
_cell_length_b   5.30230067
_cell_length_c   6.42921097
_cell_angle_alpha   90.00000000
_cell_angle_beta   90.00000000
_cell_angle_gamma   112.92650628
_symmetry_Int_Tables_number   1
_chemical_formula_structural   LiMnVO4
_chemical_formula_sum   'Li2 Mn2 V2 O8'
_cell_volume   166.47480098
_cell_formula_units_Z   2
loop_
 _symmetry_equiv_pos_site_id
 _symmetry_equiv_pos_as_xyz
  1  'x, y, z'
loop_
 _atom_site_type_symbol
 _atom_site_label
 _atom_site_symmetry_multiplicity
 _atom_site_fract_x
 _atom_site_fract_y
 _atom_site_fract_z
 _atom_site_occupancy
  Li  Li0  1  0.66205783  0.33794162  0.75000012  1
  Li  Li1  1  0.33794277  0.66205737  0.25000056  1
  O  O2  1  0.28135542  0.24094446  0.25000056  1
  O  O3  1  0.24377382  0.75622623  0.53005143  1
  O  O4  1  0.75622678  0.24377276  0.03005187  1
  O  O5  1  0.75622678  0.24377276  0.46994769  1
  O  O6  1  0.71864328  0.75905454  0.75000012  1
  O  O7  1  0.24377382  0.75622623  0.96994881  1
  O  O8  1  0.24094340  0.28135463  0.75000012  1
  O  O9  1  0.75905529  0.71864437  0.25000056  1
  V  V10  1  0.35528012  0.64471996  0.75000012  1
  V  V11  1  0.64471938  0.35528112  0.25000056  1
  Mn  Mn12  1  0.00000000  0.00000000  0.00000000  1
  Mn  Mn13  1  0.00000000  0.00000000  0.49999956  1
