# generated using pymatgen
data_KNaFe(Si2O5)2
_symmetry_space_group_name_H-M   'P 1'
_cell_length_a   7.05698828
_cell_length_b   8.30659405
_cell_length_c   10.07255299
_cell_angle_alpha   106.20540459
_cell_angle_beta   100.04060827
_cell_angle_gamma   113.83963583
_symmetry_Int_Tables_number   1
_chemical_formula_structural   KNaFe(Si2O5)2
_chemical_formula_sum   'K2 Na2 Fe2 Si8 O20'
_cell_volume   490.11656532
_cell_formula_units_Z   2
loop_
 _symmetry_equiv_pos_site_id
 _symmetry_equiv_pos_as_xyz
  1  'x, y, z'
loop_
 _atom_site_type_symbol
 _atom_site_label
 _atom_site_symmetry_multiplicity
 _atom_site_fract_x
 _atom_site_fract_y
 _atom_site_fract_z
 _atom_site_occupancy
  O  O0  1  0.61889965  0.54618060  0.71389927  1
  O  O1  1  0.38110035  0.45381940  0.28610073  1
  O  O2  1  0.53393967  0.32184954  0.86593171  1
  O  O3  1  0.46606033  0.67815046  0.13406829  1
  O  O4  1  0.95829165  0.21163225  0.56241592  1
  O  O5  1  0.04170835  0.78836775  0.43758408  1
  O  O6  1  0.12161455  0.25788229  0.84000601  1
  O  O7  1  0.87838545  0.74211771  0.15999399  1
  O  O8  1  0.88685289  0.41986532  0.79351906  1
  O  O9  1  0.11314711  0.58013468  0.20648094  1
  O  O10  1  0.26961482  0.56409627  0.76870106  1
  O  O11  1  0.73038518  0.43590373  0.23129894  1
  O  O12  1  0.33045225  0.18744636  0.03877282  1
  O  O13  1  0.66954775  0.81255364  0.96122718  1
  O  O14  1  0.43758132  0.15412766  0.28836985  1
  O  O15  1  0.56241868  0.84587234  0.71163015  1
  O  O16  1  0.80333372  0.04230937  0.24215035  1
  O  O17  1  0.19666628  0.95769063  0.75784965  1
  O  O18  1  0.50500656  0.83156081  0.41850657  1
  O  O19  1  0.49499344  0.16843919  0.58149343  1
  Na  Na20  1  0.83813949  0.87102157  0.58998720  1
  Na  Na21  1  0.16186051  0.12897843  0.41001280  1
  Si  Si22  1  0.47308328  0.30728439  0.21535336  1
  Si  Si23  1  0.52691672  0.69271561  0.78464664  1
  Si  Si24  1  0.05730638  0.35647787  0.72997155  1
  Si  Si25  1  0.94269362  0.64352213  0.27002845  1
  Si  Si26  1  0.29408385  0.17340607  0.86868743  1
  Si  Si27  1  0.70591615  0.82659393  0.13131257  1
  Si  Si28  1  0.62488709  0.35599164  0.73019528  1
  Si  Si29  1  0.37511291  0.64400836  0.26980472  1
  K  K30  1  0.15659711  0.79795200  0.98448248  1
  K  K31  1  0.84340289  0.20204800  0.01551752  1
  Fe  Fe32  1  0.34290963  0.89255807  0.59164640  1
  Fe  Fe33  1  0.65709037  0.10744193  0.40835360  1
