# generated using pymatgen
data_K2Mn2O3
_symmetry_space_group_name_H-M   'P 1'
_cell_length_a   6.18832644
_cell_length_b   6.55441455
_cell_length_c   6.53402497
_cell_angle_alpha   90.00000000
_cell_angle_beta   90.00000000
_cell_angle_gamma   115.42499192
_symmetry_Int_Tables_number   1
_chemical_formula_structural   K2Mn2O3
_chemical_formula_sum   'K4 Mn4 O6'
_cell_volume   239.35741596
_cell_formula_units_Z   2
loop_
 _symmetry_equiv_pos_site_id
 _symmetry_equiv_pos_as_xyz
  1  'x, y, z'
loop_
 _atom_site_type_symbol
 _atom_site_label
 _atom_site_symmetry_multiplicity
 _atom_site_fract_x
 _atom_site_fract_y
 _atom_site_fract_z
 _atom_site_occupancy
  O  O0  1  0.00000000  0.50000000  0.50000000  1
  O  O1  1  0.58882860  0.71470282  0.63020678  1
  O  O2  1  0.41117140  0.78529718  0.13020678  1
  O  O3  1  0.41117140  0.28529718  0.36979322  1
  O  O4  1  0.00000000  0.00000000  0.00000000  1
  O  O5  1  0.58882860  0.21470282  0.86979322  1
  K  K6  1  0.81640419  0.07192809  0.36079747  1
  K  K7  1  0.81640419  0.57192809  0.13920253  1
  K  K8  1  0.18359581  0.92807191  0.63920253  1
  K  K9  1  0.18359581  0.42807191  0.86079747  1
  Mn  Mn10  1  0.33240400  0.07182929  0.11474269  1
  Mn  Mn11  1  0.33240400  0.57182929  0.38525731  1
  Mn  Mn12  1  0.66759600  0.92817071  0.88525731  1
  Mn  Mn13  1  0.66759600  0.42817071  0.61474269  1
