# generated using pymatgen
data_Mn2V2O7
_symmetry_space_group_name_H-M   'P 1'
_cell_length_a   5.10109267
_cell_length_b   5.55634358
_cell_length_c   5.55634358
_cell_angle_alpha   107.90844184
_cell_angle_beta   97.09429160
_cell_angle_gamma   97.09429160
_symmetry_Int_Tables_number   1
_chemical_formula_structural   Mn2V2O7
_chemical_formula_sum   'Mn2 V2 O7'
_cell_volume   146.51762080
_cell_formula_units_Z   1
loop_
 _symmetry_equiv_pos_site_id
 _symmetry_equiv_pos_as_xyz
  1  'x, y, z'
loop_
 _atom_site_type_symbol
 _atom_site_label
 _atom_site_symmetry_multiplicity
 _atom_site_fract_x
 _atom_site_fract_y
 _atom_site_fract_z
 _atom_site_occupancy
  O  O0  1  0.79348685  0.43236035  0.10820618  1
  O  O1  1  0.20651315  0.89179382  0.56763965  1
  O  O2  1  0.20651315  0.56763965  0.89179382  1
  O  O3  1  0.79348685  0.10820618  0.43236035  1
  O  O4  1  0.50000000  0.50000000  0.50000000  1
  O  O5  1  0.28306182  0.08047228  0.08047228  1
  O  O6  1  0.71693818  0.91952772  0.91952772  1
  V  V7  1  0.39628166  0.74488977  0.74488977  1
  V  V8  1  0.60371834  0.25511023  0.25511023  1
  Mn  Mn9  1  0.00000000  0.81271308  0.18728692  1
  Mn  Mn10  1  0.00000000  0.18728692  0.81271308  1
