# generated using pymatgen
data_Ni(PO3)2
_symmetry_space_group_name_H-M   'P 1'
_cell_length_a   7.21952809
_cell_length_b   7.21952809
_cell_length_c   9.78503306
_cell_angle_alpha   98.65434571
_cell_angle_beta   109.89595835
_cell_angle_gamma   109.56096166
_symmetry_Int_Tables_number   1
_chemical_formula_structural   Ni(PO3)2
_chemical_formula_sum   'Ni4 P8 O24'
_cell_volume   431.30127275
_cell_formula_units_Z   4
loop_
 _symmetry_equiv_pos_site_id
 _symmetry_equiv_pos_as_xyz
  1  'x, y, z'
loop_
 _atom_site_type_symbol
 _atom_site_label
 _atom_site_symmetry_multiplicity
 _atom_site_fract_x
 _atom_site_fract_y
 _atom_site_fract_z
 _atom_site_occupancy
  O  O0  1  0.74713702  0.58545288  0.09468303  1
  O  O1  1  0.99076985  0.65245400  0.40531697  1
  O  O2  1  0.25286298  0.41454712  0.90531697  1
  O  O3  1  0.00923015  0.34754600  0.59468303  1
  O  O4  1  0.39195548  0.21040819  0.08268662  1
  O  O5  1  0.62772157  0.30926885  0.41731338  1
  O  O6  1  0.60804452  0.78959181  0.91731338  1
  O  O7  1  0.37227843  0.69073115  0.58268662  1
  O  O8  1  0.79444499  0.21765115  0.17489607  1
  O  O9  1  0.54275508  0.61954892  0.32510393  1
  O  O10  1  0.20555501  0.78234885  0.82510393  1
  O  O11  1  0.45724492  0.38045108  0.67489607  1
  O  O12  1  0.68708421  0.18804834  0.65356727  1
  O  O13  1  0.03448107  0.03351694  0.84643273  1
  O  O14  1  0.31291579  0.81195166  0.34643273  1
  O  O15  1  0.96551893  0.96648306  0.15356727  1
  O  O16  1  0.27802176  0.99924591  0.56493196  1
  O  O17  1  0.93431395  0.71308979  0.93506804  1
  O  O18  1  0.72197824  0.00075409  0.43506804  1
  O  O19  1  0.06568605  0.28691021  0.06493196  1
  O  O20  1  0.53759143  0.15595439  0.84801949  1
  O  O21  1  0.80793490  0.68957194  0.65198051  1
  O  O22  1  0.46240857  0.84404561  0.15198051  1
  O  O23  1  0.19206510  0.31042806  0.34801949  1
  P  P24  1  0.20663125  0.24827797  0.97633127  1
  P  P25  1  0.77194670  0.23029998  0.52366873  1
  P  P26  1  0.79336875  0.75172203  0.02366873  1
  P  P27  1  0.22805330  0.76970002  0.47633127  1
  P  P28  1  0.00836504  0.20542705  0.19636824  1
  P  P29  1  0.50905881  0.81199680  0.30363176  1
  P  P30  1  0.99163496  0.79457295  0.80363176  1
  P  P31  1  0.49094119  0.18800320  0.69636824  1
  Ni  Ni32  1  0.69575743  0.44575743  0.25000000  1
  Ni  Ni33  1  0.30424257  0.55424257  0.75000000  1
  Ni  Ni34  1  0.50000000  0.00000000  0.00000000  1
  Ni  Ni35  1  0.50000000  0.50000000  0.50000000  1
