# generated using pymatgen
data_Mg2AgWO6
_symmetry_space_group_name_H-M   'P 1'
_cell_length_a   5.23142302
_cell_length_b   5.37018153
_cell_length_c   8.46657153
_cell_angle_alpha   90.00000000
_cell_angle_beta   90.48128500
_cell_angle_gamma   90.00000000
_symmetry_Int_Tables_number   1
_chemical_formula_structural   Mg2AgWO6
_chemical_formula_sum   'Mg4 Ag2 W2 O12'
_cell_volume   237.84885501
_cell_formula_units_Z   2
loop_
 _symmetry_equiv_pos_site_id
 _symmetry_equiv_pos_as_xyz
  1  'x, y, z'
loop_
 _atom_site_type_symbol
 _atom_site_label
 _atom_site_symmetry_multiplicity
 _atom_site_fract_x
 _atom_site_fract_y
 _atom_site_fract_z
 _atom_site_occupancy
  Mg  Mg0  1  0.99773040  0.03099468  0.28347594  1
  Mg  Mg1  1  0.50226960  0.53099568  0.21652406  1
  Mg  Mg2  1  0.00227060  0.96900632  0.71652406  1
  Mg  Mg3  1  0.49772940  0.46900532  0.78347594  1
  Ag  Ag4  1  0.50000000  0.00000000  0.00000000  1
  Ag  Ag5  1  0.00000100  0.49999900  0.50000000  1
  W  W6  1  0.50000000  0.00000000  0.49999900  1
  W  W7  1  0.00000000  0.49999900  0.00000000  1
  O  O8  1  0.65760948  0.27422254  0.37524301  1
  O  O9  1  0.84239052  0.77422354  0.12475699  1
  O  O10  1  0.34238952  0.72577746  0.62475699  1
  O  O11  1  0.15761048  0.22577646  0.87524301  1
  O  O12  1  0.17995551  0.16684118  0.53376843  1
  O  O13  1  0.32004449  0.66684018  0.96623157  1
  O  O14  1  0.82004549  0.83315882  0.46623157  1
  O  O15  1  0.67995451  0.33315982  0.03376843  1
  O  O16  1  0.14545991  0.35569102  0.19190537  1
  O  O17  1  0.35454109  0.85569202  0.30809363  1
  O  O18  1  0.64545991  0.14430798  0.69190637  1
  O  O19  1  0.85454109  0.64430898  0.80809463  1
