# generated using pymatgen
data_BaCo2(AsO4)2
_symmetry_space_group_name_H-M   'P 1'
_cell_length_a   8.60416341
_cell_length_b   8.60416341
_cell_length_c   8.60416341
_cell_angle_alpha   34.21916814
_cell_angle_beta   34.21916816
_cell_angle_gamma   34.21916822
_symmetry_Int_Tables_number   1
_chemical_formula_structural   BaCo2(AsO4)2
_chemical_formula_sum   'Ba1 Co2 As2 O8'
_cell_volume   179.62829131
_cell_formula_units_Z   1
loop_
 _symmetry_equiv_pos_site_id
 _symmetry_equiv_pos_as_xyz
  1  'x, y, z'
loop_
 _atom_site_type_symbol
 _atom_site_label
 _atom_site_symmetry_multiplicity
 _atom_site_fract_x
 _atom_site_fract_y
 _atom_site_fract_z
 _atom_site_occupancy
  O  O0  1  0.56117080  0.21717437  0.87404454  1
  O  O1  1  0.21717437  0.87404454  0.56117080  1
  O  O2  1  0.87404454  0.56117080  0.21717437  1
  O  O3  1  0.43882920  0.78282563  0.12595546  1
  O  O4  1  0.78282563  0.12595546  0.43882920  1
  O  O5  1  0.35745708  0.35745708  0.35745708  1
  O  O6  1  0.64254292  0.64254292  0.64254292  1
  O  O7  1  0.12595546  0.43882920  0.78282563  1
  Co  Co8  1  0.83042345  0.83042345  0.83042345  1
  Co  Co9  1  0.16957655  0.16957655  0.16957655  1
  As  As10  1  0.42731483  0.42731483  0.42731483  1
  As  As11  1  0.57268517  0.57268517  0.57268517  1
  Ba  Ba12  1  0.00000000  0.00000000  0.00000000  1
