# generated using pymatgen
data_K6Co2O7
_symmetry_space_group_name_H-M   'P 1'
_cell_length_a   6.63697790
_cell_length_b   9.20836731
_cell_length_c   9.31937014
_cell_angle_alpha   90.00000000
_cell_angle_beta   92.33980201
_cell_angle_gamma   90.00000000
_symmetry_Int_Tables_number   1
_chemical_formula_structural   K6Co2O7
_chemical_formula_sum   'K12 Co4 O14'
_cell_volume   569.08525621
_cell_formula_units_Z   2
loop_
 _symmetry_equiv_pos_site_id
 _symmetry_equiv_pos_as_xyz
  1  'x, y, z'
loop_
 _atom_site_type_symbol
 _atom_site_label
 _atom_site_symmetry_multiplicity
 _atom_site_fract_x
 _atom_site_fract_y
 _atom_site_fract_z
 _atom_site_occupancy
  O  O0  1  0.00000000  0.50000000  0.50000000  1
  O  O1  1  0.50000000  0.00000000  0.00000000  1
  O  O2  1  0.67709638  0.66747812  0.64238685  1
  O  O3  1  0.82290362  0.16747812  0.85761315  1
  O  O4  1  0.42826422  0.30163953  0.92813969  1
  O  O5  1  0.07173578  0.80163953  0.57186031  1
  O  O6  1  0.57173578  0.69836047  0.07186031  1
  O  O7  1  0.92826422  0.19836047  0.42813969  1
  O  O8  1  0.94749191  0.40412374  0.19142784  1
  O  O9  1  0.55250809  0.90412374  0.30857216  1
  O  O10  1  0.05250809  0.59587626  0.80857216  1
  O  O11  1  0.44749191  0.09587626  0.69142784  1
  O  O12  1  0.17709638  0.83252188  0.14238685  1
  O  O13  1  0.32290362  0.33252188  0.35761315  1
  K  K14  1  0.36511358  0.79801991  0.78722806  1
  K  K15  1  0.13488642  0.29801991  0.71277194  1
  K  K16  1  0.63543411  0.34894684  0.56685097  1
  K  K17  1  0.86456589  0.84894684  0.93314903  1
  K  K18  1  0.36456589  0.65105316  0.43314903  1
  K  K19  1  0.13543411  0.15105316  0.06685097  1
  K  K20  1  0.74618004  0.47307363  0.94293358  1
  K  K21  1  0.75381996  0.97307363  0.55706642  1
  K  K22  1  0.25381996  0.52692637  0.05706642  1
  K  K23  1  0.24618004  0.02692637  0.44293358  1
  K  K24  1  0.63488642  0.20198009  0.21277194  1
  K  K25  1  0.86511358  0.70198009  0.28722806  1
  Co  Co26  1  0.05431167  0.35662080  0.36429289  1
  Co  Co27  1  0.44568833  0.85662080  0.13570711  1
  Co  Co28  1  0.94568833  0.64337920  0.63570711  1
  Co  Co29  1  0.55431167  0.14337920  0.86429289  1
