# generated using pymatgen
data_CrPbO4
_symmetry_space_group_name_H-M   'P 1'
_cell_length_a   6.92266881
_cell_length_b   7.28834530
_cell_length_c   7.62051118
_cell_angle_alpha   90.00000000
_cell_angle_beta   90.00000000
_cell_angle_gamma   102.90906182
_symmetry_Int_Tables_number   1
_chemical_formula_structural   CrPbO4
_chemical_formula_sum   'Cr4 Pb4 O16'
_cell_volume   374.77368877
_cell_formula_units_Z   4
loop_
 _symmetry_equiv_pos_site_id
 _symmetry_equiv_pos_as_xyz
  1  'x, y, z'
loop_
 _atom_site_type_symbol
 _atom_site_label
 _atom_site_symmetry_multiplicity
 _atom_site_fract_x
 _atom_site_fract_y
 _atom_site_fract_z
 _atom_site_occupancy
  Cr  Cr0  1  0.38454956  0.70171206  0.33488697  1
  Cr  Cr1  1  0.88454956  0.20171206  0.16511303  1
  Cr  Cr2  1  0.11546237  0.79829396  0.83488656  1
  Cr  Cr3  1  0.61546237  0.29829396  0.66511344  1
  Pb  Pb4  1  0.90393089  0.71569237  0.36675730  1
  Pb  Pb5  1  0.59606806  0.78430752  0.86676323  1
  Pb  Pb6  1  0.09606806  0.28430752  0.63323677  1
  Pb  Pb7  1  0.40393089  0.21569237  0.13324270  1
  O  O8  1  0.29366629  0.88855108  0.29061750  1
  O  O9  1  0.20633618  0.61143600  0.79061670  1
  O  O10  1  0.70633618  0.11143600  0.70938330  1
  O  O11  1  0.79366629  0.38855108  0.20938250  1
  O  O12  1  0.18801964  0.53703946  0.40488917  1
  O  O13  1  0.31199046  0.96296713  0.90490043  1
  O  O14  1  0.81199046  0.46296713  0.59509957  1
  O  O15  1  0.68801964  0.03703946  0.09511083  1
  O  O16  1  0.06313836  0.24717984  0.01439851  1
  O  O17  1  0.43684979  0.25281853  0.51438555  1
  O  O18  1  0.93684979  0.75281853  0.98561445  1
  O  O19  1  0.56313836  0.74717984  0.48560149  1
  O  O20  1  0.97903242  0.12521781  0.34604175  1
  O  O21  1  0.52095600  0.37478422  0.84605140  1
  O  O22  1  0.02095600  0.87478422  0.65394860  1
  O  O23  1  0.47903242  0.62521781  0.15395825  1
