# generated using pymatgen
data_Na3Sc2V3O12
_symmetry_space_group_name_H-M   'P 1'
_cell_length_a   11.07100405
_cell_length_b   11.07100406
_cell_length_c   11.07100406
_cell_angle_alpha   109.47122066
_cell_angle_beta   109.47122066
_cell_angle_gamma   109.47122060
_symmetry_Int_Tables_number   1
_chemical_formula_structural   Na3Sc2V3O12
_chemical_formula_sum   'Na12 Sc8 V12 O48'
_cell_volume   1044.57382470
_cell_formula_units_Z   4
loop_
 _symmetry_equiv_pos_site_id
 _symmetry_equiv_pos_as_xyz
  1  'x, y, z'
loop_
 _atom_site_type_symbol
 _atom_site_label
 _atom_site_symmetry_multiplicity
 _atom_site_fract_x
 _atom_site_fract_y
 _atom_site_fract_z
 _atom_site_occupancy
  O  O0  1  0.79915660  0.41208398  0.80607932  1
  O  O1  1  0.08791602  0.88707263  0.39399534  1
  O  O2  1  0.69392068  0.10600466  0.99307729  1
  O  O3  1  0.70084340  0.50692271  0.61292737  1
  O  O4  1  0.70084340  0.69392068  0.08791602  1
  O  O5  1  0.50692271  0.61292737  0.70084340  1
  O  O6  1  0.10600466  0.61292737  0.41208398  1
  O  O7  1  0.61292737  0.70084340  0.50692271  1
  O  O8  1  0.39399534  0.80607932  0.50692271  1
  O  O9  1  0.88707263  0.99307729  0.79915660  1
  O  O10  1  0.99307729  0.79915660  0.88707263  1
  O  O11  1  0.08791602  0.70084340  0.69392068  1
  O  O12  1  0.61292737  0.41208398  0.10600466  1
  O  O13  1  0.50692271  0.39399534  0.80607932  1
  O  O14  1  0.69392068  0.08791602  0.70084340  1
  O  O15  1  0.41208398  0.10600466  0.61292737  1
  O  O16  1  0.80607932  0.50692271  0.39399534  1
  O  O17  1  0.39399534  0.08791602  0.88707263  1
  O  O18  1  0.10600466  0.99307729  0.69392068  1
  O  O19  1  0.60600466  0.19392068  0.49307729  1
  O  O20  1  0.99307729  0.69392068  0.10600466  1
  O  O21  1  0.80607932  0.79915660  0.41208398  1
  O  O22  1  0.88707263  0.39399534  0.08791602  1
  O  O23  1  0.79915660  0.88707263  0.99307729  1
  O  O24  1  0.20084340  0.58791602  0.19392068  1
  O  O25  1  0.91208398  0.11292737  0.60600466  1
  O  O26  1  0.30607932  0.89399534  0.00692271  1
  O  O27  1  0.29915660  0.49307729  0.38707263  1
  O  O28  1  0.29915660  0.30607932  0.91208398  1
  O  O29  1  0.49307729  0.38707263  0.29915660  1
  O  O30  1  0.89399534  0.38707263  0.58791602  1
  O  O31  1  0.38707263  0.29915660  0.49307729  1
  O  O32  1  0.20084340  0.11292737  0.00692271  1
  O  O33  1  0.11292737  0.60600466  0.91208398  1
  O  O34  1  0.19392068  0.20084340  0.58791602  1
  O  O35  1  0.58791602  0.19392068  0.20084340  1
  O  O36  1  0.00692271  0.30607932  0.89399534  1
  O  O37  1  0.89399534  0.00692271  0.30607932  1
  O  O38  1  0.60600466  0.91208398  0.11292737  1
  O  O39  1  0.19392068  0.49307729  0.60600466  1
  O  O40  1  0.58791602  0.89399534  0.38707263  1
  O  O41  1  0.30607932  0.91208398  0.29915660  1
  O  O42  1  0.49307729  0.60600466  0.19392068  1
  O  O43  1  0.38707263  0.58791602  0.89399534  1
  O  O44  1  0.91208398  0.29915660  0.30607932  1
  O  O45  1  0.00692271  0.20084340  0.11292737  1
  O  O46  1  0.11292737  0.00692271  0.20084340  1
  O  O47  1  0.41208398  0.80607932  0.79915660  1
  Na  Na48  1  0.25000000  0.37500000  0.12500000  1
  Na  Na49  1  0.37500000  0.75000000  0.12500000  1
  Na  Na50  1  0.12500000  0.25000000  0.37500000  1
  Na  Na51  1  0.37500000  0.12500000  0.25000000  1
  Na  Na52  1  0.12500000  0.37500000  0.75000000  1
  Na  Na53  1  0.75000000  0.12500000  0.37500000  1
  Na  Na54  1  0.75000000  0.62500000  0.87500000  1
  Na  Na55  1  0.62500000  0.25000000  0.87500000  1
  Na  Na56  1  0.87500000  0.75000000  0.62500000  1
  Na  Na57  1  0.62500000  0.87500000  0.75000000  1
  Na  Na58  1  0.87500000  0.62500000  0.25000000  1
  Na  Na59  1  0.25000000  0.87500000  0.62500000  1
  Sc  Sc60  1  0.00000000  0.00000000  0.00000000  1
  Sc  Sc61  1  0.00000000  0.50000000  0.00000000  1
  Sc  Sc62  1  0.00000000  0.00000000  0.50000000  1
  Sc  Sc63  1  0.50000000  0.00000000  0.00000000  1
  Sc  Sc64  1  0.00000000  0.50000000  0.50000000  1
  Sc  Sc65  1  0.50000000  0.00000000  0.50000000  1
  Sc  Sc66  1  0.50000000  0.50000000  0.00000000  1
  Sc  Sc67  1  0.50000000  0.50000000  0.50000000  1
  V  V68  1  0.25000000  0.62500000  0.37500000  1
  V  V69  1  0.62500000  0.75000000  0.37500000  1
  V  V70  1  0.87500000  0.25000000  0.12500000  1
  V  V71  1  0.12500000  0.87500000  0.25000000  1
  V  V72  1  0.37500000  0.62500000  0.75000000  1
  V  V73  1  0.75000000  0.37500000  0.62500000  1
  V  V74  1  0.87500000  0.12500000  0.75000000  1
  V  V75  1  0.12500000  0.75000000  0.87500000  1
  V  V76  1  0.62500000  0.37500000  0.25000000  1
  V  V77  1  0.37500000  0.25000000  0.62500000  1
  V  V78  1  0.75000000  0.87500000  0.12500000  1
  V  V79  1  0.25000000  0.12500000  0.87500000  1
