# generated using pymatgen
data_NaFePO4
_symmetry_space_group_name_H-M   'P 1'
_cell_length_a   5.11628360
_cell_length_b   6.93414494
_cell_length_c   9.11419222
_cell_angle_alpha   90.00000000
_cell_angle_beta   90.00000000
_cell_angle_gamma   90.00000000
_symmetry_Int_Tables_number   1
_chemical_formula_structural   NaFePO4
_chemical_formula_sum   'Na4 Fe4 P4 O16'
_cell_volume   323.34467166
_cell_formula_units_Z   4
loop_
 _symmetry_equiv_pos_site_id
 _symmetry_equiv_pos_as_xyz
  1  'x, y, z'
loop_
 _atom_site_type_symbol
 _atom_site_label
 _atom_site_symmetry_multiplicity
 _atom_site_fract_x
 _atom_site_fract_y
 _atom_site_fract_z
 _atom_site_occupancy
  O  O0  1  0.24962841  0.75000000  0.38411903  1
  O  O1  1  0.74962841  0.25000000  0.11588097  1
  O  O2  1  0.75037159  0.25000000  0.61588097  1
  O  O3  1  0.25037159  0.75000000  0.88411903  1
  O  O4  1  0.95461883  0.75000000  0.15225655  1
  O  O5  1  0.45461883  0.25000000  0.34774345  1
  O  O6  1  0.04538117  0.25000000  0.84774345  1
  O  O7  1  0.54538117  0.75000000  0.65225655  1
  O  O8  1  0.18153966  0.43216708  0.62104079  1
  O  O9  1  0.68153966  0.56783292  0.87895921  1
  O  O10  1  0.81846034  0.93216708  0.37895921  1
  O  O11  1  0.31846034  0.06783292  0.12104079  1
  O  O12  1  0.68153966  0.93216708  0.87895921  1
  O  O13  1  0.18153966  0.06783292  0.62104079  1
  O  O14  1  0.31846034  0.43216708  0.12104079  1
  O  O15  1  0.81846034  0.56783292  0.37895921  1
  Na  Na16  1  0.46895414  0.75000000  0.15145845  1
  Na  Na17  1  0.96895414  0.25000000  0.34854155  1
  Na  Na18  1  0.53104586  0.25000000  0.84854155  1
  Na  Na19  1  0.03104586  0.75000000  0.65145845  1
  P  P20  1  0.96384714  0.75000000  0.32467703  1
  P  P21  1  0.46384714  0.25000000  0.17532297  1
  P  P22  1  0.03615286  0.25000000  0.67532297  1
  P  P23  1  0.53615286  0.75000000  0.82467703  1
  Fe  Fe24  1  0.50000000  0.50000000  0.50000000  1
  Fe  Fe25  1  0.00000000  0.50000000  0.00000000  1
  Fe  Fe26  1  0.50000000  0.00000000  0.50000000  1
  Fe  Fe27  1  0.00000000  0.00000000  0.00000000  1
