# generated using pymatgen
data_K3NdV2O8
_symmetry_space_group_name_H-M   'P 1'
_cell_length_a   6.06988705
_cell_length_b   7.68588771
_cell_length_c   10.04907691
_cell_angle_alpha   90.98207125
_cell_angle_beta   90.00000000
_cell_angle_gamma   90.00000000
_symmetry_Int_Tables_number   1
_chemical_formula_structural   K3NdV2O8
_chemical_formula_sum   'K6 Nd2 V4 O16'
_cell_volume   468.74539664
_cell_formula_units_Z   2
loop_
 _symmetry_equiv_pos_site_id
 _symmetry_equiv_pos_as_xyz
  1  'x, y, z'
loop_
 _atom_site_type_symbol
 _atom_site_label
 _atom_site_symmetry_multiplicity
 _atom_site_fract_x
 _atom_site_fract_y
 _atom_site_fract_z
 _atom_site_occupancy
  O  O0  1  0.98693689  0.34049835  0.66862881  1
  O  O1  1  0.48693689  0.65950165  0.33137119  1
  O  O2  1  0.01306311  0.65950165  0.33137119  1
  O  O3  1  0.51306311  0.34049835  0.66862881  1
  O  O4  1  0.25000000  0.67073088  0.57806029  1
  O  O5  1  0.75000000  0.32926912  0.42193971  1
  O  O6  1  0.25000000  0.96101652  0.40753385  1
  O  O7  1  0.75000000  0.03898348  0.59246615  1
  O  O8  1  0.98628997  0.74137044  0.83367243  1
  O  O9  1  0.48628997  0.25862956  0.16632757  1
  O  O10  1  0.01371003  0.25862956  0.16632757  1
  O  O11  1  0.51371003  0.74137044  0.83367243  1
  O  O12  1  0.75000000  0.47244201  0.96512243  1
  O  O13  1  0.25000000  0.52755799  0.03487757  1
  O  O14  1  0.75000000  0.79404119  0.08055767  1
  O  O15  1  0.25000000  0.20595881  0.91944233  1
  K  K16  1  0.25000000  0.85897197  0.08382559  1
  K  K17  1  0.75000000  0.14102803  0.91617441  1
  K  K18  1  0.25000000  0.30761238  0.41809361  1
  K  K19  1  0.75000000  0.69238762  0.58190639  1
  K  K20  1  0.25000000  0.00162877  0.69271586  1
  K  K21  1  0.75000000  0.99837123  0.30728414  1
  V  V22  1  0.25000000  0.73895491  0.41265440  1
  V  V23  1  0.75000000  0.26104509  0.58734560  1
  V  V24  1  0.25000000  0.31000831  0.07480555  1
  V  V25  1  0.75000000  0.68999169  0.92519445  1
  Nd  Nd26  1  0.75000000  0.49370970  0.21139351  1
  Nd  Nd27  1  0.25000000  0.50629030  0.78860649  1
