# generated using pymatgen
data_Zr2Mo(PO6)2
_symmetry_space_group_name_H-M   'P 1'
_cell_length_a   9.34662325
_cell_length_b   9.49773955
_cell_length_c   12.59075789
_cell_angle_alpha   90.00000000
_cell_angle_beta   90.00000000
_cell_angle_gamma   90.00000000
_symmetry_Int_Tables_number   1
_chemical_formula_structural   Zr2Mo(PO6)2
_chemical_formula_sum   'Zr8 Mo4 P8 O48'
_cell_volume   1117.70415691
_cell_formula_units_Z   4
loop_
 _symmetry_equiv_pos_site_id
 _symmetry_equiv_pos_as_xyz
  1  'x, y, z'
loop_
 _atom_site_type_symbol
 _atom_site_label
 _atom_site_symmetry_multiplicity
 _atom_site_fract_x
 _atom_site_fract_y
 _atom_site_fract_z
 _atom_site_occupancy
  O  O0  1  0.64193724  0.23908903  0.17203432  1
  O  O1  1  0.64193724  0.26091097  0.82796568  1
  O  O2  1  0.85806276  0.73908903  0.32796568  1
  O  O3  1  0.85806276  0.76091097  0.67203432  1
  O  O4  1  0.35806276  0.76091097  0.82796568  1
  O  O5  1  0.35806276  0.73908903  0.17203432  1
  O  O6  1  0.14193724  0.26091097  0.67203432  1
  O  O7  1  0.14193724  0.23908903  0.32796568  1
  O  O8  1  0.67216080  0.07695696  0.97040890  1
  O  O9  1  0.67216080  0.42304304  0.02959110  1
  O  O10  1  0.82783920  0.57695696  0.52959110  1
  O  O11  1  0.82783920  0.92304304  0.47040890  1
  O  O12  1  0.32783920  0.92304304  0.02959110  1
  O  O13  1  0.32783920  0.57695696  0.97040890  1
  O  O14  1  0.17216080  0.42304304  0.47040890  1
  O  O15  1  0.17216080  0.07695696  0.52959110  1
  O  O16  1  0.07391565  0.84167078  0.90761352  1
  O  O17  1  0.92608435  0.15832922  0.09238648  1
  O  O18  1  0.57391565  0.65832922  0.40761352  1
  O  O19  1  0.57391565  0.84167078  0.59238648  1
  O  O20  1  0.04287909  0.92993127  0.34893983  1
  O  O21  1  0.04287909  0.57006873  0.65106017  1
  O  O22  1  0.45712091  0.42993127  0.15106017  1
  O  O23  1  0.45712091  0.07006873  0.84893983  1
  O  O24  1  0.95712091  0.07006873  0.65106017  1
  O  O25  1  0.95712091  0.42993127  0.34893983  1
  O  O26  1  0.54287909  0.57006873  0.84893983  1
  O  O27  1  0.54287909  0.92993127  0.15106017  1
  O  O28  1  0.35018901  0.87066983  0.42891792  1
  O  O29  1  0.35018901  0.62933017  0.57108208  1
  O  O30  1  0.14981099  0.37066983  0.07108208  1
  O  O31  1  0.14981099  0.12933017  0.92891792  1
  O  O32  1  0.64981099  0.12933017  0.57108208  1
  O  O33  1  0.64981099  0.37066983  0.42891792  1
  O  O34  1  0.85018901  0.62933017  0.92891792  1
  O  O35  1  0.85018901  0.87066983  0.07108208  1
  O  O36  1  0.29921874  0.99111162  0.22148778  1
  O  O37  1  0.29921874  0.50888838  0.77851222  1
  O  O38  1  0.20078126  0.49111162  0.27851222  1
  O  O39  1  0.20078126  0.00888838  0.72148778  1
  O  O40  1  0.70078126  0.00888838  0.77851222  1
  O  O41  1  0.70078126  0.49111162  0.22148778  1
  O  O42  1  0.79921874  0.50888838  0.72148778  1
  O  O43  1  0.79921874  0.99111162  0.27851222  1
  O  O44  1  0.42608435  0.15832922  0.40761352  1
  O  O45  1  0.42608435  0.34167078  0.59238648  1
  O  O46  1  0.07391565  0.65832922  0.09238648  1
  O  O47  1  0.92608435  0.34167078  0.90761352  1
  P  P48  1  0.88160208  0.60399043  0.64304494  1
  P  P49  1  0.88160208  0.89600957  0.35695506  1
  P  P50  1  0.61839792  0.10399043  0.85695506  1
  P  P51  1  0.61839792  0.39600957  0.14304494  1
  P  P52  1  0.11839792  0.39600957  0.35695506  1
  P  P53  1  0.11839792  0.10399043  0.64304494  1
  P  P54  1  0.38160208  0.89600957  0.14304494  1
  P  P55  1  0.38160208  0.60399043  0.85695506  1
  Zr  Zr56  1  0.22548075  0.45384537  0.62929559  1
  Zr  Zr57  1  0.27451925  0.54615463  0.12929559  1
  Zr  Zr58  1  0.77451925  0.95384537  0.62929559  1
  Zr  Zr59  1  0.27451925  0.95384537  0.87070441  1
  Zr  Zr60  1  0.72548075  0.04615463  0.12929559  1
  Zr  Zr61  1  0.72548075  0.45384537  0.87070441  1
  Zr  Zr62  1  0.77451925  0.54615463  0.37070441  1
  Zr  Zr63  1  0.22548075  0.04615463  0.37070441  1
  Mo  Mo64  1  0.03788382  0.25000000  0.00000000  1
  Mo  Mo65  1  0.96211618  0.75000000  0.00000000  1
  Mo  Mo66  1  0.53788382  0.25000000  0.50000000  1
  Mo  Mo67  1  0.46211618  0.75000000  0.50000000  1
