# generated using pymatgen
data_AgMoPO6
_symmetry_space_group_name_H-M   'P 1'
_cell_length_a   6.43599182
_cell_length_b   12.20089469
_cell_length_c   12.32542084
_cell_angle_alpha   90.00000000
_cell_angle_beta   93.04073339
_cell_angle_gamma   90.00000000
_symmetry_Int_Tables_number   1
_chemical_formula_structural   AgMoPO6
_chemical_formula_sum   'Ag8 Mo8 P8 O48'
_cell_volume   966.48926376
_cell_formula_units_Z   8
loop_
 _symmetry_equiv_pos_site_id
 _symmetry_equiv_pos_as_xyz
  1  'x, y, z'
loop_
 _atom_site_type_symbol
 _atom_site_label
 _atom_site_symmetry_multiplicity
 _atom_site_fract_x
 _atom_site_fract_y
 _atom_site_fract_z
 _atom_site_occupancy
  O  O0  1  0.71849435  0.83461006  0.25744596  1
  O  O1  1  0.78150565  0.33461006  0.24255404  1
  O  O2  1  0.28150565  0.16538994  0.74255404  1
  O  O3  1  0.21849435  0.66538994  0.75744596  1
  O  O4  1  0.74732561  0.53722636  0.14257598  1
  O  O5  1  0.75267439  0.03722636  0.35742402  1
  O  O6  1  0.25267439  0.46277364  0.85742402  1
  O  O7  1  0.24732561  0.96277364  0.64257598  1
  O  O8  1  0.20741600  0.70267585  0.27188385  1
  O  O9  1  0.29258400  0.20267585  0.22811615  1
  O  O10  1  0.79258400  0.29732415  0.72811615  1
  O  O11  1  0.70741600  0.79732415  0.77188385  1
  O  O12  1  0.27017480  0.67236224  0.49473801  1
  O  O13  1  0.22982520  0.17236224  0.00526199  1
  O  O14  1  0.72982520  0.32763776  0.50526199  1
  O  O15  1  0.77017480  0.82763776  0.99473801  1
  O  O16  1  0.27142136  0.57047982  0.06215691  1
  O  O17  1  0.77251772  0.73787956  0.46649960  1
  O  O18  1  0.22857864  0.07047982  0.43784309  1
  O  O19  1  0.77142136  0.92952018  0.56215691  1
  O  O20  1  0.24354505  0.97820231  0.25335922  1
  O  O21  1  0.25645495  0.47820231  0.24664078  1
  O  O22  1  0.75645495  0.02179769  0.74664078  1
  O  O23  1  0.74354505  0.52179769  0.75335922  1
  O  O24  1  0.94062962  0.56998755  0.38168129  1
  O  O25  1  0.55937038  0.06998755  0.11831871  1
  O  O26  1  0.05937038  0.43001245  0.61831871  1
  O  O27  1  0.44062962  0.93001245  0.88168129  1
  O  O28  1  0.55840760  0.59631267  0.35673486  1
  O  O29  1  0.94159240  0.09631267  0.14326514  1
  O  O30  1  0.44159240  0.40368733  0.64326514  1
  O  O31  1  0.05840760  0.90368733  0.85673486  1
  O  O32  1  0.93981168  0.60541561  0.91543075  1
  O  O33  1  0.56018832  0.10541561  0.58456925  1
  O  O34  1  0.06018832  0.39458439  0.08456925  1
  O  O35  1  0.43981168  0.89458439  0.41543075  1
  O  O36  1  0.55594781  0.61457305  0.90408266  1
  O  O37  1  0.94405219  0.11457305  0.59591734  1
  O  O38  1  0.44405219  0.38542695  0.09591734  1
  O  O39  1  0.05594781  0.88542695  0.40408266  1
  O  O40  1  0.71508785  0.55423027  0.54528660  1
  O  O41  1  0.78491215  0.05423027  0.95471340  1
  O  O42  1  0.28491215  0.44576973  0.45471340  1
  O  O43  1  0.21508785  0.94576973  0.04528660  1
  O  O44  1  0.27251772  0.76212044  0.96649960  1
  O  O45  1  0.22748228  0.26212044  0.53350040  1
  O  O46  1  0.72748228  0.23787956  0.03350040  1
  O  O47  1  0.72857864  0.42952018  0.93784309  1
  P  P48  1  0.24189637  0.96072599  0.37648478  1
  P  P49  1  0.25810363  0.46072599  0.12351522  1
  P  P50  1  0.75810363  0.03927401  0.62351522  1
  P  P51  1  0.74189637  0.53927401  0.87648478  1
  P  P52  1  0.74828801  0.61479973  0.43806463  1
  P  P53  1  0.75171199  0.11479973  0.06193537  1
  P  P54  1  0.25171199  0.38520027  0.56193537  1
  P  P55  1  0.24828801  0.88520027  0.93806463  1
  Mo  Mo56  1  0.74184167  0.89806088  0.38674574  1
  Mo  Mo57  1  0.75815833  0.39806088  0.11325426  1
  Mo  Mo58  1  0.25815833  0.10193912  0.61325426  1
  Mo  Mo59  1  0.24184167  0.60193912  0.88674574  1
  Mo  Mo60  1  0.24557259  0.60019907  0.37069773  1
  Mo  Mo61  1  0.25442741  0.10019907  0.12930227  1
  Mo  Mo62  1  0.75442741  0.39980093  0.62930227  1
  Mo  Mo63  1  0.74557259  0.89980093  0.87069773  1
  Ag  Ag64  1  0.01874549  0.80172795  0.14525853  1
  Ag  Ag65  1  0.48125451  0.30172795  0.35474147  1
  Ag  Ag66  1  0.98125451  0.19827205  0.85474147  1
  Ag  Ag67  1  0.51874549  0.69827205  0.64525853  1
  Ag  Ag68  1  0.56117414  0.71020877  0.12255838  1
  Ag  Ag69  1  0.93882586  0.21020877  0.37744162  1
  Ag  Ag70  1  0.43882586  0.28979123  0.87744162  1
  Ag  Ag71  1  0.06117414  0.78979123  0.62255838  1
