# generated using pymatgen
data_TlMo2(PO4)3
_symmetry_space_group_name_H-M   'P 1'
_cell_length_a   9.03054448
_cell_length_b   9.45025846
_cell_length_c   12.51052515
_cell_angle_alpha   90.00000000
_cell_angle_beta   90.00000000
_cell_angle_gamma   90.00000000
_symmetry_Int_Tables_number   1
_chemical_formula_structural   TlMo2(PO4)3
_chemical_formula_sum   'Tl4 Mo8 P12 O48'
_cell_volume   1067.66046874
_cell_formula_units_Z   4
loop_
 _symmetry_equiv_pos_site_id
 _symmetry_equiv_pos_as_xyz
  1  'x, y, z'
loop_
 _atom_site_type_symbol
 _atom_site_label
 _atom_site_symmetry_multiplicity
 _atom_site_fract_x
 _atom_site_fract_y
 _atom_site_fract_z
 _atom_site_occupancy
  O  O0  1  0.64201500  0.58994421  0.75000000  1
  O  O1  1  0.64201500  0.91005579  0.25000000  1
  O  O2  1  0.35798500  0.08994421  0.75000000  1
  O  O3  1  0.35798500  0.41005579  0.25000000  1
  O  O4  1  0.06509078  0.16118092  0.42107906  1
  O  O5  1  0.06509078  0.33881908  0.57892094  1
  O  O6  1  0.93490922  0.66118092  0.07892094  1
  O  O7  1  0.93490922  0.83881908  0.92107906  1
  O  O8  1  0.93490922  0.83881908  0.57892094  1
  O  O9  1  0.93490922  0.66118092  0.42107906  1
  O  O10  1  0.06509078  0.33881908  0.92107906  1
  O  O11  1  0.06509078  0.16118092  0.07892094  1
  O  O12  1  0.42991375  0.89591357  0.38414042  1
  O  O13  1  0.42991375  0.60408643  0.61585958  1
  O  O14  1  0.57008625  0.39591357  0.11585958  1
  O  O15  1  0.57008625  0.10408643  0.88414042  1
  O  O16  1  0.57008625  0.10408643  0.61585958  1
  O  O17  1  0.61329881  0.79743623  0.62189611  1
  O  O18  1  0.57008625  0.39591357  0.38414042  1
  O  O19  1  0.42991375  0.89591357  0.11585958  1
  O  O20  1  0.38670119  0.20256377  0.37810389  1
  O  O21  1  0.38670119  0.29743623  0.62189611  1
  O  O22  1  0.61329881  0.70256377  0.12189611  1
  O  O23  1  0.61329881  0.79743623  0.87810389  1
  O  O24  1  0.21295588  0.01859736  0.25000000  1
  O  O25  1  0.21295588  0.48140264  0.75000000  1
  O  O26  1  0.78704412  0.51859736  0.25000000  1
  O  O27  1  0.78704412  0.98140264  0.75000000  1
  O  O28  1  0.12590152  0.84659262  0.07044909  1
  O  O29  1  0.12590152  0.65340738  0.92955091  1
  O  O30  1  0.87409848  0.34659262  0.42955091  1
  O  O31  1  0.87409848  0.15340738  0.57044909  1
  O  O32  1  0.87409848  0.15340738  0.92955091  1
  O  O33  1  0.87409848  0.34659262  0.07044909  1
  O  O34  1  0.12590152  0.65340738  0.57044909  1
  O  O35  1  0.12590152  0.84659262  0.42955091  1
  O  O36  1  0.30011003  0.04948460  0.93751313  1
  O  O37  1  0.30011003  0.45051540  0.06248687  1
  O  O38  1  0.69988997  0.54948460  0.56248687  1
  O  O39  1  0.69988997  0.95051540  0.43751313  1
  O  O40  1  0.69988997  0.95051540  0.06248687  1
  O  O41  1  0.69988997  0.54948460  0.93751313  1
  O  O42  1  0.30011003  0.45051540  0.43751313  1
  O  O43  1  0.30011003  0.04948460  0.56248687  1
  O  O44  1  0.38670119  0.20256377  0.12189611  1
  O  O45  1  0.38670119  0.29743623  0.87810389  1
  O  O46  1  0.61329881  0.70256377  0.37810389  1
  O  O47  1  0.42991375  0.60408643  0.88414042  1
  P  P48  1  0.40745576  0.36180107  0.36968856  1
  P  P49  1  0.40745576  0.13819893  0.63031144  1
  P  P50  1  0.59254424  0.86180107  0.13031144  1
  P  P51  1  0.59254424  0.63819893  0.86968856  1
  P  P52  1  0.59254424  0.63819893  0.63031144  1
  P  P53  1  0.59254424  0.86180107  0.36968856  1
  P  P54  1  0.40745576  0.13819893  0.86968856  1
  P  P55  1  0.40745576  0.36180107  0.13031144  1
  P  P56  1  0.97202684  0.25000000  0.50000000  1
  P  P57  1  0.97202684  0.25000000  0.00000000  1
  P  P58  1  0.02797316  0.75000000  0.50000000  1
  P  P59  1  0.02797316  0.75000000  0.00000000  1
  Mo  Mo60  1  0.75209148  0.96999478  0.89982823  1
  Mo  Mo61  1  0.24790852  0.46999478  0.89982823  1
  Mo  Mo62  1  0.75209148  0.53000522  0.39982823  1
  Mo  Mo63  1  0.75209148  0.96999478  0.60017177  1
  Mo  Mo64  1  0.24790852  0.03000522  0.39982823  1
  Mo  Mo65  1  0.24790852  0.46999478  0.60017177  1
  Mo  Mo66  1  0.75209148  0.53000522  0.10017177  1
  Mo  Mo67  1  0.24790852  0.03000522  0.10017177  1
  Tl  Tl68  1  0.83057183  0.16359537  0.25000000  1
  Tl  Tl69  1  0.83057183  0.33640463  0.75000000  1
  Tl  Tl70  1  0.16942817  0.66359537  0.25000000  1
  Tl  Tl71  1  0.16942817  0.83640463  0.75000000  1
