# generated using pymatgen
data_KFePO4F
_symmetry_space_group_name_H-M   'P 1'
_cell_length_a   6.44680057
_cell_length_b   10.80440115
_cell_length_c   13.05242177
_cell_angle_alpha   90.00000000
_cell_angle_beta   90.00000000
_cell_angle_gamma   90.00000000
_symmetry_Int_Tables_number   1
_chemical_formula_structural   KFePO4F
_chemical_formula_sum   'K8 Fe8 P8 O32 F8'
_cell_volume   909.15102991
_cell_formula_units_Z   8
loop_
 _symmetry_equiv_pos_site_id
 _symmetry_equiv_pos_as_xyz
  1  'x, y, z'
loop_
 _atom_site_type_symbol
 _atom_site_label
 _atom_site_symmetry_multiplicity
 _atom_site_fract_x
 _atom_site_fract_y
 _atom_site_fract_z
 _atom_site_occupancy
  O  O0  1  0.30798218  0.96919588  0.11303917  1
  O  O1  1  0.81041396  0.02330969  0.61520793  1
  O  O2  1  0.31041396  0.52330969  0.88479207  1
  O  O3  1  0.68958604  0.02330969  0.11520793  1
  O  O4  1  0.03593793  0.38128996  0.24696120  1
  O  O5  1  0.96406207  0.88128996  0.75303880  1
  O  O6  1  0.46406207  0.38128996  0.74696120  1
  O  O7  1  0.53593793  0.88128996  0.25303880  1
  O  O8  1  0.51891524  0.85911302  0.51404219  1
  O  O9  1  0.48108476  0.35911302  0.48595781  1
  O  O10  1  0.98108476  0.85911302  0.01404219  1
  O  O11  1  0.01891524  0.35911302  0.98595781  1
  O  O12  1  0.80798218  0.46919588  0.38696083  1
  O  O13  1  0.19201782  0.96919588  0.61303917  1
  O  O14  1  0.69201782  0.46919588  0.88696083  1
  O  O15  1  0.18958604  0.52330969  0.38479207  1
  O  O16  1  0.52914987  0.63114777  0.48865914  1
  O  O17  1  0.47085013  0.13114777  0.51134086  1
  O  O18  1  0.97085013  0.63114777  0.98865914  1
  O  O19  1  0.45202203  0.10721333  0.25539433  1
  O  O20  1  0.80725520  0.76727865  0.40434694  1
  O  O21  1  0.19274480  0.26727865  0.59565306  1
  O  O22  1  0.69274480  0.76727865  0.90434694  1
  O  O23  1  0.30725520  0.26727865  0.09565306  1
  O  O24  1  0.69403000  0.72967761  0.09679955  1
  O  O25  1  0.30597000  0.22967761  0.90320045  1
  O  O26  1  0.80597000  0.72967761  0.59679955  1
  O  O27  1  0.19403000  0.22967761  0.40320045  1
  O  O28  1  0.95202203  0.60721333  0.24460567  1
  O  O29  1  0.04797797  0.10721333  0.75539433  1
  O  O30  1  0.54797797  0.60721333  0.74460567  1
  O  O31  1  0.02914987  0.13114777  0.01134086  1
  F  F32  1  0.98102280  0.86860775  0.22755503  1
  F  F33  1  0.01897720  0.36860775  0.77244497  1
  F  F34  1  0.51897720  0.86860775  0.72755503  1
  F  F35  1  0.48102280  0.36860775  0.27244497  1
  F  F36  1  0.02608487  0.11980596  0.23036814  1
  F  F37  1  0.97391513  0.61980596  0.76963186  1
  F  F38  1  0.47391513  0.11980596  0.73036814  1
  F  F39  1  0.52608487  0.61980596  0.26963186  1
  P  P40  1  0.99808620  0.49614516  0.31731756  1
  P  P41  1  0.49808620  0.99614516  0.18268244  1
  P  P42  1  0.50191380  0.49614516  0.81731756  1
  P  P43  1  0.00191380  0.99614516  0.68268244  1
  P  P44  1  0.16990609  0.24782981  0.99998145  1
  P  P45  1  0.83009391  0.74782981  0.00001855  1
  P  P46  1  0.33009391  0.24782981  0.49998145  1
  P  P47  1  0.66990609  0.74782981  0.50001855  1
  K  K48  1  0.77270360  0.20309130  0.37531932  1
  K  K49  1  0.30263149  0.94282805  0.89493394  1
  K  K50  1  0.80263149  0.44282805  0.60506606  1
  K  K51  1  0.19736851  0.94282805  0.39493394  1
  K  K52  1  0.69736851  0.44282805  0.10506606  1
  K  K53  1  0.27270360  0.70309130  0.12468068  1
  K  K54  1  0.72729640  0.20309130  0.87531932  1
  K  K55  1  0.22729640  0.70309130  0.62468068  1
  Fe  Fe56  1  0.75093904  0.74870365  0.25312702  1
  Fe  Fe57  1  0.24906096  0.24870365  0.74687298  1
  Fe  Fe58  1  0.74906096  0.74870365  0.75312702  1
  Fe  Fe59  1  0.25093904  0.24870365  0.24687298  1
  Fe  Fe60  1  0.49326484  0.49906243  0.38851664  1
  Fe  Fe61  1  0.50673516  0.99906243  0.61148336  1
  Fe  Fe62  1  0.00673516  0.49906243  0.88851664  1
  Fe  Fe63  1  0.99326484  0.99906243  0.11148336  1
