# generated using pymatgen
data_KMn6P7O24
_symmetry_space_group_name_H-M   'P 1'
_cell_length_a   5.44373144
_cell_length_b   6.66167542
_cell_length_c   27.11762419
_cell_angle_alpha   90.00000000
_cell_angle_beta   90.00000000
_cell_angle_gamma   107.26171235
_symmetry_Int_Tables_number   1
_chemical_formula_structural   KMn6P7O24
_chemical_formula_sum   'K2 Mn12 P14 O48'
_cell_volume   939.11042840
_cell_formula_units_Z   2
loop_
 _symmetry_equiv_pos_site_id
 _symmetry_equiv_pos_as_xyz
  1  'x, y, z'
loop_
 _atom_site_type_symbol
 _atom_site_label
 _atom_site_symmetry_multiplicity
 _atom_site_fract_x
 _atom_site_fract_y
 _atom_site_fract_z
 _atom_site_occupancy
  O  O0  1  0.89229981  0.79867300  0.11942153  1
  O  O1  1  0.10770019  0.20132700  0.61942153  1
  O  O2  1  0.10770019  0.20132700  0.88057847  1
  O  O3  1  0.89229981  0.79867300  0.38057847  1
  O  O4  1  0.56509532  0.94205575  0.16571899  1
  O  O5  1  0.43490468  0.05794425  0.66571899  1
  O  O6  1  0.43490468  0.05794425  0.83428101  1
  O  O7  1  0.56509532  0.94205575  0.33428101  1
  O  O8  1  0.63787275  0.59979573  0.19383979  1
  O  O9  1  0.36212725  0.40020427  0.69383979  1
  O  O10  1  0.36212725  0.40020427  0.80616021  1
  O  O11  1  0.63787275  0.59979573  0.30616021  1
  O  O12  1  0.99605924  0.93940206  0.20364179  1
  O  O13  1  0.00394076  0.06059794  0.70364179  1
  O  O14  1  0.00394076  0.06059794  0.79635821  1
  O  O15  1  0.99605924  0.93940206  0.29635821  1
  O  O16  1  0.15106053  0.78045028  0.75000000  1
  O  O17  1  0.84893947  0.21954972  0.25000000  1
  O  O18  1  0.63079989  0.99796844  0.04768313  1
  O  O19  1  0.67642778  0.78612227  0.75000000  1
  O  O20  1  0.90998494  0.17502753  0.97430023  1
  O  O21  1  0.09001506  0.82497247  0.47430023  1
  O  O22  1  0.09001506  0.82497247  0.02569977  1
  O  O23  1  0.90998494  0.17502753  0.52569977  1
  O  O24  1  0.64549392  0.36917945  0.02214201  1
  O  O25  1  0.35450608  0.63082055  0.52214201  1
  O  O26  1  0.35450608  0.63082055  0.97785799  1
  O  O27  1  0.64549392  0.36917945  0.47785799  1
  O  O28  1  0.98529321  0.38388708  0.35225692  1
  O  O29  1  0.01470679  0.61611292  0.85225692  1
  O  O30  1  0.01470679  0.61611292  0.64774308  1
  O  O31  1  0.98529321  0.38388708  0.14774308  1
  O  O32  1  0.34468150  0.23295715  0.37785790  1
  O  O33  1  0.65531850  0.76704285  0.87785790  1
  O  O34  1  0.65531850  0.76704285  0.62214210  1
  O  O35  1  0.34468150  0.23295715  0.12214210  1
  O  O36  1  0.35771925  0.60185484  0.40476345  1
  O  O37  1  0.64228075  0.39814516  0.90476345  1
  O  O38  1  0.64228075  0.39814516  0.59523655  1
  O  O39  1  0.35771925  0.60185484  0.09523655  1
  O  O40  1  0.04795734  0.28999396  0.44261992  1
  O  O41  1  0.95204266  0.71000604  0.94261992  1
  O  O42  1  0.95204266  0.71000604  0.55738008  1
  O  O43  1  0.04795734  0.28999396  0.05738008  1
  O  O44  1  0.63079989  0.99796844  0.45231687  1
  O  O45  1  0.36920011  0.00203156  0.95231687  1
  O  O46  1  0.36920011  0.00203156  0.54768313  1
  O  O47  1  0.32357222  0.21387773  0.25000000  1
  P  P48  1  0.75209207  0.80830645  0.16781231  1
  P  P49  1  0.24790793  0.19169355  0.66781231  1
  P  P50  1  0.24790793  0.19169355  0.83218769  1
  P  P51  1  0.75209207  0.80830645  0.33218769  1
  P  P52  1  0.96044621  0.90774091  0.75000000  1
  P  P53  1  0.03955379  0.09225909  0.25000000  1
  P  P54  1  0.79232559  0.20527747  0.02437554  1
  P  P55  1  0.20767441  0.79472253  0.52437554  1
  P  P56  1  0.20767441  0.79472253  0.97562446  1
  P  P57  1  0.79232559  0.20527747  0.47562446  1
  P  P58  1  0.18313301  0.38135045  0.10901810  1
  P  P59  1  0.81686699  0.61864955  0.60901810  1
  P  P60  1  0.81686699  0.61864955  0.89098190  1
  P  P61  1  0.18313301  0.38135045  0.39098190  1
  K  K62  1  0.77381694  0.37543310  0.75000000  1
  K  K63  1  0.22618306  0.62456690  0.25000000  1
  Mn  Mn64  1  0.68719198  0.68597236  0.04485315  1
  Mn  Mn65  1  0.31280802  0.31402764  0.54485315  1
  Mn  Mn66  1  0.31280802  0.31402764  0.95514685  1
  Mn  Mn67  1  0.68719198  0.68597236  0.45514685  1
  Mn  Mn68  1  0.29329559  0.91286298  0.09751902  1
  Mn  Mn69  1  0.70670441  0.08713702  0.59751902  1
  Mn  Mn70  1  0.70670441  0.08713702  0.90248098  1
  Mn  Mn71  1  0.29329559  0.91286298  0.40248098  1
  Mn  Mn72  1  0.62136459  0.27814664  0.18267008  1
  Mn  Mn73  1  0.37863541  0.72185336  0.68267008  1
  Mn  Mn74  1  0.37863541  0.72185336  0.81732992  1
  Mn  Mn75  1  0.62136459  0.27814664  0.31732992  1
