# generated using pymatgen
data_Zn2BiWO6
_symmetry_space_group_name_H-M   'P 1'
_cell_length_a   5.52214163
_cell_length_b   5.52628511
_cell_length_c   8.26820549
_cell_angle_alpha   90.00000000
_cell_angle_beta   88.45480697
_cell_angle_gamma   90.00000000
_symmetry_Int_Tables_number   1
_chemical_formula_structural   Zn2BiWO6
_chemical_formula_sum   'Zn4 Bi2 W2 O12'
_cell_volume   252.22848853
_cell_formula_units_Z   2
loop_
 _symmetry_equiv_pos_site_id
 _symmetry_equiv_pos_as_xyz
  1  'x, y, z'
loop_
 _atom_site_type_symbol
 _atom_site_label
 _atom_site_symmetry_multiplicity
 _atom_site_fract_x
 _atom_site_fract_y
 _atom_site_fract_z
 _atom_site_occupancy
  Zn  Zn0  1  0.02549536  0.01547255  0.25477796  1
  Zn  Zn1  1  0.47450464  0.51547355  0.24522204  1
  Zn  Zn2  1  0.97450564  0.98452845  0.74522204  1
  Zn  Zn3  1  0.52549436  0.48452745  0.75477796  1
  Bi  Bi4  1  0.50000000  0.00000000  0.00000000  1
  Bi  Bi5  1  0.00000100  0.49999900  0.50000000  1
  W  W6  1  0.50000000  0.00000000  0.49999900  1
  W  W7  1  0.00000000  0.49999900  0.00000000  1
  O  O8  1  0.62774922  0.31581237  0.41300995  1
  O  O9  1  0.87225078  0.81581337  0.08699005  1
  O  O10  1  0.37224978  0.68418763  0.58699005  1
  O  O11  1  0.12775022  0.18418663  0.91300995  1
  O  O12  1  0.18102622  0.13376245  0.56504111  1
  O  O13  1  0.31897378  0.63376145  0.93495889  1
  O  O14  1  0.81897478  0.86623755  0.43495889  1
  O  O15  1  0.68102522  0.36623855  0.06504111  1
  O  O16  1  0.12508996  0.37334171  0.22344790  1
  O  O17  1  0.37491104  0.87334271  0.27655110  1
  O  O18  1  0.62508996  0.12665729  0.72344890  1
  O  O19  1  0.87491104  0.62665829  0.77655210  1
