# generated using pymatgen
data_Cr3B4Mo3
_symmetry_space_group_name_H-M   'P 1'
_cell_length_a   3.00590416
_cell_length_b   5.89189789
_cell_length_c   5.89189789
_cell_angle_alpha   90.11389612
_cell_angle_beta   90.00000000
_cell_angle_gamma   90.00000000
_symmetry_Int_Tables_number   1
_chemical_formula_structural   Cr3B4Mo3
_chemical_formula_sum   'Cr3 B4 Mo3'
_cell_volume   104.34813581
_cell_formula_units_Z   1
loop_
 _symmetry_equiv_pos_site_id
 _symmetry_equiv_pos_as_xyz
  1  'x, y, z'
loop_
 _atom_site_type_symbol
 _atom_site_label
 _atom_site_symmetry_multiplicity
 _atom_site_fract_x
 _atom_site_fract_y
 _atom_site_fract_z
 _atom_site_occupancy
  Cr  Cr0  1  0.50000000  0.82619755  0.32619755  1
  Cr  Cr1  1  0.50000000  0.33278785  0.16865082  1
  Cr  Cr2  1  0.50000000  0.66865082  0.83278785  1
  B  B3  1  0.00000000  0.61200584  0.11200584  1
  B  B4  1  0.00000000  0.39382869  0.89382869  1
  B  B5  1  0.00000000  0.88034156  0.61055452  1
  B  B6  1  0.00000000  0.11055452  0.38034156  1
  Mo  Mo7  1  0.00000000  0.50586114  0.49579832  1
  Mo  Mo8  1  0.00000000  0.99579832  0.00586114  1
  Mo  Mo9  1  0.50000000  0.17397370  0.67397370  1
