# generated using pymatgen
data_Na2Co(Si2O5)2
_symmetry_space_group_name_H-M   'P 1'
_cell_length_a   7.01588417
_cell_length_b   7.87491605
_cell_length_c   9.88298588
_cell_angle_alpha   102.17871004
_cell_angle_beta   102.25128206
_cell_angle_gamma   114.83716540
_symmetry_Int_Tables_number   1
_chemical_formula_structural   Na2Co(Si2O5)2
_chemical_formula_sum   'Na4 Co2 Si8 O20'
_cell_volume   455.67348504
_cell_formula_units_Z   2
loop_
 _symmetry_equiv_pos_site_id
 _symmetry_equiv_pos_as_xyz
  1  'x, y, z'
loop_
 _atom_site_type_symbol
 _atom_site_label
 _atom_site_symmetry_multiplicity
 _atom_site_fract_x
 _atom_site_fract_y
 _atom_site_fract_z
 _atom_site_occupancy
  O  O0  1  0.98129527  0.79188867  0.19755785  1
  O  O1  1  0.01870473  0.20811133  0.80244215  1
  O  O2  1  0.84838153  0.55312820  0.86745739  1
  O  O3  1  0.15161847  0.44687180  0.13254261  1
  O  O4  1  0.57401778  0.62182742  0.18234055  1
  O  O5  1  0.42598222  0.37817258  0.81765945  1
  O  O6  1  0.24666931  0.60207536  0.85969233  1
  O  O7  1  0.75333069  0.39792464  0.14030767  1
  O  O8  1  0.88600124  0.64518201  0.41835447  1
  O  O9  1  0.11399876  0.35481799  0.58164553  1
  O  O10  1  0.42661238  0.59795374  0.41601259  1
  O  O11  1  0.57338762  0.40204626  0.58398741  1
  O  O12  1  0.06373317  0.79093811  0.72720549  1
  O  O13  1  0.93626683  0.20906189  0.27279451  1
  O  O14  1  0.78538316  0.10386255  0.97781603  1
  O  O15  1  0.21461684  0.89613745  0.02218397  1
  O  O16  1  0.60485974  0.15774963  0.73046020  1
  O  O17  1  0.39514026  0.84225037  0.26953980  1
  O  O18  1  0.34466092  0.16084665  0.28054402  1
  O  O19  1  0.65533908  0.83915335  0.71945598  1
  Na  Na20  1  0.65628514  0.76800460  0.98405373  1
  Na  Na21  1  0.73818504  0.27525343  0.42146298  1
  Na  Na22  1  0.26181496  0.72474657  0.57853702  1
  Na  Na23  1  0.34371486  0.23199540  0.01594627  1
  Si  Si24  1  0.09025232  0.71255000  0.86207699  1
  Si  Si25  1  0.90974768  0.28745000  0.13792301  1
  Si  Si26  1  0.23461866  0.92772189  0.19786607  1
  Si  Si27  1  0.76538134  0.07227811  0.80213393  1
  Si  Si28  1  0.38769255  0.62816909  0.25862381  1
  Si  Si29  1  0.18960986  0.38090966  0.75197351  1
  Si  Si30  1  0.81039014  0.61909034  0.24802649  1
  Si  Si31  1  0.61230745  0.37183091  0.74137619  1
  Co  Co32  1  0.75499634  0.69237388  0.58120906  1
  Co  Co33  1  0.24500366  0.30762612  0.41879094  1
