# generated using pymatgen
data_Sc2(MoO4)3
_symmetry_space_group_name_H-M   'P 1'
_cell_length_a   9.72376064
_cell_length_b   9.82123480
_cell_length_c   13.59425035
_cell_angle_alpha   90.00000000
_cell_angle_beta   90.00000000
_cell_angle_gamma   90.00000000
_symmetry_Int_Tables_number   1
_chemical_formula_structural   Sc2(MoO4)3
_chemical_formula_sum   'Sc8 Mo12 O48'
_cell_volume   1298.24188707
_cell_formula_units_Z   4
loop_
 _symmetry_equiv_pos_site_id
 _symmetry_equiv_pos_as_xyz
  1  'x, y, z'
loop_
 _atom_site_type_symbol
 _atom_site_label
 _atom_site_symmetry_multiplicity
 _atom_site_fract_x
 _atom_site_fract_y
 _atom_site_fract_z
 _atom_site_occupancy
  O  O0  1  0.13316100  0.13079821  0.43555660  1
  O  O1  1  0.13316100  0.36920179  0.56444340  1
  O  O2  1  0.36683900  0.63079821  0.06444340  1
  O  O3  1  0.36683900  0.86920179  0.93555660  1
  O  O4  1  0.86683900  0.86920179  0.56444340  1
  O  O5  1  0.86683900  0.63079821  0.43555660  1
  O  O6  1  0.63316100  0.36920179  0.93555660  1
  O  O7  1  0.63316100  0.13079821  0.06444340  1
  O  O8  1  0.91973770  0.33732430  0.41319399  1
  O  O9  1  0.91973770  0.16267570  0.58680601  1
  O  O10  1  0.58026230  0.83732430  0.08680601  1
  O  O11  1  0.58026230  0.66267570  0.91319399  1
  O  O12  1  0.08026230  0.66267570  0.58680601  1
  O  O13  1  0.08026230  0.83732430  0.41319399  1
  O  O14  1  0.41973770  0.16267570  0.91319399  1
  O  O15  1  0.41973770  0.33732430  0.08680601  1
  O  O16  1  0.18083420  0.06643728  0.02886989  1
  O  O17  1  0.18083420  0.43356272  0.97113011  1
  O  O18  1  0.31916580  0.56643728  0.47113011  1
  O  O19  1  0.31916580  0.93356272  0.52886989  1
  O  O20  1  0.81916580  0.93356272  0.97113011  1
  O  O21  1  0.81916580  0.56643728  0.02886989  1
  O  O22  1  0.68083420  0.43356272  0.52886989  1
  O  O23  1  0.68083420  0.06643728  0.47113011  1
  O  O24  1  0.92513352  0.08762147  0.14062373  1
  O  O25  1  0.92513352  0.41237853  0.85937627  1
  O  O26  1  0.57486648  0.58762147  0.35937627  1
  O  O27  1  0.57486648  0.91237853  0.64062373  1
  O  O28  1  0.07486648  0.91237853  0.85937627  1
  O  O29  1  0.07486648  0.58762147  0.14062373  1
  O  O30  1  0.42513352  0.41237853  0.64062373  1
  O  O31  1  0.42513352  0.08762147  0.35937627  1
  O  O32  1  0.18203666  0.01379669  0.24045141  1
  O  O33  1  0.18203666  0.48620331  0.75954859  1
  O  O34  1  0.31796334  0.51379669  0.25954859  1
  O  O35  1  0.31796334  0.98620331  0.74045141  1
  O  O36  1  0.81796334  0.98620331  0.75954859  1
  O  O37  1  0.81796334  0.51379669  0.24045141  1
  O  O38  1  0.68203666  0.48620331  0.74045141  1
  O  O39  1  0.68203666  0.01379669  0.25954859  1
  O  O40  1  0.14096925  0.29221255  0.16443456  1
  O  O41  1  0.14096925  0.20778745  0.83556544  1
  O  O42  1  0.35903075  0.79221255  0.33556544  1
  O  O43  1  0.35903075  0.70778745  0.66443456  1
  O  O44  1  0.85903075  0.70778745  0.83556544  1
  O  O45  1  0.85903075  0.79221255  0.16443456  1
  O  O46  1  0.64096925  0.20778745  0.66443456  1
  O  O47  1  0.64096925  0.29221255  0.33556544  1
  Sc  Sc48  1  0.25051815  0.46690942  0.11789287  1
  Sc  Sc49  1  0.25051815  0.03309058  0.88210713  1
  Sc  Sc50  1  0.24948185  0.96690942  0.38210713  1
  Sc  Sc51  1  0.24948185  0.53309058  0.61789287  1
  Sc  Sc52  1  0.74948185  0.53309058  0.88210713  1
  Sc  Sc53  1  0.74948185  0.96690942  0.11789287  1
  Sc  Sc54  1  0.75051815  0.03309058  0.61789287  1
  Sc  Sc55  1  0.75051815  0.46690942  0.38210713  1
  Mo  Mo56  1  0.39264507  0.88517751  0.64420776  1
  Mo  Mo57  1  0.39264507  0.61482249  0.35579224  1
  Mo  Mo58  1  0.10735493  0.38517751  0.85579224  1
  Mo  Mo59  1  0.10735493  0.11482249  0.14420776  1
  Mo  Mo60  1  0.89264507  0.88517751  0.85579224  1
  Mo  Mo61  1  0.89264507  0.61482249  0.14420776  1
  Mo  Mo62  1  0.60735493  0.38517751  0.64420776  1
  Mo  Mo63  1  0.60735493  0.11482249  0.35579224  1
  Mo  Mo64  1  0.02689254  0.25000000  0.50000000  1
  Mo  Mo65  1  0.47310746  0.75000000  0.00000000  1
  Mo  Mo66  1  0.97310746  0.75000000  0.50000000  1
  Mo  Mo67  1  0.52689254  0.25000000  0.00000000  1
