# generated using pymatgen
data_Na2LiFe(Si2O5)3
_symmetry_space_group_name_H-M   'P 1'
_cell_length_a   10.22529018
_cell_length_b   11.31472982
_cell_length_c   11.31472982
_cell_angle_alpha   101.77116701
_cell_angle_beta   90.00000000
_cell_angle_gamma   90.00000000
_symmetry_Int_Tables_number   1
_chemical_formula_structural   Na2LiFe(Si2O5)3
_chemical_formula_sum   'Na8 Li4 Fe4 Si24 O60'
_cell_volume   1281.54387069
_cell_formula_units_Z   4
loop_
 _symmetry_equiv_pos_site_id
 _symmetry_equiv_pos_as_xyz
  1  'x, y, z'
loop_
 _atom_site_type_symbol
 _atom_site_label
 _atom_site_symmetry_multiplicity
 _atom_site_fract_x
 _atom_site_fract_y
 _atom_site_fract_z
 _atom_site_occupancy
  Li  Li0  1  0.00000000  0.74792829  0.74792829  1
  Li  Li1  1  0.50000000  0.24792829  0.24792829  1
  Li  Li2  1  0.00000000  0.25207171  0.25207171  1
  Li  Li3  1  0.50000000  0.75207171  0.75207171  1
  O  O4  1  0.00519547  0.35563586  0.90971222  1
  O  O5  1  0.19034324  0.44704117  0.55295883  1
  O  O6  1  0.30965676  0.94704117  0.05295883  1
  O  O7  1  0.80965676  0.55295883  0.44704117  1
  O  O8  1  0.92941308  0.32411990  0.67588010  1
  O  O9  1  0.57058692  0.82411990  0.17588010  1
  O  O10  1  0.07058692  0.67588010  0.32411990  1
  O  O11  1  0.42941308  0.17588010  0.82411990  1
  O  O12  1  0.01548888  0.11619443  0.88380557  1
  O  O13  1  0.51548888  0.38380557  0.61619443  1
  O  O14  1  0.98451112  0.88380557  0.11619443  1
  O  O15  1  0.48451112  0.61619443  0.38380557  1
  O  O16  1  0.32648186  0.00148190  0.66367204  1
  O  O17  1  0.82648186  0.49851810  0.83632796  1
  O  O18  1  0.67351814  0.66367204  0.00148190  1
  O  O19  1  0.17351814  0.83632796  0.49851810  1
  O  O20  1  0.67351814  0.99851810  0.33632796  1
  O  O21  1  0.17351814  0.50148190  0.16367204  1
  O  O22  1  0.32648186  0.33632796  0.99851810  1
  O  O23  1  0.82648186  0.16367204  0.50148190  1
  O  O24  1  0.41283676  0.00223884  0.27958212  1
  O  O25  1  0.91283676  0.49776116  0.22041788  1
  O  O26  1  0.58716324  0.27958212  0.00223884  1
  O  O27  1  0.08716324  0.22041788  0.49776116  1
  O  O28  1  0.16665134  0.02472857  0.25099409  1
  O  O29  1  0.08716324  0.50223884  0.77958212  1
  O  O30  1  0.41283676  0.72041788  0.99776116  1
  O  O31  1  0.91283676  0.77958212  0.50223884  1
  O  O32  1  0.16288936  0.67346472  0.66357472  1
  O  O33  1  0.66288936  0.82653528  0.83642528  1
  O  O34  1  0.83711064  0.66357472  0.67346472  1
  O  O35  1  0.33711064  0.83642528  0.82653528  1
  O  O36  1  0.83711064  0.32653528  0.33642528  1
  O  O37  1  0.33711064  0.17346472  0.16357472  1
  O  O38  1  0.16288936  0.33642528  0.32653528  1
  O  O39  1  0.66288936  0.16357472  0.17346472  1
  O  O40  1  0.00519547  0.09028778  0.64436414  1
  O  O41  1  0.50519547  0.40971222  0.85563586  1
  O  O42  1  0.99480453  0.64436414  0.09028778  1
  O  O43  1  0.49480453  0.85563586  0.40971222  1
  O  O44  1  0.99480453  0.90971222  0.35563586  1
  O  O45  1  0.49480453  0.59028778  0.14436414  1
  O  O46  1  0.69034324  0.05295883  0.94704117  1
  O  O47  1  0.50519547  0.14436414  0.59028778  1
  O  O48  1  0.58475950  0.24916854  0.40817951  1
  O  O49  1  0.08475950  0.25083146  0.09182049  1
  O  O50  1  0.41524050  0.40817951  0.24916854  1
  O  O51  1  0.91524050  0.09182049  0.25083146  1
  O  O52  1  0.41524050  0.75083146  0.59182049  1
  O  O53  1  0.91524050  0.74916854  0.90817951  1
  O  O54  1  0.58475950  0.59182049  0.75083146  1
  O  O55  1  0.08475950  0.90817951  0.74916854  1
  O  O56  1  0.66665134  0.75099409  0.52472857  1
  O  O57  1  0.16665134  0.74900591  0.97527143  1
  O  O58  1  0.33334866  0.52472857  0.75099409  1
  O  O59  1  0.83334866  0.97527143  0.74900591  1
  O  O60  1  0.33334866  0.24900591  0.47527143  1
  O  O61  1  0.83334866  0.25099409  0.02472857  1
  O  O62  1  0.66665134  0.47527143  0.24900591  1
  O  O63  1  0.58716324  0.99776116  0.72041788  1
  Na  Na64  1  0.74842134  0.91572741  0.08427259  1
  Na  Na65  1  0.24842134  0.58427259  0.41572741  1
  Na  Na66  1  0.25157866  0.08427259  0.91572741  1
  Na  Na67  1  0.75157866  0.41572741  0.58427259  1
  Na  Na68  1  0.75000000  0.97426139  0.52573861  1
  Na  Na69  1  0.25000000  0.52573861  0.97426139  1
  Na  Na70  1  0.25000000  0.02573861  0.47426139  1
  Na  Na71  1  0.75000000  0.47426139  0.02573861  1
  Si  Si72  1  0.98697898  0.01948124  0.75612223  1
  Si  Si73  1  0.80698430  0.68506961  0.54094839  1
  Si  Si74  1  0.69301570  0.95905161  0.81493039  1
  Si  Si75  1  0.19301570  0.54094839  0.68506961  1
  Si  Si76  1  0.69301570  0.18506961  0.04094839  1
  Si  Si77  1  0.19301570  0.31493039  0.45905161  1
  Si  Si78  1  0.30698430  0.04094839  0.18506961  1
  Si  Si79  1  0.80698430  0.45905161  0.31493039  1
  Si  Si80  1  0.01302102  0.75612223  0.01948124  1
  Si  Si81  1  0.51302102  0.74387777  0.48051876  1
  Si  Si82  1  0.30698430  0.81493039  0.95905161  1
  Si  Si83  1  0.48697898  0.48051876  0.74387777  1
  Si  Si84  1  0.98697898  0.24387777  0.98051876  1
  Si  Si85  1  0.48697898  0.25612223  0.51948124  1
  Si  Si86  1  0.95811638  0.42319157  0.80158574  1
  Si  Si87  1  0.51302102  0.51948124  0.25612223  1
  Si  Si88  1  0.04188362  0.57680843  0.19841426  1
  Si  Si89  1  0.54188362  0.92319157  0.30158574  1
  Si  Si90  1  0.95811638  0.19841426  0.57680843  1
  Si  Si91  1  0.45811638  0.30158574  0.92319157  1
  Si  Si92  1  0.54188362  0.69841426  0.07680843  1
  Si  Si93  1  0.04188362  0.80158574  0.42319157  1
  Si  Si94  1  0.45811638  0.07680843  0.69841426  1
  Si  Si95  1  0.01302102  0.98051876  0.24387777  1
  Fe  Fe96  1  0.75000000  0.16355123  0.33644877  1
  Fe  Fe97  1  0.25000000  0.33644877  0.16355123  1
  Fe  Fe98  1  0.25000000  0.83644877  0.66355123  1
  Fe  Fe99  1  0.75000000  0.66355123  0.83644877  1
