# generated using pymatgen
data_Fe2Ni(PO4)2
_symmetry_space_group_name_H-M   'P 1'
_cell_length_a   4.77169471
_cell_length_b   6.10731335
_cell_length_c   10.52598451
_cell_angle_alpha   90.27930893
_cell_angle_beta   90.00000000
_cell_angle_gamma   90.00000000
_symmetry_Int_Tables_number   1
_chemical_formula_structural   Fe2Ni(PO4)2
_chemical_formula_sum   'Fe4 Ni2 P4 O16'
_cell_volume   306.74706738
_cell_formula_units_Z   2
loop_
 _symmetry_equiv_pos_site_id
 _symmetry_equiv_pos_as_xyz
  1  'x, y, z'
loop_
 _atom_site_type_symbol
 _atom_site_label
 _atom_site_symmetry_multiplicity
 _atom_site_fract_x
 _atom_site_fract_y
 _atom_site_fract_z
 _atom_site_occupancy
  O  O0  1  0.22832037  0.47198747  0.65849380  1
  O  O1  1  0.72832037  0.52801253  0.84150620  1
  O  O2  1  0.77167963  0.52801253  0.34150620  1
  O  O3  1  0.27167963  0.47198747  0.15849380  1
  O  O4  1  0.18181231  0.07167551  0.68013882  1
  O  O5  1  0.68181231  0.92832449  0.81986118  1
  O  O6  1  0.81818769  0.92832449  0.31986118  1
  O  O7  1  0.31818769  0.07167551  0.18013882  1
  O  O8  1  0.30706154  0.25764459  0.96055188  1
  O  O9  1  0.80706154  0.74235541  0.53944812  1
  O  O10  1  0.74740819  0.28146752  0.10255408  1
  O  O11  1  0.24740819  0.71853248  0.39744592  1
  O  O12  1  0.25259181  0.71853248  0.89744592  1
  O  O13  1  0.75259181  0.28146752  0.60255408  1
  O  O14  1  0.19293846  0.25764459  0.46055188  1
  O  O15  1  0.69293846  0.74235541  0.03944812  1
  P  P16  1  0.07442571  0.26353817  0.59785198  1
  P  P17  1  0.57442571  0.73646183  0.90214802  1
  P  P18  1  0.92557429  0.73646183  0.40214802  1
  P  P19  1  0.42557429  0.26353817  0.09785198  1
  Fe  Fe20  1  0.52161693  0.23687358  0.78217306  1
  Fe  Fe21  1  0.02161693  0.76312642  0.71782694  1
  Fe  Fe22  1  0.47838307  0.76312642  0.21782694  1
  Fe  Fe23  1  0.97838307  0.23687358  0.28217306  1
  Ni  Ni24  1  0.50000000  0.50000000  0.50000000  1
  Ni  Ni25  1  0.00000000  0.50000000  0.00000000  1
