# generated using pymatgen
data_KMn4(PO4)3
_symmetry_space_group_name_H-M   'P 1'
_cell_length_a   6.64476243
_cell_length_b   10.21018159
_cell_length_c   16.31597695
_cell_angle_alpha   90.00000000
_cell_angle_beta   90.00000000
_cell_angle_gamma   90.00000000
_symmetry_Int_Tables_number   1
_chemical_formula_structural   KMn4(PO4)3
_chemical_formula_sum   'K4 Mn16 P12 O48'
_cell_volume   1106.94490972
_cell_formula_units_Z   4
loop_
 _symmetry_equiv_pos_site_id
 _symmetry_equiv_pos_as_xyz
  1  'x, y, z'
loop_
 _atom_site_type_symbol
 _atom_site_label
 _atom_site_symmetry_multiplicity
 _atom_site_fract_x
 _atom_site_fract_y
 _atom_site_fract_z
 _atom_site_occupancy
  O  O0  1  0.25000000  0.05317947  0.76772715  1
  O  O1  1  0.75000000  0.94682053  0.23227285  1
  O  O2  1  0.25000000  0.55317947  0.73227285  1
  O  O3  1  0.75000000  0.44682053  0.26772715  1
  O  O4  1  0.94029152  0.74401875  0.17873278  1
  O  O5  1  0.44029152  0.25598125  0.82126722  1
  O  O6  1  0.55970848  0.24401875  0.32126722  1
  O  O7  1  0.05970848  0.75598125  0.67873278  1
  O  O8  1  0.05970848  0.25598125  0.82126722  1
  O  O9  1  0.55970848  0.74401875  0.17873278  1
  O  O10  1  0.44029152  0.75598125  0.67873278  1
  O  O11  1  0.94029152  0.24401875  0.32126722  1
  O  O12  1  0.25000000  0.24993099  0.68439095  1
  O  O13  1  0.75000000  0.75006901  0.31560905  1
  O  O14  1  0.25000000  0.74993099  0.81560905  1
  O  O15  1  0.75000000  0.25006901  0.18439095  1
  O  O16  1  0.94019215  0.91014533  0.90129383  1
  O  O17  1  0.44019215  0.08985467  0.09870617  1
  O  O18  1  0.55980785  0.41014533  0.59870617  1
  O  O19  1  0.93986862  0.56103295  0.89141990  1
  O  O20  1  0.05980785  0.58985467  0.40129383  1
  O  O21  1  0.55980785  0.91014533  0.90129383  1
  O  O22  1  0.44019215  0.58985467  0.40129383  1
  O  O23  1  0.94019215  0.41014533  0.59870617  1
  O  O24  1  0.25000000  0.10412378  0.96531487  1
  O  O25  1  0.75000000  0.89587622  0.03468513  1
  O  O26  1  0.25000000  0.60412378  0.53468513  1
  O  O27  1  0.75000000  0.39587622  0.46531487  1
  O  O28  1  0.25000000  0.38903772  0.45651484  1
  O  O29  1  0.75000000  0.61096228  0.54348516  1
  O  O30  1  0.25000000  0.88903772  0.04348516  1
  O  O31  1  0.75000000  0.11096228  0.95651484  1
  O  O32  1  0.75000000  0.11075557  0.47645755  1
  O  O33  1  0.25000000  0.88924443  0.52354245  1
  O  O34  1  0.75000000  0.61075557  0.02354245  1
  O  O35  1  0.25000000  0.38924443  0.97645755  1
  O  O36  1  0.75000000  0.37950221  0.96743325  1
  O  O37  1  0.25000000  0.62049779  0.03256675  1
  O  O38  1  0.75000000  0.87950221  0.53256675  1
  O  O39  1  0.25000000  0.12049779  0.46743325  1
  O  O40  1  0.93986862  0.06103295  0.60858010  1
  O  O41  1  0.43986862  0.93896705  0.39141990  1
  O  O42  1  0.56013138  0.56103295  0.89141990  1
  O  O43  1  0.06013138  0.43896705  0.10858010  1
  O  O44  1  0.06013138  0.93896705  0.39141990  1
  O  O45  1  0.56013138  0.06103295  0.60858010  1
  O  O46  1  0.43986862  0.43896705  0.10858010  1
  O  O47  1  0.05980785  0.08985467  0.09870617  1
  P  P48  1  0.25000000  0.20665934  0.77595831  1
  P  P49  1  0.75000000  0.79334066  0.22404169  1
  P  P50  1  0.25000000  0.70665934  0.72404169  1
  P  P51  1  0.75000000  0.29334066  0.27595831  1
  P  P52  1  0.25000000  0.04199899  0.05520873  1
  P  P53  1  0.75000000  0.95800101  0.94479127  1
  P  P54  1  0.25000000  0.54199899  0.44479127  1
  P  P55  1  0.75000000  0.02829010  0.55978248  1
  P  P56  1  0.75000000  0.45800101  0.55520873  1
  P  P57  1  0.75000000  0.52829010  0.94021752  1
  P  P58  1  0.25000000  0.97170990  0.44021752  1
  P  P59  1  0.25000000  0.47170990  0.05978248  1
  K  K60  1  0.25000000  0.75118855  0.28587789  1
  K  K61  1  0.75000000  0.74881145  0.78587789  1
  K  K62  1  0.25000000  0.25118855  0.21412211  1
  K  K63  1  0.75000000  0.24881145  0.71412211  1
  Mn  Mn64  1  0.99792142  0.75248851  0.05301644  1
  Mn  Mn65  1  0.49792142  0.74751149  0.55301644  1
  Mn  Mn66  1  0.50207858  0.75248851  0.05301644  1
  Mn  Mn67  1  0.00207858  0.24751149  0.94698356  1
  Mn  Mn68  1  0.25000000  0.43463769  0.62678501  1
  Mn  Mn69  1  0.75000000  0.56536231  0.37321499  1
  Mn  Mn70  1  0.25000000  0.93463769  0.87321499  1
  Mn  Mn71  1  0.75000000  0.06536231  0.12678501  1
  Mn  Mn72  1  0.25000000  0.04323164  0.63061945  1
  Mn  Mn73  1  0.75000000  0.95676836  0.36938055  1
  Mn  Mn74  1  0.25000000  0.54323164  0.86938055  1
  Mn  Mn75  1  0.75000000  0.45676836  0.13061945  1
  Mn  Mn76  1  0.49792142  0.24751149  0.94698356  1
  Mn  Mn77  1  0.50207858  0.25248851  0.44698356  1
  Mn  Mn78  1  0.00207858  0.74751149  0.55301644  1
  Mn  Mn79  1  0.99792142  0.25248851  0.44698356  1
