# generated using pymatgen
data_Ba3MnSb2O9
_symmetry_space_group_name_H-M   'P 1'
_cell_length_a   5.98942721
_cell_length_b   5.98942722
_cell_length_c   14.82904087
_cell_angle_alpha   90.57806552
_cell_angle_beta   90.57806553
_cell_angle_gamma   119.92876564
_symmetry_Int_Tables_number   1
_chemical_formula_structural   Ba3MnSb2O9
_chemical_formula_sum   'Ba6 Mn2 Sb4 O18'
_cell_volume   460.93249838
_cell_formula_units_Z   2
loop_
 _symmetry_equiv_pos_site_id
 _symmetry_equiv_pos_as_xyz
  1  'x, y, z'
loop_
 _atom_site_type_symbol
 _atom_site_label
 _atom_site_symmetry_multiplicity
 _atom_site_fract_x
 _atom_site_fract_y
 _atom_site_fract_z
 _atom_site_occupancy
  O  O0  1  0.31715480  0.14560069  0.40509424  1
  O  O1  1  0.85439931  0.68284520  0.09490576  1
  O  O2  1  0.68284520  0.85439931  0.59490576  1
  O  O3  1  0.14560069  0.31715480  0.90509424  1
  O  O4  1  0.80319005  0.63172327  0.42494159  1
  O  O5  1  0.36827673  0.19680995  0.07505841  1
  O  O6  1  0.19680995  0.36827673  0.57505841  1
  O  O7  1  0.63172327  0.80319005  0.92494159  1
  O  O8  1  0.80310887  0.14444442  0.41399306  1
  O  O9  1  0.85555558  0.19689113  0.08600694  1
  O  O10  1  0.19689113  0.85555558  0.58600694  1
  O  O11  1  0.14444442  0.80310887  0.91399306  1
  O  O12  1  0.48156888  0.51843112  0.75000000  1
  O  O13  1  0.51843112  0.48156888  0.25000000  1
  O  O14  1  0.48095992  0.96006786  0.75787735  1
  O  O15  1  0.03993214  0.51904008  0.74212265  1
  O  O16  1  0.51904008  0.03993214  0.24212265  1
  O  O17  1  0.96006786  0.48095992  0.25787735  1
  Mn  Mn18  1  0.00000000  0.00000000  0.00000000  1
  Mn  Mn19  1  0.00000000  0.00000000  0.50000000  1
  Sb  Sb20  1  0.65440724  0.32208857  0.34719358  1
  Sb  Sb21  1  0.67791143  0.34559276  0.15280642  1
  Sb  Sb22  1  0.32208857  0.65440724  0.84719358  1
  Sb  Sb23  1  0.34559276  0.67791143  0.65280642  1
  Ba  Ba24  1  0.32629407  0.66087085  0.41191591  1
  Ba  Ba25  1  0.33912915  0.67370593  0.08808409  1
  Ba  Ba26  1  0.67370593  0.33912915  0.58808409  1
  Ba  Ba27  1  0.66087085  0.32629407  0.91191591  1
  Ba  Ba28  1  0.99732074  0.00267926  0.25000000  1
  Ba  Ba29  1  0.00267926  0.99732074  0.75000000  1
