# generated using pymatgen
data_Ba2CoO4
_symmetry_space_group_name_H-M   'P 1'
_cell_length_a   6.10972100
_cell_length_b   7.69918564
_cell_length_c   10.53651100
_cell_angle_alpha   90.00000000
_cell_angle_beta   93.20443130
_cell_angle_gamma   90.00000000
_symmetry_Int_Tables_number   1
_chemical_formula_structural   Ba2CoO4
_chemical_formula_sum   'Ba8 Co4 O16'
_cell_volume   494.86121792
_cell_formula_units_Z   4
loop_
 _symmetry_equiv_pos_site_id
 _symmetry_equiv_pos_as_xyz
  1  'x, y, z'
loop_
 _atom_site_type_symbol
 _atom_site_label
 _atom_site_symmetry_multiplicity
 _atom_site_fract_x
 _atom_site_fract_y
 _atom_site_fract_z
 _atom_site_occupancy
  O  O0  1  0.17880163  0.31863436  0.42644610  1
  O  O1  1  0.32119837  0.81863436  0.07355390  1
  O  O2  1  0.82119837  0.68136564  0.57355390  1
  O  O3  1  0.67880163  0.18136564  0.92644610  1
  O  O4  1  0.49734865  0.32759735  0.63719580  1
  O  O5  1  0.00265135  0.82759735  0.86280420  1
  O  O6  1  0.50265135  0.67240265  0.36280420  1
  O  O7  1  0.99734865  0.17240265  0.13719580  1
  O  O8  1  0.02383413  0.26960579  0.68418806  1
  O  O9  1  0.47616587  0.76960579  0.81581194  1
  O  O10  1  0.97616587  0.73039421  0.31581194  1
  O  O11  1  0.52383413  0.23039421  0.18418806  1
  O  O12  1  0.78473728  0.50581364  0.07166314  1
  O  O13  1  0.71526272  0.00581364  0.42833686  1
  O  O14  1  0.21526272  0.49418636  0.92833686  1
  O  O15  1  0.28473728  0.99418636  0.57166314  1
  Co  Co16  1  0.24341297  0.22273594  0.58247833  1
  Co  Co17  1  0.25658703  0.72273594  0.91752167  1
  Co  Co18  1  0.75658703  0.77726406  0.41752167  1
  Co  Co19  1  0.74341297  0.27726406  0.08247833  1
  Ba  Ba20  1  0.72663237  0.00017672  0.69185301  1
  Ba  Ba21  1  0.77336763  0.50017672  0.80814699  1
  Ba  Ba22  1  0.27336763  0.99982328  0.30814699  1
  Ba  Ba23  1  0.22663237  0.49982328  0.19185301  1
  Ba  Ba24  1  0.26238573  0.65231353  0.57824283  1
  Ba  Ba25  1  0.23761427  0.15231353  0.92175717  1
  Ba  Ba26  1  0.73761427  0.34768647  0.42175717  1
  Ba  Ba27  1  0.76238573  0.84768647  0.07824283  1
