# generated using pymatgen
data_GdCrO3
_symmetry_space_group_name_H-M   'P 1'
_cell_length_a   5.37869811
_cell_length_b   5.62763135
_cell_length_c   7.72483213
_cell_angle_alpha   90.00000000
_cell_angle_beta   90.00000000
_cell_angle_gamma   90.00000000
_symmetry_Int_Tables_number   1
_chemical_formula_structural   GdCrO3
_chemical_formula_sum   'Gd4 Cr4 O12'
_cell_volume   233.82549376
_cell_formula_units_Z   4
loop_
 _symmetry_equiv_pos_site_id
 _symmetry_equiv_pos_as_xyz
  1  'x, y, z'
loop_
 _atom_site_type_symbol
 _atom_site_label
 _atom_site_symmetry_multiplicity
 _atom_site_fract_x
 _atom_site_fract_y
 _atom_site_fract_z
 _atom_site_occupancy
  O  O0  1  0.69651855  0.30020848  0.44563705  1
  O  O1  1  0.19651855  0.19979152  0.55436295  1
  O  O2  1  0.80348145  0.80020848  0.05436295  1
  O  O3  1  0.30348145  0.69979152  0.94563705  1
  O  O4  1  0.30348145  0.69979152  0.55436295  1
  O  O5  1  0.80348145  0.80020848  0.44563705  1
  O  O6  1  0.19651855  0.19979152  0.94563705  1
  O  O7  1  0.69651855  0.30020848  0.05436295  1
  O  O8  1  0.10476286  0.46415519  0.25000000  1
  O  O9  1  0.60476286  0.03584481  0.75000000  1
  O  O10  1  0.39523714  0.96415519  0.25000000  1
  O  O11  1  0.89523714  0.53584481  0.75000000  1
  Cr  Cr12  1  0.00000000  0.50000000  0.50000000  1
  Cr  Cr13  1  0.50000000  0.00000000  0.50000000  1
  Cr  Cr14  1  0.50000000  0.00000000  0.00000000  1
  Cr  Cr15  1  0.00000000  0.50000000  0.00000000  1
  Gd  Gd16  1  0.01674797  0.93781147  0.75000000  1
  Gd  Gd17  1  0.51674797  0.56218853  0.25000000  1
  Gd  Gd18  1  0.48325203  0.43781147  0.75000000  1
  Gd  Gd19  1  0.98325203  0.06218853  0.25000000  1
