# generated using pymatgen
data_Nd4MnSe6O
_symmetry_space_group_name_H-M   'P 1'
_cell_length_a   9.71456066
_cell_length_b   9.71456066
_cell_length_c   7.04739154
_cell_angle_alpha   90.00000000
_cell_angle_beta   90.00000000
_cell_angle_gamma   119.99999999
_symmetry_Int_Tables_number   1
_chemical_formula_structural   Nd4MnSe6O
_chemical_formula_sum   'Nd8 Mn2 Se12 O2'
_cell_volume   575.97729179
_cell_formula_units_Z   2
loop_
 _symmetry_equiv_pos_site_id
 _symmetry_equiv_pos_as_xyz
  1  'x, y, z'
loop_
 _atom_site_type_symbol
 _atom_site_label
 _atom_site_symmetry_multiplicity
 _atom_site_fract_x
 _atom_site_fract_y
 _atom_site_fract_z
 _atom_site_occupancy
  O  O0  1  0.33333333  0.66666667  0.95814193  1
  O  O1  1  0.66666667  0.33333333  0.45814193  1
  Mn  Mn2  1  0.00000000  0.00000000  0.50231190  1
  Mn  Mn3  1  0.00000000  0.00000000  0.00231190  1
  Se  Se4  1  0.46889375  0.93778750  0.55549004  1
  Se  Se5  1  0.53110625  0.06221250  0.05549004  1
  Se  Se6  1  0.93778750  0.46889375  0.05549004  1
  Se  Se7  1  0.46889375  0.53110625  0.55549004  1
  Se  Se8  1  0.06221250  0.53110625  0.55549004  1
  Se  Se9  1  0.53110625  0.46889375  0.05549004  1
  Se  Se10  1  0.87200472  0.12799528  0.73495496  1
  Se  Se11  1  0.74400943  0.87200472  0.23495496  1
  Se  Se12  1  0.12799528  0.25599057  0.23495496  1
  Se  Se13  1  0.87200472  0.74400943  0.73495496  1
  Se  Se14  1  0.25599057  0.12799528  0.73495496  1
  Se  Se15  1  0.12799528  0.87200472  0.23495496  1
  Nd  Nd16  1  0.33333333  0.66666667  0.29351084  1
  Nd  Nd17  1  0.66666667  0.33333333  0.79351084  1
  Nd  Nd18  1  0.79884227  0.20115773  0.33884678  1
  Nd  Nd19  1  0.59768454  0.79884227  0.83884678  1
  Nd  Nd20  1  0.20115773  0.40231546  0.83884678  1
  Nd  Nd21  1  0.79884227  0.59768454  0.33884678  1
  Nd  Nd22  1  0.40231546  0.20115773  0.33884678  1
  Nd  Nd23  1  0.20115773  0.79884227  0.83884678  1
