# generated using pymatgen
data_Mg3Mn2(GeO4)3
_symmetry_space_group_name_H-M   'P 1'
_cell_length_a   10.47459659
_cell_length_b   10.47459608
_cell_length_c   10.47459620
_cell_angle_alpha   109.47122089
_cell_angle_beta   109.47121989
_cell_angle_gamma   109.47121995
_symmetry_Int_Tables_number   1
_chemical_formula_structural   Mg3Mn2(GeO4)3
_chemical_formula_sum   'Mg12 Mn8 Ge12 O48'
_cell_volume   884.68771383
_cell_formula_units_Z   4
loop_
 _symmetry_equiv_pos_site_id
 _symmetry_equiv_pos_as_xyz
  1  'x, y, z'
loop_
 _atom_site_type_symbol
 _atom_site_label
 _atom_site_symmetry_multiplicity
 _atom_site_fract_x
 _atom_site_fract_y
 _atom_site_fract_z
 _atom_site_occupancy
  Mg  Mg0  1  0.62500000  0.25000000  0.87500000  1
  Mg  Mg1  1  0.87500000  0.75000000  0.62500000  1
  Mg  Mg2  1  0.75000000  0.62500000  0.87500000  1
  Mg  Mg3  1  0.25000000  0.87500000  0.62500000  1
  Mg  Mg4  1  0.87500000  0.62500000  0.25000000  1
  Mg  Mg5  1  0.62500000  0.87500000  0.75000000  1
  Mg  Mg6  1  0.37500000  0.75000000  0.12500000  1
  Mg  Mg7  1  0.12500000  0.25000000  0.37500000  1
  Mg  Mg8  1  0.25000000  0.37500000  0.12500000  1
  Mg  Mg9  1  0.75000000  0.12500000  0.37500000  1
  Mg  Mg10  1  0.12500000  0.37500000  0.75000000  1
  Mg  Mg11  1  0.37500000  0.12500000  0.25000000  1
  Mn  Mn12  1  0.50000000  0.50000000  0.50000000  1
  Mn  Mn13  1  0.50000000  0.50000000  0.00000000  1
  Mn  Mn14  1  0.50000000  0.00000000  0.50000000  1
  Mn  Mn15  1  0.00000000  0.50000000  0.50000000  1
  Mn  Mn16  1  0.50000000  0.00000000  0.00000000  1
  Mn  Mn17  1  0.00000000  0.00000000  0.50000000  1
  Mn  Mn18  1  0.00000000  0.50000000  0.00000000  1
  Mn  Mn19  1  0.00000000  0.00000000  0.00000000  1
  Ge  Ge20  1  0.87500000  0.12500000  0.75000000  1
  Ge  Ge21  1  0.12500000  0.87500000  0.25000000  1
  Ge  Ge22  1  0.25000000  0.62500000  0.37500000  1
  Ge  Ge23  1  0.12500000  0.75000000  0.87500000  1
  Ge  Ge24  1  0.75000000  0.87500000  0.12500000  1
  Ge  Ge25  1  0.37500000  0.25000000  0.62500000  1
  Ge  Ge26  1  0.62500000  0.75000000  0.37500000  1
  Ge  Ge27  1  0.87500000  0.25000000  0.12500000  1
  Ge  Ge28  1  0.25000000  0.12500000  0.87500000  1
  Ge  Ge29  1  0.75000000  0.37500000  0.62500000  1
  Ge  Ge30  1  0.37500000  0.62500000  0.75000000  1
  Ge  Ge31  1  0.62500000  0.37500000  0.25000000  1
  O  O32  1  0.78774849  0.41642172  0.81710663  1
  O  O33  1  0.08357828  0.87132677  0.40068491  1
  O  O34  1  0.68289337  0.09931509  0.97064086  1
  O  O35  1  0.71225151  0.52935914  0.62867323  1
  O  O36  1  0.71225151  0.68289337  0.08357828  1
  O  O37  1  0.52935914  0.62867323  0.71225151  1
  O  O38  1  0.09931509  0.62867323  0.41642172  1
  O  O39  1  0.62867323  0.71225151  0.52935914  1
  O  O40  1  0.40068491  0.81710663  0.52935914  1
  O  O41  1  0.87132677  0.97064086  0.78774849  1
  O  O42  1  0.97064086  0.78774849  0.87132677  1
  O  O43  1  0.08357828  0.71225151  0.68289337  1
  O  O44  1  0.62867323  0.41642172  0.09931509  1
  O  O45  1  0.52935914  0.40068491  0.81710663  1
  O  O46  1  0.68289337  0.08357828  0.71225152  1
  O  O47  1  0.41642172  0.09931509  0.62867323  1
  O  O48  1  0.81710663  0.52935914  0.40068491  1
  O  O49  1  0.40068491  0.08357828  0.87132677  1
  O  O50  1  0.09931509  0.97064086  0.68289337  1
  O  O51  1  0.59931509  0.18289337  0.47064086  1
  O  O52  1  0.97064086  0.68289337  0.09931509  1
  O  O53  1  0.81710663  0.78774848  0.41642172  1
  O  O54  1  0.87132677  0.40068491  0.08357828  1
  O  O55  1  0.78774849  0.87132677  0.97064086  1
  O  O56  1  0.21225151  0.58357828  0.18289337  1
  O  O57  1  0.91642172  0.12867323  0.59931509  1
  O  O58  1  0.31710663  0.90068491  0.02935914  1
  O  O59  1  0.28774849  0.47064086  0.37132677  1
  O  O60  1  0.28774849  0.31710663  0.91642172  1
  O  O61  1  0.47064086  0.37132677  0.28774849  1
  O  O62  1  0.90068491  0.37132677  0.58357828  1
  O  O63  1  0.37132677  0.28774849  0.47064086  1
  O  O64  1  0.21225151  0.12867323  0.02935914  1
  O  O65  1  0.12867323  0.59931509  0.91642172  1
  O  O66  1  0.18289337  0.21225152  0.58357828  1
  O  O67  1  0.58357828  0.18289337  0.21225151  1
  O  O68  1  0.02935914  0.31710663  0.90068491  1
  O  O69  1  0.90068491  0.02935914  0.31710663  1
  O  O70  1  0.59931509  0.91642172  0.12867323  1
  O  O71  1  0.18289337  0.47064086  0.59931509  1
  O  O72  1  0.58357828  0.90068491  0.37132677  1
  O  O73  1  0.31710663  0.91642172  0.28774848  1
  O  O74  1  0.47064086  0.59931509  0.18289337  1
  O  O75  1  0.37132677  0.58357828  0.90068491  1
  O  O76  1  0.91642172  0.28774849  0.31710663  1
  O  O77  1  0.02935914  0.21225151  0.12867323  1
  O  O78  1  0.12867323  0.02935914  0.21225151  1
  O  O79  1  0.41642172  0.81710663  0.78774849  1
