# generated using pymatgen
data_Tl2TeMo2(PO7)2
_symmetry_space_group_name_H-M   'P 1'
_cell_length_a   9.22945290
_cell_length_b   11.50348501
_cell_length_c   12.65698931
_cell_angle_alpha   90.00000000
_cell_angle_beta   90.00000000
_cell_angle_gamma   90.00000000
_symmetry_Int_Tables_number   1
_chemical_formula_structural   Tl2TeMo2(PO7)2
_chemical_formula_sum   'Tl8 Te4 Mo8 P8 O56'
_cell_volume   1343.80360568
_cell_formula_units_Z   4
loop_
 _symmetry_equiv_pos_site_id
 _symmetry_equiv_pos_as_xyz
  1  'x, y, z'
loop_
 _atom_site_type_symbol
 _atom_site_label
 _atom_site_symmetry_multiplicity
 _atom_site_fract_x
 _atom_site_fract_y
 _atom_site_fract_z
 _atom_site_occupancy
  O  O0  1  0.64181513  0.13109710  0.36890311  1
  O  O1  1  0.64181513  0.36890290  0.63109689  1
  O  O2  1  0.85818487  0.63109710  0.13109689  1
  O  O3  1  0.85818487  0.86890290  0.86890311  1
  O  O4  1  0.35818487  0.86890290  0.63109689  1
  O  O5  1  0.35818487  0.63109710  0.36890311  1
  O  O6  1  0.14181513  0.36890290  0.86890311  1
  O  O7  1  0.14181513  0.13109710  0.13109689  1
  O  O8  1  0.52070344  0.44952548  0.36072251  1
  O  O9  1  0.52070344  0.05047452  0.63927749  1
  O  O10  1  0.97929656  0.94952548  0.13927749  1
  O  O11  1  0.97929656  0.55047452  0.86072251  1
  O  O12  1  0.47929656  0.55047452  0.63927749  1
  O  O13  1  0.47929656  0.94952548  0.36072251  1
  O  O14  1  0.02070344  0.05047452  0.86072251  1
  O  O15  1  0.02070344  0.44952548  0.13927749  1
  O  O16  1  0.70623684  0.55413144  0.53021147  1
  O  O17  1  0.70623684  0.94586856  0.46978853  1
  O  O18  1  0.79376316  0.05413144  0.96978853  1
  O  O19  1  0.79376316  0.44586856  0.03021147  1
  O  O20  1  0.31271393  0.34637524  0.66466980  1
  O  O21  1  0.29376316  0.44586856  0.46978853  1
  O  O22  1  0.20623684  0.94586856  0.03021147  1
  O  O23  1  0.20623684  0.55413144  0.96978853  1
  O  O24  1  0.68728607  0.65362476  0.33533020  1
  O  O25  1  0.68728607  0.84637524  0.66466980  1
  O  O26  1  0.81271393  0.15362476  0.16466980  1
  O  O27  1  0.81271393  0.34637524  0.83533020  1
  O  O28  1  0.26461627  0.34259033  0.07312903  1
  O  O29  1  0.26461627  0.15740967  0.92687097  1
  O  O30  1  0.23538373  0.84259033  0.42687097  1
  O  O31  1  0.23538373  0.65740967  0.57312903  1
  O  O32  1  0.73538373  0.65740967  0.92687097  1
  O  O33  1  0.73538373  0.84259033  0.07312903  1
  O  O34  1  0.76461627  0.15740967  0.57312903  1
  O  O35  1  0.76461627  0.34259033  0.42687097  1
  O  O36  1  0.27313612  0.45074706  0.27294885  1
  O  O37  1  0.27313612  0.04925294  0.72705115  1
  O  O38  1  0.22686388  0.95074706  0.22705115  1
  O  O39  1  0.22686388  0.54925294  0.77294885  1
  O  O40  1  0.72686388  0.54925294  0.72705115  1
  O  O41  1  0.72686388  0.95074706  0.27294885  1
  O  O42  1  0.77313612  0.04925294  0.77294885  1
  O  O43  1  0.77313612  0.45074706  0.22705115  1
  O  O44  1  0.43655360  0.54259226  0.11307195  1
  O  O45  1  0.43655360  0.95740774  0.88692805  1
  O  O46  1  0.06344640  0.04259226  0.38692805  1
  O  O47  1  0.06344640  0.45740774  0.61307195  1
  O  O48  1  0.56344640  0.45740774  0.88692805  1
  O  O49  1  0.56344640  0.04259226  0.11307195  1
  O  O50  1  0.93655360  0.95740774  0.61307195  1
  O  O51  1  0.93655360  0.54259226  0.38692805  1
  O  O52  1  0.18728607  0.65362476  0.16466980  1
  O  O53  1  0.18728607  0.84637524  0.83533020  1
  O  O54  1  0.31271393  0.15362476  0.33533020  1
  O  O55  1  0.29376316  0.05413144  0.53021147  1
  P  P56  1  0.63520009  0.99604719  0.36845505  1
  P  P57  1  0.63520009  0.50395281  0.63154495  1
  P  P58  1  0.86479991  0.49604719  0.13154495  1
  P  P59  1  0.86479991  0.00395281  0.86845505  1
  P  P60  1  0.36479991  0.00395281  0.63154495  1
  P  P61  1  0.36479991  0.49604719  0.36845505  1
  P  P62  1  0.13520009  0.50395281  0.86845505  1
  P  P63  1  0.13520009  0.99604719  0.13154495  1
  Mo  Mo64  1  0.75106938  0.51817998  0.37704537  1
  Mo  Mo65  1  0.75106938  0.98182002  0.62295463  1
  Mo  Mo66  1  0.74893062  0.01817998  0.12295463  1
  Mo  Mo67  1  0.74893062  0.48182002  0.87704537  1
  Mo  Mo68  1  0.24893062  0.48182002  0.62295463  1
  Mo  Mo69  1  0.24893062  0.01817998  0.37704537  1
  Mo  Mo70  1  0.25106938  0.98182002  0.87704537  1
  Mo  Mo71  1  0.25106938  0.51817998  0.12295463  1
  Te  Te72  1  0.62811790  0.25000000  0.50000000  1
  Te  Te73  1  0.87188210  0.75000000  0.00000000  1
  Te  Te74  1  0.37188210  0.75000000  0.50000000  1
  Te  Te75  1  0.12811790  0.25000000  0.00000000  1
  Tl  Tl76  1  0.52635547  0.27559581  0.18289839  1
  Tl  Tl77  1  0.52635547  0.22440419  0.81710161  1
  Tl  Tl78  1  0.97364453  0.77559581  0.31710161  1
  Tl  Tl79  1  0.97364453  0.72440419  0.68289839  1
  Tl  Tl80  1  0.47364453  0.72440419  0.81710161  1
  Tl  Tl81  1  0.47364453  0.77559581  0.18289839  1
  Tl  Tl82  1  0.02635547  0.22440419  0.68289839  1
  Tl  Tl83  1  0.02635547  0.27559581  0.31710161  1
