# generated using pymatgen
data_K2MnV2O7
_symmetry_space_group_name_H-M   'P 1'
_cell_length_a   5.67585482
_cell_length_b   8.76127263
_cell_length_c   8.76127263
_cell_angle_alpha   90.00000000
_cell_angle_beta   90.00000000
_cell_angle_gamma   90.00000000
_symmetry_Int_Tables_number   1
_chemical_formula_structural   K2MnV2O7
_chemical_formula_sum   'K4 Mn2 V4 O14'
_cell_volume   435.67803760
_cell_formula_units_Z   2
loop_
 _symmetry_equiv_pos_site_id
 _symmetry_equiv_pos_as_xyz
  1  'x, y, z'
loop_
 _atom_site_type_symbol
 _atom_site_label
 _atom_site_symmetry_multiplicity
 _atom_site_fract_x
 _atom_site_fract_y
 _atom_site_fract_z
 _atom_site_occupancy
  O  O0  1  0.76036869  0.85553020  0.64446980  1
  O  O1  1  0.23963131  0.64446980  0.14446980  1
  O  O2  1  0.23963131  0.35553020  0.85553020  1
  O  O3  1  0.76036869  0.14446980  0.35553020  1
  O  O4  1  0.83858169  0.50000000  0.00000000  1
  O  O5  1  0.16141831  0.00000000  0.50000000  1
  O  O6  1  0.17678419  0.68465416  0.58789172  1
  O  O7  1  0.17678419  0.31534584  0.41210828  1
  O  O8  1  0.82321581  0.41210828  0.68465416  1
  O  O9  1  0.82321581  0.58789172  0.31534584  1
  O  O10  1  0.17678419  0.08789172  0.18465416  1
  O  O11  1  0.82321581  0.18465416  0.91210828  1
  O  O12  1  0.82321581  0.81534584  0.08789172  1
  O  O13  1  0.17678419  0.91210828  0.81534584  1
  K  K14  1  0.51017320  0.83714908  0.33714908  1
  K  K15  1  0.48982680  0.66285092  0.83714908  1
  K  K16  1  0.48982680  0.33714908  0.16285092  1
  K  K17  1  0.51017320  0.16285092  0.66285092  1
  V  V18  1  0.94318678  0.36002847  0.86002847  1
  V  V19  1  0.05681322  0.86002847  0.63997153  1
  V  V20  1  0.05681322  0.13997153  0.36002847  1
  V  V21  1  0.94318678  0.63997153  0.13997153  1
  Mn  Mn22  1  0.00000000  0.50000000  0.50000000  1
  Mn  Mn23  1  0.00000000  0.00000000  0.00000000  1
