# generated using pymatgen
data_Rb2Ni2(MoO4)3
_symmetry_space_group_name_H-M   'P 1'
_cell_length_a   7.09879206
_cell_length_b   9.39466247
_cell_length_c   19.31026318
_cell_angle_alpha   90.00000000
_cell_angle_beta   91.70023926
_cell_angle_gamma   90.00000000
_symmetry_Int_Tables_number   1
_chemical_formula_structural   Rb2Ni2(MoO4)3
_chemical_formula_sum   'Rb8 Ni8 Mo12 O48'
_cell_volume   1287.24905941
_cell_formula_units_Z   4
loop_
 _symmetry_equiv_pos_site_id
 _symmetry_equiv_pos_as_xyz
  1  'x, y, z'
loop_
 _atom_site_type_symbol
 _atom_site_label
 _atom_site_symmetry_multiplicity
 _atom_site_fract_x
 _atom_site_fract_y
 _atom_site_fract_z
 _atom_site_occupancy
  O  O0  1  0.58719216  0.74862458  0.95723249  1
  O  O1  1  0.91280784  0.24862458  0.54276751  1
  O  O2  1  0.41280784  0.25137542  0.04276751  1
  O  O3  1  0.08719216  0.75137542  0.45723249  1
  O  O4  1  0.42603162  0.95387195  0.06565142  1
  O  O5  1  0.07396838  0.45387195  0.43434858  1
  O  O6  1  0.57396838  0.04612805  0.93434858  1
  O  O7  1  0.92603162  0.54612805  0.56565142  1
  O  O8  1  0.84679215  0.94737297  0.03607465  1
  O  O9  1  0.65320785  0.44737297  0.46392535  1
  O  O10  1  0.15320785  0.05262703  0.96392535  1
  O  O11  1  0.34679215  0.55262703  0.53607465  1
  O  O12  1  0.65811953  0.70827742  0.09835075  1
  O  O13  1  0.84188047  0.20827742  0.40164925  1
  O  O14  1  0.34188047  0.29172258  0.90164925  1
  O  O15  1  0.15811953  0.79172258  0.59835075  1
  O  O16  1  0.38748903  0.61095481  0.38597066  1
  O  O17  1  0.11251097  0.11095481  0.11402934  1
  O  O18  1  0.80261776  0.65731374  0.35577218  1
  O  O19  1  0.61251097  0.38904519  0.61402934  1
  O  O20  1  0.65069281  0.74447346  0.49350765  1
  O  O21  1  0.84930719  0.24447346  0.00649235  1
  O  O22  1  0.34930719  0.25552654  0.50649235  1
  O  O23  1  0.15069281  0.75552654  0.99350765  1
  O  O24  1  0.54844243  0.89157229  0.37066474  1
  O  O25  1  0.95155757  0.39157229  0.12933526  1
  O  O26  1  0.45155757  0.10842771  0.62933526  1
  O  O27  1  0.04844243  0.60842771  0.87066474  1
  O  O28  1  0.88823771  0.49504425  0.71988700  1
  O  O29  1  0.61176229  0.99504425  0.78011300  1
  O  O30  1  0.11176229  0.50495575  0.28011300  1
  O  O31  1  0.38823771  0.00495575  0.21988700  1
  O  O32  1  0.95127727  0.79949727  0.72745039  1
  O  O33  1  0.54872273  0.29949727  0.77254961  1
  O  O34  1  0.04872273  0.20050273  0.27254961  1
  O  O35  1  0.45127727  0.70050273  0.22745039  1
  O  O36  1  0.62890362  0.69300639  0.64800107  1
  O  O37  1  0.87109638  0.19300639  0.85199893  1
  O  O38  1  0.37109638  0.30699361  0.35199893  1
  O  O39  1  0.12890362  0.80699361  0.14800107  1
  O  O40  1  0.63313260  0.68135036  0.80248826  1
  O  O41  1  0.86686740  0.18135036  0.69751174  1
  O  O42  1  0.36686740  0.31864964  0.19751174  1
  O  O43  1  0.13313260  0.81864964  0.30248826  1
  O  O44  1  0.30261776  0.84268626  0.85577218  1
  O  O45  1  0.19738224  0.34268626  0.64422782  1
  O  O46  1  0.69738224  0.15731374  0.14422782  1
  O  O47  1  0.88748903  0.88904519  0.88597066  1
  Ni  Ni48  1  0.90572010  0.35956654  0.63645552  1
  Ni  Ni49  1  0.59427990  0.85956654  0.86354448  1
  Ni  Ni50  1  0.40572010  0.14043346  0.13645552  1
  Ni  Ni51  1  0.09427990  0.64043346  0.36354448  1
  Ni  Ni52  1  0.36666443  0.42496332  0.44153907  1
  Ni  Ni53  1  0.13333557  0.92496332  0.05846093  1
  Ni  Ni54  1  0.63333557  0.57503668  0.55846093  1
  Ni  Ni55  1  0.86666443  0.07503668  0.94153907  1
  Rb  Rb56  1  0.71898621  0.47851712  0.23642093  1
  Rb  Rb57  1  0.71788375  0.46148322  0.90825101  1
  Rb  Rb58  1  0.21788375  0.03851678  0.40825101  1
  Rb  Rb59  1  0.28211625  0.53851678  0.09174899  1
  Rb  Rb60  1  0.21898621  0.02148288  0.73642093  1
  Rb  Rb61  1  0.28101379  0.52148288  0.76357907  1
  Rb  Rb62  1  0.78211625  0.96148322  0.59174899  1
  Rb  Rb63  1  0.78101379  0.97851712  0.26357907  1
  Mo  Mo64  1  0.37267712  0.15693854  0.96258783  1
  Mo  Mo65  1  0.87267712  0.34306146  0.46258783  1
  Mo  Mo66  1  0.62732288  0.84306146  0.03741217  1
  Mo  Mo67  1  0.12732288  0.65693854  0.53741217  1
  Mo  Mo68  1  0.60065249  0.72009967  0.40188663  1
  Mo  Mo69  1  0.89934751  0.22009967  0.09811337  1
  Mo  Mo70  1  0.39934751  0.27990033  0.59811337  1
  Mo  Mo71  1  0.10065249  0.77990033  0.90188663  1
  Mo  Mo72  1  0.27554129  0.83272060  0.22538534  1
  Mo  Mo73  1  0.22445871  0.33272060  0.27461466  1
  Mo  Mo74  1  0.72445871  0.16727940  0.77461466  1
  Mo  Mo75  1  0.77554129  0.66727940  0.72538534  1
