# generated using pymatgen
data_Mn7SiO12
_symmetry_space_group_name_H-M   'P 1'
_cell_length_a   9.59899468
_cell_length_b   9.59899468
_cell_length_c   11.69534668
_cell_angle_alpha   114.22849834
_cell_angle_beta   114.22849836
_cell_angle_gamma   90.00000000
_symmetry_Int_Tables_number   1
_chemical_formula_structural   Mn7SiO12
_chemical_formula_sum   'Mn28 Si4 O48'
_cell_volume   877.56837342
_cell_formula_units_Z   4
loop_
 _symmetry_equiv_pos_site_id
 _symmetry_equiv_pos_as_xyz
  1  'x, y, z'
loop_
 _atom_site_type_symbol
 _atom_site_label
 _atom_site_symmetry_multiplicity
 _atom_site_fract_x
 _atom_site_fract_y
 _atom_site_fract_z
 _atom_site_occupancy
  O  O0  1  0.78629978  0.82493003  0.35863320  1
  O  O1  1  0.57233342  0.53370317  0.35863320  1
  O  O2  1  0.07233342  0.32493003  0.35863320  1
  O  O3  1  0.46629683  0.21370022  0.64136680  1
  O  O4  1  0.17506997  0.42766658  0.64136680  1
  O  O5  1  0.96629683  0.92766658  0.64136680  1
  O  O6  1  0.67506997  0.71370022  0.64136680  1
  O  O7  1  0.28629978  0.03370317  0.35863320  1
  O  O8  1  0.67766864  0.92506539  0.14136592  1
  O  O9  1  0.46369729  0.21630053  0.14136592  1
  O  O10  1  0.96369729  0.42506539  0.14136592  1
  O  O11  1  0.78369947  0.32233136  0.85863408  1
  O  O12  1  0.07493461  0.53630271  0.85863408  1
  O  O13  1  0.28369947  0.03630271  0.85863408  1
  O  O14  1  0.57493461  0.82233136  0.85863408  1
  O  O15  1  0.17766864  0.71630053  0.14136592  1
  O  O16  1  0.81311147  0.28253996  0.40091006  1
  O  O17  1  0.58779859  0.11837010  0.40091006  1
  O  O18  1  0.08779859  0.78253996  0.40091006  1
  O  O19  1  0.74148771  0.21028946  0.13509671  1
  O  O20  1  0.88162990  0.18688853  0.59908994  1
  O  O21  1  0.38162990  0.91220141  0.59908994  1
  O  O22  1  0.21746004  0.68688853  0.59908994  1
  O  O23  1  0.31311147  0.61837010  0.40091006  1
  O  O24  1  0.85639345  0.53970450  0.36490121  1
  O  O25  1  0.50850776  0.82519671  0.36490121  1
  O  O26  1  0.00850776  0.03970450  0.36490121  1
  O  O27  1  0.17480329  0.14360655  0.63509879  1
  O  O28  1  0.46029550  0.49149224  0.63509879  1
  O  O29  1  0.67480329  0.99149224  0.63509879  1
  O  O30  1  0.96029550  0.64360655  0.63509879  1
  O  O31  1  0.35639345  0.32519671  0.36490121  1
  O  O32  1  0.16219794  0.13163356  0.09908888  1
  O  O33  1  0.03254468  0.83780206  0.90091112  1
  O  O34  1  0.86836644  0.06310906  0.90091112  1
  O  O35  1  0.53254468  0.56310906  0.90091112  1
  O  O36  1  0.36836644  0.33780206  0.90091112  1
  O  O37  1  0.93689094  0.96745532  0.09908888  1
  O  O38  1  0.43689094  0.63163356  0.09908888  1
  O  O39  1  0.66219794  0.46745532  0.09908888  1
  O  O40  1  0.24148771  0.42480724  0.13509671  1
  O  O41  1  0.28971054  0.75851229  0.86490329  1
  O  O42  1  0.57519276  0.10639100  0.86490329  1
  O  O43  1  0.78971054  0.60639100  0.86490329  1
  O  O44  1  0.07519276  0.25851229  0.86490329  1
  O  O45  1  0.89360900  0.71028946  0.13509671  1
  O  O46  1  0.39360900  0.92480724  0.13509671  1
  O  O47  1  0.71746004  0.41220141  0.59908994  1
  Si  Si48  1  0.75000000  0.25000000  0.50000000  1
  Si  Si49  1  0.00000000  0.00000000  0.00000000  1
  Si  Si50  1  0.50000000  0.50000000  0.00000000  1
  Si  Si51  1  0.25000000  0.75000000  0.50000000  1
  Mn  Mn52  1  0.59167563  0.87500146  0.25000083  1
  Mn  Mn53  1  0.15832520  0.37500146  0.25000083  1
  Mn  Mn54  1  0.09167563  0.87499937  0.25000083  1
  Mn  Mn55  1  0.12500063  0.84167480  0.74999917  1
  Mn  Mn56  1  0.87500074  0.62499477  0.24999917  1
  Mn  Mn57  1  0.37499844  0.62500441  0.24999917  1
  Mn  Mn58  1  0.87499844  0.12499477  0.24999917  1
  Mn  Mn59  1  0.37499559  0.12499926  0.75000083  1
  Mn  Mn60  1  0.37500523  0.62500156  0.75000083  1
  Mn  Mn61  1  0.87499559  0.12500156  0.75000083  1
  Mn  Mn62  1  0.87500523  0.62499926  0.75000083  1
  Mn  Mn63  1  0.37500074  0.12500441  0.24999917  1
  Mn  Mn64  1  0.98316571  0.98316571  0.50000000  1
  Mn  Mn65  1  0.48316571  0.01683429  0.50000000  1
  Mn  Mn66  1  0.01683429  0.48316571  0.50000000  1
  Mn  Mn67  1  0.51683429  0.51683429  0.50000000  1
  Mn  Mn68  1  0.76683076  0.26683076  0.00000000  1
  Mn  Mn69  1  0.26683076  0.23316924  0.00000000  1
  Mn  Mn70  1  0.73316924  0.76683076  0.00000000  1
  Mn  Mn71  1  0.23316924  0.73316924  0.00000000  1
  Mn  Mn72  1  0.62500063  0.40832437  0.74999917  1
  Mn  Mn73  1  0.65832520  0.37499937  0.25000083  1
  Mn  Mn74  1  0.62499854  0.90832437  0.74999917  1
  Mn  Mn75  1  0.12499854  0.34167480  0.74999917  1
  Mn  Mn76  1  0.50000000  0.00000000  0.00000000  1
  Mn  Mn77  1  0.00000000  0.50000000  0.00000000  1
  Mn  Mn78  1  0.75000000  0.75000000  0.50000000  1
  Mn  Mn79  1  0.25000000  0.25000000  0.50000000  1
