# generated using pymatgen
data_BaCrO4
_symmetry_space_group_name_H-M   'P 1'
_cell_length_a   5.68648171
_cell_length_b   7.45999680
_cell_length_c   9.20838805
_cell_angle_alpha   90.00000000
_cell_angle_beta   90.00000000
_cell_angle_gamma   90.00000000
_symmetry_Int_Tables_number   1
_chemical_formula_structural   BaCrO4
_chemical_formula_sum   'Ba4 Cr4 O16'
_cell_volume   390.63027592
_cell_formula_units_Z   4
loop_
 _symmetry_equiv_pos_site_id
 _symmetry_equiv_pos_as_xyz
  1  'x, y, z'
loop_
 _atom_site_type_symbol
 _atom_site_label
 _atom_site_symmetry_multiplicity
 _atom_site_fract_x
 _atom_site_fract_y
 _atom_site_fract_z
 _atom_site_occupancy
  O  O0  1  0.51100307  0.18000712  0.91954928  1
  O  O1  1  0.01100307  0.81999288  0.08045072  1
  O  O2  1  0.48899693  0.68000712  0.58045072  1
  O  O3  1  0.98899693  0.31999288  0.41954928  1
  O  O4  1  0.48899693  0.81999288  0.08045072  1
  O  O5  1  0.98899693  0.18000712  0.91954928  1
  O  O6  1  0.51100307  0.31999288  0.41954928  1
  O  O7  1  0.01100307  0.68000712  0.58045072  1
  O  O8  1  0.25000000  0.88589472  0.38841488  1
  O  O9  1  0.75000000  0.11410528  0.61158512  1
  O  O10  1  0.75000000  0.38589472  0.11158512  1
  O  O11  1  0.25000000  0.61410528  0.88841488  1
  O  O12  1  0.25000000  0.96994133  0.67938543  1
  O  O13  1  0.75000000  0.03005867  0.32061457  1
  O  O14  1  0.75000000  0.46994133  0.82061457  1
  O  O15  1  0.25000000  0.53005867  0.17938543  1
  Cr  Cr16  1  0.25000000  0.69231473  0.05644083  1
  Cr  Cr17  1  0.75000000  0.30768527  0.94355917  1
  Cr  Cr18  1  0.75000000  0.19231473  0.44355917  1
  Cr  Cr19  1  0.25000000  0.80768527  0.55644083  1
  Ba  Ba20  1  0.25000000  0.34516084  0.68352951  1
  Ba  Ba21  1  0.75000000  0.65483916  0.31647049  1
  Ba  Ba22  1  0.75000000  0.84516084  0.81647049  1
  Ba  Ba23  1  0.25000000  0.15483916  0.18352951  1
