# generated using pymatgen
data_Ho2Ni(B2O5)2
_symmetry_space_group_name_H-M   'P 1'
_cell_length_a   4.54005610
_cell_length_b   7.27133138
_cell_length_c   9.41735220
_cell_angle_alpha   90.00000000
_cell_angle_beta   91.25912046
_cell_angle_gamma   90.00000000
_symmetry_Int_Tables_number   1
_chemical_formula_structural   Ho2Ni(B2O5)2
_chemical_formula_sum   'Ho4 Ni2 B8 O20'
_cell_volume   310.81294128
_cell_formula_units_Z   2
loop_
 _symmetry_equiv_pos_site_id
 _symmetry_equiv_pos_as_xyz
  1  'x, y, z'
loop_
 _atom_site_type_symbol
 _atom_site_label
 _atom_site_symmetry_multiplicity
 _atom_site_fract_x
 _atom_site_fract_y
 _atom_site_fract_z
 _atom_site_occupancy
  B  B0  1  0.47053884  0.73539821  0.08497776  1
  B  B1  1  0.52946116  0.23539821  0.41502224  1
  B  B2  1  0.52946116  0.26460179  0.91502224  1
  B  B3  1  0.47053884  0.76460179  0.58497776  1
  B  B4  1  0.46471477  0.40397010  0.66111253  1
  B  B5  1  0.53528523  0.90397010  0.83888747  1
  B  B6  1  0.53528523  0.59602990  0.33888747  1
  B  B7  1  0.46471477  0.09602990  0.16111253  1
  O  O8  1  0.22219077  0.59566603  0.33331180  1
  O  O9  1  0.77780923  0.40433397  0.66668820  1
  O  O10  1  0.32135933  0.90798152  0.14285845  1
  O  O11  1  0.67864067  0.40798152  0.35714155  1
  O  O12  1  0.67864067  0.09201848  0.85714155  1
  O  O13  1  0.22219077  0.90433397  0.83331180  1
  O  O14  1  0.33372905  0.20708351  0.03754514  1
  O  O15  1  0.66627095  0.70708351  0.46245486  1
  O  O16  1  0.66627095  0.79291649  0.96245486  1
  O  O17  1  0.33372905  0.29291649  0.53754514  1
  O  O18  1  0.32807565  0.17008256  0.29512084  1
  O  O19  1  0.67192435  0.67008256  0.20487916  1
  O  O20  1  0.67192435  0.82991744  0.70487916  1
  O  O21  1  0.32807565  0.32991744  0.79512084  1
  O  O22  1  0.24855366  0.89122148  0.53935349  1
  O  O23  1  0.75144634  0.39122148  0.96064651  1
  O  O24  1  0.75144634  0.10877852  0.46064651  1
  O  O25  1  0.24855366  0.60877852  0.03935349  1
  O  O26  1  0.32135933  0.59201848  0.64285845  1
  O  O27  1  0.77780923  0.09566603  0.16668820  1
  Ni  Ni28  1  0.00000000  0.00000000  0.00000000  1
  Ni  Ni29  1  0.00000000  0.50000000  0.50000000  1
  Ho  Ho30  1  0.99574409  0.60120187  0.83519423  1
  Ho  Ho31  1  0.00425591  0.10120187  0.66480577  1
  Ho  Ho32  1  0.99574409  0.89879813  0.33519423  1
  Ho  Ho33  1  0.00425591  0.39879813  0.16480577  1
