# generated using pymatgen
data_Rb2CrO4
_symmetry_space_group_name_H-M   'P 1'
_cell_length_a   6.20521678
_cell_length_b   8.14335755
_cell_length_c   10.97725217
_cell_angle_alpha   90.00000000
_cell_angle_beta   90.00000000
_cell_angle_gamma   90.00000000
_symmetry_Int_Tables_number   1
_chemical_formula_structural   Rb2CrO4
_chemical_formula_sum   'Rb8 Cr4 O16'
_cell_volume   554.69481067
_cell_formula_units_Z   4
loop_
 _symmetry_equiv_pos_site_id
 _symmetry_equiv_pos_as_xyz
  1  'x, y, z'
loop_
 _atom_site_type_symbol
 _atom_site_label
 _atom_site_symmetry_multiplicity
 _atom_site_fract_x
 _atom_site_fract_y
 _atom_site_fract_z
 _atom_site_occupancy
  O  O0  1  0.97003312  0.80286263  0.85176627  1
  O  O1  1  0.47003312  0.19713737  0.14823373  1
  O  O2  1  0.52996688  0.30286263  0.64823373  1
  O  O3  1  0.02996688  0.69713737  0.35176627  1
  O  O4  1  0.02996688  0.19713737  0.14823373  1
  O  O5  1  0.52996688  0.80286263  0.85176627  1
  O  O6  1  0.47003312  0.69713737  0.35176627  1
  O  O7  1  0.97003312  0.30286263  0.64823373  1
  O  O8  1  0.25000000  0.20357784  0.93397278  1
  O  O9  1  0.75000000  0.79642216  0.06602722  1
  O  O10  1  0.25000000  0.70357784  0.56602722  1
  O  O11  1  0.75000000  0.29642216  0.43397278  1
  O  O12  1  0.75000000  0.02721773  0.58263748  1
  O  O13  1  0.25000000  0.97278227  0.41736252  1
  O  O14  1  0.75000000  0.52721773  0.91736252  1
  O  O15  1  0.25000000  0.47278227  0.08263748  1
  Cr  Cr16  1  0.25000000  0.26871976  0.07862612  1
  Cr  Cr17  1  0.75000000  0.73128024  0.92137388  1
  Cr  Cr18  1  0.25000000  0.76871976  0.42137388  1
  Cr  Cr19  1  0.75000000  0.23128024  0.57862612  1
  Rb  Rb20  1  0.25000000  0.51200883  0.80173374  1
  Rb  Rb21  1  0.75000000  0.48799117  0.19826626  1
  Rb  Rb22  1  0.25000000  0.01200883  0.69826626  1
  Rb  Rb23  1  0.75000000  0.98799117  0.30173374  1
  Rb  Rb24  1  0.25000000  0.82983832  0.08527513  1
  Rb  Rb25  1  0.75000000  0.17016168  0.91472487  1
  Rb  Rb26  1  0.25000000  0.32983832  0.41472487  1
  Rb  Rb27  1  0.75000000  0.67016168  0.58527513  1
