# generated using pymatgen
data_Ba6Lu2(WO6)3
_symmetry_space_group_name_H-M   'P 1'
_cell_length_a   14.84230705
_cell_length_b   14.84230704
_cell_length_c   14.84230705
_cell_angle_alpha   23.02531743
_cell_angle_beta   23.02531744
_cell_angle_gamma   23.02531743
_symmetry_Int_Tables_number   1
_chemical_formula_structural   Ba6Lu2(WO6)3
_chemical_formula_sum   'Ba6 Lu2 W3 O18'
_cell_volume   439.03333777
_cell_formula_units_Z   1
loop_
 _symmetry_equiv_pos_site_id
 _symmetry_equiv_pos_as_xyz
  1  'x, y, z'
loop_
 _atom_site_type_symbol
 _atom_site_label
 _atom_site_symmetry_multiplicity
 _atom_site_fract_x
 _atom_site_fract_y
 _atom_site_fract_z
 _atom_site_occupancy
  O  O0  1  0.13122495  0.13122495  0.65988115  1
  O  O1  1  0.13122495  0.65988115  0.13122495  1
  O  O2  1  0.65988115  0.13122495  0.13122495  1
  O  O3  1  0.34011885  0.86877505  0.86877505  1
  O  O4  1  0.86877505  0.86877505  0.34011885  1
  O  O5  1  0.86877505  0.34011885  0.86877505  1
  O  O6  1  0.57334502  0.57334502  0.10514631  1
  O  O7  1  0.57334502  0.10514631  0.57334502  1
  O  O8  1  0.10514631  0.57334502  0.57334502  1
  O  O9  1  0.89485369  0.42665498  0.42665498  1
  O  O10  1  0.42665498  0.42665498  0.89485369  1
  O  O11  1  0.31015793  0.78702092  0.31015793  1
  O  O12  1  0.31015793  0.31015793  0.78702092  1
  O  O13  1  0.78702092  0.31015793  0.31015793  1
  O  O14  1  0.21297908  0.68984207  0.68984207  1
  O  O15  1  0.68984207  0.21297908  0.68984207  1
  O  O16  1  0.68984207  0.68984207  0.21297908  1
  O  O17  1  0.42665498  0.89485369  0.42665498  1
  Ba  Ba18  1  0.63672782  0.63672782  0.63672782  1
  Ba  Ba19  1  0.36327218  0.36327218  0.36327218  1
  Ba  Ba20  1  0.81328163  0.81328163  0.81328163  1
  Ba  Ba21  1  0.18671837  0.18671837  0.18671837  1
  Ba  Ba22  1  0.91221779  0.91221779  0.91221779  1
  Ba  Ba23  1  0.08778221  0.08778221  0.08778221  1
  Lu  Lu24  1  0.72439907  0.72439907  0.72439907  1
  Lu  Lu25  1  0.27560093  0.27560093  0.27560093  1
  W  W26  1  0.55258508  0.55258508  0.55258508  1
  W  W27  1  0.44741492  0.44741492  0.44741492  1
  W  W28  1  0.00000000  0.00000000  0.00000000  1
