# generated using pymatgen
data_Ca(FeO2)2
_symmetry_space_group_name_H-M   'P 1'
_cell_length_a   6.32761809
_cell_length_b   6.25684580
_cell_length_c   24.91823961
_cell_angle_alpha   59.82289371
_cell_angle_beta   60.29773065
_cell_angle_gamma   60.41636688
_symmetry_Int_Tables_number   1
_chemical_formula_structural   Ca(FeO2)2
_chemical_formula_sum   'Ca8 Fe16 O32'
_cell_volume   700.37258640
_cell_formula_units_Z   8
loop_
 _symmetry_equiv_pos_site_id
 _symmetry_equiv_pos_as_xyz
  1  'x, y, z'
loop_
 _atom_site_type_symbol
 _atom_site_label
 _atom_site_symmetry_multiplicity
 _atom_site_fract_x
 _atom_site_fract_y
 _atom_site_fract_z
 _atom_site_occupancy
  Ca  Ca0  1  0.14921513  0.11890890  0.02823608  1
  Ca  Ca1  1  -0.00135115  0.49966300  0.12604552  1
  Ca  Ca2  1  0.12428692  0.11830212  0.28461778  1
  Ca  Ca3  1  -0.00100711  0.49932230  0.37540921  1
  Ca  Ca4  1  0.99894022  0.49882911  0.62532068  1
  Ca  Ca5  1  0.49652337  0.50758172  0.49706884  1
  Ca  Ca6  1  0.99546480  0.50181270  0.87525072  1
  Ca  Ca7  1  0.49543240  0.49959305  0.75147327  1
  Fe  Fe8  1  0.49914729  0.49145592  0.12517569  1
  Fe  Fe9  1  0.49435718  0.50024136  0.25185602  1
  Fe  Fe10  1  0.49819080  0.00989446  0.12532038  1
  Fe  Fe11  1  0.13430213  0.11165913  0.53482836  1
  Fe  Fe12  1  0.49147196  0.49954387  0.37342074  1
  Fe  Fe13  1  0.85701614  0.88349723  0.21973320  1
  Fe  Fe14  1  0.13995685  0.11445921  0.78291749  1
  Fe  Fe15  1  0.49285624  0.01535462  0.37260108  1
  Fe  Fe16  1  0.49936724  0.49969523  0.62446720  1
  Fe  Fe17  1  0.86011494  0.88916937  0.46543970  1
  Fe  Fe18  1  0.49947085  0.00261405  0.62417873  1
  Fe  Fe19  1  0.50298722  0.99715294  0.87491078  1
  Fe  Fe20  1  0.50259884  0.50137213  0.87497308  1
  Fe  Fe21  1  0.86113300  0.88745885  0.71575385  1
  Fe  Fe22  1  0.50011160  0.49072854  0.00499084  1
  Fe  Fe23  1  0.85976188  0.88091678  0.96960670  1
  O  O24  1  0.30078662  0.24622224  0.06433987  1
  O  O25  1  0.29894744  0.24646839  0.17707220  1
  O  O26  1  0.30244339  0.69569265  0.06417140  1
  O  O27  1  0.71513419  0.25902172  0.06697616  1
  O  O28  1  0.26190778  0.74833992  0.18629388  1
  O  O29  1  0.29631684  0.25616792  0.31247862  1
  O  O30  1  0.72097620  0.26451372  0.18953521  1
  O  O31  1  0.26902865  0.23680361  0.43822348  1
  O  O32  1  0.29731478  0.69668294  0.31283685  1
  O  O33  1  0.72563652  0.75772586  0.06504967  1
  O  O34  1  0.69541506  0.27115084  0.31595254  1
  O  O35  1  0.72199476  0.75799636  0.18972148  1
  O  O36  1  0.26973000  0.22352233  0.56644823  1
  O  O37  1  0.25073960  0.76844101  0.42658352  1
  O  O38  1  0.73201780  0.25927651  0.42946585  1
  O  O39  1  0.28120695  0.24105045  0.68391067  1
  O  O40  1  0.27071180  0.73756264  0.56675867  1
  O  O41  1  0.71968824  0.76148803  0.31489586  1
  O  O42  1  0.73825940  0.24358904  0.56821659  1
  O  O43  1  0.73282873  0.78977789  0.42958111  1
  O  O44  1  0.25276954  0.75992548  0.68179199  1
  O  O45  1  0.26570778  0.21484427  0.81890557  1
  O  O46  1  0.72693822  0.26006450  0.68345920  1
  O  O47  1  0.30971425  0.25507571  0.91993557  1
  O  O48  1  0.26615636  0.74357053  0.81888135  1
  O  O49  1  0.72039636  0.75998760  0.56487160  1
  O  O50  1  0.75578125  0.23471239  0.81850518  1
  O  O51  1  0.72822510  0.77876939  0.68316105  1
  O  O52  1  0.26865116  0.73661971  0.93972470  1
  O  O53  1  0.71773812  0.26352514  0.94145266  1
  O  O54  1  0.71846104  0.75904033  0.81586351  1
  O  O55  1  0.71802531  0.75314230  0.94133980  1
