# generated using pymatgen
data_LiNi2P3O10
_symmetry_space_group_name_H-M   'P 1'
_cell_length_a   4.63217999
_cell_length_b   8.47071569
_cell_length_c   9.00151231
_cell_angle_alpha   90.00000000
_cell_angle_beta   98.01162921
_cell_angle_gamma   90.00000000
_symmetry_Int_Tables_number   1
_chemical_formula_structural   LiNi2P3O10
_chemical_formula_sum   'Li2 Ni4 P6 O20'
_cell_volume   349.75295206
_cell_formula_units_Z   2
loop_
 _symmetry_equiv_pos_site_id
 _symmetry_equiv_pos_as_xyz
  1  'x, y, z'
loop_
 _atom_site_type_symbol
 _atom_site_label
 _atom_site_symmetry_multiplicity
 _atom_site_fract_x
 _atom_site_fract_y
 _atom_site_fract_z
 _atom_site_occupancy
  Li  Li0  1  0.00000000  0.50000000  0.00000000  1
  Li  Li1  1  0.00000000  0.00000000  0.00000000  1
  O  O2  1  0.70485264  0.75000000  0.55522188  1
  O  O3  1  0.29514736  0.25000000  0.44477812  1
  O  O4  1  0.77207482  0.40236592  0.51421757  1
  O  O5  1  0.22792518  0.90236592  0.48578243  1
  O  O6  1  0.22792518  0.59763408  0.48578243  1
  O  O7  1  0.77207482  0.09763408  0.51421757  1
  O  O8  1  0.15751842  0.40188891  0.81214578  1
  O  O9  1  0.84248158  0.90188891  0.18785422  1
  O  O10  1  0.28842813  0.09875083  0.16028027  1
  O  O11  1  0.71157187  0.59875083  0.83971973  1
  O  O12  1  0.71157187  0.90124917  0.83971973  1
  O  O13  1  0.28842813  0.40124917  0.16028027  1
  O  O14  1  0.76721606  0.25000000  0.23902798  1
  O  O15  1  0.23278394  0.75000000  0.76097202  1
  O  O16  1  0.56492065  0.25000000  0.71015950  1
  O  O17  1  0.43507935  0.75000000  0.28984050  1
  O  O18  1  0.55142484  0.25000000  0.97541021  1
  O  O19  1  0.44857516  0.75000000  0.02458979  1
  O  O20  1  0.15751842  0.09811109  0.81214578  1
  O  O21  1  0.84248158  0.59811109  0.18785422  1
  P  P22  1  0.39796364  0.75000000  0.46517387  1
  P  P23  1  0.60203636  0.25000000  0.53482613  1
  P  P24  1  0.67069745  0.75000000  0.17881552  1
  P  P25  1  0.32930255  0.25000000  0.82118448  1
  P  P26  1  0.53784819  0.75000000  0.85396845  1
  P  P27  1  0.46215181  0.25000000  0.14603155  1
  Ni  Ni28  1  0.03625211  0.43067278  0.33619600  1
  Ni  Ni29  1  0.96374789  0.93067278  0.66380400  1
  Ni  Ni30  1  0.96374789  0.56932722  0.66380400  1
  Ni  Ni31  1  0.03625211  0.06932722  0.33619600  1
