# generated using pymatgen
data_V2Zn2O7
_symmetry_space_group_name_H-M   'P 1'
_cell_length_a   5.70219229
_cell_length_b   5.70219228
_cell_length_c   10.34215737
_cell_angle_alpha   104.90294910
_cell_angle_beta   104.90294910
_cell_angle_gamma   94.91703257
_symmetry_Int_Tables_number   1
_chemical_formula_structural   V2Zn2O7
_chemical_formula_sum   'V4 Zn4 O14'
_cell_volume   309.85328366
_cell_formula_units_Z   2
loop_
 _symmetry_equiv_pos_site_id
 _symmetry_equiv_pos_as_xyz
  1  'x, y, z'
loop_
 _atom_site_type_symbol
 _atom_site_label
 _atom_site_symmetry_multiplicity
 _atom_site_fract_x
 _atom_site_fract_y
 _atom_site_fract_z
 _atom_site_occupancy
  O  O0  1  0.69416959  0.02721891  0.38176594  1
  O  O1  1  0.97278109  0.30583041  0.11823406  1
  O  O2  1  0.30583041  0.97278109  0.61823406  1
  O  O3  1  0.02721891  0.69416959  0.88176594  1
  O  O4  1  0.91038873  0.60635074  0.39684491  1
  O  O5  1  0.39364926  0.08961127  0.10315509  1
  O  O6  1  0.08961127  0.39364926  0.60315509  1
  O  O7  1  0.60635074  0.91038873  0.89684491  1
  O  O8  1  0.93127853  0.06872147  0.75000000  1
  O  O9  1  0.06872147  0.93127853  0.25000000  1
  O  O10  1  0.62648354  0.58870435  0.63674263  1
  O  O11  1  0.41129565  0.37351646  0.86325737  1
  O  O12  1  0.37351646  0.41129565  0.36325737  1
  O  O13  1  0.58870435  0.62648354  0.13674263  1
  V  V14  1  0.81101587  0.79685908  0.29272616  1
  V  V15  1  0.20314092  0.18898413  0.20727384  1
  V  V16  1  0.18898413  0.20314092  0.70727384  1
  V  V17  1  0.79685908  0.81101587  0.79272616  1
  Zn  Zn18  1  0.38231110  0.72965250  0.97734176  1
  Zn  Zn19  1  0.27034750  0.61768890  0.52265824  1
  Zn  Zn20  1  0.61768890  0.27034750  0.02265824  1
  Zn  Zn21  1  0.72965250  0.38231110  0.47734176  1
