# generated using pymatgen
data_MnSe2O5
_symmetry_space_group_name_H-M   'P 1'
_cell_length_a   6.41464228
_cell_length_b   6.97243231
_cell_length_c   10.83078325
_cell_angle_alpha   90.00000000
_cell_angle_beta   90.00000000
_cell_angle_gamma   90.00000000
_symmetry_Int_Tables_number   1
_chemical_formula_structural   MnSe2O5
_chemical_formula_sum   'Mn4 Se8 O20'
_cell_volume   484.41391932
_cell_formula_units_Z   4
loop_
 _symmetry_equiv_pos_site_id
 _symmetry_equiv_pos_as_xyz
  1  'x, y, z'
loop_
 _atom_site_type_symbol
 _atom_site_label
 _atom_site_symmetry_multiplicity
 _atom_site_fract_x
 _atom_site_fract_y
 _atom_site_fract_z
 _atom_site_occupancy
  O  O0  1  0.25000000  0.00000000  0.42997361  1
  O  O1  1  0.75000000  0.50000000  0.07002639  1
  O  O2  1  0.75000000  0.00000000  0.57002639  1
  O  O3  1  0.25000000  0.50000000  0.92997361  1
  O  O4  1  0.66689607  0.30142243  0.28700438  1
  O  O5  1  0.16689607  0.19857757  0.21299562  1
  O  O6  1  0.33310393  0.80142243  0.21299562  1
  O  O7  1  0.83310393  0.69857757  0.28700438  1
  O  O8  1  0.33310393  0.69857757  0.71299562  1
  O  O9  1  0.83310393  0.80142243  0.78700438  1
  O  O10  1  0.66689607  0.19857757  0.78700438  1
  O  O11  1  0.16689607  0.30142243  0.71299562  1
  O  O12  1  0.04864824  0.33958498  0.43220587  1
  O  O13  1  0.54864824  0.16041502  0.06779413  1
  O  O14  1  0.95135176  0.83958498  0.06779413  1
  O  O15  1  0.45135176  0.66041502  0.43220587  1
  O  O16  1  0.95135176  0.66041502  0.56779413  1
  O  O17  1  0.45135176  0.83958498  0.93220587  1
  O  O18  1  0.04864824  0.16041502  0.93220587  1
  O  O19  1  0.54864824  0.33958498  0.56779413  1
  Mn  Mn20  1  0.25000000  0.00000000  0.06037622  1
  Mn  Mn21  1  0.75000000  0.50000000  0.43962378  1
  Mn  Mn22  1  0.75000000  0.00000000  0.93962378  1
  Mn  Mn23  1  0.25000000  0.50000000  0.56037622  1
  Se  Se24  1  0.04169771  0.36610187  0.84423820  1
  Se  Se25  1  0.54169771  0.13389813  0.65576180  1
  Se  Se26  1  0.95830229  0.86610187  0.65576180  1
  Se  Se27  1  0.45830229  0.63389813  0.84423820  1
  Se  Se28  1  0.95830229  0.63389813  0.15576180  1
  Se  Se29  1  0.45830229  0.86610187  0.34423820  1
  Se  Se30  1  0.04169771  0.13389813  0.34423820  1
  Se  Se31  1  0.54169771  0.36610187  0.15576180  1
