# generated using pymatgen
data_RbV3O8
_symmetry_space_group_name_H-M   'P 1'
_cell_length_a   5.13471936
_cell_length_b   8.20028113
_cell_length_c   8.71696564
_cell_angle_alpha   90.00000000
_cell_angle_beta   90.00000000
_cell_angle_gamma   98.94476870
_symmetry_Int_Tables_number   1
_chemical_formula_structural   RbV3O8
_chemical_formula_sum   'Rb2 V6 O16'
_cell_volume   362.57413169
_cell_formula_units_Z   2
loop_
 _symmetry_equiv_pos_site_id
 _symmetry_equiv_pos_as_xyz
  1  'x, y, z'
loop_
 _atom_site_type_symbol
 _atom_site_label
 _atom_site_symmetry_multiplicity
 _atom_site_fract_x
 _atom_site_fract_y
 _atom_site_fract_z
 _atom_site_occupancy
  O  O0  1  0.87806588  0.28764985  0.60358776  1
  O  O1  1  0.12193412  0.71235015  0.10358776  1
  O  O2  1  0.12193412  0.71235015  0.39641224  1
  O  O3  1  0.87806588  0.28764985  0.89641224  1
  O  O4  1  0.57760443  0.82565091  0.55535581  1
  O  O5  1  0.42239557  0.17434909  0.05535581  1
  O  O6  1  0.42239557  0.17434909  0.44464419  1
  O  O7  1  0.57760443  0.82565091  0.94464419  1
  O  O8  1  0.91279567  0.58687207  0.75000000  1
  O  O9  1  0.08720433  0.41312793  0.25000000  1
  O  O10  1  0.41045847  0.25617826  0.75000000  1
  O  O11  1  0.58954153  0.74382174  0.25000000  1
  O  O12  1  0.32608287  0.49671134  0.91055235  1
  O  O13  1  0.67391713  0.50328866  0.41055235  1
  O  O14  1  0.67391713  0.50328866  0.08944765  1
  O  O15  1  0.32608287  0.49671134  0.58944765  1
  V  V16  1  0.55405298  0.32449927  0.55688020  1
  V  V17  1  0.44594702  0.67550073  0.05688020  1
  V  V18  1  0.44594702  0.67550073  0.44311980  1
  V  V19  1  0.55405298  0.32449927  0.94311980  1
  V  V20  1  0.92200394  0.56709057  0.25000000  1
  V  V21  1  0.07799606  0.43290943  0.75000000  1
  Rb  Rb22  1  0.95069278  0.05582789  0.25000000  1
  Rb  Rb23  1  0.04930722  0.94417211  0.75000000  1
