# generated using pymatgen
data_RbLa(WO4)2
_symmetry_space_group_name_H-M   'P 1'
_cell_length_a   7.62300972
_cell_length_b   7.62300971
_cell_length_c   7.75638839
_cell_angle_alpha   113.63356618
_cell_angle_beta   113.63356617
_cell_angle_gamma   92.29441275
_symmetry_Int_Tables_number   1
_chemical_formula_structural   RbLa(WO4)2
_chemical_formula_sum   'Rb2 La2 W4 O16'
_cell_volume   367.30995481
_cell_formula_units_Z   2
loop_
 _symmetry_equiv_pos_site_id
 _symmetry_equiv_pos_as_xyz
  1  'x, y, z'
loop_
 _atom_site_type_symbol
 _atom_site_label
 _atom_site_symmetry_multiplicity
 _atom_site_fract_x
 _atom_site_fract_y
 _atom_site_fract_z
 _atom_site_occupancy
  O  O0  1  0.01523226  0.01523226  0.34728930  1
  O  O1  1  0.98476774  0.98476774  0.65271070  1
  O  O2  1  0.96175071  0.70883535  0.94905919  1
  O  O3  1  0.29116465  0.03824929  0.05094081  1
  O  O4  1  0.03824929  0.29116465  0.05094081  1
  O  O5  1  0.70883535  0.96175071  0.94905919  1
  O  O6  1  0.41840987  0.41840987  0.09441493  1
  O  O7  1  0.58159013  0.58159013  0.90558507  1
  O  O8  1  0.34301089  0.08952242  0.73368826  1
  O  O9  1  0.91047758  0.65698911  0.26631174  1
  O  O10  1  0.65698911  0.91047758  0.26631174  1
  O  O11  1  0.08952242  0.34301089  0.73368826  1
  O  O12  1  0.69367167  0.21660173  0.64406256  1
  O  O13  1  0.78339827  0.30632833  0.35593744  1
  O  O14  1  0.30632833  0.78339827  0.35593744  1
  O  O15  1  0.21660173  0.69367167  0.64406256  1
  Rb  Rb16  1  0.68595813  0.68595813  0.53348749  1
  Rb  Rb17  1  0.31404187  0.31404187  0.46651251  1
  La  La18  1  0.29868159  0.70131841  0.00000000  1
  La  La19  1  0.70131841  0.29868159  0.00000000  1
  W  W20  1  0.79888716  0.79888716  0.06827975  1
  W  W21  1  0.20111284  0.20111284  0.93172025  1
  W  W22  1  0.83892960  0.16107040  0.50000000  1
  W  W23  1  0.16107040  0.83892960  0.50000000  1
