# generated using pymatgen
data_Yb2Be2Si2NiO10
_symmetry_space_group_name_H-M   'P 1'
_cell_length_a   4.65705829
_cell_length_b   7.48728089
_cell_length_c   10.08681975
_cell_angle_alpha   90.00000000
_cell_angle_beta   89.36638330
_cell_angle_gamma   90.00000000
_symmetry_Int_Tables_number   1
_chemical_formula_structural   Yb2Be2Si2NiO10
_chemical_formula_sum   'Yb4 Be4 Si4 Ni2 O20'
_cell_volume   351.69282172
_cell_formula_units_Z   2
loop_
 _symmetry_equiv_pos_site_id
 _symmetry_equiv_pos_as_xyz
  1  'x, y, z'
loop_
 _atom_site_type_symbol
 _atom_site_label
 _atom_site_symmetry_multiplicity
 _atom_site_fract_x
 _atom_site_fract_y
 _atom_site_fract_z
 _atom_site_occupancy
  Be  Be0  1  0.44581383  0.91789198  0.15547795  1
  Be  Be1  1  0.55418617  0.08210802  0.84452205  1
  Be  Be2  1  0.44581383  0.58210802  0.65547795  1
  Be  Be3  1  0.55418617  0.41789198  0.34452205  1
  O  O4  1  0.28699951  0.38392572  0.63147445  1
  O  O5  1  0.71300049  0.88392572  0.86852555  1
  O  O6  1  0.71300049  0.61607428  0.36852555  1
  O  O7  1  0.28699951  0.11607428  0.13147445  1
  O  O8  1  0.69456827  0.15736941  0.70755019  1
  O  O9  1  0.30543173  0.65736941  0.79244981  1
  O  O10  1  0.21342434  0.41981987  0.34729440  1
  O  O11  1  0.21342434  0.08018013  0.84729440  1
  O  O12  1  0.78657566  0.91981987  0.15270560  1
  O  O13  1  0.78657566  0.58018013  0.65270560  1
  O  O14  1  0.28260059  0.43092292  0.02315710  1
  O  O15  1  0.71739941  0.93092292  0.47684290  1
  O  O16  1  0.71739941  0.56907708  0.97684290  1
  O  O17  1  0.28260059  0.06907708  0.52315710  1
  O  O18  1  0.71516166  0.30057860  0.46352054  1
  O  O19  1  0.28483834  0.80057860  0.03647946  1
  O  O20  1  0.28483834  0.69942140  0.53647946  1
  O  O21  1  0.71516166  0.19942140  0.96352054  1
  O  O22  1  0.69456827  0.34263059  0.20755019  1
  O  O23  1  0.30543173  0.84263059  0.29244981  1
  Si  Si24  1  0.50382613  0.22102569  0.58189237  1
  Si  Si25  1  0.49617387  0.72102569  0.91810763  1
  Si  Si26  1  0.49617387  0.77897431  0.41810763  1
  Si  Si27  1  0.50382613  0.27897431  0.08189237  1
  Ni  Ni28  1  0.00000000  0.50000000  0.50000000  1
  Ni  Ni29  1  0.00000000  0.00000000  0.00000000  1
  Yb  Yb30  1  0.99839772  0.38450914  0.82265201  1
  Yb  Yb31  1  0.00160228  0.88450914  0.67734799  1
  Yb  Yb32  1  0.00160228  0.61549086  0.17734799  1
  Yb  Yb33  1  0.99839772  0.11549086  0.32265201  1
