# generated using pymatgen
data_Y4Fe13Si2(SbO14)2
_symmetry_space_group_name_H-M   'P 1'
_cell_length_a   5.72620754
_cell_length_b   9.42274271
_cell_length_c   12.35917562
_cell_angle_alpha   87.71630831
_cell_angle_beta   76.60528782
_cell_angle_gamma   80.09533141
_symmetry_Int_Tables_number   1
_chemical_formula_structural   Y4Fe13Si2(SbO14)2
_chemical_formula_sum   'Y4 Fe13 Si2 Sb2 O28'
_cell_volume   639.04952055
_cell_formula_units_Z   1
loop_
 _symmetry_equiv_pos_site_id
 _symmetry_equiv_pos_as_xyz
  1  'x, y, z'
loop_
 _atom_site_type_symbol
 _atom_site_label
 _atom_site_symmetry_multiplicity
 _atom_site_fract_x
 _atom_site_fract_y
 _atom_site_fract_z
 _atom_site_occupancy
  Y  Y0  1  0.07469708  0.65638109  0.41221307  1
  Y  Y1  1  0.51308985  0.34361891  0.41221307  1
  Y  Y2  1  0.92530292  0.34361891  0.58778693  1
  Y  Y3  1  0.48691015  0.65638109  0.58778693  1
  Fe  Fe4  1  0.91791080  0.64581050  0.73796113  1
  Fe  Fe5  1  0.66305352  0.32834731  0.12369555  1
  Fe  Fe6  1  0.34412707  0.35418950  0.73796113  1
  Fe  Fe7  1  0.08208920  0.35418950  0.26203887  1
  Fe  Fe8  1  0.33694648  0.67165269  0.87630445  1
  Fe  Fe9  1  0.28982962  1.00000000  0.42034076  1
  Fe  Fe10  1  0.21325093  0.67165269  0.12369555  1
  Fe  Fe11  1  0.00000000  0.00000000  0.00000000  1
  Fe  Fe12  1  0.42745275  1.00000000  0.14509450  1
  Fe  Fe13  1  0.78674907  0.32834731  0.87630445  1
  Fe  Fe14  1  0.65587293  0.64581050  0.26203887  1
  Fe  Fe15  1  0.57254725  0.00000000  0.85490550  1
  Fe  Fe16  1  0.71017038  0.00000000  0.57965924  1
  Si  Si17  1  0.24885943  0.29394148  0.00000000  1
  Si  Si18  1  0.75114057  0.70605852  1.00000000  1
  Sb  Sb19  1  0.86200015  1.00000000  0.27599969  1
  Sb  Sb20  1  0.13799985  0.00000000  0.72400031  1
  O  O21  1  0.72022763  0.40420088  0.26013302  1
  O  O22  1  0.12726422  0.38802875  0.41960512  1
  O  O23  1  0.95912974  0.34114911  1.00000000  1
  O  O24  1  0.31570498  0.11778504  0.00000000  1
  O  O25  1  0.87273578  0.61197125  0.58039488  1
  O  O26  1  0.27977237  0.59579912  0.73986698  1
  O  O27  1  0.00871484  0.10384672  0.58960651  1
  O  O28  1  0.99128516  0.89615328  0.41039349  1
  O  O29  1  0.68429502  0.88221496  0.00000000  1
  O  O30  1  0.11806332  0.89125541  0.15030220  1
  O  O31  1  0.31184394  0.36103228  0.10984625  1
  O  O32  1  0.01963935  0.59579912  0.26013302  1
  O  O33  1  0.40167865  0.89615328  0.58960651  1
  O  O34  1  0.73163448  0.10874459  0.15030220  1
  O  O35  1  0.57830981  0.63896772  0.10984625  1
  O  O36  1  0.04087026  0.65885089  0.00000000  1
  O  O37  1  0.26836552  0.89125541  0.84969780  1
  O  O38  1  0.88193668  0.10874459  0.84969780  1
  O  O39  1  0.59832135  0.10384672  0.41039349  1
  O  O40  1  0.12460780  0.12036292  0.27830545  1
  O  O41  1  0.87539220  0.87963708  0.72169455  1
  O  O42  1  0.42169019  0.36103228  0.89015375  1
  O  O43  1  0.40291325  0.12036292  0.72169455  1
  O  O44  1  0.54686934  0.38802875  0.58039488  1
  O  O45  1  0.68815606  0.63896772  0.89015375  1
  O  O46  1  0.59708675  0.87963708  0.27830545  1
  O  O47  1  0.98036065  0.40420088  0.73986698  1
  O  O48  1  0.45313066  0.61197125  0.41960512  1
