# generated using pymatgen
data_LiFe(WO4)2
_symmetry_space_group_name_H-M   'P 1'
_cell_length_a   5.01923819
_cell_length_b   7.46111355
_cell_length_c   7.46111355
_cell_angle_alpha   101.61733000
_cell_angle_beta   90.77129519
_cell_angle_gamma   90.77129528
_symmetry_Int_Tables_number   1
_chemical_formula_structural   LiFe(WO4)2
_chemical_formula_sum   'Li2 Fe2 W4 O16'
_cell_volume   273.62599955
_cell_formula_units_Z   2
loop_
 _symmetry_equiv_pos_site_id
 _symmetry_equiv_pos_as_xyz
  1  'x, y, z'
loop_
 _atom_site_type_symbol
 _atom_site_label
 _atom_site_symmetry_multiplicity
 _atom_site_fract_x
 _atom_site_fract_y
 _atom_site_fract_z
 _atom_site_occupancy
  Li  Li0  1  0.75000026  0.15764567  0.84235441  1
  Li  Li1  1  0.25000093  0.84235496  0.15764511  1
  O  O2  1  0.07902838  0.57647843  0.69717472  1
  O  O3  1  0.60804678  0.92945479  0.31528833  1
  O  O4  1  0.55544107  0.19457698  0.09713402  1
  O  O5  1  0.94455940  0.90286599  0.80542394  1
  O  O6  1  0.10804649  0.31528909  0.92945459  1
  O  O7  1  0.39195440  0.07054583  0.68471119  1
  O  O8  1  0.89195267  0.68471153  0.07054492  1
  O  O9  1  0.42097311  0.30282600  0.42352145  1
  O  O10  1  0.92097281  0.42352220  0.30282616  1
  O  O11  1  0.57902808  0.69717463  0.57647807  1
  O  O12  1  0.44456011  0.80542365  0.90286686  1
  O  O13  1  0.91287335  0.20078482  0.56276972  1
  O  O14  1  0.41287297  0.56277017  0.20078473  1
  O  O15  1  0.08712783  0.79921440  0.43722950  1
  O  O16  1  0.05543975  0.09713324  0.19457665  1
  O  O17  1  0.58712820  0.43722905  0.79921449  1
  Fe  Fe18  1  0.25000052  0.32736329  0.67263732  1
  Fe  Fe19  1  0.75000067  0.67263734  0.32736357  1
  W  W20  1  0.24353137  0.33735423  0.16193367  1
  W  W21  1  0.25646891  0.83806581  0.66264535  1
  W  W22  1  0.74353227  0.16193342  0.33735387  1
  W  W23  1  0.75646778  0.66264639  0.83806584  1
