# generated using pymatgen
data_Mn2Te3O8
_symmetry_space_group_name_H-M   'P 1'
_cell_length_a   5.50781525
_cell_length_b   7.10789846
_cell_length_c   12.05514169
_cell_angle_alpha   97.20492832
_cell_angle_beta   90.00000000
_cell_angle_gamma   112.79550717
_symmetry_Int_Tables_number   1
_chemical_formula_structural   Mn2Te3O8
_chemical_formula_sum   'Mn4 Te6 O16'
_cell_volume   431.03945526
_cell_formula_units_Z   2
loop_
 _symmetry_equiv_pos_site_id
 _symmetry_equiv_pos_as_xyz
  1  'x, y, z'
loop_
 _atom_site_type_symbol
 _atom_site_label
 _atom_site_symmetry_multiplicity
 _atom_site_fract_x
 _atom_site_fract_y
 _atom_site_fract_z
 _atom_site_occupancy
  O  O0  1  0.55462342  0.39251229  0.68779194  1
  O  O1  1  0.16211112  0.60748771  0.81220806  1
  O  O2  1  0.44537658  0.60748771  0.31220806  1
  O  O3  1  0.83788888  0.39251229  0.18779194  1
  O  O4  1  0.27656197  0.52515165  0.52815463  1
  O  O5  1  0.75141031  0.47484835  0.97184537  1
  O  O6  1  0.72343803  0.47484835  0.47184537  1
  O  O7  1  0.24858969  0.52515165  0.02815463  1
  O  O8  1  0.76833854  0.76632894  0.85772845  1
  O  O9  1  0.00200960  0.23367106  0.64227155  1
  O  O10  1  0.99980883  0.15153815  0.35444212  1
  O  O11  1  0.84827067  0.84846185  0.14555788  1
  O  O12  1  0.00019117  0.84846185  0.64555788  1
  O  O13  1  0.15172933  0.15153815  0.85444212  1
  O  O14  1  0.99799040  0.76632894  0.35772845  1
  O  O15  1  0.23166146  0.23367106  0.14227155  1
  Mn  Mn16  1  0.42554979  0.45960050  0.85115813  1
  Mn  Mn17  1  0.96594929  0.54039950  0.64884187  1
  Mn  Mn18  1  0.57445021  0.54039950  0.14884187  1
  Mn  Mn19  1  0.03405071  0.45960050  0.35115813  1
  Te  Te20  1  0.32344955  0.27823035  0.55785109  1
  Te  Te21  1  0.04521920  0.72176965  0.94214891  1
  Te  Te22  1  0.67655045  0.72176965  0.44214891  1
  Te  Te23  1  0.95478080  0.27823035  0.05785109  1
  Te  Te24  1  0.86466465  0.00000000  0.75000000  1
  Te  Te25  1  0.13533535  0.00000000  0.25000000  1
