# generated using pymatgen
data_TaTe4
_symmetry_space_group_name_H-M   'P 1'
_cell_length_a   9.37401816
_cell_length_b   9.37401816
_cell_length_c   20.90990554
_cell_angle_alpha   90.00000000
_cell_angle_beta   90.00000000
_cell_angle_gamma   90.00000000
_symmetry_Int_Tables_number   1
_chemical_formula_structural   TaTe4
_chemical_formula_sum   'Ta12 Te48'
_cell_volume   1837.39974585
_cell_formula_units_Z   12
loop_
 _symmetry_equiv_pos_site_id
 _symmetry_equiv_pos_as_xyz
  1  'x, y, z'
loop_
 _atom_site_type_symbol
 _atom_site_label
 _atom_site_symmetry_multiplicity
 _atom_site_fract_x
 _atom_site_fract_y
 _atom_site_fract_z
 _atom_site_occupancy
  Te  Te0  1  0.48709105  0.15823541  0.00334751  1
  Te  Te1  1  0.01290895  0.34176459  0.00334751  1
  Te  Te2  1  0.65823541  0.98709105  0.49665249  1
  Te  Te3  1  0.15823541  0.01290895  0.00334751  1
  Te  Te4  1  0.34176459  0.48709105  0.00334751  1
  Te  Te5  1  0.51290895  0.65823541  0.49665249  1
  Te  Te6  1  0.98709105  0.84176459  0.49665249  1
  Te  Te7  1  0.84176459  0.51290895  0.49665249  1
  Te  Te8  1  0.51290895  0.84176459  0.99665249  1
  Te  Te9  1  0.98709105  0.65823541  0.99665249  1
  Te  Te10  1  0.34176459  0.01290895  0.50334751  1
  Te  Te11  1  0.84176459  0.98709105  0.99665249  1
  Te  Te12  1  0.00902339  0.33453826  0.66443163  1
  Te  Te13  1  0.16546174  0.00902339  0.66443163  1
  Te  Te14  1  0.33453826  0.49097661  0.66443163  1
  Te  Te15  1  0.50902339  0.66546174  0.83556837  1
  Te  Te16  1  0.99097661  0.83453826  0.83556837  1
  Te  Te17  1  0.49097661  0.16546174  0.66443163  1
  Te  Te18  1  0.83453826  0.50902339  0.83556837  1
  Te  Te19  1  0.66546174  0.99097661  0.83556837  1
  Te  Te20  1  0.99097661  0.66546174  0.33556837  1
  Te  Te21  1  0.83453826  0.99097661  0.33556837  1
  Te  Te22  1  0.66546174  0.50902339  0.33556837  1
  Te  Te23  1  0.49097661  0.33453826  0.16443163  1
  Te  Te24  1  0.00902339  0.16546174  0.16443163  1
  Te  Te25  1  0.50902339  0.83453826  0.33556837  1
  Te  Te26  1  0.16546174  0.49097661  0.16443163  1
  Te  Te27  1  0.33453826  0.00902339  0.16443163  1
  Te  Te28  1  0.46324616  0.34589394  0.83393029  1
  Te  Te29  1  0.15410606  0.46324616  0.83393029  1
  Te  Te30  1  0.34589394  0.03675384  0.83393029  1
  Te  Te31  1  0.96324616  0.65410606  0.66606971  1
  Te  Te32  1  0.53675384  0.84589394  0.66606971  1
  Te  Te33  1  0.03675384  0.15410606  0.83393029  1
  Te  Te34  1  0.84589394  0.96324616  0.66606971  1
  Te  Te35  1  0.65410606  0.53675384  0.66606971  1
  Te  Te36  1  0.53675384  0.65410606  0.16606971  1
  Te  Te37  1  0.84589394  0.53675384  0.16606971  1
  Te  Te38  1  0.65410606  0.96324616  0.16606971  1
  Te  Te39  1  0.03675384  0.34589394  0.33393029  1
  Te  Te40  1  0.46324616  0.15410606  0.33393029  1
  Te  Te41  1  0.96324616  0.84589394  0.16606971  1
  Te  Te42  1  0.15410606  0.03675384  0.33393029  1
  Te  Te43  1  0.34589394  0.46324616  0.33393029  1
  Te  Te44  1  0.15823541  0.48709105  0.50334751  1
  Te  Te45  1  0.01290895  0.15823541  0.50334751  1
  Te  Te46  1  0.48709105  0.34176459  0.50334751  1
  Te  Te47  1  0.65823541  0.51290895  0.99665249  1
  Ta  Ta48  1  0.25000000  0.25000000  0.93121644  1
  Ta  Ta49  1  0.75000000  0.75000000  0.56878356  1
  Ta  Ta50  1  0.75000000  0.75000000  0.06878356  1
  Ta  Ta51  1  0.25000000  0.25000000  0.43121644  1
  Ta  Ta52  1  0.25000000  0.25000000  0.23634627  1
  Ta  Ta53  1  0.75000000  0.75000000  0.26365373  1
  Ta  Ta54  1  0.75000000  0.75000000  0.76365373  1
  Ta  Ta55  1  0.25000000  0.25000000  0.73634627  1
  Ta  Ta56  1  0.25000000  0.25000000  0.08447972  1
  Ta  Ta57  1  0.75000000  0.75000000  0.41552028  1
  Ta  Ta58  1  0.75000000  0.75000000  0.91552028  1
  Ta  Ta59  1  0.25000000  0.25000000  0.58447972  1
