# generated using pymatgen
data_KInTe2
_symmetry_space_group_name_H-M   'P 1'
_cell_length_a   7.24391442
_cell_length_b   7.24391443
_cell_length_c   7.24391442
_cell_angle_alpha   105.25631437
_cell_angle_beta   105.25631433
_cell_angle_gamma   118.27636233
_symmetry_Int_Tables_number   1
_chemical_formula_structural   KInTe2
_chemical_formula_sum   'K2 In2 Te4'
_cell_volume   287.36095980
_cell_formula_units_Z   2
loop_
 _symmetry_equiv_pos_site_id
 _symmetry_equiv_pos_as_xyz
  1  'x, y, z'
loop_
 _atom_site_type_symbol
 _atom_site_label
 _atom_site_symmetry_multiplicity
 _atom_site_fract_x
 _atom_site_fract_y
 _atom_site_fract_z
 _atom_site_occupancy
  K  K0  1  0.25000000  0.25000000  0.00000000  1
  K  K1  1  0.75000000  0.75000000  0.00000000  1
  In  In2  1  0.75000000  0.25000000  0.50000000  1
  In  In3  1  0.25000000  0.75000000  0.50000000  1
  Te  Te4  1  0.17519749  0.32480251  0.50000000  1
  Te  Te5  1  0.32480251  0.82480251  0.14960502  1
  Te  Te6  1  0.67519749  0.17519749  0.85039498  1
  Te  Te7  1  0.82480251  0.67519749  0.50000000  1
