# generated using pymatgen
data_HoSiRh
_symmetry_space_group_name_H-M   'P 1'
_cell_length_a   4.24095561
_cell_length_b   6.88396675
_cell_length_c   7.40043778
_cell_angle_alpha   90.00000000
_cell_angle_beta   90.00000000
_cell_angle_gamma   90.00000000
_symmetry_Int_Tables_number   1
_chemical_formula_structural   HoSiRh
_chemical_formula_sum   'Ho4 Si4 Rh4'
_cell_volume   216.05280163
_cell_formula_units_Z   4
loop_
 _symmetry_equiv_pos_site_id
 _symmetry_equiv_pos_as_xyz
  1  'x, y, z'
loop_
 _atom_site_type_symbol
 _atom_site_label
 _atom_site_symmetry_multiplicity
 _atom_site_fract_x
 _atom_site_fract_y
 _atom_site_fract_z
 _atom_site_occupancy
  Si  Si0  1  0.25000000  0.29530816  0.89565320  1
  Si  Si1  1  0.75000000  0.70469184  0.10434680  1
  Si  Si2  1  0.25000000  0.79530816  0.60434680  1
  Si  Si3  1  0.75000000  0.20469184  0.39565320  1
  Rh  Rh4  1  0.75000000  0.84577294  0.43020657  1
  Rh  Rh5  1  0.25000000  0.15422706  0.56979343  1
  Rh  Rh6  1  0.75000000  0.34577294  0.06979343  1
  Rh  Rh7  1  0.25000000  0.65422706  0.93020657  1
  Ho  Ho8  1  0.25000000  0.49959076  0.31014587  1
  Ho  Ho9  1  0.75000000  0.50040924  0.68985413  1
  Ho  Ho10  1  0.25000000  0.99959076  0.18985413  1
  Ho  Ho11  1  0.75000000  0.00040924  0.81014587  1
