# generated using pymatgen
data_TlTe
_symmetry_space_group_name_H-M   'P 1'
_cell_length_a   6.29021127
_cell_length_b   18.60348297
_cell_length_c   18.60348297
_cell_angle_alpha   90.00000000
_cell_angle_beta   90.00000000
_cell_angle_gamma   90.00000000
_symmetry_Int_Tables_number   1
_chemical_formula_structural   TlTe
_chemical_formula_sum   'Tl32 Te32'
_cell_volume   2176.97656783
_cell_formula_units_Z   32
loop_
 _symmetry_equiv_pos_site_id
 _symmetry_equiv_pos_as_xyz
  1  'x, y, z'
loop_
 _atom_site_type_symbol
 _atom_site_label
 _atom_site_symmetry_multiplicity
 _atom_site_fract_x
 _atom_site_fract_y
 _atom_site_fract_z
 _atom_site_occupancy
  Tl  Tl0  1  0.00279297  0.84649117  0.07415704  1
  Tl  Tl1  1  0.00378145  0.42552538  0.34615182  1
  Tl  Tl2  1  0.50378145  0.15384818  0.42552538  1
  Tl  Tl3  1  0.50378145  0.34615182  0.07447462  1
  Tl  Tl4  1  0.49621855  0.65384818  0.57447462  1
  Tl  Tl5  1  0.99621855  0.92552538  0.65384818  1
  Tl  Tl6  1  0.99621855  0.57447462  0.84615182  1
  Tl  Tl7  1  0.49621855  0.84615182  0.92552538  1
  Tl  Tl8  1  0.99621855  0.92552538  0.84615182  1
  Tl  Tl9  1  0.99621855  0.57447462  0.65384818  1
  Tl  Tl10  1  0.49621855  0.84615182  0.57447462  1
  Tl  Tl11  1  0.49621855  0.65384818  0.92552538  1
  Tl  Tl12  1  0.50378145  0.34615182  0.42552538  1
  Tl  Tl13  1  0.00378145  0.07447462  0.34615182  1
  Tl  Tl14  1  0.00378145  0.42552538  0.15384818  1
  Tl  Tl15  1  0.50378145  0.15384818  0.07447462  1
  Tl  Tl16  1  0.00378145  0.07447462  0.15384818  1
  Tl  Tl17  1  0.00279297  0.65350883  0.42584296  1
  Tl  Tl18  1  0.50279297  0.07415704  0.65350883  1
  Tl  Tl19  1  0.50279297  0.42584296  0.84649117  1
  Tl  Tl20  1  0.49720703  0.57415704  0.34649117  1
  Tl  Tl21  1  0.99720703  0.15350883  0.57415704  1
  Tl  Tl22  1  0.99720703  0.34649117  0.92584296  1
  Tl  Tl23  1  0.49720703  0.92584296  0.15350883  1
  Tl  Tl24  1  0.99720703  0.15350883  0.92584296  1
  Tl  Tl25  1  0.99720703  0.34649117  0.57415704  1
  Tl  Tl26  1  0.49720703  0.92584296  0.34649117  1
  Tl  Tl27  1  0.49720703  0.57415704  0.15350883  1
  Tl  Tl28  1  0.50279297  0.42584296  0.65350883  1
  Tl  Tl29  1  0.00279297  0.84649117  0.42584296  1
  Tl  Tl30  1  0.00279297  0.65350883  0.07415704  1
  Tl  Tl31  1  0.50279297  0.07415704  0.84649117  1
  Te  Te32  1  0.75000000  0.99874306  0.00125694  1
  Te  Te33  1  0.25000000  0.49874306  0.99874306  1
  Te  Te34  1  0.25000000  0.00125694  0.50125694  1
  Te  Te35  1  0.75000000  0.50125694  0.49874306  1
  Te  Te36  1  0.25000000  0.00125694  0.99874306  1
  Te  Te37  1  0.75000000  0.50125694  0.00125694  1
  Te  Te38  1  0.75000000  0.99874306  0.49874306  1
  Te  Te39  1  0.25000000  0.49874306  0.50125694  1
  Te  Te40  1  0.48901306  0.75000000  0.25000000  1
  Te  Te41  1  0.98901306  0.25000000  0.75000000  1
  Te  Te42  1  0.51098694  0.25000000  0.75000000  1
  Te  Te43  1  0.01098694  0.75000000  0.25000000  1
  Te  Te44  1  0.49839104  0.75000000  0.75000000  1
  Te  Te45  1  0.99839104  0.75000000  0.75000000  1
  Te  Te46  1  0.50160896  0.25000000  0.25000000  1
  Te  Te47  1  0.00234633  0.25000000  0.41337303  1
  Te  Te48  1  0.01504887  0.08680286  0.75000000  1
  Te  Te49  1  0.01504887  0.41319714  0.75000000  1
  Te  Te50  1  0.51504887  0.75000000  0.41319714  1
  Te  Te51  1  0.51504887  0.75000000  0.08680286  1
  Te  Te52  1  0.48495113  0.25000000  0.58680286  1
  Te  Te53  1  0.98495113  0.91319714  0.25000000  1
  Te  Te54  1  0.98495113  0.58680286  0.25000000  1
  Te  Te55  1  0.48495113  0.25000000  0.91319714  1
  Te  Te56  1  0.49765367  0.58662697  0.75000000  1
  Te  Te57  1  0.49765367  0.91337303  0.75000000  1
  Te  Te58  1  0.99765367  0.75000000  0.91337303  1
  Te  Te59  1  0.99765367  0.75000000  0.58662697  1
  Te  Te60  1  0.00234633  0.25000000  0.08662697  1
  Te  Te61  1  0.50234633  0.41337303  0.25000000  1
  Te  Te62  1  0.50234633  0.08662697  0.25000000  1
  Te  Te63  1  0.00160896  0.25000000  0.25000000  1
