# generated using pymatgen
data_LiCeGe2
_symmetry_space_group_name_H-M   'P 1'
_cell_length_a   3.97975924
_cell_length_b   7.87446469
_cell_length_c   10.65979519
_cell_angle_alpha   90.00000000
_cell_angle_beta   90.00000000
_cell_angle_gamma   90.00000000
_symmetry_Int_Tables_number   1
_chemical_formula_structural   LiCeGe2
_chemical_formula_sum   'Li4 Ce4 Ge8'
_cell_volume   334.06171025
_cell_formula_units_Z   4
loop_
 _symmetry_equiv_pos_site_id
 _symmetry_equiv_pos_as_xyz
  1  'x, y, z'
loop_
 _atom_site_type_symbol
 _atom_site_label
 _atom_site_symmetry_multiplicity
 _atom_site_fract_x
 _atom_site_fract_y
 _atom_site_fract_z
 _atom_site_occupancy
  Li  Li0  1  0.25000000  0.98737214  0.60590822  1
  Li  Li1  1  0.25000000  0.48737214  0.89409178  1
  Li  Li2  1  0.75000000  0.51262786  0.10590822  1
  Li  Li3  1  0.75000000  0.01262786  0.39409178  1
  Ge  Ge4  1  0.75000000  0.34261608  0.31082397  1
  Ge  Ge5  1  0.25000000  0.15738392  0.81082397  1
  Ge  Ge6  1  0.25000000  0.65738392  0.68917603  1
  Ge  Ge7  1  0.75000000  0.84261608  0.18917603  1
  Ge  Ge8  1  0.75000000  0.77050931  0.56481576  1
  Ge  Ge9  1  0.25000000  0.22949069  0.43518424  1
  Ge  Ge10  1  0.75000000  0.27050931  0.93518424  1
  Ge  Ge11  1  0.25000000  0.72949069  0.06481576  1
  Ce  Ce12  1  0.25000000  0.63474126  0.36492234  1
  Ce  Ce13  1  0.75000000  0.36525874  0.63507766  1
  Ce  Ce14  1  0.25000000  0.13474126  0.13507766  1
  Ce  Ce15  1  0.75000000  0.86525874  0.86492234  1
