# generated using pymatgen
data_Yb(FeGe)2
_symmetry_space_group_name_H-M   'P 1'
_cell_length_a   3.89130736
_cell_length_b   3.89130737
_cell_length_c   6.01910688
_cell_angle_alpha   108.85935798
_cell_angle_beta   108.85935795
_cell_angle_gamma   90.00000006
_symmetry_Int_Tables_number   1
_chemical_formula_structural   Yb(FeGe)2
_chemical_formula_sum   'Yb1 Fe2 Ge2'
_cell_volume   81.06210628
_cell_formula_units_Z   1
loop_
 _symmetry_equiv_pos_site_id
 _symmetry_equiv_pos_as_xyz
  1  'x, y, z'
loop_
 _atom_site_type_symbol
 _atom_site_label
 _atom_site_symmetry_multiplicity
 _atom_site_fract_x
 _atom_site_fract_y
 _atom_site_fract_z
 _atom_site_occupancy
  Fe  Fe0  1  0.25000000  0.75000000  0.50000000  1
  Fe  Fe1  1  0.75000000  0.25000000  0.50000000  1
  Ge  Ge2  1  0.62198104  0.62198104  0.24396208  1
  Ge  Ge3  1  0.37801896  0.37801896  0.75603792  1
  Yb  Yb4  1  0.00000000  0.00000000  0.00000000  1
