# generated using pymatgen
data_EuNi2B2C
_symmetry_space_group_name_H-M   'P 1'
_cell_length_a   3.66471834
_cell_length_b   3.66471833
_cell_length_c   5.65721971
_cell_angle_alpha   108.89879207
_cell_angle_beta   108.89879207
_cell_angle_gamma   90.00000004
_symmetry_Int_Tables_number   1
_chemical_formula_structural   EuNi2B2C
_chemical_formula_sum   'Eu1 Ni2 B2 C1'
_cell_volume   67.53789165
_cell_formula_units_Z   1
loop_
 _symmetry_equiv_pos_site_id
 _symmetry_equiv_pos_as_xyz
  1  'x, y, z'
loop_
 _atom_site_type_symbol
 _atom_site_label
 _atom_site_symmetry_multiplicity
 _atom_site_fract_x
 _atom_site_fract_y
 _atom_site_fract_z
 _atom_site_occupancy
  B  B0  1  0.35246287  0.35246287  0.70492574  1
  B  B1  1  0.64753713  0.64753713  0.29507426  1
  C  C2  1  0.50000000  0.50000000  0.00000000  1
  Ni  Ni3  1  0.25000000  0.75000000  0.50000000  1
  Ni  Ni4  1  0.75000000  0.25000000  0.50000000  1
  Eu  Eu5  1  0.00000000  0.00000000  0.00000000  1
