# generated using pymatgen
data_V8Ga41
_symmetry_space_group_name_H-M   'P 1'
_cell_length_a   9.49190369
_cell_length_b   9.49190359
_cell_length_c   9.49190436
_cell_angle_alpha   94.98275377
_cell_angle_beta   94.98275377
_cell_angle_gamma   94.98274950
_symmetry_Int_Tables_number   1
_chemical_formula_structural   V8Ga41
_chemical_formula_sum   'V8 Ga41'
_cell_volume   844.88527944
_cell_formula_units_Z   1
loop_
 _symmetry_equiv_pos_site_id
 _symmetry_equiv_pos_as_xyz
  1  'x, y, z'
loop_
 _atom_site_type_symbol
 _atom_site_label
 _atom_site_symmetry_multiplicity
 _atom_site_fract_x
 _atom_site_fract_y
 _atom_site_fract_z
 _atom_site_occupancy
  V  V0  1  0.71103083  0.10549329  0.38688155  1
  V  V1  1  0.38688155  0.71103083  0.10549329  1
  V  V2  1  0.10549329  0.38688155  0.71103083  1
  V  V3  1  0.28896917  0.89450671  0.61311845  1
  V  V4  1  0.61311845  0.28896917  0.89450671  1
  V  V5  1  0.89450671  0.61311845  0.28896917  1
  V  V6  1  0.18580548  0.18580548  0.18580548  1
  V  V7  1  0.81419452  0.81419452  0.81419452  1
  Ga  Ga8  1  0.82325616  0.86983947  0.32507402  1
  Ga  Ga9  1  0.32507402  0.82325616  0.86983947  1
  Ga  Ga10  1  0.86983947  0.32507402  0.82325616  1
  Ga  Ga11  1  0.17674384  0.13016053  0.67492598  1
  Ga  Ga12  1  0.67492598  0.17674384  0.13016053  1
  Ga  Ga13  1  0.13016053  0.67492598  0.17674384  1
  Ga  Ga14  1  0.55238094  0.92203655  0.22380810  1
  Ga  Ga15  1  0.22380810  0.55238094  0.92203655  1
  Ga  Ga16  1  0.92203655  0.22380810  0.55238094  1
  Ga  Ga17  1  0.44761906  0.07796345  0.77619190  1
  Ga  Ga18  1  0.77619190  0.44761906  0.07796345  1
  Ga  Ga19  1  0.07796345  0.77619190  0.44761906  1
  Ga  Ga20  1  0.78497553  0.96675469  0.60162123  1
  Ga  Ga21  1  0.60162123  0.78497553  0.96675469  1
  Ga  Ga22  1  0.96675469  0.60162123  0.78497553  1
  Ga  Ga23  1  0.21502447  0.03324531  0.39837877  1
  Ga  Ga24  1  0.39837877  0.21502447  0.03324531  1
  Ga  Ga25  1  0.03324531  0.39837877  0.21502447  1
  Ga  Ga26  1  0.50000000  0.00000000  0.50000000  1
  Ga  Ga27  1  0.50000000  0.50000000  0.00000000  1
  Ga  Ga28  1  0.00000000  0.50000000  0.50000000  1
  Ga  Ga29  1  0.94413302  0.12691560  0.27070940  1
  Ga  Ga30  1  0.27070940  0.94413302  0.12691560  1
  Ga  Ga31  1  0.12691560  0.27070940  0.94413302  1
  Ga  Ga32  1  0.05586698  0.87308440  0.72929060  1
  Ga  Ga33  1  0.72929060  0.05586698  0.87308440  1
  Ga  Ga34  1  0.87308440  0.72929060  0.05586698  1
  Ga  Ga35  1  0.61506711  0.63490786  0.26044358  1
  Ga  Ga36  1  0.26044358  0.61506711  0.63490786  1
  Ga  Ga37  1  0.63490786  0.26044358  0.61506711  1
  Ga  Ga38  1  0.38493289  0.36509214  0.73955642  1
  Ga  Ga39  1  0.73955642  0.38493289  0.36509214  1
  Ga  Ga40  1  0.36509214  0.73955642  0.38493289  1
  Ga  Ga41  1  0.78046091  0.67277954  0.54149204  1
  Ga  Ga42  1  0.54149204  0.78046091  0.67277954  1
  Ga  Ga43  1  0.67277954  0.54149204  0.78046091  1
  Ga  Ga44  1  0.21953909  0.32722046  0.45850796  1
  Ga  Ga45  1  0.45850796  0.21953909  0.32722046  1
  Ga  Ga46  1  0.32722046  0.45850796  0.21953909  1
  Ga  Ga47  1  0.00000000  0.00000000  0.00000000  1
  Ga  Ga48  1  0.50000000  0.50000000  0.50000000  1
