# generated using pymatgen
data_ErSiRh
_symmetry_space_group_name_H-M   'P 1'
_cell_length_a   4.22441382
_cell_length_b   6.84521910
_cell_length_c   7.39847898
_cell_angle_alpha   90.00000000
_cell_angle_beta   90.00000000
_cell_angle_gamma   90.00000000
_symmetry_Int_Tables_number   1
_chemical_formula_structural   ErSiRh
_chemical_formula_sum   'Er4 Si4 Rh4'
_cell_volume   213.94209904
_cell_formula_units_Z   4
loop_
 _symmetry_equiv_pos_site_id
 _symmetry_equiv_pos_as_xyz
  1  'x, y, z'
loop_
 _atom_site_type_symbol
 _atom_site_label
 _atom_site_symmetry_multiplicity
 _atom_site_fract_x
 _atom_site_fract_y
 _atom_site_fract_z
 _atom_site_occupancy
  Si  Si0  1  0.25000000  0.29385836  0.89473226  1
  Si  Si1  1  0.75000000  0.70614164  0.10526774  1
  Si  Si2  1  0.25000000  0.79385836  0.60526774  1
  Si  Si3  1  0.75000000  0.20614164  0.39473226  1
  Rh  Rh4  1  0.75000000  0.84562976  0.43105520  1
  Rh  Rh5  1  0.25000000  0.15437024  0.56894480  1
  Rh  Rh6  1  0.75000000  0.34562976  0.06894480  1
  Rh  Rh7  1  0.25000000  0.65437024  0.93105520  1
  Er  Er8  1  0.25000000  0.50095791  0.30964814  1
  Er  Er9  1  0.75000000  0.49904209  0.69035186  1
  Er  Er10  1  0.25000000  0.00095791  0.19035186  1
  Er  Er11  1  0.75000000  0.99904209  0.80964814  1
