# generated using pymatgen
data_Gd(GePd)2
_symmetry_space_group_name_H-M   'P 1'
_cell_length_a   4.31808469
_cell_length_b   4.31799749
_cell_length_c   5.95001161
_cell_angle_alpha   111.28283335
_cell_angle_beta   111.27616112
_cell_angle_gamma   89.99999991
_symmetry_Int_Tables_number   1
_chemical_formula_structural   Gd(GePd)2
_chemical_formula_sum   'Gd1 Ge2 Pd2'
_cell_volume   95.21419612
_cell_formula_units_Z   1
loop_
 _symmetry_equiv_pos_site_id
 _symmetry_equiv_pos_as_xyz
  1  'x, y, z'
loop_
 _atom_site_type_symbol
 _atom_site_label
 _atom_site_symmetry_multiplicity
 _atom_site_fract_x
 _atom_site_fract_y
 _atom_site_fract_z
 _atom_site_occupancy
  Ge  Ge0  1  0.62109587  0.61982668  0.24219175  1
  Ge  Ge1  1  0.37890413  0.38017332  0.75780825  1
  Pd  Pd2  1  0.75001954  0.24889464  0.50003909  1
  Pd  Pd3  1  0.24998046  0.75110536  0.49996091  1
  Gd  Gd4  1  0.00000000  0.00000000  0.00000000  1
