# generated using pymatgen
data_MgMnO2
_symmetry_space_group_name_H-M   'P 1'
_cell_length_a   3.07292513
_cell_length_b   5.33273023
_cell_length_c   10.42373886
_cell_angle_alpha   89.99842724
_cell_angle_beta   90.01300190
_cell_angle_gamma   90.00070844
_symmetry_Int_Tables_number   1
_chemical_formula_structural   MgMnO2
_chemical_formula_sum   'Mg4 Mn4 O8'
_cell_volume   170.81464592
_cell_formula_units_Z   4
loop_
 _symmetry_equiv_pos_site_id
 _symmetry_equiv_pos_as_xyz
  1  'x, y, z'
loop_
 _atom_site_type_symbol
 _atom_site_label
 _atom_site_symmetry_multiplicity
 _atom_site_fract_x
 _atom_site_fract_y
 _atom_site_fract_z
 _atom_site_occupancy
  Mg  Mg0  1  0.74993454  0.92103192  0.62229938  1
  Mg  Mg1  1  0.24970197  0.07824247  0.37771116  1
  Mg  Mg2  1  0.24997774  0.42177670  0.87770899  1
  Mg  Mg3  1  0.75028153  0.57895190  0.12230286  1
  Mn  Mn4  1  0.74967013  0.58097563  0.37866596  1
  Mn  Mn5  1  0.74998134  0.91904997  0.87866594  1
  Mn  Mn6  1  0.25046060  0.08160208  0.12132439  1
  Mn  Mn7  1  0.24996979  0.41838563  0.62132590  1
  O  O8  1  0.75003309  0.91213408  0.25369873  1
  O  O9  1  0.24997586  0.08777166  0.74630087  1
  O  O10  1  0.25002320  0.41222916  0.24630253  1
  O  O11  1  0.74995896  0.58787255  0.75369347  1
  O  O12  1  0.75015554  0.26506658  0.99402080  1
  O  O13  1  0.25010937  0.73562180  0.00597496  1
  O  O14  1  0.74983630  0.23493091  0.49402233  1
  O  O15  1  0.24980502  0.76438196  0.50597773  1
