# generated using pymatgen
data_TiI3
_symmetry_space_group_name_H-M   'P 1'
_cell_length_a   13.19622071
_cell_length_b   7.63943539
_cell_length_c   6.47708981
_cell_angle_alpha   90.00000000
_cell_angle_beta   90.00000000
_cell_angle_gamma   90.00000000
_symmetry_Int_Tables_number   1
_chemical_formula_structural   TiI3
_chemical_formula_sum   'Ti4 I12'
_cell_volume   652.96627615
_cell_formula_units_Z   4
loop_
 _symmetry_equiv_pos_site_id
 _symmetry_equiv_pos_as_xyz
  1  'x, y, z'
loop_
 _atom_site_type_symbol
 _atom_site_label
 _atom_site_symmetry_multiplicity
 _atom_site_fract_x
 _atom_site_fract_y
 _atom_site_fract_z
 _atom_site_occupancy
  Ti  Ti0  1  0.50000000  0.24942839  0.72357002  1
  Ti  Ti1  1  0.50000000  0.24942839  0.27642998  1
  Ti  Ti2  1  0.00000000  0.75057161  0.22357002  1
  Ti  Ti3  1  -0.00000000  0.75057161  0.77642998  1
  I  I4  1  0.65370470  0.40237491  0.50000000  1
  I  I5  1  0.15370470  0.59762509  0.00000000  1
  I  I6  1  0.84629530  0.59762509  0.00000000  1
  I  I7  1  0.34629530  0.40237491  0.50000000  1
  I  I8  1  0.14577589  0.89649336  0.50000000  1
  I  I9  1  0.64577589  0.10350664  0.00000000  1
  I  I10  1  0.35422411  0.10350664  0.00000000  1
  I  I11  1  0.85422411  0.89649336  0.50000000  1
  I  I12  1  0.50000000  0.94337707  0.50000000  1
  I  I13  1  0.00000000  0.05662293  0.00000000  1
  I  I14  1  -0.00000000  0.45754217  0.50000000  1
  I  I15  1  0.50000000  0.54245783  0.00000000  1
