# generated using pymatgen
data_Rb(BH)6
_symmetry_space_group_name_H-M   'P 1'
_cell_length_a   7.71490267
_cell_length_b   7.71490267
_cell_length_c   7.71490267
_cell_angle_alpha   60.00000003
_cell_angle_beta   60.00000003
_cell_angle_gamma   59.99999999
_symmetry_Int_Tables_number   1
_chemical_formula_structural   Rb(BH)6
_chemical_formula_sum   'Rb2 B12 H12'
_cell_volume   324.69556476
_cell_formula_units_Z   2
loop_
 _symmetry_equiv_pos_site_id
 _symmetry_equiv_pos_as_xyz
  1  'x, y, z'
loop_
 _atom_site_type_symbol
 _atom_site_label
 _atom_site_symmetry_multiplicity
 _atom_site_fract_x
 _atom_site_fract_y
 _atom_site_fract_z
 _atom_site_occupancy
  H  H0  1  0.91180086  0.36511078  0.63488922  1
  H  H1  1  0.63488922  0.08819914  0.91180086  1
  H  H2  1  0.36511078  0.08819914  0.63488922  1
  H  H3  1  0.08819914  0.91180086  0.63488922  1
  H  H4  1  0.63488922  0.91180086  0.36511078  1
  H  H5  1  0.91180086  0.63488922  0.08819914  1
  H  H6  1  0.63488922  0.36511078  0.08819914  1
  H  H7  1  0.91180086  0.08819914  0.36511078  1
  H  H8  1  0.08819914  0.36511078  0.91180086  1
  H  H9  1  0.36511078  0.91180086  0.08819914  1
  H  H10  1  0.08819914  0.63488922  0.36511078  1
  H  H11  1  0.36511078  0.63488922  0.91180086  1
  B  B12  1  0.78646530  0.05076665  0.94923335  1
  B  B13  1  0.94923335  0.21353470  0.78646530  1
  B  B14  1  0.21353470  0.05076665  0.78646530  1
  B  B15  1  0.05076665  0.94923335  0.78646530  1
  B  B16  1  0.78646530  0.94923335  0.21353470  1
  B  B17  1  0.94923335  0.78646530  0.05076665  1
  B  B18  1  0.78646530  0.21353470  0.05076665  1
  B  B19  1  0.94923335  0.05076665  0.21353470  1
  B  B20  1  0.05076665  0.21353470  0.94923335  1
  B  B21  1  0.21353470  0.94923335  0.05076665  1
  B  B22  1  0.05076665  0.78646530  0.21353470  1
  B  B23  1  0.21353470  0.78646530  0.94923335  1
  Rb  Rb24  1  0.75000000  0.75000000  0.75000000  1
  Rb  Rb25  1  0.25000000  0.25000000  0.25000000  1
