# generated using pymatgen
data_ErHCl
_symmetry_space_group_name_H-M   'P 1'
_cell_length_a   9.54465855
_cell_length_b   9.54465854
_cell_length_c   9.54465828
_cell_angle_alpha   22.43530972
_cell_angle_beta   22.43530992
_cell_angle_gamma   22.43531104
_symmetry_Int_Tables_number   1
_chemical_formula_structural   ErHCl
_chemical_formula_sum   'Er2 H2 Cl2'
_cell_volume   111.07882789
_cell_formula_units_Z   2
loop_
 _symmetry_equiv_pos_site_id
 _symmetry_equiv_pos_as_xyz
  1  'x, y, z'
loop_
 _atom_site_type_symbol
 _atom_site_label
 _atom_site_symmetry_multiplicity
 _atom_site_fract_x
 _atom_site_fract_y
 _atom_site_fract_z
 _atom_site_occupancy
  Er  Er0  1  0.88149665  0.88149665  0.88149665  1
  Er  Er1  1  0.11850335  0.11850335  0.11850335  1
  H  H2  1  0.80332228  0.80332228  0.80332228  1
  H  H3  1  0.19667772  0.19667772  0.19667772  1
  Cl  Cl4  1  0.39115554  0.39115554  0.39115554  1
  Cl  Cl5  1  0.60884446  0.60884446  0.60884446  1
