# generated using pymatgen
data_Cd7(P2Cl3)2
_symmetry_space_group_name_H-M   'P 1'
_cell_length_a   12.13177671
_cell_length_b   12.13177671
_cell_length_c   12.13177671
_cell_angle_alpha   90.00000000
_cell_angle_beta   90.00000000
_cell_angle_gamma   90.00000000
_symmetry_Int_Tables_number   1
_chemical_formula_structural   Cd7(P2Cl3)2
_chemical_formula_sum   'Cd28 P16 Cl24'
_cell_volume   1785.55497068
_cell_formula_units_Z   4
loop_
 _symmetry_equiv_pos_site_id
 _symmetry_equiv_pos_as_xyz
  1  'x, y, z'
loop_
 _atom_site_type_symbol
 _atom_site_label
 _atom_site_symmetry_multiplicity
 _atom_site_fract_x
 _atom_site_fract_y
 _atom_site_fract_z
 _atom_site_occupancy
  P  P0  1  0.21320721  0.28679279  0.71320721  1
  P  P1  1  0.28679279  0.71320721  0.21320721  1
  P  P2  1  0.71320721  0.21320721  0.28679279  1
  P  P3  1  0.78679279  0.78679279  0.78679279  1
  P  P4  1  0.78679279  0.71320721  0.28679279  1
  P  P5  1  0.71320721  0.28679279  0.78679279  1
  P  P6  1  0.28679279  0.78679279  0.71320721  1
  P  P7  1  0.21320721  0.21320721  0.21320721  1
  P  P8  1  0.31773559  0.18226441  0.81773559  1
  P  P9  1  0.18226441  0.81773559  0.31773559  1
  P  P10  1  0.81773559  0.31773559  0.18226441  1
  P  P11  1  0.68226441  0.68226441  0.68226441  1
  P  P12  1  0.68226441  0.81773559  0.18226441  1
  P  P13  1  0.81773559  0.18226441  0.68226441  1
  P  P14  1  0.18226441  0.68226441  0.81773559  1
  P  P15  1  0.31773559  0.31773559  0.31773559  1
  Cl  Cl16  1  0.96244449  0.02122781  0.21780684  1
  Cl  Cl17  1  0.46244449  0.47877219  0.78219316  1
  Cl  Cl18  1  0.03755551  0.52122781  0.28219316  1
  Cl  Cl19  1  0.47877219  0.78219316  0.46244449  1
  Cl  Cl20  1  0.28219316  0.03755551  0.52122781  1
  Cl  Cl21  1  0.78219316  0.46244449  0.47877219  1
  Cl  Cl22  1  0.02122781  0.21780684  0.96244449  1
  Cl  Cl23  1  0.21780684  0.96244449  0.02122781  1
  Cl  Cl24  1  0.52122781  0.28219316  0.03755551  1
  Cl  Cl25  1  0.97877219  0.71780684  0.53755551  1
  Cl  Cl26  1  0.71780684  0.53755551  0.97877219  1
  Cl  Cl27  1  0.53755551  0.97877219  0.71780684  1
  Cl  Cl28  1  0.03755551  0.97877219  0.78219316  1
  Cl  Cl29  1  0.53755551  0.52122781  0.21780684  1
  Cl  Cl30  1  0.96244449  0.47877219  0.71780684  1
  Cl  Cl31  1  0.52122781  0.21780684  0.53755551  1
  Cl  Cl32  1  0.71780684  0.96244449  0.47877219  1
  Cl  Cl33  1  0.21780684  0.53755551  0.52122781  1
  Cl  Cl34  1  0.97877219  0.78219316  0.03755551  1
  Cl  Cl35  1  0.78219316  0.03755551  0.97877219  1
  Cl  Cl36  1  0.47877219  0.71780684  0.96244449  1
  Cl  Cl37  1  0.02122781  0.28219316  0.46244449  1
  Cl  Cl38  1  0.28219316  0.46244449  0.02122781  1
  Cl  Cl39  1  0.46244449  0.02122781  0.28219316  1
  Cd  Cd40  1  0.00000000  0.50000000  0.50000000  1
  Cd  Cd41  1  0.50000000  0.50000000  0.00000000  1
  Cd  Cd42  1  0.50000000  0.00000000  0.50000000  1
  Cd  Cd43  1  0.00000000  0.00000000  0.00000000  1
  Cd  Cd44  1  0.01518998  0.27469423  0.23210892  1
  Cd  Cd45  1  0.51518998  0.22530577  0.76789108  1
  Cd  Cd46  1  0.98481002  0.77469423  0.26789108  1
  Cd  Cd47  1  0.22530577  0.76789108  0.51518998  1
  Cd  Cd48  1  0.26789108  0.98481002  0.77469423  1
  Cd  Cd49  1  0.76789108  0.51518998  0.22530577  1
  Cd  Cd50  1  0.27469423  0.23210892  0.01518998  1
  Cd  Cd51  1  0.23210892  0.01518998  0.27469423  1
  Cd  Cd52  1  0.77469423  0.26789108  0.98481002  1
  Cd  Cd53  1  0.72530577  0.73210892  0.48481002  1
  Cd  Cd54  1  0.73210892  0.48481002  0.72530577  1
  Cd  Cd55  1  0.48481002  0.72530577  0.73210892  1
  Cd  Cd56  1  0.98481002  0.72530577  0.76789108  1
  Cd  Cd57  1  0.48481002  0.77469423  0.23210892  1
  Cd  Cd58  1  0.01518998  0.22530577  0.73210892  1
  Cd  Cd59  1  0.77469423  0.23210892  0.48481002  1
  Cd  Cd60  1  0.73210892  0.01518998  0.22530577  1
  Cd  Cd61  1  0.23210892  0.48481002  0.77469423  1
  Cd  Cd62  1  0.72530577  0.76789108  0.98481002  1
  Cd  Cd63  1  0.76789108  0.98481002  0.72530577  1
  Cd  Cd64  1  0.22530577  0.73210892  0.01518998  1
  Cd  Cd65  1  0.27469423  0.26789108  0.51518998  1
  Cd  Cd66  1  0.26789108  0.51518998  0.27469423  1
  Cd  Cd67  1  0.51518998  0.27469423  0.26789108  1
