# generated using pymatgen
data_SmCoO3
_symmetry_space_group_name_H-M   'P 1'
_cell_length_a   5.32150951
_cell_length_b   5.61746812
_cell_length_c   7.64670993
_cell_angle_alpha   90.00000000
_cell_angle_beta   90.00000000
_cell_angle_gamma   90.00000000
_symmetry_Int_Tables_number   1
_chemical_formula_structural   SmCoO3
_chemical_formula_sum   'Sm4 Co4 O12'
_cell_volume   228.58623526
_cell_formula_units_Z   4
loop_
 _symmetry_equiv_pos_site_id
 _symmetry_equiv_pos_as_xyz
  1  'x, y, z'
loop_
 _atom_site_type_symbol
 _atom_site_label
 _atom_site_symmetry_multiplicity
 _atom_site_fract_x
 _atom_site_fract_y
 _atom_site_fract_z
 _atom_site_occupancy
  O  O0  1  0.70467535  0.30101989  0.45330255  1
  O  O1  1  0.20467591  0.19897970  0.54669770  1
  O  O2  1  0.79532296  0.80101949  0.04669758  1
  O  O3  1  0.29532352  0.69898111  0.95330134  1
  O  O4  1  0.29532352  0.69898111  0.54669770  1
  O  O5  1  0.79532296  0.80101949  0.45330255  1
  O  O6  1  0.20467591  0.19897970  0.95330134  1
  O  O7  1  0.70467535  0.30101989  0.04669758  1
  O  O8  1  0.08866585  0.47934950  0.24999940  1
  O  O9  1  0.58866718  0.02065009  0.74999952  1
  O  O10  1  0.91133302  0.52065150  0.74999952  1
  O  O11  1  0.41133358  0.97934909  0.24999940  1
  Co  Co12  1  0.49999943  0.00000000  0.50000012  1
  Co  Co13  1  0.00000000  0.49999959  0.50000012  1
  Co  Co14  1  0.00000000  0.49999959  0.00000000  1
  Co  Co15  1  0.49999943  0.00000000  0.00000000  1
  Sm  Sm16  1  0.01728529  0.93241690  0.74999952  1
  Sm  Sm17  1  0.51728472  0.56758369  0.24999940  1
  Sm  Sm18  1  0.48271604  0.43241731  0.74999952  1
  Sm  Sm19  1  0.98271548  0.06758228  0.24999940  1
