# generated using pymatgen
data_Cr2CoO4
_symmetry_space_group_name_H-M   'P 1'
_cell_length_a   6.00514812
_cell_length_b   6.00527180
_cell_length_c   6.00547990
_cell_angle_alpha   59.99842554
_cell_angle_beta   60.00068608
_cell_angle_gamma   60.00321043
_symmetry_Int_Tables_number   1
_chemical_formula_structural   Cr2CoO4
_chemical_formula_sum   'Cr4 Co2 O8'
_cell_volume   153.14285263
_cell_formula_units_Z   2
loop_
 _symmetry_equiv_pos_site_id
 _symmetry_equiv_pos_as_xyz
  1  'x, y, z'
loop_
 _atom_site_type_symbol
 _atom_site_label
 _atom_site_symmetry_multiplicity
 _atom_site_fract_x
 _atom_site_fract_y
 _atom_site_fract_z
 _atom_site_occupancy
  Cr  Cr0  1  0.49996350  0.49997814  0.00010858  1
  Cr  Cr1  1  0.49995883  0.00010236  0.49997561  1
  Cr  Cr2  1  0.50011427  0.50013809  0.50014877  1
  Cr  Cr3  1  0.00011661  0.49995604  0.49997040  1
  Co  Co4  1  0.12481150  0.12482445  0.12476802  1
  Co  Co5  1  0.87485149  0.87483767  0.87485826  1
  O  O6  1  0.71601306  0.26144978  0.26141921  1
  O  O7  1  0.73881556  0.73883316  0.28384377  1
  O  O8  1  0.26141895  0.26139370  0.71599007  1
  O  O9  1  0.28384693  0.73879026  0.73882790  1
  O  O10  1  0.73878408  0.28383751  0.73885182  1
  O  O11  1  0.26120665  0.26121946  0.26124339  1
  O  O12  1  0.73866133  0.73862264  0.73859921  1
  O  O13  1  0.26143726  0.71601475  0.26139400  1
