# generated using pymatgen
data_BaLaMg6
_symmetry_space_group_name_H-M   'P 1'
_cell_length_a   7.05125435
_cell_length_b   7.05123165
_cell_length_c   5.35391818
_cell_angle_alpha   89.21718015
_cell_angle_beta   90.78373453
_cell_angle_gamma   116.27899847
_symmetry_Int_Tables_number   1
_chemical_formula_structural   BaLaMg6
_chemical_formula_sum   'Ba1 La1 Mg6'
_cell_volume   238.65426028
_cell_formula_units_Z   1
loop_
 _symmetry_equiv_pos_site_id
 _symmetry_equiv_pos_as_xyz
  1  'x, y, z'
loop_
 _atom_site_type_symbol
 _atom_site_label
 _atom_site_symmetry_multiplicity
 _atom_site_fract_x
 _atom_site_fract_y
 _atom_site_fract_z
 _atom_site_occupancy
  Ba  Ba0  1  0.40063117  0.09928225  0.74741726  1
  La  La1  1  0.09589199  0.40418261  0.25203006  1
  Mg  Mg2  1  0.04731827  0.87583016  0.24639834  1
  Mg  Mg3  1  0.62414868  0.45258707  0.24642130  1
  Mg  Mg4  1  0.59745581  0.90253596  0.25329972  1
  Mg  Mg5  1  0.43378096  0.61597652  0.75359983  1
  Mg  Mg6  1  0.88403798  0.06637890  0.75362713  1
  Mg  Mg7  1  0.91673515  0.58322752  0.74720636  1
