# generated using pymatgen
data_NdCoO3
_symmetry_space_group_name_H-M   'P 1'
_cell_length_a   5.57160196
_cell_length_b   5.43781585
_cell_length_c   7.66577115
_cell_angle_alpha   90.00000000
_cell_angle_beta   90.00000000
_cell_angle_gamma   90.00000000
_symmetry_Int_Tables_number   1
_chemical_formula_structural   NdCoO3
_chemical_formula_sum   'Nd4 Co4 O12'
_cell_volume   232.25251666
_cell_formula_units_Z   4
loop_
 _symmetry_equiv_pos_site_id
 _symmetry_equiv_pos_as_xyz
  1  'x, y, z'
loop_
 _atom_site_type_symbol
 _atom_site_label
 _atom_site_symmetry_multiplicity
 _atom_site_fract_x
 _atom_site_fract_y
 _atom_site_fract_z
 _atom_site_occupancy
  O  O0  1  0.71034210  0.28737715  0.54335136  1
  O  O1  1  0.21034229  0.21262212  0.95664924  1
  O  O2  1  0.78965734  0.78737642  0.45664947  1
  O  O3  1  0.28965753  0.71262324  0.04335029  1
  O  O4  1  0.28965753  0.71262324  0.45664947  1
  O  O5  1  0.78965734  0.78737642  0.04335029  1
  O  O6  1  0.21034229  0.21262212  0.54335136  1
  O  O7  1  0.71034210  0.28737715  0.95664924  1
  O  O8  1  0.51582679  0.91748989  0.74999965  1
  O  O9  1  0.01582514  0.58250977  0.74999965  1
  O  O10  1  0.48417467  0.08251050  0.24999988  1
  O  O11  1  0.98417448  0.41749062  0.24999988  1
  Co  Co12  1  0.00000000  0.49999927  0.49999976  1
  Co  Co13  1  0.49999981  0.00000000  0.00000000  1
  Co  Co14  1  0.49999981  0.00000000  0.49999976  1
  Co  Co15  1  0.00000000  0.49999927  0.00000000  1
  Nd  Nd16  1  0.05365983  0.98667708  0.24999988  1
  Nd  Nd17  1  0.55365964  0.51332444  0.24999988  1
  Nd  Nd18  1  0.44633998  0.48667596  0.74999965  1
  Nd  Nd19  1  0.94633979  0.01332331  0.74999965  1
