# generated using pymatgen
data_Co2Si(P2O7)2
_symmetry_space_group_name_H-M   'P 1'
_cell_length_a   5.02407682
_cell_length_b   8.91388430
_cell_length_c   12.42307933
_cell_angle_alpha   102.52651642
_cell_angle_beta   90.00000000
_cell_angle_gamma   106.36837262
_symmetry_Int_Tables_number   1
_chemical_formula_structural   Co2Si(P2O7)2
_chemical_formula_sum   'Co4 Si2 P8 O28'
_cell_volume   519.98877187
_cell_formula_units_Z   2
loop_
 _symmetry_equiv_pos_site_id
 _symmetry_equiv_pos_as_xyz
  1  'x, y, z'
loop_
 _atom_site_type_symbol
 _atom_site_label
 _atom_site_symmetry_multiplicity
 _atom_site_fract_x
 _atom_site_fract_y
 _atom_site_fract_z
 _atom_site_occupancy
  O  O0  1  0.02366894  0.12560691  0.83185242  1
  O  O1  1  0.89806203  0.87439309  0.66814758  1
  O  O2  1  0.97633106  0.87439309  0.16814758  1
  O  O3  1  0.10193797  0.12560691  0.33185242  1
  O  O4  1  0.23725612  0.40514361  0.95349269  1
  O  O5  1  0.83211251  0.59485639  0.54650731  1
  O  O6  1  0.76274388  0.59485639  0.04650731  1
  O  O7  1  0.16788749  0.40514361  0.45349269  1
  O  O8  1  0.27078748  0.68860389  0.13105342  1
  O  O9  1  0.58218359  0.31139611  0.36894658  1
  O  O10  1  0.72921252  0.31139611  0.86894658  1
  O  O11  1  0.41781641  0.68860389  0.63105342  1
  O  O12  1  0.87495790  0.18809531  0.01744181  1
  O  O13  1  0.68686259  0.81190469  0.48255819  1
  O  O14  1  0.38846157  0.09167011  0.67867701  1
  O  O15  1  0.29679147  0.90832989  0.82132299  1
  O  O16  1  0.61153843  0.90832989  0.32132299  1
  O  O17  1  0.70320853  0.09167011  0.17867701  1
  O  O18  1  0.79259080  0.28801138  0.62090788  1
  O  O19  1  0.50457942  0.71198862  0.87909212  1
  O  O20  1  0.20740920  0.71198862  0.37909212  1
  O  O21  1  0.49542058  0.28801138  0.12090788  1
  O  O22  1  0.99675324  0.61420815  0.79553217  1
  O  O23  1  0.38254509  0.38579185  0.70446783  1
  O  O24  1  0.00324676  0.38579185  0.20446783  1
  O  O25  1  0.61745491  0.61420815  0.29553217  1
  O  O26  1  0.31313741  0.18809531  0.51744181  1
  O  O27  1  0.12504210  0.81190469  0.98255819  1
  Si  Si28  1  0.84934219  0.00000000  0.25000000  1
  Si  Si29  1  0.15065781  0.00000000  0.75000000  1
  P  P30  1  0.03096259  0.72863482  0.08460884  1
  P  P31  1  0.30232777  0.27136518  0.41539116  1
  P  P32  1  0.76521347  0.25194804  0.13554152  1
  P  P33  1  0.51326543  0.74805196  0.36445848  1
  P  P34  1  0.23478653  0.74805196  0.86445848  1
  P  P35  1  0.48673457  0.25194804  0.63554152  1
  P  P36  1  0.96903741  0.27136518  0.91539116  1
  P  P37  1  0.69767223  0.72863482  0.58460884  1
  Co  Co38  1  0.39782972  0.49339278  0.12991270  1
  Co  Co39  1  0.90443693  0.50660722  0.37008730  1
  Co  Co40  1  0.60217028  0.50660722  0.87008730  1
  Co  Co41  1  0.09556307  0.49339278  0.62991270  1
