# generated using pymatgen
data_CoGeO3
_symmetry_space_group_name_H-M   'P 1'
_cell_length_a   5.23801420
_cell_length_b   6.69682864
_cell_length_c   6.69058717
_cell_angle_alpha   86.09043751
_cell_angle_beta   81.63508099
_cell_angle_gamma   81.35460873
_symmetry_Int_Tables_number   1
_chemical_formula_structural   CoGeO3
_chemical_formula_sum   'Co4 Ge4 O12'
_cell_volume   229.30043061
_cell_formula_units_Z   4
loop_
 _symmetry_equiv_pos_site_id
 _symmetry_equiv_pos_as_xyz
  1  'x, y, z'
loop_
 _atom_site_type_symbol
 _atom_site_label
 _atom_site_symmetry_multiplicity
 _atom_site_fract_x
 _atom_site_fract_y
 _atom_site_fract_z
 _atom_site_occupancy
  Co  Co0  1  0.24901271  0.09062886  0.90614945  1
  Co  Co1  1  0.74977621  0.26773728  0.73120150  1
  Co  Co2  1  0.75047725  0.90799424  0.09513922  1
  Co  Co3  1  0.25038767  0.73300600  0.26818484  1
  Ge  Ge4  1  0.71413147  0.79241245  0.60535348  1
  Ge  Ge5  1  0.21582369  0.60503660  0.79334917  1
  Ge  Ge6  1  0.78491926  0.39484976  0.20653540  1
  Ge  Ge7  1  0.28509366  0.20756615  0.39476444  1
  O  O8  1  0.40931733  0.70727077  0.57145487  1
  O  O9  1  0.08978536  0.42894895  0.29245630  1
  O  O10  1  0.88307516  0.86089460  0.37265459  1
  O  O11  1  0.63435296  0.97420602  0.79273712  1
  O  O12  1  0.13619532  0.79442748  0.97339154  1
  O  O13  1  0.59090520  0.29222291  0.42802972  1
  O  O14  1  0.91004705  0.57157718  0.70796943  1
  O  O15  1  0.61495462  0.62747118  0.13848454  1
  O  O16  1  0.38563755  0.37309985  0.86174349  1
  O  O17  1  0.36387374  0.02570749  0.20758355  1
  O  O18  1  0.86606198  0.20606953  0.02593608  1
  O  O19  1  0.11616982  0.13887471  0.62688226  1
