# generated using pymatgen
data_PrCoO3
_symmetry_space_group_name_H-M   'P 1'
_cell_length_a   5.53424812
_cell_length_b   5.48582722
_cell_length_c   7.71442168
_cell_angle_alpha   90.00000000
_cell_angle_beta   90.00000000
_cell_angle_gamma   90.00000000
_symmetry_Int_Tables_number   1
_chemical_formula_structural   PrCoO3
_chemical_formula_sum   'Pr4 Co4 O12'
_cell_volume   234.20929432
_cell_formula_units_Z   4
loop_
 _symmetry_equiv_pos_site_id
 _symmetry_equiv_pos_as_xyz
  1  'x, y, z'
loop_
 _atom_site_type_symbol
 _atom_site_label
 _atom_site_symmetry_multiplicity
 _atom_site_fract_x
 _atom_site_fract_y
 _atom_site_fract_z
 _atom_site_occupancy
  O  O0  1  0.71648838  0.28195628  0.54146767  1
  O  O1  1  0.21648993  0.21804444  0.95853240  1
  O  O2  1  0.78351063  0.78195517  0.45853238  1
  O  O3  1  0.28351035  0.71804332  0.04146764  1
  O  O4  1  0.28351035  0.71804332  0.45853238  1
  O  O5  1  0.78351063  0.78195517  0.04146764  1
  O  O6  1  0.21648993  0.21804444  0.54146767  1
  O  O7  1  0.71648838  0.28195628  0.95853240  1
  O  O8  1  0.51156183  0.92237147  0.75000004  1
  O  O9  1  0.01156155  0.57762885  0.75000004  1
  O  O10  1  0.48843874  0.07762813  0.25000001  1
  O  O11  1  0.98843718  0.42237259  0.25000001  1
  Co  Co12  1  0.00000000  0.50000072  0.50000002  1
  Co  Co13  1  0.50000028  0.00000000  0.00000000  1
  Co  Co14  1  0.50000028  0.00000000  0.50000002  1
  Co  Co15  1  0.00000000  0.50000072  0.00000000  1
  Pr  Pr16  1  0.04455614  0.98921826  0.25000001  1
  Pr  Pr17  1  0.54455642  0.51078207  0.25000001  1
  Pr  Pr18  1  0.45544231  0.48921754  0.75000004  1
  Pr  Pr19  1  0.95544259  0.01078135  0.75000004  1
