# generated using pymatgen
data_SrCo6O11
_symmetry_space_group_name_H-M   'P 1'
_cell_length_a   5.63919090
_cell_length_b   5.63919090
_cell_length_c   12.81793349
_cell_angle_alpha   90.00000000
_cell_angle_beta   90.00000000
_cell_angle_gamma   119.99999998
_symmetry_Int_Tables_number   1
_chemical_formula_structural   SrCo6O11
_chemical_formula_sum   'Sr2 Co12 O22'
_cell_volume   353.00612370
_cell_formula_units_Z   2
loop_
 _symmetry_equiv_pos_site_id
 _symmetry_equiv_pos_as_xyz
  1  'x, y, z'
loop_
 _atom_site_type_symbol
 _atom_site_label
 _atom_site_symmetry_multiplicity
 _atom_site_fract_x
 _atom_site_fract_y
 _atom_site_fract_z
 _atom_site_occupancy
  O  O0  1  0.66666667  0.33333333  0.07830775  1
  O  O1  1  0.33333333  0.66666667  0.57830775  1
  O  O2  1  0.33333333  0.66666667  0.92169225  1
  O  O3  1  0.66666667  0.33333333  0.42169225  1
  O  O4  1  0.85689041  0.14310959  0.25000000  1
  O  O5  1  0.71378082  0.85689041  0.75000000  1
  O  O6  1  0.14310959  0.28621918  0.75000000  1
  O  O7  1  0.85689041  0.71378082  0.25000000  1
  O  O8  1  0.28621918  0.14310959  0.25000000  1
  O  O9  1  0.14310959  0.85689041  0.75000000  1
  O  O10  1  0.17558901  0.35117801  0.42104172  1
  O  O11  1  0.64882199  0.82441099  0.42104172  1
  O  O12  1  0.17558901  0.82441099  0.42104172  1
  O  O13  1  0.82441099  0.17558901  0.92104172  1
  O  O14  1  0.17558901  0.82441099  0.07895828  1
  O  O15  1  0.35117801  0.17558901  0.57895828  1
  O  O16  1  0.82441099  0.64882199  0.57895828  1
  O  O17  1  0.17558901  0.35117801  0.07895828  1
  O  O18  1  0.64882199  0.82441099  0.07895828  1
  O  O19  1  0.35117801  0.17558901  0.92104172  1
  O  O20  1  0.82441099  0.64882199  0.92104172  1
  O  O21  1  0.82441099  0.17558901  0.57895828  1
  Co  Co22  1  0.33333333  0.66666667  0.75000000  1
  Co  Co23  1  0.66666667  0.33333333  0.25000000  1
  Co  Co24  1  0.00000000  0.00000000  0.35091626  1
  Co  Co25  1  0.00000000  0.00000000  0.85091626  1
  Co  Co26  1  0.00000000  0.00000000  0.64908374  1
  Co  Co27  1  0.00000000  0.00000000  0.14908374  1
  Co  Co28  1  0.50000000  0.50000000  0.50000000  1
  Co  Co29  1  0.00000000  0.50000000  0.00000000  1
  Co  Co30  1  0.50000000  0.00000000  0.00000000  1
  Co  Co31  1  0.50000000  0.00000000  0.50000000  1
  Co  Co32  1  0.00000000  0.50000000  0.50000000  1
  Co  Co33  1  0.50000000  0.50000000  0.00000000  1
  Sr  Sr34  1  0.66666667  0.33333333  0.75000000  1
  Sr  Sr35  1  0.33333333  0.66666667  0.25000000  1
