# generated using pymatgen
data_TmCrO4
_symmetry_space_group_name_H-M   'P 1'
_cell_length_a   5.92039335
_cell_length_b   5.92039336
_cell_length_c   5.92039336
_cell_angle_alpha   106.08826603
_cell_angle_beta   106.08826607
_cell_angle_gamma   116.47224455
_symmetry_Int_Tables_number   1
_chemical_formula_structural   TmCrO4
_chemical_formula_sum   'Tm2 Cr2 O8'
_cell_volume   157.93611133
_cell_formula_units_Z   2
loop_
 _symmetry_equiv_pos_site_id
 _symmetry_equiv_pos_as_xyz
  1  'x, y, z'
loop_
 _atom_site_type_symbol
 _atom_site_label
 _atom_site_symmetry_multiplicity
 _atom_site_fract_x
 _atom_site_fract_y
 _atom_site_fract_z
 _atom_site_occupancy
  O  O0  1  0.80210138  0.73787575  0.43577438  1
  O  O1  1  0.36632700  0.80210138  0.56422562  1
  O  O2  1  0.73787575  0.80210138  0.93577438  1
  O  O3  1  0.80210138  0.36632700  0.06422562  1
  O  O4  1  0.63367300  0.19789862  0.43577438  1
  O  O5  1  0.19789862  0.26212425  0.56422562  1
  O  O6  1  0.19789862  0.63367300  0.93577438  1
  O  O7  1  0.26212425  0.19789862  0.06422562  1
  Cr  Cr8  1  0.37500000  0.62500000  0.75000000  1
  Cr  Cr9  1  0.62500000  0.37500000  0.25000000  1
  Tm  Tm10  1  0.12500000  0.87500000  0.25000000  1
  Tm  Tm11  1  0.87500000  0.12500000  0.75000000  1
