# generated using pymatgen
data_GdCrO4
_symmetry_space_group_name_H-M   'P 1'
_cell_length_a   6.05906889
_cell_length_b   6.05906889
_cell_length_c   6.05906889
_cell_angle_alpha   105.98228437
_cell_angle_beta   105.98228440
_cell_angle_gamma   116.70004832
_symmetry_Int_Tables_number   1
_chemical_formula_structural   GdCrO4
_chemical_formula_sum   'Gd2 Cr2 O8'
_cell_volume   169.16738394
_cell_formula_units_Z   2
loop_
 _symmetry_equiv_pos_site_id
 _symmetry_equiv_pos_as_xyz
  1  'x, y, z'
loop_
 _atom_site_type_symbol
 _atom_site_label
 _atom_site_symmetry_multiplicity
 _atom_site_fract_x
 _atom_site_fract_y
 _atom_site_fract_z
 _atom_site_occupancy
  O  O0  1  0.79735398  0.73018218  0.43283000  1
  O  O1  1  0.36452485  0.79735268  0.56717166  1
  O  O2  1  0.73018230  0.79735268  0.93282926  1
  O  O3  1  0.79735351  0.36452521  0.06717240  1
  O  O4  1  0.63547598  0.20264708  0.43282891  1
  O  O5  1  0.20264685  0.26981758  0.56717057  1
  O  O6  1  0.26981852  0.20264708  0.06717131  1
  O  O7  1  0.20264678  0.63547664  0.93282860  1
  Cr  Cr8  1  0.37500092  0.62500041  0.75000120  1
  Cr  Cr9  1  0.62499991  0.37499934  0.24999938  1
  Gd  Gd10  1  0.12499952  0.87499998  0.24999945  1
  Gd  Gd11  1  0.87499958  0.12499978  0.75000065  1
