# generated using pymatgen
data_LiMg6Bi
_symmetry_space_group_name_H-M   'P 1'
_cell_length_a   6.46171618
_cell_length_b   6.46171564
_cell_length_c   5.11758282
_cell_angle_alpha   90.00000000
_cell_angle_beta   90.00000000
_cell_angle_gamma   119.71349575
_symmetry_Int_Tables_number   1
_chemical_formula_structural   LiMg6Bi
_chemical_formula_sum   'Li1 Mg6 Bi1'
_cell_volume   185.58284040
_cell_formula_units_Z   1
loop_
 _symmetry_equiv_pos_site_id
 _symmetry_equiv_pos_as_xyz
  1  'x, y, z'
loop_
 _atom_site_type_symbol
 _atom_site_label
 _atom_site_symmetry_multiplicity
 _atom_site_fract_x
 _atom_site_fract_y
 _atom_site_fract_z
 _atom_site_occupancy
  Li  Li0  1  0.16371538  0.33628462  0.25000000  1
  Mg  Mg1  1  0.16214573  0.81968939  0.25000000  1
  Mg  Mg2  1  0.68031061  0.33785427  0.25000000  1
  Mg  Mg3  1  0.66509880  0.83490120  0.25000000  1
  Mg  Mg4  1  0.33324381  0.66556842  0.75000000  1
  Mg  Mg5  1  0.83443158  0.16675619  0.75000000  1
  Mg  Mg6  1  0.83261959  0.66738041  0.75000000  1
  Bi  Bi7  1  0.32843449  0.17156551  0.75000000  1
