# generated using pymatgen
data_Li2CrO4
_symmetry_space_group_name_H-M   'P 1'
_cell_length_a   8.80846016
_cell_length_b   8.80846016
_cell_length_c   8.80846016
_cell_angle_alpha   107.82964686
_cell_angle_beta   107.82964678
_cell_angle_gamma   107.82964683
_symmetry_Int_Tables_number   1
_chemical_formula_structural   Li2CrO4
_chemical_formula_sum   'Li12 Cr6 O24'
_cell_volume   555.79042165
_cell_formula_units_Z   6
loop_
 _symmetry_equiv_pos_site_id
 _symmetry_equiv_pos_as_xyz
  1  'x, y, z'
loop_
 _atom_site_type_symbol
 _atom_site_label
 _atom_site_symmetry_multiplicity
 _atom_site_fract_x
 _atom_site_fract_y
 _atom_site_fract_z
 _atom_site_occupancy
  Li  Li0  1  0.88796932  0.06407014  0.29454234  1
  Li  Li1  1  0.06407014  0.29454234  0.88796932  1
  Li  Li2  1  0.29454234  0.88796932  0.06407014  1
  Li  Li3  1  0.11203068  0.93592986  0.70545766  1
  Li  Li4  1  0.93592986  0.70545766  0.11203068  1
  Li  Li5  1  0.70545766  0.11203068  0.93592986  1
  Li  Li6  1  0.62327111  0.22136576  0.40035475  1
  Li  Li7  1  0.77863424  0.59964525  0.37672889  1
  Li  Li8  1  0.59964525  0.37672889  0.77863424  1
  Li  Li9  1  0.37672889  0.77863424  0.59964525  1
  Li  Li10  1  0.22136576  0.40035475  0.62327111  1
  Li  Li11  1  0.40035475  0.62327111  0.22136576  1
  O  O12  1  0.53549416  0.86388095  0.85334146  1
  O  O13  1  0.25428994  0.92937973  0.56844705  1
  O  O14  1  0.56844705  0.25428994  0.92937973  1
  O  O15  1  0.07062027  0.43155295  0.74571006  1
  O  O16  1  0.74571006  0.07062027  0.43155295  1
  O  O17  1  0.92937973  0.56844705  0.25428994  1
  O  O18  1  0.19182052  0.52562997  0.47139919  1
  O  O19  1  0.47139919  0.19182052  0.52562997  1
  O  O20  1  0.52562997  0.47139919  0.19182052  1
  O  O21  1  0.80817948  0.47437003  0.52860081  1
  O  O22  1  0.52860081  0.80817948  0.47437003  1
  O  O23  1  0.47437003  0.52860081  0.80817948  1
  O  O24  1  0.90024904  0.23492805  0.18621390  1
  O  O25  1  0.18621390  0.90024904  0.23492805  1
  O  O26  1  0.23492805  0.18621390  0.90024904  1
  O  O27  1  0.09975096  0.76507195  0.81378610  1
  O  O28  1  0.81378610  0.09975096  0.76507195  1
  O  O29  1  0.76507195  0.81378610  0.09975096  1
  O  O30  1  0.85334146  0.53549416  0.86388095  1
  O  O31  1  0.46450584  0.13611905  0.14665854  1
  O  O32  1  0.13611905  0.14665854  0.46450584  1
  O  O33  1  0.14665854  0.46450584  0.13611905  1
  O  O34  1  0.43155295  0.74571006  0.07062027  1
  O  O35  1  0.86388095  0.85334146  0.53549416  1
  Cr  Cr36  1  0.55292985  0.73701980  0.95830556  1
  Cr  Cr37  1  0.73701980  0.95830556  0.55292985  1
  Cr  Cr38  1  0.95830556  0.55292985  0.73701980  1
  Cr  Cr39  1  0.44707015  0.26298020  0.04169444  1
  Cr  Cr40  1  0.26298020  0.04169444  0.44707015  1
  Cr  Cr41  1  0.04169444  0.44707015  0.26298020  1
