# generated using pymatgen
data_KCrP2O7
_symmetry_space_group_name_H-M   'P 1'
_cell_length_a   7.47541092
_cell_length_b   8.31650673
_cell_length_c   10.08805386
_cell_angle_alpha   90.00000000
_cell_angle_beta   90.00000000
_cell_angle_gamma   106.99123990
_symmetry_Int_Tables_number   1
_chemical_formula_structural   KCrP2O7
_chemical_formula_sum   'K4 Cr4 P8 O28'
_cell_volume   599.79110012
_cell_formula_units_Z   4
loop_
 _symmetry_equiv_pos_site_id
 _symmetry_equiv_pos_as_xyz
  1  'x, y, z'
loop_
 _atom_site_type_symbol
 _atom_site_label
 _atom_site_symmetry_multiplicity
 _atom_site_fract_x
 _atom_site_fract_y
 _atom_site_fract_z
 _atom_site_occupancy
  O  O0  1  0.35893550  0.98648196  0.59321877  1
  O  O1  1  0.64106450  0.51351804  0.09321877  1
  O  O2  1  0.64106450  0.01351804  0.40678123  1
  O  O3  1  0.35893550  0.48648196  0.90678123  1
  O  O4  1  0.41985730  0.74852403  0.76393258  1
  O  O5  1  0.58014270  0.75147597  0.26393258  1
  O  O6  1  0.58014270  0.25147597  0.23606742  1
  O  O7  1  0.41985730  0.24852403  0.73606742  1
  O  O8  1  0.49405867  0.72107917  0.50298039  1
  O  O9  1  0.50594133  0.77892083  0.00298039  1
  O  O10  1  0.50594133  0.27892083  0.49701961  1
  O  O11  1  0.49405867  0.22107917  0.99701961  1
  O  O12  1  0.16517412  0.18656822  0.55780113  1
  O  O13  1  0.83482588  0.31343178  0.05780113  1
  O  O14  1  0.83482588  0.81343178  0.44219887  1
  O  O15  1  0.16517412  0.68656822  0.94219887  1
  O  O16  1  0.04849230  0.75546130  0.71766069  1
  O  O17  1  0.95150770  0.74453870  0.21766069  1
  O  O18  1  0.95150770  0.24453870  0.28233931  1
  O  O19  1  0.04849230  0.25546130  0.78233931  1
  O  O20  1  0.86365854  0.76250763  0.92214006  1
  O  O21  1  0.13634146  0.73749237  0.42214006  1
  O  O22  1  0.13634146  0.23749237  0.07785994  1
  O  O23  1  0.86365854  0.26250763  0.57785994  1
  O  O24  1  0.18103417  0.98602560  0.89493686  1
  O  O25  1  0.81896583  0.51397440  0.39493686  1
  O  O26  1  0.81896583  0.01397440  0.10506314  1
  O  O27  1  0.18103417  0.48602560  0.60506314  1
  P  P28  1  0.06144938  0.30777888  0.63510948  1
  P  P29  1  0.93855062  0.19222112  0.13510948  1
  P  P30  1  0.93855062  0.69222112  0.36489052  1
  P  P31  1  0.06144938  0.80777888  0.86489052  1
  P  P32  1  0.36963378  0.16958403  0.59765370  1
  P  P33  1  0.63036622  0.33041597  0.09765370  1
  P  P34  1  0.63036622  0.83041597  0.40234630  1
  P  P35  1  0.36963378  0.66958403  0.90234630  1
  K  K36  1  0.67734162  0.55720046  0.67775379  1
  K  K37  1  0.32265838  0.94279954  0.17775379  1
  K  K38  1  0.32265838  0.44279954  0.32224621  1
  K  K39  1  0.67734162  0.05720046  0.82224621  1
  Cr  Cr40  1  0.26329402  0.23925039  0.89890593  1
  Cr  Cr41  1  0.73670598  0.26074961  0.39890593  1
  Cr  Cr42  1  0.73670598  0.76074961  0.10109407  1
  Cr  Cr43  1  0.26329402  0.73925039  0.60109407  1
