# generated using pymatgen
data_TlCrP2O7
_symmetry_space_group_name_H-M   'P 1'
_cell_length_a   7.61079318
_cell_length_b   8.36103926
_cell_length_c   10.09663418
_cell_angle_alpha   90.00000000
_cell_angle_beta   90.00000000
_cell_angle_gamma   106.19700892
_symmetry_Int_Tables_number   1
_chemical_formula_structural   TlCrP2O7
_chemical_formula_sum   'Tl4 Cr4 P8 O28'
_cell_volume   616.98906009
_cell_formula_units_Z   4
loop_
 _symmetry_equiv_pos_site_id
 _symmetry_equiv_pos_as_xyz
  1  'x, y, z'
loop_
 _atom_site_type_symbol
 _atom_site_label
 _atom_site_symmetry_multiplicity
 _atom_site_fract_x
 _atom_site_fract_y
 _atom_site_fract_z
 _atom_site_occupancy
  O  O0  1  0.35461140  0.98529771  0.59011609  1
  O  O1  1  0.64538860  0.51470229  0.09011609  1
  O  O2  1  0.64538860  0.01470229  0.40988391  1
  O  O3  1  0.35461140  0.48529771  0.90988391  1
  O  O4  1  0.41485955  0.74306945  0.76282146  1
  O  O5  1  0.58514045  0.75693055  0.26282146  1
  O  O6  1  0.58514045  0.25693055  0.23717854  1
  O  O7  1  0.41485955  0.24306945  0.73717854  1
  O  O8  1  0.48860872  0.72452371  0.49950262  1
  O  O9  1  0.51139128  0.77547629  0.99950262  1
  O  O10  1  0.51139128  0.27547629  0.50049738  1
  O  O11  1  0.48860872  0.22452371  0.00049738  1
  O  O12  1  0.17420811  0.19301679  0.55408229  1
  O  O13  1  0.82579189  0.30698321  0.05408229  1
  O  O14  1  0.82579189  0.80698321  0.44591771  1
  O  O15  1  0.17420811  0.69301679  0.94591771  1
  O  O16  1  0.05623923  0.75979972  0.72148902  1
  O  O17  1  0.94376077  0.74020028  0.22148902  1
  O  O18  1  0.94376077  0.24020028  0.27851098  1
  O  O19  1  0.05623923  0.25979972  0.77851098  1
  O  O20  1  0.87551243  0.76413830  0.92747579  1
  O  O21  1  0.12448757  0.73586170  0.42747579  1
  O  O22  1  0.12448757  0.23586170  0.07252421  1
  O  O23  1  0.87551243  0.26413830  0.57252421  1
  O  O24  1  0.18149538  0.98899081  0.89658549  1
  O  O25  1  0.81850462  0.51100919  0.39658549  1
  O  O26  1  0.81850462  0.01100919  0.10341451  1
  O  O27  1  0.18149538  0.48899081  0.60341451  1
  P  P28  1  0.06807851  0.31136080  0.63132738  1
  P  P29  1  0.93192149  0.18863920  0.13132738  1
  P  P30  1  0.93192149  0.68863920  0.36867262  1
  P  P31  1  0.06807851  0.81136080  0.86867262  1
  P  P32  1  0.37072808  0.16845421  0.59698676  1
  P  P33  1  0.62927192  0.33154579  0.09698676  1
  P  P34  1  0.62927192  0.83154579  0.40301324  1
  P  P35  1  0.37072808  0.66845421  0.90301324  1
  Cr  Cr36  1  0.26087837  0.73988997  0.60118135  1
  Cr  Cr37  1  0.73912163  0.76011003  0.10118135  1
  Cr  Cr38  1  0.73912163  0.26011003  0.39881865  1
  Cr  Cr39  1  0.26087837  0.23988997  0.89881865  1
  Tl  Tl40  1  0.68300674  0.05218979  0.81402926  1
  Tl  Tl41  1  0.31699326  0.44781021  0.31402926  1
  Tl  Tl42  1  0.31699326  0.94781021  0.18597074  1
  Tl  Tl43  1  0.68300674  0.55218979  0.68597074  1
