# generated using pymatgen
data_Cr2HgO4
_symmetry_space_group_name_H-M   'P 1'
_cell_length_a   6.25875481
_cell_length_b   6.25875481
_cell_length_c   6.25875481
_cell_angle_alpha   59.99999995
_cell_angle_beta   59.99999995
_cell_angle_gamma   59.99999994
_symmetry_Int_Tables_number   1
_chemical_formula_structural   Cr2HgO4
_chemical_formula_sum   'Cr4 Hg2 O8'
_cell_volume   173.35996726
_cell_formula_units_Z   2
loop_
 _symmetry_equiv_pos_site_id
 _symmetry_equiv_pos_as_xyz
  1  'x, y, z'
loop_
 _atom_site_type_symbol
 _atom_site_label
 _atom_site_symmetry_multiplicity
 _atom_site_fract_x
 _atom_site_fract_y
 _atom_site_fract_z
 _atom_site_occupancy
  O  O0  1  0.77080007  0.77080007  0.77080007  1
  O  O1  1  0.22919993  0.22919993  0.81240020  1
  O  O2  1  0.22919993  0.81240020  0.22919993  1
  O  O3  1  0.81240020  0.22919993  0.22919993  1
  O  O4  1  0.77080007  0.18759980  0.77080007  1
  O  O5  1  0.18759980  0.77080007  0.77080007  1
  O  O6  1  0.22919993  0.22919993  0.22919993  1
  O  O7  1  0.77080007  0.77080007  0.18759980  1
  Cr  Cr8  1  0.00000000  0.50000000  0.00000000  1
  Cr  Cr9  1  0.50000000  0.00000000  0.00000000  1
  Cr  Cr10  1  0.00000000  0.00000000  0.50000000  1
  Cr  Cr11  1  0.00000000  0.00000000  0.00000000  1
  Hg  Hg12  1  0.62500000  0.62500000  0.62500000  1
  Hg  Hg13  1  0.37500000  0.37500000  0.37500000  1
