# generated using pymatgen
data_Cr4AgBiO14
_symmetry_space_group_name_H-M   'P 1'
_cell_length_a   7.38139847
_cell_length_b   7.38139847
_cell_length_c   7.38139847
_cell_angle_alpha   108.40325187
_cell_angle_beta   108.40325179
_cell_angle_gamma   111.62894529
_symmetry_Int_Tables_number   1
_chemical_formula_structural   Cr4AgBiO14
_chemical_formula_sum   'Cr4 Ag1 Bi1 O14'
_cell_volume   309.26440067
_cell_formula_units_Z   1
loop_
 _symmetry_equiv_pos_site_id
 _symmetry_equiv_pos_as_xyz
  1  'x, y, z'
loop_
 _atom_site_type_symbol
 _atom_site_label
 _atom_site_symmetry_multiplicity
 _atom_site_fract_x
 _atom_site_fract_y
 _atom_site_fract_z
 _atom_site_occupancy
  O  O0  1  0.23884538  0.73884538  0.50000000  1
  O  O1  1  0.73884538  0.23884538  0.50000000  1
  O  O2  1  0.96815665  0.08738332  0.32408297  1
  O  O3  1  0.08738332  0.76330035  0.11922668  1
  O  O4  1  0.64407367  0.96815665  0.88077332  1
  O  O5  1  0.76330035  0.64407367  0.67591703  1
  O  O6  1  0.47763430  0.29851202  0.68345672  1
  O  O7  1  0.29851202  0.61505530  0.82087772  1
  O  O8  1  0.79417758  0.47763430  0.17912228  1
  O  O9  1  0.61505530  0.79417758  0.31654328  1
  O  O10  1  0.39061143  0.29424310  0.30019360  1
  O  O11  1  0.29424310  0.99404950  0.90363167  1
  O  O12  1  0.09041783  0.39061143  0.09636833  1
  O  O13  1  0.99404950  0.09041783  0.69980640  1
  Cr  Cr14  1  0.82866373  0.04644257  0.45798669  1
  Cr  Cr15  1  0.04644257  0.58845588  0.21777884  1
  Cr  Cr16  1  0.37067704  0.82866373  0.78222116  1
  Cr  Cr17  1  0.58845588  0.37067704  0.54201331  1
  Ag  Ag18  1  0.42640793  0.42640793  0.00000000  1
  Bi  Bi19  1  0.00674704  0.00674704  0.00000000  1
