# generated using pymatgen
data_Na3CrP8O23
_symmetry_space_group_name_H-M   'P 1'
_cell_length_a   12.14451207
_cell_length_b   12.14451207
_cell_length_c   12.14451207
_cell_angle_alpha   90.00000000
_cell_angle_beta   90.00000000
_cell_angle_gamma   90.00000000
_symmetry_Int_Tables_number   1
_chemical_formula_structural   Na3CrP8O23
_chemical_formula_sum   'Na12 Cr4 P32 O92'
_cell_volume   1791.18404677
_cell_formula_units_Z   4
loop_
 _symmetry_equiv_pos_site_id
 _symmetry_equiv_pos_as_xyz
  1  'x, y, z'
loop_
 _atom_site_type_symbol
 _atom_site_label
 _atom_site_symmetry_multiplicity
 _atom_site_fract_x
 _atom_site_fract_y
 _atom_site_fract_z
 _atom_site_occupancy
  O  O0  1  0.66195138  0.66195138  0.66195138  1
  O  O1  1  0.91195138  0.58804862  0.41195138  1
  O  O2  1  0.58804862  0.41195138  0.91195138  1
  O  O3  1  0.41195138  0.91195138  0.58804862  1
  O  O4  1  0.16195138  0.83804862  0.33804862  1
  O  O5  1  0.83804862  0.33804862  0.16195138  1
  O  O6  1  0.33804862  0.16195138  0.83804862  1
  O  O7  1  0.08804862  0.08804862  0.08804862  1
  O  O8  1  0.43700411  0.51132903  0.68046682  1
  O  O9  1  0.93700411  0.98867097  0.31953318  1
  O  O10  1  0.51132903  0.68046682  0.43700411  1
  O  O11  1  0.48867097  0.18046682  0.06299589  1
  O  O12  1  0.68046682  0.43700411  0.51132903  1
  O  O13  1  0.81953318  0.56299589  0.01132903  1
  O  O14  1  0.18700411  0.93046682  0.73867097  1
  O  O15  1  0.68700411  0.56953318  0.26132903  1
  O  O16  1  0.81299589  0.43046682  0.76132903  1
  O  O17  1  0.56953318  0.26132903  0.68700411  1
  O  O18  1  0.76132903  0.81299589  0.43046682  1
  O  O19  1  0.26132903  0.68700411  0.56953318  1
  O  O20  1  0.93046682  0.73867097  0.18700411  1
  O  O21  1  0.73867097  0.18700411  0.93046682  1
  O  O22  1  0.43046682  0.76132903  0.81299589  1
  O  O23  1  0.06953318  0.23867097  0.31299589  1
  O  O24  1  0.23867097  0.31299589  0.06953318  1
  O  O25  1  0.31953318  0.93700411  0.98867097  1
  O  O26  1  0.18046682  0.06299589  0.48867097  1
  O  O27  1  0.01132903  0.81953318  0.56299589  1
  O  O28  1  0.98867097  0.31953318  0.93700411  1
  O  O29  1  0.06299589  0.48867097  0.18046682  1
  O  O30  1  0.56299589  0.01132903  0.81953318  1
  O  O31  1  0.31299589  0.06953318  0.23867097  1
  O  O32  1  0.62500000  0.23348936  0.48348936  1
  O  O33  1  0.76651064  0.98348936  0.87500000  1
  O  O34  1  0.73909082  0.32669742  0.34461088  1
  O  O35  1  0.48348936  0.62500000  0.23348936  1
  O  O36  1  0.23348936  0.48348936  0.62500000  1
  O  O37  1  0.51651064  0.12500000  0.26651064  1
  O  O38  1  0.98348936  0.87500000  0.76651064  1
  O  O39  1  0.73348936  0.01651064  0.37500000  1
  O  O40  1  0.26651064  0.51651064  0.12500000  1
  O  O41  1  0.87500000  0.76651064  0.98348936  1
  O  O42  1  0.37500000  0.73348936  0.01651064  1
  O  O43  1  0.12500000  0.26651064  0.51651064  1
  O  O44  1  0.32669742  0.34461088  0.73909082  1
  O  O45  1  0.82669742  0.15538912  0.26090918  1
  O  O46  1  0.34461088  0.73909082  0.32669742  1
  O  O47  1  0.65538912  0.23909082  0.17330258  1
  O  O48  1  0.03895879  0.12124275  0.63672110  1
  O  O49  1  0.28895879  0.61327890  0.87124275  1
  O  O50  1  0.78895879  0.88672110  0.12875725  1
  O  O51  1  0.38672110  0.37124275  0.21104121  1
  O  O52  1  0.61327890  0.87124275  0.28895879  1
  O  O53  1  0.12875725  0.78895879  0.88672110  1
  O  O54  1  0.37124275  0.21104121  0.38672110  1
  O  O55  1  0.63672110  0.03895879  0.12124275  1
  O  O56  1  0.12124275  0.63672110  0.03895879  1
  O  O57  1  0.37875725  0.36327890  0.53895879  1
  O  O58  1  0.13672110  0.46104121  0.87875725  1
  O  O59  1  0.87875725  0.13672110  0.46104121  1
  O  O60  1  0.86327890  0.96104121  0.62124275  1
  O  O61  1  0.36327890  0.53895879  0.37875725  1
  O  O62  1  0.62124275  0.86327890  0.96104121  1
  O  O63  1  0.53895879  0.37875725  0.36327890  1
  O  O64  1  0.96104121  0.62124275  0.86327890  1
  O  O65  1  0.46104121  0.87875725  0.13672110  1
  O  O66  1  0.87124275  0.28895879  0.61327890  1
  O  O67  1  0.62875725  0.71104121  0.11327890  1
  O  O68  1  0.88672110  0.12875725  0.78895879  1
  O  O69  1  0.11327890  0.62875725  0.71104121  1
  O  O70  1  0.21104121  0.38672110  0.37124275  1
  O  O71  1  0.71104121  0.11327890  0.62875725  1
  O  O72  1  0.42330258  0.01090918  0.40538912  1
  O  O73  1  0.67330258  0.84461088  0.76090918  1
  O  O74  1  0.17330258  0.65538912  0.23909082  1
  O  O75  1  0.15538912  0.26090918  0.82669742  1
  O  O76  1  0.84461088  0.76090918  0.67330258  1
  O  O77  1  0.23909082  0.17330258  0.65538912  1
  O  O78  1  0.26090918  0.82669742  0.15538912  1
  O  O79  1  0.40538912  0.42330258  0.01090918  1
  O  O80  1  0.01090918  0.40538912  0.42330258  1
  O  O81  1  0.48909082  0.59461088  0.92330258  1
  O  O82  1  0.90538912  0.07669742  0.98909082  1
  O  O83  1  0.98909082  0.90538912  0.07669742  1
  O  O84  1  0.09461088  0.57669742  0.51090918  1
  O  O85  1  0.59461088  0.92330258  0.48909082  1
  O  O86  1  0.51090918  0.09461088  0.57669742  1
  O  O87  1  0.92330258  0.48909082  0.59461088  1
  O  O88  1  0.57669742  0.51090918  0.09461088  1
  O  O89  1  0.07669742  0.98909082  0.90538912  1
  O  O90  1  0.76090918  0.67330258  0.84461088  1
  O  O91  1  0.01651064  0.37500000  0.73348936  1
  Na  Na92  1  0.37500000  0.95571673  0.79428327  1
  Na  Na93  1  0.87500000  0.54428327  0.20571673  1
  Na  Na94  1  0.04428327  0.29428327  0.12500000  1
  Na  Na95  1  0.95571673  0.79428327  0.37500000  1
  Na  Na96  1  0.20571673  0.87500000  0.54428327  1
  Na  Na97  1  0.29428327  0.12500000  0.04428327  1
  Na  Na98  1  0.45571673  0.70571673  0.62500000  1
  Na  Na99  1  0.79428327  0.37500000  0.95571673  1
  Na  Na100  1  0.70571673  0.62500000  0.45571673  1
  Na  Na101  1  0.54428327  0.20571673  0.87500000  1
  Na  Na102  1  0.62500000  0.45571673  0.70571673  1
  Na  Na103  1  0.12500000  0.04428327  0.29428327  1
  P  P104  1  0.06881451  0.36055301  0.85419370  1
  P  P105  1  0.89580630  0.38944699  0.68118549  1
  P  P106  1  0.36055301  0.85419370  0.06881451  1
  P  P107  1  0.86055301  0.64580630  0.93118549  1
  P  P108  1  0.63944699  0.35419370  0.43118549  1
  P  P109  1  0.64580630  0.93118549  0.86055301  1
  P  P110  1  0.43118549  0.63944699  0.35419370  1
  P  P111  1  0.93118549  0.86055301  0.64580630  1
  P  P112  1  0.85419370  0.06881451  0.36055301  1
  P  P113  1  0.60419370  0.61055301  0.18118549  1
  P  P114  1  0.35419370  0.43118549  0.63944699  1
  P  P115  1  0.14580630  0.56881451  0.13944699  1
  P  P116  1  0.81881451  0.10419370  0.88944699  1
  P  P117  1  0.39580630  0.11055301  0.31881451  1
  P  P118  1  0.10419370  0.88944699  0.81881451  1
  P  P119  1  0.68118549  0.89580630  0.38944699  1
  P  P120  1  0.31881451  0.39580630  0.11055301  1
  P  P121  1  0.88944699  0.81881451  0.10419370  1
  P  P122  1  0.38944699  0.68118549  0.89580630  1
  P  P123  1  0.13944699  0.14580630  0.56881451  1
  P  P124  1  0.18118549  0.60419370  0.61055301  1
  P  P125  1  0.11055301  0.31881451  0.39580630  1
  P  P126  1  0.61055301  0.18118549  0.60419370  1
  P  P127  1  0.01756298  0.01756298  0.01756298  1
  P  P128  1  0.26756298  0.23243702  0.76756298  1
  P  P129  1  0.76756298  0.26756298  0.23243702  1
  P  P130  1  0.23243702  0.76756298  0.26756298  1
  P  P131  1  0.48243702  0.98243702  0.51756298  1
  P  P132  1  0.51756298  0.48243702  0.98243702  1
  P  P133  1  0.98243702  0.51756298  0.48243702  1
  P  P134  1  0.73243702  0.73243702  0.73243702  1
  P  P135  1  0.56881451  0.13944699  0.14580630  1
  Cr  Cr136  1  0.87500000  0.12500000  0.62500000  1
  Cr  Cr137  1  0.12500000  0.62500000  0.87500000  1
  Cr  Cr138  1  0.62500000  0.87500000  0.12500000  1
  Cr  Cr139  1  0.37500000  0.37500000  0.37500000  1
