# generated using pymatgen
data_SrCoP2O7
_symmetry_space_group_name_H-M   'P 1'
_cell_length_a   5.38745476
_cell_length_b   8.34136616
_cell_length_c   12.90897267
_cell_angle_alpha   90.00000000
_cell_angle_beta   90.28701562
_cell_angle_gamma   90.00000000
_symmetry_Int_Tables_number   1
_chemical_formula_structural   SrCoP2O7
_chemical_formula_sum   'Sr4 Co4 P8 O28'
_cell_volume   580.10559491
_cell_formula_units_Z   4
loop_
 _symmetry_equiv_pos_site_id
 _symmetry_equiv_pos_as_xyz
  1  'x, y, z'
loop_
 _atom_site_type_symbol
 _atom_site_label
 _atom_site_symmetry_multiplicity
 _atom_site_fract_x
 _atom_site_fract_y
 _atom_site_fract_z
 _atom_site_occupancy
  O  O0  1  0.69879197  0.31065250  0.58829331  1
  O  O1  1  0.80120803  0.81065250  0.91170669  1
  O  O2  1  0.30120803  0.68934750  0.41170669  1
  O  O3  1  0.19879197  0.18934750  0.08829331  1
  O  O4  1  0.59278808  0.16851631  0.97398215  1
  O  O5  1  0.90721192  0.66851631  0.52601785  1
  O  O6  1  0.40721192  0.83148369  0.02601785  1
  O  O7  1  0.09278808  0.33148369  0.47398215  1
  O  O8  1  0.98816385  0.44165852  0.79160895  1
  O  O9  1  0.51183615  0.94165852  0.70839105  1
  O  O10  1  0.01183615  0.55834148  0.20839105  1
  O  O11  1  0.48816385  0.05834148  0.29160895  1
  O  O12  1  0.26670793  0.38582606  0.94657245  1
  O  O13  1  0.23329207  0.88582606  0.55342755  1
  O  O14  1  0.73329207  0.61417394  0.05342755  1
  O  O15  1  0.76670793  0.11417394  0.44657245  1
  O  O16  1  0.67393343  0.35918206  0.15327286  1
  O  O17  1  0.82606657  0.85918206  0.34672714  1
  O  O18  1  0.32606657  0.64081794  0.84672714  1
  O  O19  1  0.17393343  0.14081794  0.65327286  1
  O  O20  1  0.66734826  0.40314675  0.40020831  1
  O  O21  1  0.83265174  0.90314675  0.09979169  1
  O  O22  1  0.33265174  0.59685325  0.59979169  1
  O  O23  1  0.16734826  0.09685325  0.90020831  1
  O  O24  1  0.94762526  0.11773808  0.26381433  1
  O  O25  1  0.55237474  0.61773808  0.23618567  1
  O  O26  1  0.05237474  0.88226192  0.73618567  1
  O  O27  1  0.44762526  0.38226192  0.76381433  1
  P  P28  1  0.81183874  0.29975913  0.47967412  1
  P  P29  1  0.68816126  0.79975913  0.02032588  1
  P  P30  1  0.18816126  0.70024087  0.52032588  1
  P  P31  1  0.31183874  0.20024087  0.97967412  1
  P  P32  1  0.24837636  0.96527392  0.66775128  1
  P  P33  1  0.25162364  0.46527392  0.83224872  1
  P  P34  1  0.75162364  0.03472608  0.33224872  1
  P  P35  1  0.74837636  0.53472608  0.16775128  1
  Co  Co36  1  0.31872431  0.34988179  0.60473759  1
  Co  Co37  1  0.18127569  0.84988179  0.89526241  1
  Co  Co38  1  0.68127569  0.65011821  0.39526241  1
  Co  Co39  1  0.81872431  0.15011821  0.10473759  1
  Sr  Sr40  1  0.78692463  0.16388423  0.77788248  1
  Sr  Sr41  1  0.71307537  0.66388423  0.72211752  1
  Sr  Sr42  1  0.21307537  0.83611577  0.22211752  1
  Sr  Sr43  1  0.28692463  0.33611577  0.27788248  1
