# generated using pymatgen
data_CdSnAs2
_symmetry_space_group_name_H-M   'P 1'
_cell_length_a   4.04749723
_cell_length_b   4.04749723
_cell_length_c   7.04625679
_cell_angle_alpha   73.30906139
_cell_angle_beta   90.00000000
_cell_angle_gamma   120.00000000
_symmetry_Int_Tables_number   1
_chemical_formula_structural   CdSnAs2
_chemical_formula_sum   'Cd1 Sn1 As2'
_cell_volume   94.31066145
_cell_formula_units_Z   1
loop_
 _symmetry_equiv_pos_site_id
 _symmetry_equiv_pos_as_xyz
  1  'x, y, z'
loop_
 _atom_site_type_symbol
 _atom_site_label
 _atom_site_symmetry_multiplicity
 _atom_site_fract_x
 _atom_site_fract_y
 _atom_site_fract_z
 _atom_site_occupancy
  Cd  Cd0  1  0.25000000  0.50000000  0.25000000  1
  Sn  Sn1  1  0.75000000  0.50000000  0.75000000  1
  As  As2  1  0.00054149  0.00108298  0.99837553  1
  As  As3  1  0.49945851  0.99891702  0.50162447  1
