# generated using pymatgen
data_Mg6GaCu
_symmetry_space_group_name_H-M   'P 1'
_cell_length_a   6.12796596
_cell_length_b   6.12796551
_cell_length_c   4.90404550
_cell_angle_alpha   90.00000000
_cell_angle_beta   90.00000000
_cell_angle_gamma   120.26130311
_symmetry_Int_Tables_number   1
_chemical_formula_structural   Mg6GaCu
_chemical_formula_sum   'Mg6 Ga1 Cu1'
_cell_volume   159.06265299
_cell_formula_units_Z   1
loop_
 _symmetry_equiv_pos_site_id
 _symmetry_equiv_pos_as_xyz
  1  'x, y, z'
loop_
 _atom_site_type_symbol
 _atom_site_label
 _atom_site_symmetry_multiplicity
 _atom_site_fract_x
 _atom_site_fract_y
 _atom_site_fract_z
 _atom_site_occupancy
  Mg  Mg0  1  0.16729815  0.83979599  0.25000000  1
  Mg  Mg1  1  0.66020401  0.33270185  0.25000000  1
  Mg  Mg2  1  0.66699701  0.83300299  0.25000000  1
  Mg  Mg3  1  0.32978126  0.65238242  0.75000000  1
  Mg  Mg4  1  0.84761758  0.17021874  0.75000000  1
  Mg  Mg5  1  0.83247606  0.66752394  0.75000000  1
  Ga  Ga6  1  0.33056815  0.16943185  0.75000000  1
  Cu  Cu7  1  0.16505779  0.33494221  0.25000000  1
