# generated using pymatgen
data_TbFeO3
_symmetry_space_group_name_H-M   'P 1'
_cell_length_a   5.35451045
_cell_length_b   5.66560434
_cell_length_c   7.73239610
_cell_angle_alpha   90.00000000
_cell_angle_beta   90.00000000
_cell_angle_gamma   90.00000000
_symmetry_Int_Tables_number   1
_chemical_formula_structural   TbFeO3
_chemical_formula_sum   'Tb4 Fe4 O12'
_cell_volume   234.57412537
_cell_formula_units_Z   4
loop_
 _symmetry_equiv_pos_site_id
 _symmetry_equiv_pos_as_xyz
  1  'x, y, z'
loop_
 _atom_site_type_symbol
 _atom_site_label
 _atom_site_symmetry_multiplicity
 _atom_site_fract_x
 _atom_site_fract_y
 _atom_site_fract_z
 _atom_site_occupancy
  O  O0  1  0.69244645  0.30533554  0.44163548  1
  O  O1  1  0.19244645  0.19466446  0.55836452  1
  O  O2  1  0.80755355  0.80533554  0.05836452  1
  O  O3  1  0.30755355  0.69466446  0.94163548  1
  O  O4  1  0.30755355  0.69466446  0.55836452  1
  O  O5  1  0.80755355  0.80533554  0.44163548  1
  O  O6  1  0.19244645  0.19466446  0.94163548  1
  O  O7  1  0.69244645  0.30533554  0.05836452  1
  O  O8  1  0.11365464  0.45905515  0.25000000  1
  O  O9  1  0.61365464  0.04094485  0.75000000  1
  O  O10  1  0.38634536  0.95905515  0.25000000  1
  O  O11  1  0.88634536  0.54094485  0.75000000  1
  Fe  Fe12  1  0.50000000  0.00000000  0.50000000  1
  Fe  Fe13  1  0.00000000  0.50000000  0.50000000  1
  Fe  Fe14  1  0.00000000  0.50000000  0.00000000  1
  Fe  Fe15  1  0.50000000  0.00000000  0.00000000  1
  Tb  Tb16  1  0.01857067  0.93171914  0.75000000  1
  Tb  Tb17  1  0.51857067  0.56828086  0.25000000  1
  Tb  Tb18  1  0.48142933  0.43171914  0.75000000  1
  Tb  Tb19  1  0.98142933  0.06828086  0.25000000  1
