# generated using pymatgen
data_KFe(SO4)2
_symmetry_space_group_name_H-M   'P 1'
_cell_length_a   4.90909004
_cell_length_b   4.90909004
_cell_length_c   8.02342805
_cell_angle_alpha   85.96508850
_cell_angle_beta   85.96508849
_cell_angle_gamma   64.26666838
_symmetry_Int_Tables_number   1
_chemical_formula_structural   KFe(SO4)2
_chemical_formula_sum   'K1 Fe1 S2 O8'
_cell_volume   173.57920909
_cell_formula_units_Z   1
loop_
 _symmetry_equiv_pos_site_id
 _symmetry_equiv_pos_as_xyz
  1  'x, y, z'
loop_
 _atom_site_type_symbol
 _atom_site_label
 _atom_site_symmetry_multiplicity
 _atom_site_fract_x
 _atom_site_fract_y
 _atom_site_fract_z
 _atom_site_occupancy
  O  O0  1  0.23879475  0.70383071  0.81942381  1
  O  O1  1  0.29616929  0.76120525  0.18057619  1
  O  O2  1  0.76120525  0.29616929  0.18057619  1
  O  O3  1  0.70383071  0.23879475  0.81942381  1
  O  O4  1  0.23554575  0.23554575  0.93407223  1
  O  O5  1  0.76445425  0.76445425  0.06592777  1
  O  O6  1  0.31307501  0.31307501  0.63016890  1
  O  O7  1  0.68692499  0.68692499  0.36983110  1
  S  S8  1  0.63178833  0.63178833  0.20230063  1
  S  S9  1  0.36821167  0.36821167  0.79769937  1
  K  K10  1  0.00000000  0.00000000  0.50000000  1
  Fe  Fe11  1  0.00000000  0.00000000  0.00000000  1
