# generated using pymatgen
data_Fe2GeO4
_symmetry_space_group_name_H-M   'P 1'
_cell_length_a   6.03608954
_cell_length_b   6.03608954
_cell_length_c   6.03608954
_cell_angle_alpha   59.99999999
_cell_angle_beta   59.99999999
_cell_angle_gamma   59.99999999
_symmetry_Int_Tables_number   1
_chemical_formula_structural   Fe2GeO4
_chemical_formula_sum   'Fe4 Ge2 O8'
_cell_volume   155.50774455
_cell_formula_units_Z   2
loop_
 _symmetry_equiv_pos_site_id
 _symmetry_equiv_pos_as_xyz
  1  'x, y, z'
loop_
 _atom_site_type_symbol
 _atom_site_label
 _atom_site_symmetry_multiplicity
 _atom_site_fract_x
 _atom_site_fract_y
 _atom_site_fract_z
 _atom_site_occupancy
  O  O0  1  0.75307202  0.75307202  0.75307202  1
  O  O1  1  0.24692798  0.24692798  0.75921606  1
  O  O2  1  0.24692798  0.75921606  0.24692798  1
  O  O3  1  0.75921606  0.24692798  0.24692798  1
  O  O4  1  0.75307202  0.24078394  0.75307202  1
  O  O5  1  0.24078394  0.75307202  0.75307202  1
  O  O6  1  0.24692798  0.24692798  0.24692798  1
  O  O7  1  0.75307202  0.75307202  0.24078394  1
  Fe  Fe8  1  0.50000000  0.00000000  0.50000000  1
  Fe  Fe9  1  0.00000000  0.50000000  0.50000000  1
  Fe  Fe10  1  0.50000000  0.50000000  0.00000000  1
  Fe  Fe11  1  0.50000000  0.50000000  0.50000000  1
  Ge  Ge12  1  0.87500000  0.87500000  0.87500000  1
  Ge  Ge13  1  0.12500000  0.12500000  0.12500000  1
