# generated using pymatgen
data_YbFeO3
_symmetry_space_group_name_H-M   'P 1'
_cell_length_a   5.28539825
_cell_length_b   5.41754869
_cell_length_c   7.52722351
_cell_angle_alpha   90.00000000
_cell_angle_beta   90.00000000
_cell_angle_gamma   90.00000000
_symmetry_Int_Tables_number   1
_chemical_formula_structural   YbFeO3
_chemical_formula_sum   'Yb4 Fe4 O12'
_cell_volume   215.53378307
_cell_formula_units_Z   4
loop_
 _symmetry_equiv_pos_site_id
 _symmetry_equiv_pos_as_xyz
  1  'x, y, z'
loop_
 _atom_site_type_symbol
 _atom_site_label
 _atom_site_symmetry_multiplicity
 _atom_site_fract_x
 _atom_site_fract_y
 _atom_site_fract_z
 _atom_site_occupancy
  O  O0  1  0.70641647  0.29319927  0.45817916  1
  O  O1  1  0.20641553  0.20680058  0.54182081  1
  O  O2  1  0.79358442  0.79319912  0.04182082  1
  O  O3  1  0.29358349  0.70680042  0.95817915  1
  O  O4  1  0.29358349  0.70680042  0.54182081  1
  O  O5  1  0.79358442  0.79319912  0.45817916  1
  O  O6  1  0.20641553  0.20680058  0.95817915  1
  O  O7  1  0.70641647  0.29319927  0.04182082  1
  O  O8  1  0.07998609  0.48087111  0.25000067  1
  O  O9  1  0.57998703  0.01912873  0.75000065  1
  O  O10  1  0.92001387  0.51912858  0.75000065  1
  O  O11  1  0.42001293  0.98087096  0.25000067  1
  Fe  Fe12  1  0.00000000  0.49999985  0.49999999  1
  Fe  Fe13  1  0.50000094  0.00000000  0.49999999  1
  Fe  Fe14  1  0.50000094  0.00000000  0.00000000  1
  Fe  Fe15  1  0.00000000  0.49999985  0.00000000  1
  Yb  Yb16  1  0.01200910  0.94623807  0.75000065  1
  Yb  Yb17  1  0.51201004  0.55376148  0.25000067  1
  Yb  Yb18  1  0.48798992  0.44623822  0.75000065  1
  Yb  Yb19  1  0.98799086  0.05376163  0.25000067  1
