# generated using pymatgen
data_Tl2CrO4
_symmetry_space_group_name_H-M   'P 1'
_cell_length_a   5.97377131
_cell_length_b   8.09323420
_cell_length_c   11.26436682
_cell_angle_alpha   90.00000000
_cell_angle_beta   90.00000000
_cell_angle_gamma   90.00000000
_symmetry_Int_Tables_number   1
_chemical_formula_structural   Tl2CrO4
_chemical_formula_sum   'Tl8 Cr4 O16'
_cell_volume   544.59981005
_cell_formula_units_Z   4
loop_
 _symmetry_equiv_pos_site_id
 _symmetry_equiv_pos_as_xyz
  1  'x, y, z'
loop_
 _atom_site_type_symbol
 _atom_site_label
 _atom_site_symmetry_multiplicity
 _atom_site_fract_x
 _atom_site_fract_y
 _atom_site_fract_z
 _atom_site_occupancy
  O  O0  1  0.98157699  0.78850193  0.63747668  1
  O  O1  1  0.48157699  0.21149807  0.36252332  1
  O  O2  1  0.51842301  0.28850193  0.86252332  1
  O  O3  1  0.01842301  0.71149807  0.13747668  1
  O  O4  1  0.01842301  0.21149807  0.36252332  1
  O  O5  1  0.51842301  0.78850193  0.63747668  1
  O  O6  1  0.48157699  0.71149807  0.13747668  1
  O  O7  1  0.98157699  0.28850193  0.86252332  1
  O  O8  1  0.25000000  0.73804664  0.93063010  1
  O  O9  1  0.75000000  0.26195336  0.06936990  1
  O  O10  1  0.25000000  0.23804664  0.56936990  1
  O  O11  1  0.75000000  0.76195336  0.43063010  1
  O  O12  1  0.75000000  0.00602852  0.91048652  1
  O  O13  1  0.25000000  0.99397148  0.08951348  1
  O  O14  1  0.75000000  0.50602852  0.58951348  1
  O  O15  1  0.25000000  0.49397148  0.41048652  1
  Cr  Cr16  1  0.25000000  0.28921317  0.42467653  1
  Cr  Cr17  1  0.75000000  0.71078683  0.57532347  1
  Cr  Cr18  1  0.25000000  0.78921317  0.07532347  1
  Cr  Cr19  1  0.75000000  0.21078683  0.92467653  1
  Tl  Tl20  1  0.25000000  0.00290081  0.78631149  1
  Tl  Tl21  1  0.75000000  0.99709919  0.21368851  1
  Tl  Tl22  1  0.25000000  0.50290081  0.71368851  1
  Tl  Tl23  1  0.75000000  0.49709919  0.28631149  1
  Tl  Tl24  1  0.25000000  0.81927571  0.43195353  1
  Tl  Tl25  1  0.75000000  0.18072429  0.56804647  1
  Tl  Tl26  1  0.25000000  0.31927571  0.06804647  1
  Tl  Tl27  1  0.75000000  0.68072429  0.93195353  1
