# generated using pymatgen
data_NaCrP2O7
_symmetry_space_group_name_H-M   'P 1'
_cell_length_a   7.39864529
_cell_length_b   8.00126100
_cell_length_c   9.61386211
_cell_angle_alpha   90.00000000
_cell_angle_beta   111.61032253
_cell_angle_gamma   90.00000000
_symmetry_Int_Tables_number   1
_chemical_formula_structural   NaCrP2O7
_chemical_formula_sum   'Na4 Cr4 P8 O28'
_cell_volume   529.12234745
_cell_formula_units_Z   4
loop_
 _symmetry_equiv_pos_site_id
 _symmetry_equiv_pos_as_xyz
  1  'x, y, z'
loop_
 _atom_site_type_symbol
 _atom_site_label
 _atom_site_symmetry_multiplicity
 _atom_site_fract_x
 _atom_site_fract_y
 _atom_site_fract_z
 _atom_site_occupancy
  O  O0  1  0.46705409  0.91294909  0.65402624  1
  O  O1  1  0.53294591  0.41294909  0.84597376  1
  O  O2  1  0.53294591  0.08705091  0.34597376  1
  O  O3  1  0.46705409  0.58705091  0.15402624  1
  O  O4  1  0.31070835  0.80057594  0.38366735  1
  O  O5  1  0.68929165  0.30057594  0.11633265  1
  O  O6  1  0.68929165  0.19942406  0.61633265  1
  O  O7  1  0.31070835  0.69942406  0.88366735  1
  O  O8  1  0.36155917  0.60635279  0.59969332  1
  O  O9  1  0.63844083  0.10635279  0.90030668  1
  O  O10  1  0.63844083  0.39364721  0.40030668  1
  O  O11  1  0.36155917  0.89364721  0.09969332  1
  O  O12  1  0.81396465  0.86408913  0.60545496  1
  O  O13  1  0.18603535  0.36408913  0.89454504  1
  O  O14  1  0.18603535  0.13591087  0.39454504  1
  O  O15  1  0.81396465  0.63591087  0.10545496  1
  O  O16  1  0.12328366  0.65312157  0.06121293  1
  O  O17  1  0.87671634  0.15312157  0.43878707  1
  O  O18  1  0.87671634  0.34687843  0.93878707  1
  O  O19  1  0.12328366  0.84687843  0.56121293  1
  O  O20  1  0.81322794  0.78697049  0.87978477  1
  O  O21  1  0.18677206  0.28697049  0.62021523  1
  O  O22  1  0.18677206  0.21302951  0.12021523  1
  O  O23  1  0.81322794  0.71302951  0.37978477  1
  O  O24  1  0.98841459  0.91521510  0.14041490  1
  O  O25  1  0.01158541  0.41521510  0.35958510  1
  O  O26  1  0.01158541  0.08478490  0.85958510  1
  O  O27  1  0.98841459  0.58478490  0.64041490  1
  Na  Na28  1  0.29016099  0.02502477  0.79377901  1
  Na  Na29  1  0.70983901  0.52502477  0.70622099  1
  Na  Na30  1  0.29016099  0.47497523  0.29377901  1
  Na  Na31  1  0.70983901  0.97497523  0.20622099  1
  P  P32  1  0.32767155  0.71018788  0.04678247  1
  P  P33  1  0.92687487  0.74500616  0.54608871  1
  P  P34  1  0.07312513  0.25499384  0.45391129  1
  P  P35  1  0.92687487  0.75499384  0.04608871  1
  P  P36  1  0.32767155  0.78981212  0.54678247  1
  P  P37  1  0.67232845  0.28981212  0.95321753  1
  P  P38  1  0.07312513  0.24500616  0.95391129  1
  P  P39  1  0.67232845  0.21018788  0.45321753  1
  Cr  Cr40  1  0.74170730  0.50694731  0.25211402  1
  Cr  Cr41  1  0.25829270  0.00694731  0.24788598  1
  Cr  Cr42  1  0.25829270  0.49305269  0.74788598  1
  Cr  Cr43  1  0.74170730  0.99305269  0.75211402  1
