# generated using pymatgen
data_Cd(FeO2)2
_symmetry_space_group_name_H-M   'P 1'
_cell_length_a   6.25432128
_cell_length_b   6.25432128
_cell_length_c   6.25432128
_cell_angle_alpha   60.00000000
_cell_angle_beta   59.99999999
_cell_angle_gamma   59.99999997
_symmetry_Int_Tables_number   1
_chemical_formula_structural   Cd(FeO2)2
_chemical_formula_sum   'Cd2 Fe4 O8'
_cell_volume   172.99181791
_cell_formula_units_Z   2
loop_
 _symmetry_equiv_pos_site_id
 _symmetry_equiv_pos_as_xyz
  1  'x, y, z'
loop_
 _atom_site_type_symbol
 _atom_site_label
 _atom_site_symmetry_multiplicity
 _atom_site_fract_x
 _atom_site_fract_y
 _atom_site_fract_z
 _atom_site_occupancy
  O  O0  1  0.73267659  0.73267659  0.73267659  1
  O  O1  1  0.26732341  0.26732341  0.69802976  1
  O  O2  1  0.26732341  0.69802976  0.26732341  1
  O  O3  1  0.69802976  0.26732341  0.26732341  1
  O  O4  1  0.73267659  0.30197024  0.73267659  1
  O  O5  1  0.30197024  0.73267659  0.73267659  1
  O  O6  1  0.26732341  0.26732341  0.26732341  1
  O  O7  1  0.73267659  0.73267659  0.30197024  1
  Fe  Fe8  1  0.50000000  0.00000000  0.50000000  1
  Fe  Fe9  1  0.00000000  0.50000000  0.50000000  1
  Fe  Fe10  1  0.50000000  0.50000000  0.00000000  1
  Fe  Fe11  1  0.50000000  0.50000000  0.50000000  1
  Cd  Cd12  1  0.12500000  0.12500000  0.12500000  1
  Cd  Cd13  1  0.87500000  0.87500000  0.87500000  1
