# generated using pymatgen
data_NaMn3P3(HO6)2
_symmetry_space_group_name_H-M   'P 1'
_cell_length_a   6.74816436
_cell_length_b   8.78098574
_cell_length_c   8.78098574
_cell_angle_alpha   91.12372397
_cell_angle_beta   106.95758343
_cell_angle_gamma   106.95758336
_symmetry_Int_Tables_number   1
_chemical_formula_structural   NaMn3P3(HO6)2
_chemical_formula_sum   'Na2 Mn6 P6 H4 O24'
_cell_volume   472.93332386
_cell_formula_units_Z   2
loop_
 _symmetry_equiv_pos_site_id
 _symmetry_equiv_pos_as_xyz
  1  'x, y, z'
loop_
 _atom_site_type_symbol
 _atom_site_label
 _atom_site_symmetry_multiplicity
 _atom_site_fract_x
 _atom_site_fract_y
 _atom_site_fract_z
 _atom_site_occupancy
  H  H0  1  0.18845767  0.37071166  0.38171481  1
  H  H1  1  0.31154181  0.61828424  0.62928776  1
  H  H2  1  0.81154091  0.62928794  0.61828508  1
  H  H3  1  0.68845831  0.38171535  0.37071247  1
  O  O4  1  0.34700315  0.56217920  0.73729897  1
  O  O5  1  0.40265073  0.84760771  0.85190025  1
  O  O6  1  0.90265073  0.85190083  0.84760805  1
  O  O7  1  0.59734940  0.15239188  0.14809998  1
  O  O8  1  0.19877782  0.60943224  0.96372567  1
  O  O9  1  0.30122264  0.03627447  0.39056765  1
  O  O10  1  0.80122231  0.39056735  0.03627456  1
  O  O11  1  0.69877748  0.96372512  0.60943258  1
  O  O12  1  0.15299696  0.26270125  0.43782090  1
  O  O13  1  0.09734835  0.14809996  0.15239197  1
  O  O14  1  0.45769171  0.78668655  0.28618238  1
  O  O15  1  0.04230841  0.71381786  0.21331324  1
  O  O16  1  0.54230841  0.21331304  0.71381785  1
  O  O17  1  0.95769172  0.28618173  0.78668700  1
  O  O18  1  0.73502674  0.28910299  0.49977448  1
  O  O19  1  0.76497215  0.50022591  0.71089676  1
  O  O20  1  0.26497234  0.71089780  0.50022554  1
  O  O21  1  0.84700161  0.73729834  0.56217899  1
  O  O22  1  0.89214784  0.98272063  0.32319865  1
  O  O23  1  0.60785192  0.67680227  0.01727874  1
  O  O24  1  0.10785228  0.01727896  0.67680158  1
  O  O25  1  0.39214716  0.32319853  0.98272128  1
  O  O26  1  0.65299697  0.43782039  0.26270126  1
  O  O27  1  0.23502693  0.49977489  0.28910212  1
  Na  Na28  1  0.24999999  0.97686819  0.02313187  1
  Na  Na29  1  0.75000014  0.02313140  0.97686837  1
  P  P30  1  0.61143780  0.32320193  0.10346325  1
  P  P31  1  0.11143735  0.10346345  0.32320096  1
  P  P32  1  0.25000020  0.67857500  0.32142516  1
  P  P33  1  0.74999992  0.32142459  0.67857507  1
  P  P34  1  0.88856277  0.89653614  0.67679813  1
  P  P35  1  0.38856283  0.67679886  0.89653598  1
  Mn  Mn36  1  0.87203830  0.62671143  0.94955012  1
  Mn  Mn37  1  0.62796177  0.05044975  0.37328759  1
  Mn  Mn38  1  0.25000019  0.28308294  0.71691748  1
  Mn  Mn39  1  0.75000044  0.71691785  0.28308289  1
  Mn  Mn40  1  0.12796183  0.37328816  0.05045011  1
  Mn  Mn41  1  0.37203836  0.94954984  0.62671150  1
