# generated using pymatgen
data_Ba2MnMoO6
_symmetry_space_group_name_H-M   'P 1'
_cell_length_a   5.88137119
_cell_length_b   5.88137119
_cell_length_c   5.88137119
_cell_angle_alpha   60.00000005
_cell_angle_beta   60.00000004
_cell_angle_gamma   60.00000004
_symmetry_Int_Tables_number   1
_chemical_formula_structural   Ba2MnMoO6
_chemical_formula_sum   'Ba2 Mn1 Mo1 O6'
_cell_volume   143.85361229
_cell_formula_units_Z   1
loop_
 _symmetry_equiv_pos_site_id
 _symmetry_equiv_pos_as_xyz
  1  'x, y, z'
loop_
 _atom_site_type_symbol
 _atom_site_label
 _atom_site_symmetry_multiplicity
 _atom_site_fract_x
 _atom_site_fract_y
 _atom_site_fract_z
 _atom_site_occupancy
  O  O0  1  0.26459917  0.73540083  0.73540083  1
  O  O1  1  0.26459917  0.73540083  0.26459917  1
  O  O2  1  0.73540083  0.26459917  0.73540083  1
  O  O3  1  0.26459917  0.26459917  0.73540083  1
  O  O4  1  0.73540083  0.26459917  0.26459917  1
  O  O5  1  0.73540083  0.73540083  0.26459917  1
  Mn  Mn6  1  0.00000000  0.00000000  0.00000000  1
  Mo  Mo7  1  0.50000000  0.50000000  0.50000000  1
  Ba  Ba8  1  0.75000000  0.75000000  0.75000000  1
  Ba  Ba9  1  0.25000000  0.25000000  0.25000000  1
