# generated using pymatgen
data_AlVMoO7
_symmetry_space_group_name_H-M   'P 1'
_cell_length_a   5.45149856
_cell_length_b   8.30497488
_cell_length_c   12.96197208
_cell_angle_alpha   90.00000000
_cell_angle_beta   90.00000000
_cell_angle_gamma   90.00000000
_symmetry_Int_Tables_number   1
_chemical_formula_structural   AlVMoO7
_chemical_formula_sum   'Al4 V4 Mo4 O28'
_cell_volume   586.84756450
_cell_formula_units_Z   4
loop_
 _symmetry_equiv_pos_site_id
 _symmetry_equiv_pos_as_xyz
  1  'x, y, z'
loop_
 _atom_site_type_symbol
 _atom_site_label
 _atom_site_symmetry_multiplicity
 _atom_site_fract_x
 _atom_site_fract_y
 _atom_site_fract_z
 _atom_site_occupancy
  O  O0  1  0.25000000  0.28382271  0.90523782  1
  O  O1  1  0.75000000  0.71617729  0.09476218  1
  O  O2  1  0.75000000  0.78382271  0.59476218  1
  O  O3  1  0.25000000  0.21617729  0.40523782  1
  O  O4  1  0.02224983  0.59887730  0.93056563  1
  O  O5  1  0.52224983  0.40112270  0.06943437  1
  O  O6  1  0.97775017  0.09887730  0.56943437  1
  O  O7  1  0.47775017  0.90112270  0.43056563  1
  O  O8  1  0.97775017  0.40112270  0.06943437  1
  O  O9  1  0.47775017  0.59887730  0.93056563  1
  O  O10  1  0.02224983  0.90112270  0.43056563  1
  O  O11  1  0.52224983  0.09887730  0.56943437  1
  O  O12  1  0.49111810  0.58589411  0.35132866  1
  O  O13  1  0.99111810  0.41410589  0.64867134  1
  O  O14  1  0.50888190  0.08589411  0.14867134  1
  O  O15  1  0.00888190  0.91410589  0.85132866  1
  O  O16  1  0.50888190  0.41410589  0.64867134  1
  O  O17  1  0.00888190  0.58589411  0.35132866  1
  O  O18  1  0.49111810  0.91410589  0.85132866  1
  O  O19  1  0.99111810  0.08589411  0.14867134  1
  O  O20  1  0.75000000  0.34438770  0.47350780  1
  O  O21  1  0.25000000  0.65561230  0.52649220  1
  O  O22  1  0.25000000  0.84438770  0.02649220  1
  O  O23  1  0.75000000  0.15561230  0.97350780  1
  O  O24  1  0.75000000  0.32226000  0.24611864  1
  O  O25  1  0.25000000  0.67774000  0.75388136  1
  O  O26  1  0.25000000  0.82226000  0.25388136  1
  O  O27  1  0.75000000  0.17774000  0.74611864  1
  Al  Al28  1  0.75000000  0.23400456  0.11227653  1
  Al  Al29  1  0.25000000  0.76599544  0.88772347  1
  Al  Al30  1  0.25000000  0.73400456  0.38772347  1
  Al  Al31  1  0.75000000  0.26599544  0.61227653  1
  V  V32  1  0.25000000  0.43251354  0.98544171  1
  V  V33  1  0.75000000  0.56748646  0.01455829  1
  V  V34  1  0.75000000  0.93251354  0.51455829  1
  V  V35  1  0.25000000  0.06748646  0.48544171  1
  Mo  Mo36  1  0.75000000  0.04501042  0.85509408  1
  Mo  Mo37  1  0.25000000  0.95498958  0.14490592  1
  Mo  Mo38  1  0.25000000  0.54501042  0.64490592  1
  Mo  Mo39  1  0.75000000  0.45498958  0.35509408  1
