# generated using pymatgen
data_Ni2GeO4
_symmetry_space_group_name_H-M   'P 1'
_cell_length_a   5.87826171
_cell_length_b   5.87826171
_cell_length_c   5.87826171
_cell_angle_alpha   60.00000005
_cell_angle_beta   60.00000004
_cell_angle_gamma   60.00000004
_symmetry_Int_Tables_number   1
_chemical_formula_structural   Ni2GeO4
_chemical_formula_sum   'Ni4 Ge2 O8'
_cell_volume   143.62556671
_cell_formula_units_Z   2
loop_
 _symmetry_equiv_pos_site_id
 _symmetry_equiv_pos_as_xyz
  1  'x, y, z'
loop_
 _atom_site_type_symbol
 _atom_site_label
 _atom_site_symmetry_multiplicity
 _atom_site_fract_x
 _atom_site_fract_y
 _atom_site_fract_z
 _atom_site_occupancy
  O  O0  1  0.74995472  0.74995518  0.74995399  1
  O  O1  1  0.25004496  0.25004645  0.74986286  1
  O  O2  1  0.25004631  0.74986205  0.25004554  1
  O  O3  1  0.74986265  0.25004645  0.25004516  1
  O  O4  1  0.74995406  0.25013749  0.74995432  1
  O  O5  1  0.25013702  0.74995518  0.74995399  1
  O  O6  1  0.25004496  0.25004645  0.25004517  1
  O  O7  1  0.74995472  0.74995518  0.25013630  1
  Ni  Ni8  1  0.50000033  0.00000000  0.49999955  1
  Ni  Ni9  1  0.00000084  0.49999977  0.49999941  1
  Ni  Ni10  1  0.49999920  0.49999977  0.00000089  1
  Ni  Ni11  1  0.49999920  0.49999977  0.50000127  1
  Ge  Ge12  1  0.12500044  0.12500099  0.12499863  1
  Ge  Ge13  1  0.87499924  0.87500065  0.87500053  1
