# generated using pymatgen
data_PrMn2O5
_symmetry_space_group_name_H-M   'P 1'
_cell_length_a   5.83811281
_cell_length_b   7.64750701
_cell_length_c   8.76660751
_cell_angle_alpha   90.00000000
_cell_angle_beta   90.00000000
_cell_angle_gamma   90.00000000
_symmetry_Int_Tables_number   1
_chemical_formula_structural   PrMn2O5
_chemical_formula_sum   'Pr4 Mn8 O20'
_cell_volume   391.40280124
_cell_formula_units_Z   4
loop_
 _symmetry_equiv_pos_site_id
 _symmetry_equiv_pos_as_xyz
  1  'x, y, z'
loop_
 _atom_site_type_symbol
 _atom_site_label
 _atom_site_symmetry_multiplicity
 _atom_site_fract_x
 _atom_site_fract_y
 _atom_site_fract_z
 _atom_site_occupancy
  O  O0  1  0.24831061  0.90225787  0.29313908  1
  O  O1  1  0.24831061  0.09774213  0.70686092  1
  O  O2  1  0.75168939  0.40225787  0.20686092  1
  O  O3  1  0.75168939  0.59774213  0.79313908  1
  O  O4  1  0.75168939  0.09774213  0.70686092  1
  O  O5  1  0.75168939  0.90225787  0.29313908  1
  O  O6  1  0.24831061  0.59774213  0.79313908  1
  O  O7  1  0.24831061  0.40225787  0.20686092  1
  O  O8  1  0.50000000  0.34765714  0.93684857  1
  O  O9  1  0.50000000  0.65234286  0.06315143  1
  O  O10  1  0.50000000  0.84765714  0.56315143  1
  O  O11  1  0.50000000  0.15234286  0.43684857  1
  O  O12  1  0.27747543  0.00000000  0.00000000  1
  O  O13  1  0.72252457  0.50000000  0.50000000  1
  O  O14  1  0.72252457  0.00000000  0.00000000  1
  O  O15  1  0.27747543  0.50000000  0.50000000  1
  O  O16  1  0.00000000  0.15698537  0.44821772  1
  O  O17  1  0.00000000  0.84301463  0.55178228  1
  O  O18  1  0.00000000  0.65698537  0.05178228  1
  O  O19  1  0.00000000  0.34301463  0.94821772  1
  Mn  Mn20  1  0.50000000  0.09019241  0.85087614  1
  Mn  Mn21  1  0.50000000  0.90980759  0.14912386  1
  Mn  Mn22  1  0.50000000  0.59019241  0.64912386  1
  Mn  Mn23  1  0.50000000  0.40980759  0.35087614  1
  Mn  Mn24  1  0.25729079  0.50000000  0.00000000  1
  Mn  Mn25  1  0.74270921  0.00000000  0.50000000  1
  Mn  Mn26  1  0.74270921  0.50000000  0.00000000  1
  Mn  Mn27  1  0.25729079  0.00000000  0.50000000  1
  Pr  Pr28  1  0.00000000  0.35775221  0.67228725  1
  Pr  Pr29  1  0.00000000  0.64224779  0.32771275  1
  Pr  Pr30  1  0.00000000  0.85775221  0.82771275  1
  Pr  Pr31  1  0.00000000  0.14224779  0.17228725  1
