# generated using pymatgen
data_Mn2GeO4
_symmetry_space_group_name_H-M   'P 1'
_cell_length_a   5.12216946
_cell_length_b   6.39385914
_cell_length_c   10.90177799
_cell_angle_alpha   90.00000000
_cell_angle_beta   90.00000000
_cell_angle_gamma   90.00000000
_symmetry_Int_Tables_number   1
_chemical_formula_structural   Mn2GeO4
_chemical_formula_sum   'Mn8 Ge4 O16'
_cell_volume   357.03791714
_cell_formula_units_Z   4
loop_
 _symmetry_equiv_pos_site_id
 _symmetry_equiv_pos_as_xyz
  1  'x, y, z'
loop_
 _atom_site_type_symbol
 _atom_site_label
 _atom_site_symmetry_multiplicity
 _atom_site_fract_x
 _atom_site_fract_y
 _atom_site_fract_z
 _atom_site_occupancy
  O  O0  1  0.22431332  0.47016420  0.66442737  1
  O  O1  1  0.72431332  0.52983580  0.83557263  1
  O  O2  1  0.77568668  0.97016420  0.33557263  1
  O  O3  1  0.27568668  0.02983580  0.16442737  1
  O  O4  1  0.77568668  0.52983580  0.33557263  1
  O  O5  1  0.27568668  0.47016420  0.16442737  1
  O  O6  1  0.22431332  0.02983580  0.66442737  1
  O  O7  1  0.72431332  0.97016420  0.83557263  1
  O  O8  1  0.77978371  0.75000000  0.55351631  1
  O  O9  1  0.27978371  0.25000000  0.94648369  1
  O  O10  1  0.22021629  0.25000000  0.44648369  1
  O  O11  1  0.72021629  0.75000000  0.05351631  1
  O  O12  1  0.22076051  0.75000000  0.90617754  1
  O  O13  1  0.72076051  0.25000000  0.59382246  1
  O  O14  1  0.77923949  0.25000000  0.09382246  1
  O  O15  1  0.27923949  0.75000000  0.40617754  1
  Mn  Mn16  1  0.00000000  0.00000000  0.00000000  1
  Mn  Mn17  1  0.50000000  0.00000000  0.50000000  1
  Mn  Mn18  1  0.00000000  0.50000000  0.00000000  1
  Mn  Mn19  1  0.50000000  0.50000000  0.50000000  1
  Mn  Mn20  1  0.49267466  0.75000000  0.22140228  1
  Mn  Mn21  1  0.99267466  0.25000000  0.27859772  1
  Mn  Mn22  1  0.50732534  0.25000000  0.77859772  1
  Mn  Mn23  1  0.00732534  0.75000000  0.72140228  1
  Ge  Ge24  1  0.56478406  0.75000000  0.90407862  1
  Ge  Ge25  1  0.06478406  0.25000000  0.59592138  1
  Ge  Ge26  1  0.43521594  0.25000000  0.09592138  1
  Ge  Ge27  1  0.93521594  0.75000000  0.40407862  1
