# generated using pymatgen
data_Bi2MoO6
_symmetry_space_group_name_H-M   'P 1'
_cell_length_a   5.59958039
_cell_length_b   5.62498927
_cell_length_c   16.66924696
_cell_angle_alpha   90.00000000
_cell_angle_beta   90.00000000
_cell_angle_gamma   90.00000000
_symmetry_Int_Tables_number   1
_chemical_formula_structural   Bi2MoO6
_chemical_formula_sum   'Bi8 Mo4 O24'
_cell_volume   525.04093317
_cell_formula_units_Z   4
loop_
 _symmetry_equiv_pos_site_id
 _symmetry_equiv_pos_as_xyz
  1  'x, y, z'
loop_
 _atom_site_type_symbol
 _atom_site_label
 _atom_site_symmetry_multiplicity
 _atom_site_fract_x
 _atom_site_fract_y
 _atom_site_fract_z
 _atom_site_occupancy
  O  O0  1  0.90062322  0.41363980  0.35306636  1
  O  O1  1  0.09937716  0.91364007  0.64693391  1
  O  O2  1  0.59937736  0.91364007  0.35306636  1
  O  O3  1  0.40062303  0.41363980  0.64693391  1
  O  O4  1  0.27196777  0.65396957  0.27688220  1
  O  O5  1  0.72803261  0.15396930  0.72311746  1
  O  O6  1  0.22803242  0.15396930  0.27688220  1
  O  O7  1  0.77196796  0.65396957  0.72311746  1
  O  O8  1  0.80372958  0.72367494  0.22208263  1
  O  O9  1  0.19627080  0.22367466  0.77791764  1
  O  O10  1  0.69626922  0.22367466  0.22208263  1
  O  O11  1  0.30372939  0.72367494  0.77791764  1
  O  O12  1  0.90907464  0.88978947  0.85485246  1
  O  O13  1  0.09092574  0.38978920  0.14514781  1
  O  O14  1  0.59092593  0.38978920  0.85485246  1
  O  O15  1  0.40907445  0.88978947  0.14514781  1
  O  O16  1  0.73761185  0.73036237  0.00134884  1
  O  O17  1  0.26238853  0.23036210  0.99865082  1
  O  O18  1  0.26079756  0.76012132  0.49806425  1
  O  O19  1  0.23761166  0.73036237  0.99865082  1
  O  O20  1  0.76079776  0.76012132  0.50193602  1
  O  O21  1  0.23920263  0.26012105  0.49806425  1
  O  O22  1  0.73920282  0.26012105  0.50193602  1
  O  O23  1  0.76238873  0.23036210  0.00134884  1
  Mo  Mo24  1  0.49285668  0.98984917  0.24927070  1
  Mo  Mo25  1  0.50714370  0.48985066  0.75072957  1
  Mo  Mo26  1  0.00714351  0.48985066  0.24927070  1
  Mo  Mo27  1  0.99285687  0.98984917  0.75072957  1
  Bi  Bi28  1  0.47366488  0.51036397  0.07598185  1
  Bi  Bi29  1  0.97366508  0.51036397  0.92401842  1
  Bi  Bi30  1  0.02633531  0.01036370  0.07598185  1
  Bi  Bi31  1  0.52633550  0.01036370  0.92401842  1
  Bi  Bi32  1  0.97398074  0.03983028  0.42408201  1
  Bi  Bi33  1  0.02601965  0.53983056  0.57591765  1
  Bi  Bi34  1  0.52601984  0.53983056  0.42408201  1
  Bi  Bi35  1  0.47398055  0.03983028  0.57591765  1
