# generated using pymatgen
data_Sr2MnGe2O7
_symmetry_space_group_name_H-M   'P 1'
_cell_length_a   5.39022535
_cell_length_b   8.40188559
_cell_length_c   8.40188559
_cell_angle_alpha   90.00000000
_cell_angle_beta   90.00000000
_cell_angle_gamma   90.00000000
_symmetry_Int_Tables_number   1
_chemical_formula_structural   Sr2MnGe2O7
_chemical_formula_sum   'Sr4 Mn2 Ge4 O14'
_cell_volume   380.50507094
_cell_formula_units_Z   2
loop_
 _symmetry_equiv_pos_site_id
 _symmetry_equiv_pos_as_xyz
  1  'x, y, z'
loop_
 _atom_site_type_symbol
 _atom_site_label
 _atom_site_symmetry_multiplicity
 _atom_site_fract_x
 _atom_site_fract_y
 _atom_site_fract_z
 _atom_site_occupancy
  Sr  Sr0  1  0.50636275  0.83393257  0.33393257  1
  Sr  Sr1  1  0.49363725  0.66606743  0.83393257  1
  Sr  Sr2  1  0.50636275  0.16606743  0.66606743  1
  Sr  Sr3  1  0.49363725  0.33393257  0.16606743  1
  Mn  Mn4  1  -0.00000000  0.50000000  0.50000000  1
  Mn  Mn5  1  -0.00000000  0.00000000  0.00000000  1
  Ge  Ge6  1  0.94388816  0.35908881  0.85908881  1
  Ge  Ge7  1  0.05611184  0.14091119  0.35908881  1
  Ge  Ge8  1  0.94388816  0.64091119  0.14091119  1
  Ge  Ge9  1  0.05611184  0.85908881  0.64091119  1
  O  O10  1  0.18816904  -0.00000000  0.50000000  1
  O  O11  1  0.81183096  0.50000000  -0.00000000  1
  O  O12  1  0.26669466  0.36098661  0.86098661  1
  O  O13  1  0.73330534  0.13901339  0.36098661  1
  O  O14  1  0.26669466  0.63901339  0.13901339  1
  O  O15  1  0.73330534  0.86098661  0.63901339  1
  O  O16  1  0.21660612  0.31531330  0.41946189  1
  O  O17  1  0.78339388  0.18468670  0.91946189  1
  O  O18  1  0.21660612  0.68468670  0.58053811  1
  O  O19  1  0.78339388  0.81531330  0.08053811  1
  O  O20  1  0.78339388  0.58053811  0.31531330  1
  O  O21  1  0.21660612  0.91946189  0.81531330  1
  O  O22  1  0.78339388  0.41946189  0.68468670  1
  O  O23  1  0.21660612  0.08053811  0.18468670  1
