# generated using pymatgen
data_Mg6GaCu
_symmetry_space_group_name_H-M   'P 1'
_cell_length_a   6.07443895
_cell_length_b   6.23145299
_cell_length_c   4.83769992
_cell_angle_alpha   90.00000000
_cell_angle_beta   90.00000000
_cell_angle_gamma   120.85880859
_symmetry_Int_Tables_number   1
_chemical_formula_structural   Mg6GaCu
_chemical_formula_sum   'Mg6 Ga1 Cu1'
_cell_volume   157.19592044
_cell_formula_units_Z   1
loop_
 _symmetry_equiv_pos_site_id
 _symmetry_equiv_pos_as_xyz
  1  'x, y, z'
loop_
 _atom_site_type_symbol
 _atom_site_label
 _atom_site_symmetry_multiplicity
 _atom_site_fract_x
 _atom_site_fract_y
 _atom_site_fract_z
 _atom_site_occupancy
  Mg  Mg0  1  0.66886830  0.33402566  0.25000000  1
  Mg  Mg1  1  0.66886830  0.83484164  0.25000000  1
  Mg  Mg2  1  0.32444734  0.16709482  0.75000000  1
  Mg  Mg3  1  0.32444734  0.65735352  0.75000000  1
  Mg  Mg4  1  0.84412469  0.17206285  0.75000000  1
  Mg  Mg5  1  0.83802487  0.66901294  0.75000000  1
  Ga  Ga6  1  0.16545763  0.83272832  0.25000000  1
  Cu  Cu7  1  0.16576153  0.33288027  0.25000000  1
