# generated using pymatgen
data_NaMg6Zn
_symmetry_space_group_name_H-M   'P 1'
_cell_length_a   6.34083551
_cell_length_b   6.34083499
_cell_length_c   5.16607092
_cell_angle_alpha   90.00000000
_cell_angle_beta   90.00000000
_cell_angle_gamma   119.48319156
_symmetry_Int_Tables_number   1
_chemical_formula_structural   NaMg6Zn
_chemical_formula_sum   'Na1 Mg6 Zn1'
_cell_volume   180.80987099
_cell_formula_units_Z   1
loop_
 _symmetry_equiv_pos_site_id
 _symmetry_equiv_pos_as_xyz
  1  'x, y, z'
loop_
 _atom_site_type_symbol
 _atom_site_label
 _atom_site_symmetry_multiplicity
 _atom_site_fract_x
 _atom_site_fract_y
 _atom_site_fract_z
 _atom_site_occupancy
  Na  Na0  1  0.33072693  0.16927307  0.75000000  1
  Mg  Mg1  1  0.16444880  0.82979280  0.25000000  1
  Mg  Mg2  1  0.67020720  0.33555120  0.25000000  1
  Mg  Mg3  1  0.66671439  0.83328561  0.25000000  1
  Mg  Mg4  1  0.32958803  0.66104563  0.75000000  1
  Mg  Mg5  1  0.83895437  0.17041197  0.75000000  1
  Mg  Mg6  1  0.83439796  0.66560204  0.75000000  1
  Zn  Zn7  1  0.16496233  0.33503767  0.25000000  1
