# generated using pymatgen
data_Rb2NiH8(CO5)2
_symmetry_space_group_name_H-M   'P 1'
_cell_length_a   6.43145170
_cell_length_b   7.14140396
_cell_length_c   11.44602004
_cell_angle_alpha   98.97673740
_cell_angle_beta   90.00000000
_cell_angle_gamma   90.00000000
_symmetry_Int_Tables_number   1
_chemical_formula_structural   Rb2NiH8(CO5)2
_chemical_formula_sum   'Rb4 Ni2 H16 C4 O20'
_cell_volume   519.27203231
_cell_formula_units_Z   2
loop_
 _symmetry_equiv_pos_site_id
 _symmetry_equiv_pos_as_xyz
  1  'x, y, z'
loop_
 _atom_site_type_symbol
 _atom_site_label
 _atom_site_symmetry_multiplicity
 _atom_site_fract_x
 _atom_site_fract_y
 _atom_site_fract_z
 _atom_site_occupancy
  H  H0  1  0.80079965  0.29003900  0.48730747  1
  H  H1  1  0.30079965  0.20996100  0.01269253  1
  H  H2  1  0.19920035  0.70996100  0.51269253  1
  H  H3  1  0.69920035  0.79003900  0.98730747  1
  H  H4  1  0.16895289  0.32092492  0.12756110  1
  H  H5  1  0.66895289  0.17907508  0.37243890  1
  H  H6  1  0.83104711  0.67907508  0.87243890  1
  H  H7  1  0.33104711  0.82092492  0.62756110  1
  H  H8  1  0.37389727  0.18968694  0.61566708  1
  H  H9  1  0.87389727  0.31031306  0.88433292  1
  H  H10  1  0.62610273  0.81031306  0.38433292  1
  H  H11  1  0.12610273  0.68968694  0.11566708  1
  H  H12  1  0.17259471  0.29857255  0.58324038  1
  H  H13  1  0.67259471  0.20142745  0.91675962  1
  H  H14  1  0.82740529  0.70142745  0.41675962  1
  H  H15  1  0.32740529  0.79857255  0.08324038  1
  C  C16  1  0.33186433  0.06320197  0.81683609  1
  C  C17  1  0.83186433  0.43679803  0.68316391  1
  C  C18  1  0.16813567  0.56320197  0.31683609  1
  C  C19  1  0.66813567  0.93679803  0.18316391  1
  O  O20  1  0.17785009  0.77481402  0.06044020  1
  O  O21  1  0.67785009  0.72518598  0.43955980  1
  O  O22  1  0.82214991  0.22518598  0.93955980  1
  O  O23  1  0.40475015  0.02432947  0.70973905  1
  O  O24  1  0.21607281  0.19295861  0.08589132  1
  O  O25  1  0.71607281  0.30704139  0.41410868  1
  O  O26  1  0.32134020  0.46371399  0.34826558  1
  O  O27  1  0.82134020  0.03628601  0.15173442  1
  O  O28  1  0.67865980  0.53628601  0.65173442  1
  O  O29  1  0.17865980  0.96371399  0.84826558  1
  O  O30  1  0.09524985  0.52432947  0.20973905  1
  O  O31  1  0.59524985  0.97567053  0.29026095  1
  O  O32  1  0.90475015  0.47567053  0.79026095  1
  O  O33  1  0.78392719  0.80704139  0.91410868  1
  O  O34  1  0.08630995  0.70102968  0.39100011  1
  O  O35  1  0.58630995  0.79897032  0.10899989  1
  O  O36  1  0.91369005  0.29897032  0.60899989  1
  O  O37  1  0.41369005  0.20102968  0.89100011  1
  O  O38  1  0.28392719  0.69295861  0.58589132  1
  O  O39  1  0.32214991  0.27481402  0.56044020  1
  Ni  Ni40  1  0.50000000  0.50000000  0.50000000  1
  Ni  Ni41  1  0.00000000  0.00000000  0.00000000  1
  Rb  Rb42  1  0.83745712  0.92751254  0.67827692  1
  Rb  Rb43  1  0.33745712  0.57248746  0.82172308  1
  Rb  Rb44  1  0.66254288  0.42751254  0.17827692  1
  Rb  Rb45  1  0.16254288  0.07248746  0.32172308  1
