# generated using pymatgen
data_Cr3B7BrO13
_symmetry_space_group_name_H-M   'P 1'
_cell_length_a   8.69354969
_cell_length_b   8.69354969
_cell_length_c   8.69354969
_cell_angle_alpha   60.00000004
_cell_angle_beta   60.00000003
_cell_angle_gamma   60.00000001
_symmetry_Int_Tables_number   1
_chemical_formula_structural   Cr3B7BrO13
_chemical_formula_sum   'Cr6 B14 Br2 O26'
_cell_volume   464.59702508
_cell_formula_units_Z   2
loop_
 _symmetry_equiv_pos_site_id
 _symmetry_equiv_pos_as_xyz
  1  'x, y, z'
loop_
 _atom_site_type_symbol
 _atom_site_label
 _atom_site_symmetry_multiplicity
 _atom_site_fract_x
 _atom_site_fract_y
 _atom_site_fract_z
 _atom_site_occupancy
  B  B0  1  0.07991554  0.76025337  0.07991554  1
  B  B1  1  0.57991554  0.57991554  0.57991554  1
  B  B2  1  0.07991554  0.07991554  0.76025337  1
  B  B3  1  0.76025337  0.07991554  0.07991554  1
  B  B4  1  0.57991554  0.26025337  0.57991554  1
  B  B5  1  0.26025337  0.57991554  0.57991554  1
  B  B6  1  0.57991554  0.57991554  0.26025337  1
  B  B7  1  0.07991554  0.07991554  0.07991554  1
  B  B8  1  0.75000000  0.25000000  0.25000000  1
  B  B9  1  0.75000000  0.75000000  0.25000000  1
  B  B10  1  0.25000000  0.25000000  0.75000000  1
  B  B11  1  0.75000000  0.25000000  0.75000000  1
  B  B12  1  0.25000000  0.75000000  0.25000000  1
  B  B13  1  0.25000000  0.75000000  0.75000000  1
  O  O14  1  0.70444522  0.93582740  0.10468226  1
  O  O15  1  0.10468226  0.25504512  0.70444522  1
  O  O16  1  0.20444522  0.60468226  0.43582740  1
  O  O17  1  0.75504512  0.20444522  0.43582740  1
  O  O18  1  0.75504512  0.60468226  0.20444522  1
  O  O19  1  0.75504512  0.43582740  0.60468226  1
  O  O20  1  0.60468226  0.75504512  0.43582740  1
  O  O21  1  0.43582740  0.60468226  0.75504512  1
  O  O22  1  0.00000000  0.00000000  0.00000000  1
  O  O23  1  0.50000000  0.50000000  0.50000000  1
  O  O24  1  0.25504512  0.10468226  0.93582740  1
  O  O25  1  0.60468226  0.43582740  0.20444522  1
  O  O26  1  0.20444522  0.75504512  0.60468226  1
  O  O27  1  0.60468226  0.20444522  0.75504512  1
  O  O28  1  0.43582740  0.75504512  0.20444522  1
  O  O29  1  0.43582740  0.20444522  0.60468226  1
  O  O30  1  0.20444522  0.43582740  0.75504512  1
  O  O31  1  0.93582740  0.25504512  0.10468226  1
  O  O32  1  0.10468226  0.93582740  0.25504512  1
  O  O33  1  0.70444522  0.25504512  0.93582740  1
  O  O34  1  0.10468226  0.70444522  0.93582740  1
  O  O35  1  0.70444522  0.10468226  0.25504512  1
  O  O36  1  0.93582740  0.10468226  0.70444522  1
  O  O37  1  0.25504512  0.93582740  0.70444522  1
  O  O38  1  0.25504512  0.70444522  0.10468226  1
  O  O39  1  0.93582740  0.70444522  0.25504512  1
  Cr  Cr40  1  0.50000000  0.00000000  0.00000000  1
  Cr  Cr41  1  0.50000000  0.50000000  0.00000000  1
  Cr  Cr42  1  0.00000000  0.50000000  0.50000000  1
  Cr  Cr43  1  0.00000000  0.50000000  0.00000000  1
  Cr  Cr44  1  0.50000000  0.00000000  0.50000000  1
  Cr  Cr45  1  0.00000000  0.00000000  0.50000000  1
  Br  Br46  1  0.25000000  0.25000000  0.25000000  1
  Br  Br47  1  0.75000000  0.75000000  0.75000000  1
