# generated using pymatgen
data_LiCr(GeO3)2
_symmetry_space_group_name_H-M   'P 1'
_cell_length_a   5.43859345
_cell_length_b   8.86899809
_cell_length_c   9.68158634
_cell_angle_alpha   90.00000000
_cell_angle_beta   103.04947150
_cell_angle_gamma   90.00000000
_symmetry_Int_Tables_number   1
_chemical_formula_structural   LiCr(GeO3)2
_chemical_formula_sum   'Li4 Cr4 Ge8 O24'
_cell_volume   454.93030595
_cell_formula_units_Z   4
loop_
 _symmetry_equiv_pos_site_id
 _symmetry_equiv_pos_as_xyz
  1  'x, y, z'
loop_
 _atom_site_type_symbol
 _atom_site_label
 _atom_site_symmetry_multiplicity
 _atom_site_fract_x
 _atom_site_fract_y
 _atom_site_fract_z
 _atom_site_occupancy
  Li  Li0  1  0.53771156  0.48789152  0.25539130  1
  Li  Li1  1  0.96228844  0.98789152  0.74460870  1
  Li  Li2  1  0.46228844  0.51210848  0.74460870  1
  Li  Li3  1  0.03771156  0.01210848  0.25539130  1
  O  O4  1  0.75713950  0.66761254  0.36347768  1
  O  O5  1  0.65731814  0.81228029  0.61176167  1
  O  O6  1  0.84268186  0.31228029  0.38823833  1
  O  O7  1  0.34268186  0.18771971  0.38823833  1
  O  O8  1  0.15731814  0.68771971  0.61176167  1
  O  O9  1  0.74355448  0.49624746  0.63244822  1
  O  O10  1  0.75644552  0.99624746  0.36755178  1
  O  O11  1  0.25644552  0.50375254  0.36755178  1
  O  O12  1  0.24355448  0.00375254  0.63244822  1
  O  O13  1  0.82616422  0.52452401  0.11381059  1
  O  O14  1  0.74286050  0.16761254  0.63652232  1
  O  O15  1  0.24286050  0.33238746  0.63652232  1
  O  O16  1  0.68401916  0.33346141  0.85731201  1
  O  O17  1  0.81598084  0.83346141  0.14268799  1
  O  O18  1  0.31598084  0.66653859  0.14268799  1
  O  O19  1  0.18401916  0.16653859  0.85731201  1
  O  O20  1  0.17383578  0.47547599  0.88618941  1
  O  O21  1  0.67383578  0.02452401  0.88618941  1
  O  O22  1  0.00990728  0.20884375  0.11747946  1
  O  O23  1  0.32616422  0.97547599  0.11381059  1
  O  O24  1  0.50990728  0.29115625  0.11747946  1
  O  O25  1  0.99009272  0.79115625  0.88252054  1
  O  O26  1  0.49009272  0.70884375  0.88252054  1
  O  O27  1  0.25713950  0.83238746  0.36347768  1
  Cr  Cr28  1  0.03808792  0.65827806  0.25157745  1
  Cr  Cr29  1  0.96191208  0.34172194  0.74842255  1
  Cr  Cr30  1  0.53808792  0.84172194  0.25157745  1
  Cr  Cr31  1  0.46191208  0.15827806  0.74842255  1
  Ge  Ge32  1  0.17560576  0.34103315  0.44623757  1
  Ge  Ge33  1  0.27400261  0.15645761  0.04654690  1
  Ge  Ge34  1  0.32439424  0.84103315  0.55376243  1
  Ge  Ge35  1  0.72599739  0.84354239  0.95345310  1
  Ge  Ge36  1  0.77400261  0.34354239  0.04654690  1
  Ge  Ge37  1  0.67560576  0.15896685  0.44623757  1
  Ge  Ge38  1  0.82439424  0.65896685  0.55376243  1
  Ge  Ge39  1  0.22599739  0.65645761  0.95345310  1
