# generated using pymatgen
data_KNiPO4
_symmetry_space_group_name_H-M   'P 1'
_cell_length_a   4.97472150
_cell_length_b   8.72153077
_cell_length_c   9.36302972
_cell_angle_alpha   90.00000000
_cell_angle_beta   90.00000000
_cell_angle_gamma   90.00000000
_symmetry_Int_Tables_number   1
_chemical_formula_structural   KNiPO4
_chemical_formula_sum   'K4 Ni4 P4 O16'
_cell_volume   406.23551793
_cell_formula_units_Z   4
loop_
 _symmetry_equiv_pos_site_id
 _symmetry_equiv_pos_as_xyz
  1  'x, y, z'
loop_
 _atom_site_type_symbol
 _atom_site_label
 _atom_site_symmetry_multiplicity
 _atom_site_fract_x
 _atom_site_fract_y
 _atom_site_fract_z
 _atom_site_occupancy
  O  O0  1  0.14367645  0.75458206  0.28166925  1
  O  O1  1  0.64367645  0.24541794  0.71833075  1
  O  O2  1  0.64367645  0.74541794  0.78166925  1
  O  O3  1  0.14367645  0.25458206  0.21833075  1
  O  O4  1  0.18618500  0.45258787  0.41599557  1
  O  O5  1  0.68618500  0.54741213  0.58400443  1
  O  O6  1  0.68618500  0.04741213  0.91599557  1
  O  O7  1  0.18618500  0.95258787  0.08400443  1
  O  O8  1  0.75465794  0.28726378  0.38712092  1
  O  O9  1  0.25465794  0.71273622  0.61287908  1
  O  O10  1  0.25465794  0.21273622  0.88712092  1
  O  O11  1  0.75465794  0.78726378  0.11287908  1
  O  O12  1  0.21052363  0.68333811  0.01797964  1
  O  O13  1  0.71052363  0.31666189  0.98202036  1
  O  O14  1  0.71052363  0.81666189  0.51797964  1
  O  O15  1  0.21052363  0.18333811  0.48202036  1
  P  P16  1  0.06366702  0.79064407  0.12597302  1
  P  P17  1  0.56366702  0.20935593  0.87402698  1
  P  P18  1  0.56366702  0.70935593  0.62597302  1
  P  P19  1  0.06366702  0.29064407  0.37402698  1
  K  K20  1  0.51918478  0.49899438  0.18326269  1
  K  K21  1  0.01918478  0.50100562  0.81673731  1
  K  K22  1  0.01918478  0.00100562  0.68326269  1
  K  K23  1  0.51918478  0.99899438  0.31673731  1
  Ni  Ni24  1  0.99870519  0.65457869  0.45775196  1
  Ni  Ni25  1  0.49870519  0.34542131  0.54224804  1
  Ni  Ni26  1  0.49870519  0.84542131  0.95775196  1
  Ni  Ni27  1  0.99870519  0.15457869  0.04224804  1
