# generated using pymatgen
data_Ba3NiRu2O9
_symmetry_space_group_name_H-M   'P 1'
_cell_length_a   5.83360056
_cell_length_b   5.83360056
_cell_length_c   14.35386546
_cell_angle_alpha   90.00000000
_cell_angle_beta   90.00000000
_cell_angle_gamma   120.00000000
_symmetry_Int_Tables_number   1
_chemical_formula_structural   Ba3NiRu2O9
_chemical_formula_sum   'Ba6 Ni2 Ru4 O18'
_cell_volume   423.03166849
_cell_formula_units_Z   2
loop_
 _symmetry_equiv_pos_site_id
 _symmetry_equiv_pos_as_xyz
  1  'x, y, z'
loop_
 _atom_site_type_symbol
 _atom_site_label
 _atom_site_symmetry_multiplicity
 _atom_site_fract_x
 _atom_site_fract_y
 _atom_site_fract_z
 _atom_site_occupancy
  O  O0  1  0.82961268  0.17038732  0.41697441  1
  O  O1  1  0.82961268  0.65922536  0.41697441  1
  O  O2  1  0.34077464  0.17038732  0.41697441  1
  O  O3  1  0.65922536  0.82961268  0.91697441  1
  O  O4  1  0.17038732  0.34077464  0.58302559  1
  O  O5  1  0.17038732  0.82961268  0.91697441  1
  O  O6  1  0.17038732  0.34077464  0.91697441  1
  O  O7  1  0.82961268  0.17038732  0.08302559  1
  O  O8  1  0.34077464  0.17038732  0.08302559  1
  O  O9  1  0.65922536  0.82961268  0.58302559  1
  O  O10  1  0.17038732  0.82961268  0.58302559  1
  O  O11  1  0.82961268  0.65922536  0.08302559  1
  O  O12  1  0.51553970  0.03107941  0.25000000  1
  O  O13  1  0.48446030  0.51553970  0.75000000  1
  O  O14  1  0.03107941  0.51553970  0.75000000  1
  O  O15  1  0.96892059  0.48446030  0.25000000  1
  O  O16  1  0.51553970  0.48446030  0.25000000  1
  O  O17  1  0.48446030  0.96892059  0.75000000  1
  Ni  Ni18  1  0.00000000  0.00000000  0.50000000  1
  Ni  Ni19  1  0.00000000  0.00000000  0.00000000  1
  Ru  Ru20  1  0.33333333  0.66666667  0.65368324  1
  Ru  Ru21  1  0.66666667  0.33333333  0.15368324  1
  Ru  Ru22  1  0.66666667  0.33333333  0.34631676  1
  Ru  Ru23  1  0.33333333  0.66666667  0.84631676  1
  Ba  Ba24  1  0.33333333  0.66666667  0.41082227  1
  Ba  Ba25  1  0.66666667  0.33333333  0.91082227  1
  Ba  Ba26  1  0.66666667  0.33333333  0.58917773  1
  Ba  Ba27  1  0.33333333  0.66666667  0.08917773  1
  Ba  Ba28  1  0.00000000  0.00000000  0.75000000  1
  Ba  Ba29  1  0.00000000  0.00000000  0.25000000  1
