# generated using pymatgen
data_Ni3(PO4)2
_symmetry_space_group_name_H-M   'P 1'
_cell_length_a   4.74575640
_cell_length_b   5.88885217
_cell_length_c   10.22787448
_cell_angle_alpha   90.90984367
_cell_angle_beta   90.00000000
_cell_angle_gamma   90.00000000
_symmetry_Int_Tables_number   1
_chemical_formula_structural   Ni3(PO4)2
_chemical_formula_sum   'Ni6 P4 O16'
_cell_volume   285.80296111
_cell_formula_units_Z   2
loop_
 _symmetry_equiv_pos_site_id
 _symmetry_equiv_pos_as_xyz
  1  'x, y, z'
loop_
 _atom_site_type_symbol
 _atom_site_label
 _atom_site_symmetry_multiplicity
 _atom_site_fract_x
 _atom_site_fract_y
 _atom_site_fract_z
 _atom_site_occupancy
  O  O0  1  0.23543492  0.46599653  0.66176650  1
  O  O1  1  0.73543540  0.53400397  0.83823292  1
  O  O2  1  0.76456603  0.53400362  0.33823335  1
  O  O3  1  0.26456555  0.46599618  0.16176694  1
  O  O4  1  0.19914208  0.05218085  0.67368132  1
  O  O5  1  0.69914256  0.94781794  0.82631906  1
  O  O6  1  0.80085676  0.94781930  0.32631853  1
  O  O7  1  0.30085628  0.05218050  0.17368077  1
  O  O8  1  0.30848626  0.25645330  0.95273284  1
  O  O9  1  0.80848674  0.74354549  0.54726656  1
  O  O10  1  0.74516053  0.26838767  0.10205431  1
  O  O11  1  0.24516005  0.73161212  0.39794597  1
  O  O12  1  0.25483831  0.73161248  0.89794554  1
  O  O13  1  0.69151470  0.74354514  0.04726699  1
  O  O14  1  0.19151422  0.25645466  0.45273329  1
  O  O15  1  0.75483879  0.26838632  0.60205386  1
  P  P16  1  0.07781142  0.25168576  0.59510100  1
  P  P17  1  0.57781190  0.74831474  0.90489939  1
  P  P18  1  0.92218953  0.74831438  0.40489983  1
  P  P19  1  0.42218906  0.25168541  0.09510046  1
  Ni  Ni20  1  0.01326540  0.75799107  0.72560176  1
  Ni  Ni21  1  0.51326376  0.24200943  0.77439765  1
  Ni  Ni22  1  0.48673508  0.75799072  0.22560220  1
  Ni  Ni23  1  0.98673556  0.24200908  0.27439809  1
  Ni  Ni24  1  0.50000048  0.50000008  0.49999993  1
  Ni  Ni25  1  0.00000000  0.49999972  0.00000036  1
