# generated using pymatgen
data_K2NiH8(CO5)2
_symmetry_space_group_name_H-M   'P 1'
_cell_length_a   6.28550582
_cell_length_b   6.89276821
_cell_length_c   11.35639666
_cell_angle_alpha   99.23891780
_cell_angle_beta   90.00000000
_cell_angle_gamma   90.00000000
_symmetry_Int_Tables_number   1
_chemical_formula_structural   K2NiH8(CO5)2
_chemical_formula_sum   'K4 Ni2 H16 C4 O20'
_cell_volume   485.62796379
_cell_formula_units_Z   2
loop_
 _symmetry_equiv_pos_site_id
 _symmetry_equiv_pos_as_xyz
  1  'x, y, z'
loop_
 _atom_site_type_symbol
 _atom_site_label
 _atom_site_symmetry_multiplicity
 _atom_site_fract_x
 _atom_site_fract_y
 _atom_site_fract_z
 _atom_site_occupancy
  H  H0  1  0.32523243  0.78031143  0.07680303  1
  H  H1  1  0.82523243  0.71968857  0.42319697  1
  H  H2  1  0.67476757  0.21968857  0.92319697  1
  H  H3  1  0.17476757  0.28031143  0.57680303  1
  H  H4  1  0.11054992  0.68292093  0.10987171  1
  H  H5  1  0.61054992  0.81707907  0.39012829  1
  H  H6  1  0.34069359  0.82714773  0.63265257  1
  H  H7  1  0.84069359  0.67285227  0.86734743  1
  H  H8  1  0.65930641  0.17285227  0.36734743  1
  H  H9  1  0.38945008  0.18292093  0.60987171  1
  H  H10  1  0.69951595  0.77773842  0.98287971  1
  H  H11  1  0.19951595  0.72226158  0.51712029  1
  H  H12  1  0.30048405  0.22226158  0.01712029  1
  H  H13  1  0.80048405  0.27773842  0.48287971  1
  H  H14  1  0.88945008  0.31707907  0.89012829  1
  H  H15  1  0.15930641  0.32714773  0.13265257  1
  C  C16  1  0.34257683  0.07465497  0.81899786  1
  C  C17  1  0.15742317  0.57465497  0.31899786  1
  C  C18  1  0.65742317  0.92534503  0.18100214  1
  C  C19  1  0.84257683  0.42534503  0.68100214  1
  O  O20  1  0.82717782  0.24059716  0.94932301  1
  O  O21  1  0.41469578  0.22259424  0.89499791  1
  O  O22  1  0.28062497  0.69777640  0.59139033  1
  O  O23  1  0.78062497  0.80222360  0.90860967  1
  O  O24  1  0.71937503  0.30222360  0.40860967  1
  O  O25  1  0.21937503  0.19777640  0.09139033  1
  O  O26  1  0.32717782  0.25940284  0.55067699  1
  O  O27  1  0.91469578  0.27740576  0.60500209  1
  O  O28  1  0.67282218  0.74059716  0.44932301  1
  O  O29  1  0.17282218  0.75940284  0.05067699  1
  O  O30  1  0.18379508  0.96993932  0.84625271  1
  O  O31  1  0.68379508  0.53006068  0.65374729  1
  O  O32  1  0.81620492  0.03006068  0.15374729  1
  O  O33  1  0.31620492  0.46993932  0.34625271  1
  O  O34  1  0.93146486  0.46899173  0.78522345  1
  O  O35  1  0.56853514  0.96899173  0.28522345  1
  O  O36  1  0.08530422  0.72259424  0.39499791  1
  O  O37  1  0.43146486  0.03100827  0.71477655  1
  O  O38  1  0.58530422  0.77740576  0.10500209  1
  O  O39  1  0.06853514  0.53100827  0.21477655  1
  K  K40  1  0.15528340  0.08178904  0.31749460  1
  K  K41  1  0.65528340  0.41821096  0.18250540  1
  K  K42  1  0.34471660  0.58178904  0.81749460  1
  K  K43  1  0.84471660  0.91821096  0.68250540  1
  Ni  Ni44  1  0.50000000  0.50000000  0.50000000  1
  Ni  Ni45  1  0.00000000  0.00000000  0.00000000  1
