# generated using pymatgen
data_V2Pb3O8
_symmetry_space_group_name_H-M   'P 1'
_cell_length_a   6.57058872
_cell_length_b   7.50825433
_cell_length_c   9.37334661
_cell_angle_alpha   112.26152232
_cell_angle_beta   90.00000000
_cell_angle_gamma   90.00000000
_symmetry_Int_Tables_number   1
_chemical_formula_structural   V2Pb3O8
_chemical_formula_sum   'V4 Pb6 O16'
_cell_volume   427.95452613
_cell_formula_units_Z   2
loop_
 _symmetry_equiv_pos_site_id
 _symmetry_equiv_pos_as_xyz
  1  'x, y, z'
loop_
 _atom_site_type_symbol
 _atom_site_label
 _atom_site_symmetry_multiplicity
 _atom_site_fract_x
 _atom_site_fract_y
 _atom_site_fract_z
 _atom_site_occupancy
  O  O0  1  0.46047607  0.81319129  0.77074792  1
  O  O1  1  0.96047607  0.68680871  0.72925208  1
  O  O2  1  0.53952393  0.18680871  0.22925208  1
  O  O3  1  0.03952393  0.31319129  0.27074792  1
  O  O4  1  0.52516856  0.45545853  0.78339326  1
  O  O5  1  0.02516856  0.04454147  0.71660674  1
  O  O6  1  0.47483144  0.54454147  0.21660674  1
  O  O7  1  0.97483144  0.95545853  0.28339326  1
  O  O8  1  0.69777455  0.77868531  0.02067926  1
  O  O9  1  0.19777455  0.72131469  0.47932074  1
  O  O10  1  0.23401595  0.24272286  0.51446610  1
  O  O11  1  0.73401595  0.25727714  0.98553390  1
  O  O12  1  0.76598405  0.75727714  0.48553390  1
  O  O13  1  0.26598405  0.74272286  0.01446610  1
  O  O14  1  0.80222545  0.27868531  0.52067926  1
  O  O15  1  0.30222545  0.22131469  0.97932074  1
  V  V16  1  0.48126744  0.70084777  0.90018071  1
  V  V17  1  0.98126744  0.79915223  0.59981929  1
  V  V18  1  0.51873256  0.29915223  0.09981929  1
  V  V19  1  0.01873256  0.20084777  0.40018071  1
  Pb  Pb20  1  0.88813791  0.40147965  0.78659476  1
  Pb  Pb21  1  0.38813791  0.09852035  0.71340524  1
  Pb  Pb22  1  0.11186209  0.59852035  0.21340524  1
  Pb  Pb23  1  0.61186209  0.90147965  0.28659476  1
  Pb  Pb24  1  0.50000000  0.50000000  0.50000000  1
  Pb  Pb25  1  0.00000000  0.00000000  0.00000000  1
