# generated using pymatgen
data_La3W(ClO2)3
_symmetry_space_group_name_H-M   'P 1'
_cell_length_a   9.50912869
_cell_length_b   9.50912869
_cell_length_c   5.48706293
_cell_angle_alpha   90.00000000
_cell_angle_beta   90.00000000
_cell_angle_gamma   119.99999995
_symmetry_Int_Tables_number   1
_chemical_formula_structural   La3W(ClO2)3
_chemical_formula_sum   'La6 W2 Cl6 O12'
_cell_volume   429.68681041
_cell_formula_units_Z   2
loop_
 _symmetry_equiv_pos_site_id
 _symmetry_equiv_pos_as_xyz
  1  'x, y, z'
loop_
 _atom_site_type_symbol
 _atom_site_label
 _atom_site_symmetry_multiplicity
 _atom_site_fract_x
 _atom_site_fract_y
 _atom_site_fract_z
 _atom_site_occupancy
  O  O0  1  0.36443983  0.83866760  0.47984997  1
  O  O1  1  0.52577223  0.36443983  0.97984997  1
  O  O2  1  0.83866760  0.47422777  0.97984997  1
  O  O3  1  0.16133240  0.52577223  0.47984997  1
  O  O4  1  0.47422777  0.63556017  0.47984997  1
  O  O5  1  0.63556017  0.16133240  0.97984997  1
  O  O6  1  0.63556017  0.16133240  0.52015003  1
  O  O7  1  0.47422777  0.63556017  0.02015003  1
  O  O8  1  0.83866760  0.47422777  0.52015003  1
  O  O9  1  0.52577223  0.36443983  0.52015003  1
  O  O10  1  0.36443983  0.83866760  0.02015003  1
  O  O11  1  0.16133240  0.52577223  0.02015003  1
  Cl  Cl12  1  0.80662503  0.75892047  0.75000000  1
  Cl  Cl13  1  0.75892047  0.95229544  0.25000000  1
  Cl  Cl14  1  0.04770456  0.80662503  0.25000000  1
  Cl  Cl15  1  0.19337497  0.24107953  0.25000000  1
  Cl  Cl16  1  0.24107953  0.04770456  0.75000000  1
  Cl  Cl17  1  0.95229544  0.19337497  0.75000000  1
  La  La18  1  0.08952534  0.68443476  0.75000000  1
  La  La19  1  0.40509058  0.08952534  0.25000000  1
  La  La20  1  0.91047466  0.31556524  0.25000000  1
  La  La21  1  0.59490942  0.91047466  0.75000000  1
  La  La22  1  0.31556524  0.40509058  0.75000000  1
  La  La23  1  0.68443476  0.59490942  0.25000000  1
  W  W24  1  0.33333333  0.66666667  0.25000000  1
  W  W25  1  0.66666667  0.33333333  0.75000000  1
