# generated using pymatgen
data_NaMg6Zn
_symmetry_space_group_name_H-M   'P 1'
_cell_length_a   6.37389172
_cell_length_b   6.34613383
_cell_length_c   5.18155183
_cell_angle_alpha   90.00000000
_cell_angle_beta   90.00000000
_cell_angle_gamma   119.85604947
_symmetry_Int_Tables_number   1
_chemical_formula_structural   NaMg6Zn
_chemical_formula_sum   'Na1 Mg6 Zn1'
_cell_volume   181.77431739
_cell_formula_units_Z   1
loop_
 _symmetry_equiv_pos_site_id
 _symmetry_equiv_pos_as_xyz
  1  'x, y, z'
loop_
 _atom_site_type_symbol
 _atom_site_label
 _atom_site_symmetry_multiplicity
 _atom_site_fract_x
 _atom_site_fract_y
 _atom_site_fract_z
 _atom_site_occupancy
  Na  Na0  1  0.16638616  0.83319258  0.25000000  1
  Mg  Mg1  1  0.66674311  0.33460002  0.25000000  1
  Mg  Mg2  1  0.66674311  0.83214209  0.25000000  1
  Mg  Mg3  1  0.33191758  0.17081172  0.75000000  1
  Mg  Mg4  1  0.33191758  0.66110686  0.75000000  1
  Mg  Mg5  1  0.83689431  0.16844766  0.75000000  1
  Mg  Mg6  1  0.83099520  0.66549810  0.75000000  1
  Zn  Zn7  1  0.16840293  0.33420097  0.25000000  1
