# generated using pymatgen
data_PrFeGe2O7
_symmetry_space_group_name_H-M   'P 1'
_cell_length_a   6.70800280
_cell_length_b   7.36623824
_cell_length_c   11.78488404
_cell_angle_alpha   96.41034374
_cell_angle_beta   90.00000000
_cell_angle_gamma   90.00000000
_symmetry_Int_Tables_number   1
_chemical_formula_structural   PrFeGe2O7
_chemical_formula_sum   'Pr4 Fe4 Ge8 O28'
_cell_volume   578.68267547
_cell_formula_units_Z   4
loop_
 _symmetry_equiv_pos_site_id
 _symmetry_equiv_pos_as_xyz
  1  'x, y, z'
loop_
 _atom_site_type_symbol
 _atom_site_label
 _atom_site_symmetry_multiplicity
 _atom_site_fract_x
 _atom_site_fract_y
 _atom_site_fract_z
 _atom_site_occupancy
  O  O0  1  0.31164074  0.53294232  0.68638898  1
  O  O1  1  0.81164106  0.96705876  0.81361091  1
  O  O2  1  0.68835843  0.46705840  0.31361095  1
  O  O3  1  0.18835959  0.03294196  0.18638901  1
  O  O4  1  0.04642197  0.83334600  0.62550181  1
  O  O5  1  0.54642081  0.66665371  0.87449798  1
  O  O6  1  0.95357869  0.16665472  0.37449811  1
  O  O7  1  0.45357836  0.33334564  0.12550185  1
  O  O8  1  0.50238749  0.17467080  0.92044789  1
  O  O9  1  0.00238716  0.32532856  0.57955168  1
  O  O10  1  0.49761317  0.82532855  0.07955194  1
  O  O11  1  0.99761349  0.67467080  0.42044815  1
  O  O12  1  0.16524829  0.91309558  0.92341609  1
  O  O13  1  0.66524862  0.58690413  0.57658371  1
  O  O14  1  0.83475087  0.08690377  0.07658374  1
  O  O15  1  0.33475055  0.41309659  0.42341622  1
  O  O16  1  0.82593349  0.42627593  0.01713703  1
  O  O17  1  0.32593317  0.07372306  0.48286283  1
  O  O18  1  0.17406716  0.57372342  0.98286280  1
  O  O19  1  0.67406600  0.92627629  0.51713700  1
  O  O20  1  0.10908987  0.43904385  0.22054219  1
  O  O21  1  0.60909019  0.06095651  0.27945777  1
  O  O22  1  0.12450581  0.24071628  0.80531527  1
  O  O23  1  0.39091046  0.93904421  0.72054216  1
  O  O24  1  0.37549303  0.74071627  0.30531554  1
  O  O25  1  0.87549335  0.75928308  0.19468456  1
  O  O26  1  0.62450614  0.25928308  0.69468429  1
  O  O27  1  0.89091079  0.56095550  0.77945764  1
  Fe  Fe28  1  0.10086463  0.98018602  0.76833083  1
  Fe  Fe29  1  0.39913570  0.48018566  0.26833087  1
  Fe  Fe30  1  0.89913603  0.01981470  0.23166910  1
  Fe  Fe31  1  0.60086347  0.51981369  0.73166897  1
  Ge  Ge32  1  0.08879209  0.42308059  0.72050327  1
  Ge  Ge33  1  0.34177388  0.74383966  0.96014791  1
  Ge  Ge34  1  0.15822644  0.24383930  0.46014709  1
  Ge  Ge35  1  0.65822677  0.25615970  0.03985277  1
  Ge  Ge36  1  0.84177272  0.75616006  0.53985274  1
  Ge  Ge37  1  0.41120823  0.92308058  0.22050353  1
  Ge  Ge38  1  0.58879242  0.07691877  0.77949630  1
  Ge  Ge39  1  0.91120856  0.57691877  0.27949656  1
  Pr  Pr40  1  0.35253180  0.76329587  0.52408437  1
  Pr  Pr41  1  0.85253213  0.73670385  0.97591627  1
  Pr  Pr42  1  0.64746737  0.23670349  0.47591631  1
  Pr  Pr43  1  0.14746704  0.26329687  0.02408451  1
