# generated using pymatgen
data_K2NiH12(SO7)2
_symmetry_space_group_name_H-M   'P 1'
_cell_length_a   6.20100712
_cell_length_b   9.02853485
_cell_length_c   12.32259777
_cell_angle_alpha   90.00000000
_cell_angle_beta   90.00000000
_cell_angle_gamma   104.58950314
_symmetry_Int_Tables_number   1
_chemical_formula_structural   K2NiH12(SO7)2
_chemical_formula_sum   'K4 Ni2 H24 S4 O28'
_cell_volume   667.64769656
_cell_formula_units_Z   2
loop_
 _symmetry_equiv_pos_site_id
 _symmetry_equiv_pos_as_xyz
  1  'x, y, z'
loop_
 _atom_site_type_symbol
 _atom_site_label
 _atom_site_symmetry_multiplicity
 _atom_site_fract_x
 _atom_site_fract_y
 _atom_site_fract_z
 _atom_site_occupancy
  H  H0  1  0.00060488  0.35846268  0.68843994  1
  H  H1  1  0.99939516  0.14153807  0.18843981  1
  H  H2  1  0.99939427  0.64153786  0.31156031  1
  H  H3  1  0.00060561  0.85846246  0.81156043  1
  H  H4  1  0.92806307  0.22843576  0.59960987  1
  H  H5  1  0.07193654  0.27156384  0.09960975  1
  H  H6  1  0.07193608  0.77156478  0.40039038  1
  H  H7  1  0.92806380  0.72843554  0.90039050  1
  H  H8  1  0.91235406  0.75131208  0.12581204  1
  H  H9  1  0.67992123  0.28364350  0.41075603  1
  H  H10  1  0.32007881  0.21635725  0.91075615  1
  H  H11  1  0.32007954  0.71635703  0.58924340  1
  H  H12  1  0.67992195  0.78364328  0.08924409  1
  H  H13  1  0.67199469  0.47133594  0.64445428  1
  H  H14  1  0.32800492  0.02866366  0.14445497  1
  H  H15  1  0.32800403  0.52866345  0.35554515  1
  H  H16  1  0.67199584  0.97133687  0.85554527  1
  H  H17  1  0.66065487  0.60042645  0.55898263  1
  H  H18  1  0.33934500  0.89957387  0.05898251  1
  H  H19  1  0.33934546  0.39957293  0.44101762  1
  H  H20  1  0.66065576  0.10042666  0.94101774  1
  H  H21  1  0.08764538  0.74868709  0.62581216  1
  H  H22  1  0.91235495  0.25131230  0.37418808  1
  H  H23  1  0.08764627  0.24868730  0.87418821  1
  O  O24  1  0.24327849  0.94409462  0.42322777  1
  O  O25  1  0.75672095  0.55590455  0.92322789  1
  O  O26  1  0.70036338  0.00109135  0.93320625  1
  O  O27  1  0.29963649  0.49890897  0.43320612  1
  O  O28  1  0.29963738  0.99890919  0.06679400  1
  O  O29  1  0.70036223  0.50109042  0.56679412  1
  O  O30  1  0.83483804  0.83326242  0.11247604  1
  O  O31  1  0.75672023  0.05590477  0.57677248  1
  O  O32  1  0.16516111  0.16673812  0.88752339  1
  O  O33  1  0.83483893  0.33326263  0.38752327  1
  O  O34  1  0.03454101  0.83006864  0.88648895  1
  O  O35  1  0.96545887  0.66993168  0.38648883  1
  O  O36  1  0.96545976  0.16993190  0.11351048  1
  O  O37  1  0.03453985  0.33006771  0.61351060  1
  O  O38  1  0.24327938  0.44409483  0.07677235  1
  O  O39  1  0.42094171  0.09130367  0.26670076  1
  O  O40  1  0.57905833  0.40869708  0.76670088  1
  O  O41  1  0.57905906  0.90869686  0.73329949  1
  O  O42  1  0.42094082  0.59130346  0.23329937  1
  O  O43  1  0.05212609  0.11149748  0.32629380  1
  O  O44  1  0.94787352  0.38850212  0.82629392  1
  O  O45  1  0.94787263  0.88850191  0.67370563  1
  O  O46  1  0.05212724  0.61149841  0.17370551  1
  O  O47  1  0.38564599  0.21913091  0.43640808  1
  O  O48  1  0.61435405  0.28086985  0.93640821  1
  O  O49  1  0.61435316  0.78086963  0.56359216  1
  O  O50  1  0.38564671  0.71913069  0.06359204  1
  O  O51  1  0.16516183  0.66673790  0.61247616  1
  S  S52  1  0.27351204  0.59046768  0.13701888  1
  S  S53  1  0.72648783  0.90953264  0.63701820  1
  S  S54  1  0.27351293  0.09046789  0.36298124  1
  S  S55  1  0.72648711  0.40953286  0.86298136  1
  K  K56  1  0.65385078  0.86533616  0.34625106  1
  K  K57  1  0.65385124  0.36533523  0.15374906  1
  K  K58  1  0.34614837  0.13466438  0.65374918  1
  K  K59  1  0.34614909  0.63466416  0.84625118  1
  Ni  Ni60  1  0.00000000  0.00000000  0.00000000  1
  Ni  Ni61  1  0.00000072  0.49999978  0.50000012  1
