# generated using pymatgen
data_Fe4P3(HO5)3
_symmetry_space_group_name_H-M   'P 1'
_cell_length_a   7.50498709
_cell_length_b   7.56410337
_cell_length_c   10.62396229
_cell_angle_alpha   101.64926621
_cell_angle_beta   110.68380125
_cell_angle_gamma   89.99999999
_symmetry_Int_Tables_number   1
_chemical_formula_structural   Fe4P3(HO5)3
_chemical_formula_sum   'Fe8 P6 H6 O30'
_cell_volume   550.93386757
_cell_formula_units_Z   2
loop_
 _symmetry_equiv_pos_site_id
 _symmetry_equiv_pos_as_xyz
  1  'x, y, z'
loop_
 _atom_site_type_symbol
 _atom_site_label
 _atom_site_symmetry_multiplicity
 _atom_site_fract_x
 _atom_site_fract_y
 _atom_site_fract_z
 _atom_site_occupancy
  H  H0  1  0.50823104  0.25000000  0.00000000  1
  H  H1  1  0.49176896  0.75000000  0.00000000  1
  H  H2  1  0.99537457  0.62372139  0.40706805  1
  H  H3  1  0.58830652  0.87627861  0.59293195  1
  H  H4  1  0.00462543  0.37627861  0.59293195  1
  H  H5  1  0.41169348  0.12372139  0.40706805  1
  O  O6  1  0.30262391  0.43635463  0.53156136  1
  O  O7  1  0.77106255  0.06364537  0.46843864  1
  O  O8  1  0.69737609  0.56364537  0.46843864  1
  O  O9  1  0.22893745  0.93635463  0.53156136  1
  O  O10  1  0.07225797  0.23977164  0.12537650  1
  O  O11  1  0.94688147  0.26022836  0.87462350  1
  O  O12  1  0.92774203  0.76022836  0.87462350  1
  O  O13  1  0.05311853  0.73977164  0.12537650  1
  O  O14  1  0.62243219  0.75000000  0.00000000  1
  O  O15  1  0.37756781  0.25000000  0.00000000  1
  O  O16  1  0.03555566  0.59920610  0.32669598  1
  O  O17  1  0.70885969  0.90079390  0.67330402  1
  O  O18  1  0.96444434  0.40079390  0.67330402  1
  O  O19  1  0.29114031  0.09920610  0.32669598  1
  O  O20  1  0.21307043  0.58346673  0.96054838  1
  O  O21  1  0.25252205  0.91653327  0.03945162  1
  O  O22  1  0.78692957  0.41653327  0.03945162  1
  O  O23  1  0.74747795  0.08346673  0.96054838  1
  O  O24  1  0.38524942  0.89499115  0.77435929  1
  O  O25  1  0.61089013  0.60500885  0.22564071  1
  O  O26  1  0.61475058  0.10500885  0.22564071  1
  O  O27  1  0.38910987  0.39499115  0.77435929  1
  O  O28  1  0.42644159  0.75330021  0.37245272  1
  O  O29  1  0.05398887  0.74669979  0.62754728  1
  O  O30  1  0.57355841  0.24669979  0.62754728  1
  O  O31  1  0.94601113  0.25330021  0.37245272  1
  O  O32  1  0.61247416  0.58505112  0.71618432  1
  O  O33  1  0.89628985  0.91494888  0.28381568  1
  O  O34  1  0.38752584  0.41494888  0.28381568  1
  O  O35  1  0.10371015  0.08505112  0.71618432  1
  P  P36  1  0.11317688  0.75000000  0.00000000  1
  P  P37  1  0.88682312  0.25000000  0.00000000  1
  P  P38  1  0.19527107  0.91346817  0.66232792  1
  P  P39  1  0.53294315  0.58653183  0.33767208  1
  P  P40  1  0.80472893  0.08653183  0.33767208  1
  P  P41  1  0.46705685  0.41346817  0.66232792  1
  Fe  Fe42  1  0.15841411  0.35183031  0.33795033  1
  Fe  Fe43  1  0.82046378  0.14816969  0.66204967  1
  Fe  Fe44  1  0.84158589  0.64816969  0.66204967  1
  Fe  Fe45  1  0.17953622  0.85183031  0.33795033  1
  Fe  Fe46  1  0.19976296  0.34428681  0.84799286  1
  Fe  Fe47  1  0.35177010  0.15571319  0.15200714  1
  Fe  Fe48  1  0.80023704  0.65571319  0.15200714  1
  Fe  Fe49  1  0.64822990  0.84428681  0.84799286  1
