# generated using pymatgen
data_K2FeH2Cl5O
_symmetry_space_group_name_H-M   'P 1'
_cell_length_a   7.40059050
_cell_length_b   9.55290285
_cell_length_c   13.97823260
_cell_angle_alpha   90.00000000
_cell_angle_beta   90.00000000
_cell_angle_gamma   90.00000000
_symmetry_Int_Tables_number   1
_chemical_formula_structural   K2FeH2Cl5O
_chemical_formula_sum   'K8 Fe4 H8 Cl20 O4'
_cell_volume   988.22081657
_cell_formula_units_Z   4
loop_
 _symmetry_equiv_pos_site_id
 _symmetry_equiv_pos_as_xyz
  1  'x, y, z'
loop_
 _atom_site_type_symbol
 _atom_site_label
 _atom_site_symmetry_multiplicity
 _atom_site_fract_x
 _atom_site_fract_y
 _atom_site_fract_z
 _atom_site_occupancy
  H  H0  1  0.46010997  0.16612226  0.46524187  1
  H  H1  1  0.96010997  0.83387774  0.03475813  1
  H  H2  1  0.53989003  0.66612226  0.53475813  1
  H  H3  1  0.03989003  0.33387774  0.96524187  1
  H  H4  1  0.53989003  0.83387774  0.53475813  1
  H  H5  1  0.03989003  0.16612226  0.96524187  1
  H  H6  1  0.46010997  0.33387774  0.46524187  1
  H  H7  1  0.96010997  0.66612226  0.03475813  1
  O  O8  1  0.47352894  0.75000000  0.51246487  1
  O  O9  1  0.97352894  0.25000000  0.98753513  1
  O  O10  1  0.52647106  0.25000000  0.48753513  1
  O  O11  1  0.02647106  0.75000000  0.01246487  1
  Cl  Cl12  1  0.92500162  0.75000000  0.79000470  1
  Cl  Cl13  1  0.42500162  0.25000000  0.70999530  1
  Cl  Cl14  1  0.07499838  0.25000000  0.20999530  1
  Cl  Cl15  1  0.57499838  0.75000000  0.29000470  1
  Cl  Cl16  1  0.37891639  0.75000000  0.75308949  1
  Cl  Cl17  1  0.87891639  0.25000000  0.74691051  1
  Cl  Cl18  1  0.62108361  0.25000000  0.24691051  1
  Cl  Cl19  1  0.12108361  0.75000000  0.25308949  1
  Cl  Cl20  1  0.45654931  0.75000000  0.99185911  1
  Cl  Cl21  1  0.95654931  0.25000000  0.50814089  1
  Cl  Cl22  1  0.54345069  0.25000000  0.00814089  1
  Cl  Cl23  1  0.04345069  0.75000000  0.49185911  1
  Cl  Cl24  1  0.18680754  0.00112900  0.89823793  1
  Cl  Cl25  1  0.68680754  0.99887100  0.60176207  1
  Cl  Cl26  1  0.81319246  0.50112900  0.10176207  1
  Cl  Cl27  1  0.31319246  0.49887100  0.39823793  1
  Cl  Cl28  1  0.81319246  0.99887100  0.10176207  1
  Cl  Cl29  1  0.31319246  0.00112900  0.39823793  1
  Cl  Cl30  1  0.18680754  0.49887100  0.89823793  1
  Cl  Cl31  1  0.68680754  0.50112900  0.60176207  1
  K  K32  1  0.13364691  0.99742862  0.64855434  1
  K  K33  1  0.63364691  0.00257138  0.85144566  1
  K  K34  1  0.86635309  0.49742862  0.35144566  1
  K  K35  1  0.36635309  0.50257138  0.14855434  1
  K  K36  1  0.63364691  0.49742862  0.85144566  1
  K  K37  1  0.13364691  0.50257138  0.64855434  1
  K  K38  1  0.36635309  0.99742862  0.14855434  1
  K  K39  1  0.86635309  0.00257138  0.35144566  1
  Fe  Fe40  1  0.18933565  0.75000000  0.89043540  1
  Fe  Fe41  1  0.68933565  0.25000000  0.60956460  1
  Fe  Fe42  1  0.81066435  0.25000000  0.10956460  1
  Fe  Fe43  1  0.31066435  0.75000000  0.39043540  1
