# generated using pymatgen
data_Mn3H2Se3O10
_symmetry_space_group_name_H-M   'P 1'
_cell_length_a   8.46156410
_cell_length_b   8.46262810
_cell_length_c   9.12874719
_cell_angle_alpha   65.63018458
_cell_angle_beta   68.89062050
_cell_angle_gamma   68.02033206
_symmetry_Int_Tables_number   1
_chemical_formula_structural   Mn3H2Se3O10
_chemical_formula_sum   'Mn6 H4 Se6 O20'
_cell_volume   535.53732715
_cell_formula_units_Z   2
loop_
 _symmetry_equiv_pos_site_id
 _symmetry_equiv_pos_as_xyz
  1  'x, y, z'
loop_
 _atom_site_type_symbol
 _atom_site_label
 _atom_site_symmetry_multiplicity
 _atom_site_fract_x
 _atom_site_fract_y
 _atom_site_fract_z
 _atom_site_occupancy
  H  H0  1  0.19038997  0.04664521  0.39838730  1
  H  H1  1  0.80961003  0.95335479  0.60161270  1
  H  H2  1  0.12648173  0.96921501  0.30198150  1
  H  H3  1  0.87351827  0.03078499  0.69801850  1
  O  O4  1  0.14538345  0.07741653  0.30006701  1
  O  O5  1  0.85461655  0.92258347  0.69993299  1
  O  O6  1  0.25039745  0.04653227  0.94608088  1
  O  O7  1  0.74960255  0.95346773  0.05391912  1
  O  O8  1  0.35856200  0.30581919  0.68443064  1
  O  O9  1  0.64143800  0.69418081  0.31556936  1
  O  O10  1  0.15641413  0.38715520  0.96021181  1
  O  O11  1  0.84358587  0.61284480  0.03978819  1
  O  O12  1  0.31925413  0.49386825  0.37244695  1
  O  O13  1  0.68074587  0.50613175  0.62755305  1
  O  O14  1  0.05573247  0.44488466  0.33536265  1
  O  O15  1  0.94426753  0.55511534  0.66463735  1
  O  O16  1  0.06332383  0.77719884  0.24101734  1
  O  O17  1  0.93667617  0.22280116  0.75898266  1
  O  O18  1  0.29422118  0.70008768  0.61185457  1
  O  O19  1  0.70577882  0.29991232  0.38814543  1
  O  O20  1  0.14645258  0.81790487  0.85715203  1
  O  O21  1  0.85354742  0.18209513  0.14284797  1
  O  O22  1  0.26630095  0.04716665  0.54878811  1
  O  O23  1  0.73369905  0.95283335  0.45121189  1
  Mn  Mn24  1  0.82795406  0.69696712  0.42240949  1
  Mn  Mn25  1  0.17204594  0.30303288  0.57759051  1
  Mn  Mn26  1  0.00000000  0.00000000  0.00000000  1
  Mn  Mn27  1  0.50000000  0.50000000  0.50000000  1
  Mn  Mn28  1  0.96379181  0.34256751  0.20054812  1
  Mn  Mn29  1  0.03620819  0.65743249  0.79945188  1
  Se  Se30  1  0.33511439  0.21861824  0.89937254  1
  Se  Se31  1  0.66488561  0.78138176  0.10062746  1
  Se  Se32  1  0.67006268  0.16271953  0.31114570  1
  Se  Se33  1  0.32993732  0.83728047  0.68885430  1
  Se  Se34  1  0.79163374  0.42513827  0.78027421  1
  Se  Se35  1  0.20836626  0.57486173  0.21972579  1
