# generated using pymatgen
data_MnH6(SO4)4
_symmetry_space_group_name_H-M   'P 1'
_cell_length_a   5.27710441
_cell_length_b   8.38263392
_cell_length_c   15.47389249
_cell_angle_alpha   90.00000000
_cell_angle_beta   90.00000000
_cell_angle_gamma   103.94205713
_symmetry_Int_Tables_number   1
_chemical_formula_structural   MnH6(SO4)4
_chemical_formula_sum   'Mn2 H12 S8 O32'
_cell_volume   664.33808367
_cell_formula_units_Z   2
loop_
 _symmetry_equiv_pos_site_id
 _symmetry_equiv_pos_as_xyz
  1  'x, y, z'
loop_
 _atom_site_type_symbol
 _atom_site_label
 _atom_site_symmetry_multiplicity
 _atom_site_fract_x
 _atom_site_fract_y
 _atom_site_fract_z
 _atom_site_occupancy
  H  H0  1  0.17549431  0.29798749  0.73240056  1
  H  H1  1  0.82450569  0.20201251  0.23240056  1
  H  H2  1  0.82450569  0.70201251  0.26759944  1
  H  H3  1  0.17549431  0.79798749  0.76759944  1
  H  H4  1  0.56907157  0.15987107  0.73732900  1
  H  H5  1  0.43092843  0.34012893  0.23732900  1
  H  H6  1  0.43092843  0.84012893  0.26267100  1
  H  H7  1  0.56907157  0.65987107  0.76267100  1
  H  H8  1  0.28290076  0.61149752  0.02322183  1
  H  H9  1  0.71709924  0.88850248  0.52322183  1
  H  H10  1  0.71709924  0.38850248  0.97677817  1
  H  H11  1  0.28290076  0.11149752  0.47677817  1
  O  O12  1  0.62092711  0.27270632  0.17950192  1
  O  O13  1  0.37907289  0.72729368  0.82049808  1
  O  O14  1  0.28795841  0.39210104  0.55951005  1
  O  O15  1  0.71204159  0.10789896  0.05951005  1
  O  O16  1  0.71204159  0.60789896  0.44048995  1
  O  O17  1  0.28795841  0.89210104  0.94048995  1
  O  O18  1  0.69854065  0.30716297  0.56367592  1
  O  O19  1  0.30145935  0.19283703  0.06367592  1
  O  O20  1  0.30145935  0.69283703  0.43632408  1
  O  O21  1  0.62092711  0.77270632  0.32049808  1
  O  O22  1  0.28709236  0.09905959  0.54189310  1
  O  O23  1  0.71290764  0.40094041  0.04189310  1
  O  O24  1  0.71290764  0.90094041  0.45810690  1
  O  O25  1  0.28709236  0.59905959  0.95810690  1
  O  O26  1  0.02028294  0.66328060  0.61336732  1
  O  O27  1  0.97971706  0.83671940  0.11336732  1
  O  O28  1  0.97971706  0.33671940  0.38663268  1
  O  O29  1  0.02028294  0.16328060  0.88663268  1
  O  O30  1  0.73183871  0.85594964  0.62682367  1
  O  O31  1  0.26816129  0.64405036  0.12682367  1
  O  O32  1  0.26816129  0.14405036  0.37317633  1
  O  O33  1  0.73183871  0.35594964  0.87317633  1
  O  O34  1  0.68676181  0.61368014  0.72120918  1
  O  O35  1  0.31323819  0.88631986  0.22120918  1
  O  O36  1  0.31323819  0.38631986  0.27879082  1
  O  O37  1  0.68676181  0.11368014  0.77879082  1
  O  O38  1  0.05814908  0.85790583  0.73399698  1
  O  O39  1  0.94185092  0.64209417  0.23399698  1
  O  O40  1  0.94185092  0.14209417  0.26600302  1
  O  O41  1  0.05814908  0.35790583  0.76600302  1
  O  O42  1  0.69854065  0.80716297  0.93632408  1
  O  O43  1  0.37907289  0.22729368  0.67950192  1
  S  S44  1  0.87367691  0.24926479  0.83193943  1
  S  S45  1  0.12632309  0.25073521  0.33193943  1
  S  S46  1  0.12632309  0.75073521  0.16806057  1
  S  S47  1  0.87367691  0.74926479  0.66806057  1
  S  S48  1  0.42107026  0.76621932  0.91394137  1
  S  S49  1  0.57892974  0.73378068  0.41394137  1
  S  S50  1  0.57892974  0.23378068  0.08605863  1
  S  S51  1  0.42107026  0.26621932  0.58605863  1
  Mn  Mn52  1  0.00000000  0.00000000  0.00000000  1
  Mn  Mn53  1  0.00000000  0.50000000  0.50000000  1
