# generated using pymatgen
data_Na6Fe2C4SO16
_symmetry_space_group_name_H-M   'P 1'
_cell_length_a   9.98268141
_cell_length_b   9.98268141
_cell_length_c   9.98268141
_cell_angle_alpha   59.99999998
_cell_angle_beta   59.99999998
_cell_angle_gamma   59.99999998
_symmetry_Int_Tables_number   1
_chemical_formula_structural   Na6Fe2C4SO16
_chemical_formula_sum   'Na12 Fe4 C8 S2 O32'
_cell_volume   703.43931244
_cell_formula_units_Z   2
loop_
 _symmetry_equiv_pos_site_id
 _symmetry_equiv_pos_as_xyz
  1  'x, y, z'
loop_
 _atom_site_type_symbol
 _atom_site_label
 _atom_site_symmetry_multiplicity
 _atom_site_fract_x
 _atom_site_fract_y
 _atom_site_fract_z
 _atom_site_occupancy
  C  C0  1  0.28055335  0.28055335  0.65833994  1
  C  C1  1  0.71944665  0.71944665  0.34166006  1
  C  C2  1  0.71944665  0.34166006  0.71944665  1
  C  C3  1  0.34166006  0.71944665  0.71944665  1
  C  C4  1  0.71944665  0.71944665  0.71944665  1
  C  C5  1  0.28055335  0.65833994  0.28055335  1
  C  C6  1  0.65833994  0.28055335  0.28055335  1
  C  C7  1  0.28055335  0.28055335  0.28055335  1
  O  O8  1  0.33929174  0.60402562  0.86098825  1
  O  O9  1  0.69569440  0.86098825  0.60402562  1
  O  O10  1  0.86098825  0.60402562  0.69569440  1
  O  O11  1  0.60402562  0.69569440  0.86098825  1
  O  O12  1  0.30430560  0.39597438  0.66070826  1
  O  O13  1  0.66070826  0.13901175  0.30430560  1
  O  O14  1  0.13901175  0.66070826  0.39597438  1
  O  O15  1  0.39597438  0.66070826  0.30430560  1
  O  O16  1  0.69569440  0.33929174  0.86098825  1
  O  O17  1  0.33929174  0.69569440  0.60402562  1
  O  O18  1  0.86098825  0.69569440  0.33929174  1
  O  O19  1  0.30877405  0.06374198  0.06374198  1
  O  O20  1  0.60402562  0.86098825  0.33929174  1
  O  O21  1  0.33929174  0.86098825  0.69569440  1
  O  O22  1  0.69569440  0.60402562  0.33929174  1
  O  O23  1  0.60402562  0.33929174  0.69569440  1
  O  O24  1  0.93625802  0.93625802  0.93625802  1
  O  O25  1  0.69122595  0.93625802  0.93625802  1
  O  O26  1  0.39597438  0.13901175  0.66070826  1
  O  O27  1  0.93625802  0.93625802  0.69122595  1
  O  O28  1  0.06374198  0.06374198  0.06374198  1
  O  O29  1  0.93625802  0.69122595  0.93625802  1
  O  O30  1  0.06374198  0.30877405  0.06374198  1
  O  O31  1  0.06374198  0.06374198  0.30877405  1
  O  O32  1  0.39597438  0.30430560  0.13901175  1
  O  O33  1  0.13901175  0.39597438  0.30430560  1
  O  O34  1  0.30430560  0.13901175  0.39597438  1
  O  O35  1  0.66070826  0.39597438  0.13901175  1
  O  O36  1  0.30430560  0.66070826  0.13901175  1
  O  O37  1  0.66070826  0.30430560  0.39597438  1
  O  O38  1  0.13901175  0.30430560  0.66070826  1
  O  O39  1  0.86098825  0.33929174  0.60402562  1
  Na  Na40  1  0.09134739  0.65865261  0.65865261  1
  Na  Na41  1  0.65865261  0.09134739  0.65865261  1
  Na  Na42  1  0.65865261  0.65865261  0.09134739  1
  Na  Na43  1  0.09134739  0.09134739  0.65865261  1
  Na  Na44  1  0.09134739  0.65865261  0.09134739  1
  Na  Na45  1  0.65865261  0.09134739  0.09134739  1
  Na  Na46  1  0.34134739  0.90865261  0.90865261  1
  Na  Na47  1  0.34134739  0.90865261  0.34134739  1
  Na  Na48  1  0.34134739  0.34134739  0.90865261  1
  Na  Na49  1  0.90865261  0.34134739  0.34134739  1
  Na  Na50  1  0.90865261  0.34134739  0.90865261  1
  Na  Na51  1  0.90865261  0.90865261  0.34134739  1
  S  S52  1  0.12500000  0.12500000  0.12500000  1
  S  S53  1  0.87500000  0.87500000  0.87500000  1
  Fe  Fe54  1  0.50000000  0.00000000  0.50000000  1
  Fe  Fe55  1  0.50000000  0.50000000  0.00000000  1
  Fe  Fe56  1  0.00000000  0.50000000  0.50000000  1
  Fe  Fe57  1  0.50000000  0.50000000  0.50000000  1
