# generated using pymatgen
data_Mn4Be3Ge3SeO12
_symmetry_space_group_name_H-M   'P 1'
_cell_length_a   8.61584995
_cell_length_b   8.61584995
_cell_length_c   8.61584995
_cell_angle_alpha   90.00000000
_cell_angle_beta   90.00000000
_cell_angle_gamma   90.00000000
_symmetry_Int_Tables_number   1
_chemical_formula_structural   Mn4Be3Ge3SeO12
_chemical_formula_sum   'Mn8 Be6 Ge6 Se2 O24'
_cell_volume   639.57927239
_cell_formula_units_Z   2
loop_
 _symmetry_equiv_pos_site_id
 _symmetry_equiv_pos_as_xyz
  1  'x, y, z'
loop_
 _atom_site_type_symbol
 _atom_site_label
 _atom_site_symmetry_multiplicity
 _atom_site_fract_x
 _atom_site_fract_y
 _atom_site_fract_z
 _atom_site_occupancy
  Be  Be0  1  0.25000007  0.50000014  0.00000000  1
  Be  Be1  1  0.50000014  0.00000000  0.75000022  1
  Be  Be2  1  0.50000014  0.00000000  0.25000007  1
  Be  Be3  1  0.00000000  0.25000007  0.50000014  1
  Be  Be4  1  0.00000000  0.75000022  0.50000014  1
  Be  Be5  1  0.75000022  0.50000014  0.00000000  1
  O  O6  1  0.13606045  0.85282378  0.58759905  1
  O  O7  1  0.63605943  0.08759890  0.35282363  1
  O  O8  1  0.91240138  0.64717666  0.63605943  1
  O  O9  1  0.08759890  0.64717666  0.36393969  1
  O  O10  1  0.64717666  0.63605943  0.91240138  1
  O  O11  1  0.35282363  0.36393969  0.91240138  1
  O  O12  1  0.86393984  0.85282378  0.41240124  1
  O  O13  1  0.86393984  0.14717651  0.58759905  1
  O  O14  1  0.63605943  0.91240138  0.64717666  1
  O  O15  1  0.14717651  0.58759905  0.86393984  1
  O  O16  1  0.58759905  0.13606045  0.85282378  1
  O  O17  1  0.58759905  0.86393984  0.14717651  1
  O  O18  1  0.85282378  0.41240124  0.86393984  1
  O  O19  1  0.41240124  0.86393984  0.85282378  1
  O  O20  1  0.13606045  0.14717651  0.41240124  1
  O  O21  1  0.36393969  0.91240138  0.35282363  1
  O  O22  1  0.36393969  0.08759890  0.64717666  1
  O  O23  1  0.85282378  0.58759905  0.13606045  1
  O  O24  1  0.91240138  0.35282363  0.36393969  1
  O  O25  1  0.64717666  0.36393969  0.08759890  1
  O  O26  1  0.35282363  0.63605943  0.08759890  1
  O  O27  1  0.41240124  0.13606045  0.14717651  1
  O  O28  1  0.14717651  0.41240124  0.13606045  1
  O  O29  1  0.08759890  0.35282363  0.63605943  1
  Mn  Mn30  1  0.67392097  0.67392097  0.67392097  1
  Mn  Mn31  1  0.82607946  0.17392083  0.82607946  1
  Mn  Mn32  1  0.17392083  0.82607946  0.82607946  1
  Mn  Mn33  1  0.82607946  0.82607946  0.17392083  1
  Mn  Mn34  1  0.67392097  0.32607931  0.32607931  1
  Mn  Mn35  1  0.32607931  0.32607931  0.67392097  1
  Mn  Mn36  1  0.17392083  0.17392083  0.17392083  1
  Mn  Mn37  1  0.32607931  0.67392097  0.32607931  1
  Ge  Ge38  1  0.25000007  0.00000000  0.50000014  1
  Ge  Ge39  1  0.50000014  0.75000022  0.00000000  1
  Ge  Ge40  1  0.50000014  0.25000007  0.00000000  1
  Ge  Ge41  1  0.00000000  0.50000014  0.25000007  1
  Ge  Ge42  1  0.00000000  0.50000014  0.75000022  1
  Ge  Ge43  1  0.75000022  0.00000000  0.50000014  1
  Se  Se44  1  0.00000000  0.00000000  0.00000000  1
  Se  Se45  1  0.50000014  0.50000014  0.50000014  1
