# generated using pymatgen
data_Rb2NiH12(SeO7)2
_symmetry_space_group_name_H-M   'P 1'
_cell_length_a   6.43945924
_cell_length_b   9.36987670
_cell_length_c   12.74284440
_cell_angle_alpha   90.00000000
_cell_angle_beta   90.00000000
_cell_angle_gamma   104.91767845
_symmetry_Int_Tables_number   1
_chemical_formula_structural   Rb2NiH12(SeO7)2
_chemical_formula_sum   'Rb4 Ni2 H24 Se4 O28'
_cell_volume   742.95096178
_cell_formula_units_Z   2
loop_
 _symmetry_equiv_pos_site_id
 _symmetry_equiv_pos_as_xyz
  1  'x, y, z'
loop_
 _atom_site_type_symbol
 _atom_site_label
 _atom_site_symmetry_multiplicity
 _atom_site_fract_x
 _atom_site_fract_y
 _atom_site_fract_z
 _atom_site_occupancy
  H  H0  1  0.67809479  0.47231276  0.36307497  1
  H  H1  1  0.07207608  0.76723354  0.59392912  1
  H  H2  1  0.92792367  0.73276613  0.09392919  1
  H  H3  1  0.92792467  0.23276646  0.40607152  1
  H  H4  1  0.07207553  0.26723388  0.90607145  1
  H  H5  1  0.00049578  0.64393473  0.68171236  1
  H  H6  1  0.99950397  0.85606494  0.18171243  1
  H  H7  1  0.99950498  0.35606527  0.31828750  1
  H  H8  1  0.00049523  0.14393507  0.81828743  1
  H  H9  1  0.68659656  0.29608014  0.59050068  1
  H  H10  1  0.31340322  0.20391910  0.09050075  1
  H  H11  1  0.31340264  0.70391987  0.40949918  1
  H  H12  1  0.68659753  0.79608090  0.90949910  1
  H  H13  1  0.90843551  0.26202914  0.62737310  1
  H  H14  1  0.32190542  0.02768758  0.86307490  1
  H  H15  1  0.09156428  0.23797009  0.12737317  1
  H  H16  1  0.67809378  0.97231243  0.13692496  1
  H  H17  1  0.32190597  0.52768724  0.63692489  1
  H  H18  1  0.33187006  0.90220781  0.94437386  1
  H  H19  1  0.66813010  0.59779296  0.44437393  1
  H  H20  1  0.66812914  0.09779220  0.05562600  1
  H  H21  1  0.33187065  0.40220704  0.55562593  1
  H  H22  1  0.09156369  0.73797087  0.37262676  1
  H  H23  1  0.90843648  0.76202991  0.87262668  1
  O  O24  1  0.83809747  0.34220843  0.61134939  1
  O  O25  1  0.16190274  0.15779190  0.11134946  1
  O  O26  1  0.16190329  0.65779157  0.38865047  1
  O  O27  1  0.83809801  0.84220810  0.88865119  1
  O  O28  1  0.42350563  0.58417820  0.75628468  1
  O  O29  1  0.29070438  0.49708209  0.56237992  1
  O  O30  1  0.70929583  0.00291824  0.06237999  1
  O  O31  1  0.70929637  0.50291791  0.43762073  1
  O  O32  1  0.29070337  0.99708176  0.93762066  1
  O  O33  1  0.42350508  0.08417854  0.74371510  1
  O  O34  1  0.97413336  0.16736375  0.89263681  1
  O  O35  1  0.02586685  0.33263659  0.39263688  1
  O  O36  1  0.02586740  0.83263625  0.10736304  1
  O  O37  1  0.97413391  0.66736341  0.60736297  1
  O  O38  1  0.57649512  0.41582180  0.24371517  1
  O  O39  1  0.59698411  0.76310971  0.43516377  1
  O  O40  1  0.40301564  0.73688997  0.93516370  1
  O  O41  1  0.40301665  0.23689030  0.56483609  1
  O  O42  1  0.59698356  0.26311004  0.06483616  1
  O  O43  1  0.96544377  0.87286996  0.31756011  1
  O  O44  1  0.03455598  0.62712971  0.81756004  1
  O  O45  1  0.03455699  0.12713004  0.68243975  1
  O  O46  1  0.77736523  0.05808001  0.43109468  1
  O  O47  1  0.22263498  0.44192033  0.93109461  1
  O  O48  1  0.22263397  0.94192000  0.56890517  1
  O  O49  1  0.77736577  0.55807967  0.06890524  1
  O  O50  1  0.57649412  0.91582147  0.25628475  1
  O  O51  1  0.96544322  0.37287030  0.18243982  1
  Ni  Ni52  1  0.00000000  0.00000000  0.00000000  1
  Ni  Ni53  1  0.00000055  0.49999966  0.49999993  1
  Se  Se54  1  0.73234963  0.40365040  0.14036392  1
  Se  Se55  1  0.73235018  0.90365006  0.35963601  1
  Se  Se56  1  0.26765057  0.09634994  0.64036385  1
  Se  Se57  1  0.26764957  0.59634961  0.85963673  1
  Rb  Rb58  1  0.34216518  0.63379777  0.15379908  1
  Rb  Rb59  1  0.65783612  0.86620189  0.65379900  1
  Rb  Rb60  1  0.65783557  0.36620223  0.84620078  1
  Rb  Rb61  1  0.34216463  0.13379811  0.34620085  1
