# generated using pymatgen
data_LaFeGe2O7
_symmetry_space_group_name_H-M   'P 1'
_cell_length_a   6.72827804
_cell_length_b   7.42080676
_cell_length_c   11.84792801
_cell_angle_alpha   96.52302851
_cell_angle_beta   90.00000000
_cell_angle_gamma   90.00000000
_symmetry_Int_Tables_number   1
_chemical_formula_structural   LaFeGe2O7
_chemical_formula_sum   'La4 Fe4 Ge8 O28'
_cell_volume   587.72858935
_cell_formula_units_Z   4
loop_
 _symmetry_equiv_pos_site_id
 _symmetry_equiv_pos_as_xyz
  1  'x, y, z'
loop_
 _atom_site_type_symbol
 _atom_site_label
 _atom_site_symmetry_multiplicity
 _atom_site_fract_x
 _atom_site_fract_y
 _atom_site_fract_z
 _atom_site_occupancy
  O  O0  1  0.31383752  0.53073584  0.68682084  1
  O  O1  1  0.81383752  0.96926416  0.81317916  1
  O  O2  1  0.68616248  0.46926416  0.31317916  1
  O  O3  1  0.18616248  0.03073584  0.18682084  1
  O  O4  1  0.04674844  0.83278246  0.62652251  1
  O  O5  1  0.54674844  0.66721754  0.87347749  1
  O  O6  1  0.95325156  0.16721754  0.37347749  1
  O  O7  1  0.45325156  0.33278246  0.12652251  1
  O  O8  1  0.50486966  0.17394151  0.92148478  1
  O  O9  1  0.00486966  0.32605849  0.57851522  1
  O  O10  1  0.49513034  0.82605849  0.07851522  1
  O  O11  1  0.99513034  0.67394151  0.42148478  1
  O  O12  1  0.16728569  0.91089588  0.92105490  1
  O  O13  1  0.66728569  0.58910412  0.57894510  1
  O  O14  1  0.83271431  0.08910412  0.07894510  1
  O  O15  1  0.33271431  0.41089588  0.42105490  1
  O  O16  1  0.82278502  0.42603319  0.01695044  1
  O  O17  1  0.32278502  0.07396681  0.48304956  1
  O  O18  1  0.17721498  0.57396681  0.98304956  1
  O  O19  1  0.67721498  0.92603319  0.51695044  1
  O  O20  1  0.10665781  0.44217182  0.22113644  1
  O  O21  1  0.60665781  0.05782818  0.27886356  1
  O  O22  1  0.89334219  0.55782818  0.77886356  1
  O  O23  1  0.39334219  0.94217182  0.72113644  1
  O  O24  1  0.37369376  0.74003995  0.30319023  1
  O  O25  1  0.87369376  0.75996005  0.19680977  1
  O  O26  1  0.62630624  0.25996005  0.69680977  1
  O  O27  1  0.12630624  0.24003995  0.80319023  1
  Fe  Fe28  1  0.10268928  0.98108861  0.76810287  1
  Fe  Fe29  1  0.39731072  0.48108861  0.26810287  1
  Fe  Fe30  1  0.89731072  0.01891139  0.23189713  1
  Fe  Fe31  1  0.60268928  0.51891139  0.73189713  1
  Ge  Ge32  1  0.34256510  0.74422892  0.95874530  1
  Ge  Ge33  1  0.09097328  0.42146442  0.71919832  1
  Ge  Ge34  1  0.15743490  0.24422892  0.45874530  1
  Ge  Ge35  1  0.65743490  0.25577108  0.04125470  1
  Ge  Ge36  1  0.90902672  0.57853558  0.28080168  1
  Ge  Ge37  1  0.40902672  0.92146442  0.21919832  1
  Ge  Ge38  1  0.59097328  0.07853558  0.78080168  1
  Ge  Ge39  1  0.84256510  0.75577108  0.54125470  1
  La  La40  1  0.35328124  0.76561771  0.52404417  1
  La  La41  1  0.85328124  0.73438229  0.97595583  1
  La  La42  1  0.64671876  0.23438229  0.47595583  1
  La  La43  1  0.14671876  0.26561771  0.02404417  1
