# generated using pymatgen
data_Ni3AgP3(HO6)2
_symmetry_space_group_name_H-M   'P 1'
_cell_length_a   6.51379399
_cell_length_b   8.53805705
_cell_length_c   8.53805705
_cell_angle_alpha   91.15122293
_cell_angle_beta   106.44268182
_cell_angle_gamma   106.44268181
_symmetry_Int_Tables_number   1
_chemical_formula_structural   Ni3AgP3(HO6)2
_chemical_formula_sum   'Ni6 Ag2 P6 H4 O24'
_cell_volume   434.20063045
_cell_formula_units_Z   2
loop_
 _symmetry_equiv_pos_site_id
 _symmetry_equiv_pos_as_xyz
  1  'x, y, z'
loop_
 _atom_site_type_symbol
 _atom_site_label
 _atom_site_symmetry_multiplicity
 _atom_site_fract_x
 _atom_site_fract_y
 _atom_site_fract_z
 _atom_site_occupancy
  H  H0  1  0.30814346  0.10756547  0.12221582  1
  H  H1  1  0.19185754  0.87778444  0.89243428  1
  H  H2  1  0.69185733  0.89243437  0.87778449  1
  H  H3  1  0.80814325  0.12221540  0.10756486  1
  O  O4  1  0.30856319  0.53662025  0.89975625  1
  O  O5  1  0.15703983  0.76904785  0.95564447  1
  O  O6  1  0.65704026  0.95564520  0.76904846  1
  O  O7  1  0.84295935  0.23095199  0.04435431  1
  O  O8  1  0.10465982  0.66257388  0.66249224  1
  O  O9  1  0.39534088  0.33750834  0.33742603  1
  O  O10  1  0.89534097  0.33742597  0.33750806  1
  O  O11  1  0.60465830  0.66249150  0.66257393  1
  O  O12  1  0.19143610  0.10024292  0.46337870  1
  O  O13  1  0.34296053  0.04435464  0.23095185  1
  O  O14  1  0.73319894  0.78635846  0.99758861  1
  O  O15  1  0.76680004  0.00241043  0.21364158  1
  O  O16  1  0.26680024  0.21364138  0.00241136  1
  O  O17  1  0.23319914  0.99758940  0.78635838  1
  O  O18  1  0.53659018  0.70925791  0.22070862  1
  O  O19  1  0.96340967  0.77929125  0.29074254  1
  O  O20  1  0.46341112  0.29074316  0.77929065  1
  O  O21  1  0.80856308  0.89975692  0.53662126  1
  O  O22  1  0.88641785  0.48459577  0.83092941  1
  O  O23  1  0.61358236  0.16907015  0.51540345  1
  O  O24  1  0.11358294  0.51540407  0.16907090  1
  O  O25  1  0.38641843  0.83092969  0.48459569  1
  O  O26  1  0.69143760  0.46337959  0.10024406  1
  O  O27  1  0.03658951  0.22070859  0.70925742  1
  P  P28  1  0.38694576  0.16506885  0.39112131  1
  P  P29  1  0.11305373  0.60887938  0.83493069  1
  P  P30  1  0.61305342  0.83493099  0.60887865  1
  P  P31  1  0.88694545  0.39112045  0.16506810  1
  P  P32  1  0.24999954  0.18127965  0.81871949  1
  P  P33  1  0.74999964  0.81872019  0.18128047  1
  Ni  Ni34  1  0.12264733  0.87486536  0.54988005  1
  Ni  Ni35  1  0.75000001  0.22474535  0.77525423  1
  Ni  Ni36  1  0.87735185  0.12513448  0.45011991  1
  Ni  Ni37  1  0.62264769  0.54988069  0.87486515  1
  Ni  Ni38  1  0.25000078  0.77525449  0.22474607  1
  Ni  Ni39  1  0.37735200  0.45012038  0.12513495  1
  Ag  Ag40  1  0.25000026  0.46047380  0.53952591  1
  Ag  Ag41  1  0.75000053  0.53952604  0.46047440  1
