# generated using pymatgen
data_Ni3H2Se3O10
_symmetry_space_group_name_H-M   'P 1'
_cell_length_a   8.09592672
_cell_length_b   8.22115008
_cell_length_c   8.50727262
_cell_angle_alpha   69.82740572
_cell_angle_beta   62.91225249
_cell_angle_gamma   68.04194253
_symmetry_Int_Tables_number   1
_chemical_formula_structural   Ni3H2Se3O10
_chemical_formula_sum   'Ni6 H4 Se6 O20'
_cell_volume   456.97739052
_cell_formula_units_Z   2
loop_
 _symmetry_equiv_pos_site_id
 _symmetry_equiv_pos_as_xyz
  1  'x, y, z'
loop_
 _atom_site_type_symbol
 _atom_site_label
 _atom_site_symmetry_multiplicity
 _atom_site_fract_x
 _atom_site_fract_y
 _atom_site_fract_z
 _atom_site_occupancy
  H  H0  1  0.06119723  0.18884701  0.40446286  1
  H  H1  1  0.93880277  0.81115299  0.59553714  1
  H  H2  1  0.96510634  0.12364989  0.31327549  1
  H  H3  1  0.03489366  0.87635011  0.68672451  1
  O  O4  1  0.08749636  0.12983237  0.30637001  1
  O  O5  1  0.91250364  0.87016763  0.69362999  1
  O  O6  1  0.80487117  0.13950061  0.87991440  1
  O  O7  1  0.19512883  0.86049939  0.12008560  1
  O  O8  1  0.13535415  0.21177858  0.85287774  1
  O  O9  1  0.86464585  0.78822142  0.14712226  1
  O  O10  1  0.40578175  0.17308587  0.97510772  1
  O  O11  1  0.59421825  0.82691413  0.02489228  1
  O  O12  1  0.30341018  0.71406242  0.38694401  1
  O  O13  1  0.69658982  0.28593758  0.61305599  1
  O  O14  1  0.55359773  0.68946136  0.56162964  1
  O  O15  1  0.44640227  0.31053864  0.43837036  1
  O  O16  1  0.20618771  0.89660256  0.75753276  1
  O  O17  1  0.79381229  0.10339744  0.24246724  1
  O  O18  1  0.53600213  0.94745900  0.67044240  1
  O  O19  1  0.46399787  0.05254100  0.32955760  1
  O  O20  1  0.94330734  0.72780291  0.45442528  1
  O  O21  1  0.05669266  0.27219709  0.54557472  1
  O  O22  1  0.70710189  0.51216972  0.24329161  1
  O  O23  1  0.29289811  0.48783028  0.75670839  1
  Ni  Ni24  1  0.00000000  0.00000000  0.00000000  1
  Ni  Ni25  1  0.50000000  0.50000000  0.50000000  1
  Ni  Ni26  1  0.65332343  0.03688799  0.80255268  1
  Ni  Ni27  1  0.34667657  0.96311201  0.19744732  1
  Ni  Ni28  1  0.71001438  0.86676182  0.39084598  1
  Ni  Ni29  1  0.28998562  0.13323818  0.60915402  1
  Se  Se30  1  0.56922244  0.23644194  0.23649229  1
  Se  Se31  1  0.43077756  0.76355806  0.76350771  1
  Se  Se32  1  0.79634032  0.66819366  0.06095494  1
  Se  Se33  1  0.20365968  0.33180634  0.93904506  1
  Se  Se34  1  0.17333585  0.67018015  0.29826006  1
  Se  Se35  1  0.82666415  0.32981985  0.70173994  1
