# generated using pymatgen
data_CaMg6Ga
_symmetry_space_group_name_H-M   'P 1'
_cell_length_a   6.61910451
_cell_length_b   6.36440285
_cell_length_c   5.15244364
_cell_angle_alpha   90.00000000
_cell_angle_beta   90.00000000
_cell_angle_gamma   118.73506354
_symmetry_Int_Tables_number   1
_chemical_formula_structural   CaMg6Ga
_chemical_formula_sum   'Ca1 Mg6 Ga1'
_cell_volume   190.32529151
_cell_formula_units_Z   1
loop_
 _symmetry_equiv_pos_site_id
 _symmetry_equiv_pos_as_xyz
  1  'x, y, z'
loop_
 _atom_site_type_symbol
 _atom_site_label
 _atom_site_symmetry_multiplicity
 _atom_site_fract_x
 _atom_site_fract_y
 _atom_site_fract_z
 _atom_site_occupancy
  Ca  Ca0  1  0.15678589  0.32839244  0.25000000  1
  Mg  Mg1  1  0.65995945  0.32819357  0.25000000  1
  Mg  Mg2  1  0.65995945  0.83176488  0.25000000  1
  Mg  Mg3  1  0.33716447  0.15881850  0.75000000  1
  Mg  Mg4  1  0.33716447  0.67834697  0.75000000  1
  Mg  Mg5  1  0.82095588  0.16047844  0.75000000  1
  Mg  Mg6  1  0.84578640  0.67289370  0.75000000  1
  Ga  Ga7  1  0.18222398  0.84111149  0.25000000  1
