# generated using pymatgen
data_SrV2P2O9
_symmetry_space_group_name_H-M   'P 1'
_cell_length_a   6.64176972
_cell_length_b   7.67148900
_cell_length_c   14.42506957
_cell_angle_alpha   90.00000000
_cell_angle_beta   90.00000000
_cell_angle_gamma   90.00000000
_symmetry_Int_Tables_number   1
_chemical_formula_structural   SrV2P2O9
_chemical_formula_sum   'Sr4 V8 P8 O36'
_cell_volume   734.98994354
_cell_formula_units_Z   4
loop_
 _symmetry_equiv_pos_site_id
 _symmetry_equiv_pos_as_xyz
  1  'x, y, z'
loop_
 _atom_site_type_symbol
 _atom_site_label
 _atom_site_symmetry_multiplicity
 _atom_site_fract_x
 _atom_site_fract_y
 _atom_site_fract_z
 _atom_site_occupancy
  O  O0  1  0.06062709  0.60003006  0.37217727  1
  O  O1  1  0.56062668  0.39996943  0.62782318  1
  O  O2  1  0.93937361  0.10003031  0.12782330  1
  O  O3  1  0.43937403  0.89996918  0.87217714  1
  O  O4  1  0.93937361  0.39996943  0.62782318  1
  O  O5  1  0.43937403  0.60003006  0.37217727  1
  O  O6  1  0.06062709  0.89996918  0.87217714  1
  O  O7  1  0.56062668  0.10003031  0.12782330  1
  O  O8  1  0.25000056  0.32924416  0.48928130  1
  O  O9  1  0.75000014  0.67075533  0.51071845  1
  O  O10  1  0.75000014  0.82924391  0.01071857  1
  O  O11  1  0.25000056  0.17075558  0.98928118  1
  O  O12  1  0.75000014  0.12492254  0.94584749  1
  O  O13  1  0.25000056  0.87507696  0.05415295  1
  O  O14  1  0.25000056  0.62492228  0.55415283  1
  O  O15  1  0.75000014  0.37507721  0.44584762  1
  O  O16  1  0.75000014  0.22056977  0.74951140  1
  O  O17  1  0.25000056  0.77942972  0.25048905  1
  O  O18  1  0.25000056  0.72056952  0.75048892  1
  O  O19  1  0.75000014  0.27942998  0.24951083  1
  O  O20  1  0.43511540  0.13864607  0.37450190  1
  O  O21  1  0.93511499  0.86135342  0.62549855  1
  O  O22  1  0.56488530  0.63864713  0.12549798  1
  O  O23  1  0.06488571  0.36135368  0.87450177  1
  O  O24  1  0.56488530  0.86135342  0.62549855  1
  O  O25  1  0.06488571  0.13864607  0.37450190  1
  O  O26  1  0.43511540  0.36135368  0.87450177  1
  O  O27  1  0.93511499  0.63864713  0.12549798  1
  O  O28  1  0.75000014  0.50772250  0.98600489  1
  O  O29  1  0.25000056  0.03462500  0.73354228  1
  O  O30  1  0.25000056  0.46537475  0.23354240  1
  O  O31  1  0.75000014  0.53462475  0.76645735  1
  O  O32  1  0.75000014  0.99227674  0.48600501  1
  O  O33  1  0.25000056  0.00772275  0.51399543  1
  O  O34  1  0.25000056  0.49227700  0.01399555  1
  O  O35  1  0.75000014  0.96537449  0.26645747  1
  P  P36  1  0.25000056  0.35279433  0.93925026  1
  P  P37  1  0.75000014  0.64720516  0.06074949  1
  P  P38  1  0.75000014  0.85279408  0.56074937  1
  P  P39  1  0.25000056  0.14720542  0.43925038  1
  P  P40  1  0.75000014  0.39041221  0.69066386  1
  P  P41  1  0.25000056  0.60958728  0.30933589  1
  P  P42  1  0.25000056  0.89041327  0.80933576  1
  P  P43  1  0.75000014  0.10958754  0.19066399  1
  V  V44  1  0.00000000  0.49999975  0.49999988  1
  V  V45  1  0.49999959  0.49999975  0.49999988  1
  V  V46  1  0.75000014  0.15335935  0.38294965  1
  V  V47  1  0.49999959  0.00000000  0.00000000  1
  V  V48  1  0.75000014  0.34664171  0.88295022  1
  V  V49  1  0.25000056  0.65335910  0.11705022  1
  V  V50  1  0.25000056  0.84664146  0.61705010  1
  V  V51  1  0.00000000  0.00000000  0.00000000  1
  Sr  Sr52  1  0.25000056  0.37784085  0.72072012  1
  Sr  Sr53  1  0.75000014  0.62215864  0.27928032  1
  Sr  Sr54  1  0.75000014  0.87784060  0.77928020  1
  Sr  Sr55  1  0.25000056  0.12215889  0.22072024  1
