# generated using pymatgen
data_MgPb2WO6
_symmetry_space_group_name_H-M   'P 1'
_cell_length_a   5.80099826
_cell_length_b   8.05258547
_cell_length_c   11.60754685
_cell_angle_alpha   90.00000000
_cell_angle_beta   90.00000000
_cell_angle_gamma   90.00000000
_symmetry_Int_Tables_number   1
_chemical_formula_structural   MgPb2WO6
_chemical_formula_sum   'Mg4 Pb8 W4 O24'
_cell_volume   542.22373414
_cell_formula_units_Z   4
loop_
 _symmetry_equiv_pos_site_id
 _symmetry_equiv_pos_as_xyz
  1  'x, y, z'
loop_
 _atom_site_type_symbol
 _atom_site_label
 _atom_site_symmetry_multiplicity
 _atom_site_fract_x
 _atom_site_fract_y
 _atom_site_fract_z
 _atom_site_occupancy
  O  O0  1  0.96264211  0.75000000  0.24853990  1
  O  O1  1  0.46264211  0.25000000  0.25146010  1
  O  O2  1  0.03735789  0.25000000  0.75146010  1
  O  O3  1  0.53735789  0.75000000  0.74853990  1
  O  O4  1  0.47739982  0.75000000  0.26449662  1
  O  O5  1  0.97739982  0.25000000  0.23550338  1
  O  O6  1  0.52260018  0.25000000  0.73550338  1
  O  O7  1  0.02260018  0.75000000  0.76449662  1
  O  O8  1  0.99539201  0.75000000  0.48973834  1
  O  O9  1  0.49539201  0.25000000  0.01026166  1
  O  O10  1  0.00460799  0.25000000  0.51026166  1
  O  O11  1  0.50460799  0.75000000  0.98973834  1
  O  O12  1  0.51498980  0.75000000  0.49867740  1
  O  O13  1  0.01498980  0.25000000  0.00132260  1
  O  O14  1  0.48501020  0.25000000  0.50132260  1
  O  O15  1  0.98501020  0.75000000  0.99867740  1
  O  O16  1  0.77086742  0.50834339  0.86610735  1
  O  O17  1  0.27086742  0.49165661  0.63389265  1
  O  O18  1  0.22913258  0.00834339  0.13389265  1
  O  O19  1  0.72913258  0.99165661  0.36610735  1
  O  O20  1  0.22913258  0.49165661  0.13389265  1
  O  O21  1  0.72913258  0.50834339  0.36610735  1
  O  O22  1  0.77086742  0.99165661  0.86610735  1
  O  O23  1  0.27086742  0.00834339  0.63389265  1
  Mg  Mg24  1  0.24432969  0.75000000  0.62027823  1
  Mg  Mg25  1  0.74432969  0.25000000  0.87972177  1
  Mg  Mg26  1  0.75567031  0.25000000  0.37972177  1
  Mg  Mg27  1  0.25567031  0.75000000  0.12027823  1
  W  W28  1  0.74601045  0.75000000  0.88339270  1
  W  W29  1  0.24601045  0.25000000  0.61660730  1
  W  W30  1  0.25398955  0.25000000  0.11660730  1
  W  W31  1  0.75398955  0.75000000  0.38339270  1
  Pb  Pb32  1  0.70873505  0.49470089  0.64533106  1
  Pb  Pb33  1  0.20873505  0.50529911  0.85466894  1
  Pb  Pb34  1  0.29126495  0.99470089  0.35466894  1
  Pb  Pb35  1  0.79126495  0.00529911  0.14533106  1
  Pb  Pb36  1  0.29126495  0.50529911  0.35466894  1
  Pb  Pb37  1  0.79126495  0.49470089  0.14533106  1
  Pb  Pb38  1  0.70873505  0.00529911  0.64533106  1
  Pb  Pb39  1  0.20873505  0.99470089  0.85466894  1
