# generated using pymatgen
data_V2Pb2O7
_symmetry_space_group_name_H-M   'P 1'
_cell_length_a   7.24462006
_cell_length_b   7.36218933
_cell_length_c   13.50422847
_cell_angle_alpha   90.00000000
_cell_angle_beta   103.46695584
_cell_angle_gamma   90.00000000
_symmetry_Int_Tables_number   1
_chemical_formula_structural   V2Pb2O7
_chemical_formula_sum   'V8 Pb8 O28'
_cell_volume   700.46097602
_cell_formula_units_Z   4
loop_
 _symmetry_equiv_pos_site_id
 _symmetry_equiv_pos_as_xyz
  1  'x, y, z'
loop_
 _atom_site_type_symbol
 _atom_site_label
 _atom_site_symmetry_multiplicity
 _atom_site_fract_x
 _atom_site_fract_y
 _atom_site_fract_z
 _atom_site_occupancy
  O  O0  1  0.45053172  0.40463818  0.84285975  1
  O  O1  1  0.04946828  0.90463818  0.65714025  1
  O  O2  1  0.54946828  0.59536182  0.15714025  1
  O  O3  1  0.95053172  0.09536182  0.34285975  1
  O  O4  1  0.36348957  0.67607665  0.65185727  1
  O  O5  1  0.13651043  0.17607665  0.84814273  1
  O  O6  1  0.63651043  0.32392335  0.34814273  1
  O  O7  1  0.86348957  0.82392335  0.15185727  1
  O  O8  1  0.32985589  0.00377708  0.54941845  1
  O  O9  1  0.17014411  0.50377708  0.95058155  1
  O  O10  1  0.67014411  0.99622292  0.45058155  1
  O  O11  1  0.82985589  0.49622292  0.04941845  1
  O  O12  1  0.57109982  0.79025330  0.96974795  1
  O  O13  1  0.92890018  0.29025330  0.53025205  1
  O  O14  1  0.42890018  0.20974670  0.03025205  1
  O  O15  1  0.07109982  0.70974670  0.46974795  1
  O  O16  1  0.29945880  0.38421959  0.45690458  1
  O  O17  1  0.20054120  0.88421959  0.04309542  1
  O  O18  1  0.70054120  0.61578041  0.54309542  1
  O  O19  1  0.79945880  0.11578041  0.95690458  1
  O  O20  1  0.16175834  0.19268595  0.16567936  1
  O  O21  1  0.33824166  0.69268595  0.33432064  1
  O  O22  1  0.83824166  0.80731405  0.83432064  1
  O  O23  1  0.66175834  0.30731405  0.66567936  1
  O  O24  1  0.00891554  0.49121334  0.29133007  1
  O  O25  1  0.49108446  0.99121334  0.20866993  1
  O  O26  1  0.99108446  0.50878666  0.70866993  1
  O  O27  1  0.50891554  0.00878666  0.79133007  1
  V  V28  1  0.80039620  0.17512625  0.41539601  1
  V  V29  1  0.69960380  0.67512625  0.08460399  1
  V  V30  1  0.19960380  0.82487375  0.58460399  1
  V  V31  1  0.30039620  0.32487375  0.91539601  1
  V  V32  1  0.81755547  0.43352491  0.61118716  1
  V  V33  1  0.68244453  0.93352491  0.88881284  1
  V  V34  1  0.18244453  0.56647509  0.38881284  1
  V  V35  1  0.31755547  0.06647509  0.11118716  1
  Pb  Pb36  1  0.33108122  0.33190812  0.65642421  1
  Pb  Pb37  1  0.16891878  0.83190812  0.84357579  1
  Pb  Pb38  1  0.66891878  0.66809188  0.34357579  1
  Pb  Pb39  1  0.83108122  0.16809188  0.15642421  1
  Pb  Pb40  1  0.32071752  0.10372746  0.36945491  1
  Pb  Pb41  1  0.17928248  0.60372746  0.13054509  1
  Pb  Pb42  1  0.67928248  0.89627254  0.63054509  1
  Pb  Pb43  1  0.82071752  0.39627254  0.86945491  1
