# generated using pymatgen
data_As2SO6
_symmetry_space_group_name_H-M   'P 1'
_cell_length_a   5.07932858
_cell_length_b   4.85663163
_cell_length_c   11.57712596
_cell_angle_alpha   90.00000000
_cell_angle_beta   90.00000000
_cell_angle_gamma   90.00000000
_symmetry_Int_Tables_number   1
_chemical_formula_structural   As2SO6
_chemical_formula_sum   'As4 S2 O12'
_cell_volume   285.58949635
_cell_formula_units_Z   2
loop_
 _symmetry_equiv_pos_site_id
 _symmetry_equiv_pos_as_xyz
  1  'x, y, z'
loop_
 _atom_site_type_symbol
 _atom_site_label
 _atom_site_symmetry_multiplicity
 _atom_site_fract_x
 _atom_site_fract_y
 _atom_site_fract_z
 _atom_site_occupancy
  O  O0  1  0.64270652  0.11428880  0.90535934  1
  O  O1  1  0.64270652  0.88571120  0.09464066  1
  O  O2  1  0.35729348  0.61428880  0.59464066  1
  O  O3  1  0.35729348  0.38571120  0.40535934  1
  O  O4  1  0.87926720  0.58614765  0.74059754  1
  O  O5  1  0.87926720  0.41385235  0.25940246  1
  O  O6  1  0.01602811  0.72765700  0.45623467  1
  O  O7  1  0.01602811  0.27234300  0.54376533  1
  O  O8  1  0.98397189  0.22765700  0.04376533  1
  O  O9  1  0.98397189  0.77234300  0.95623467  1
  O  O10  1  0.12073280  0.91385235  0.24059754  1
  O  O11  1  0.12073280  0.08614765  0.75940246  1
  S  S12  1  0.79599969  0.00000000  0.00000000  1
  S  S13  1  0.20400031  0.50000000  0.50000000  1
  As  As14  1  0.83149077  0.24016287  0.69079098  1
  As  As15  1  0.83149077  0.75983713  0.30920902  1
  As  As16  1  0.16850923  0.74016287  0.80920902  1
  As  As17  1  0.16850923  0.25983713  0.19079098  1
