# generated using pymatgen
data_Hf2Fe
_symmetry_space_group_name_H-M   'P 1'
_cell_length_a   8.48005647
_cell_length_b   8.48005646
_cell_length_c   8.48005647
_cell_angle_alpha   60.00000001
_cell_angle_beta   60.00000003
_cell_angle_gamma   60.00000002
_symmetry_Int_Tables_number   1
_chemical_formula_structural   Hf2Fe
_chemical_formula_sum   'Hf16 Fe8'
_cell_volume   431.20246505
_cell_formula_units_Z   8
loop_
 _symmetry_equiv_pos_site_id
 _symmetry_equiv_pos_as_xyz
  1  'x, y, z'
loop_
 _atom_site_type_symbol
 _atom_site_label
 _atom_site_symmetry_multiplicity
 _atom_site_fract_x
 _atom_site_fract_y
 _atom_site_fract_z
 _atom_site_occupancy
  Fe  Fe0  1  0.71536138  0.71536138  0.71536138  1
  Fe  Fe1  1  0.28463862  0.28463862  0.64608414  1
  Fe  Fe2  1  0.64608414  0.28463862  0.28463862  1
  Fe  Fe3  1  0.28463862  0.64608414  0.28463862  1
  Fe  Fe4  1  0.35391586  0.71536138  0.71536138  1
  Fe  Fe5  1  0.71536138  0.35391586  0.71536138  1
  Fe  Fe6  1  0.71536138  0.71536138  0.35391586  1
  Fe  Fe7  1  0.28463862  0.28463862  0.28463862  1
  Hf  Hf8  1  0.50000000  0.50000000  0.50000000  1
  Hf  Hf9  1  0.50000000  0.50000000  0.00000000  1
  Hf  Hf10  1  0.00000000  0.50000000  0.50000000  1
  Hf  Hf11  1  0.50000000  0.00000000  0.50000000  1
  Hf  Hf12  1  0.68629081  0.06370919  0.06370919  1
  Hf  Hf13  1  0.93629081  0.93629081  0.31370919  1
  Hf  Hf14  1  0.31370919  0.31370919  0.93629081  1
  Hf  Hf15  1  0.93629081  0.31370919  0.31370919  1
  Hf  Hf16  1  0.93629081  0.31370919  0.93629081  1
  Hf  Hf17  1  0.31370919  0.93629081  0.31370919  1
  Hf  Hf18  1  0.06370919  0.68629081  0.06370919  1
  Hf  Hf19  1  0.06370919  0.06370919  0.68629081  1
  Hf  Hf20  1  0.68629081  0.68629081  0.06370919  1
  Hf  Hf21  1  0.68629081  0.06370919  0.68629081  1
  Hf  Hf22  1  0.31370919  0.93629081  0.93629081  1
  Hf  Hf23  1  0.06370919  0.68629081  0.68629081  1
