# generated using pymatgen
data_PrSi2
_symmetry_space_group_name_H-M   'P 1'
_cell_length_a   4.22992279
_cell_length_b   4.22992279
_cell_length_c   7.68751155
_cell_angle_alpha   105.96895783
_cell_angle_beta   105.96895783
_cell_angle_gamma   90.00000000
_symmetry_Int_Tables_number   1
_chemical_formula_structural   PrSi2
_chemical_formula_sum   'Pr2 Si4'
_cell_volume   126.70908515
_cell_formula_units_Z   2
loop_
 _symmetry_equiv_pos_site_id
 _symmetry_equiv_pos_as_xyz
  1  'x, y, z'
loop_
 _atom_site_type_symbol
 _atom_site_label
 _atom_site_symmetry_multiplicity
 _atom_site_fract_x
 _atom_site_fract_y
 _atom_site_fract_z
 _atom_site_occupancy
  Pr  Pr0  1  0.25000000  0.75000000  0.50000000  1
  Pr  Pr1  1  0.00000000  0.00000000  -0.00000000  1
  Si  Si2  1  0.66618398  0.16618398  0.33236795  1
  Si  Si3  1  0.58381602  0.58381602  0.16763205  1
  Si  Si4  1  0.83381602  0.33381602  0.66763205  1
  Si  Si5  1  0.41618398  0.41618398  0.83236795  1
