# generated using pymatgen
data_Rb9O2
_symmetry_space_group_name_H-M   'P 1'
_cell_length_a   8.43479308
_cell_length_b   11.74084093
_cell_length_c   14.08719321
_cell_angle_alpha   90.00000000
_cell_angle_beta   90.00000000
_cell_angle_gamma   104.46600922
_symmetry_Int_Tables_number   1
_chemical_formula_structural   Rb9O2
_chemical_formula_sum   'Rb18 O4'
_cell_volume   1350.84727087
_cell_formula_units_Z   2
loop_
 _symmetry_equiv_pos_site_id
 _symmetry_equiv_pos_as_xyz
  1  'x, y, z'
loop_
 _atom_site_type_symbol
 _atom_site_label
 _atom_site_symmetry_multiplicity
 _atom_site_fract_x
 _atom_site_fract_y
 _atom_site_fract_z
 _atom_site_occupancy
  O  O0  1  0.15638697  0.65662391  0.25000000  1
  O  O1  1  0.84361303  0.34337609  0.75000000  1
  O  O2  1  0.22019590  0.99748622  0.25000000  1
  O  O3  1  0.77980410  0.00251378  0.75000000  1
  Rb  Rb4  1  0.72331553  0.45793938  0.89102719  1
  Rb  Rb5  1  0.27668447  0.54206062  0.39102719  1
  Rb  Rb6  1  0.27668447  0.54206062  0.10897281  1
  Rb  Rb7  1  0.72331553  0.45793938  0.60897281  1
  Rb  Rb8  1  0.94028191  0.18394070  0.87801950  1
  Rb  Rb9  1  0.05971809  0.81605930  0.37801950  1
  Rb  Rb10  1  0.05971809  0.81605930  0.12198050  1
  Rb  Rb11  1  0.94028191  0.18394070  0.62198050  1
  Rb  Rb12  1  0.02887533  0.89383174  0.75000000  1
  Rb  Rb13  1  0.97112467  0.10616826  0.25000000  1
  Rb  Rb14  1  0.14722500  0.49692727  0.75000000  1
  Rb  Rb15  1  0.85277500  0.50307273  0.25000000  1
  Rb  Rb16  1  0.56256718  0.15335849  0.75000000  1
  Rb  Rb17  1  0.43743282  0.84664151  0.25000000  1
  Rb  Rb18  1  0.61086635  0.86313244  0.60921288  1
  Rb  Rb19  1  0.38913365  0.13686756  0.10921288  1
  Rb  Rb20  1  0.38913365  0.13686756  0.39078712  1
  Rb  Rb21  1  0.61086635  0.86313244  0.89078712  1
