# generated using pymatgen
data_Na2SbF5
_symmetry_space_group_name_H-M   'P 1'
_cell_length_a   5.55617192
_cell_length_b   8.24007661
_cell_length_c   11.41802502
_cell_angle_alpha   90.00000000
_cell_angle_beta   90.00000000
_cell_angle_gamma   90.00000000
_symmetry_Int_Tables_number   1
_chemical_formula_structural   Na2SbF5
_chemical_formula_sum   'Na8 Sb4 F20'
_cell_volume   522.75466256
_cell_formula_units_Z   4
loop_
 _symmetry_equiv_pos_site_id
 _symmetry_equiv_pos_as_xyz
  1  'x, y, z'
loop_
 _atom_site_type_symbol
 _atom_site_label
 _atom_site_symmetry_multiplicity
 _atom_site_fract_x
 _atom_site_fract_y
 _atom_site_fract_z
 _atom_site_occupancy
  F  F0  1  0.52215679  0.64856305  0.17761187  1
  F  F1  1  0.02215679  0.35143695  0.32238813  1
  F  F2  1  0.97784321  0.14856305  0.82238813  1
  F  F3  1  0.47784321  0.85143695  0.67761187  1
  F  F4  1  0.36010171  0.75857591  0.96500999  1
  F  F5  1  0.86010171  0.24142409  0.53499001  1
  F  F6  1  0.13989829  0.25857591  0.03499001  1
  F  F7  1  0.63989829  0.74142409  0.46500999  1
  F  F8  1  0.10509533  0.80490408  0.30615676  1
  F  F9  1  0.60509533  0.19509592  0.19384324  1
  F  F10  1  0.39490467  0.30490408  0.69384324  1
  F  F11  1  0.89490467  0.69509592  0.80615676  1
  F  F12  1  0.07268142  0.60418463  0.55151473  1
  F  F13  1  0.57268142  0.39581537  0.94848527  1
  F  F14  1  0.42731858  0.10418463  0.44848527  1
  F  F15  1  0.92731858  0.89581537  0.05151473  1
  F  F16  1  0.93199065  0.88597182  0.62421038  1
  F  F17  1  0.43199065  0.11402818  0.87578962  1
  F  F18  1  0.56800935  0.38597182  0.37578962  1
  F  F19  1  0.06800935  0.61402818  0.12421038  1
  Na  Na20  1  0.67981168  0.10627799  0.68513076  1
  Na  Na21  1  0.17981168  0.89372201  0.81486924  1
  Na  Na22  1  0.82018832  0.60627799  0.31486924  1
  Na  Na23  1  0.32018832  0.39372201  0.18513076  1
  Na  Na24  1  0.26085937  0.85245372  0.48934475  1
  Na  Na25  1  0.76085937  0.14754628  0.01065525  1
  Na  Na26  1  0.23914063  0.35245372  0.51065525  1
  Na  Na27  1  0.73914063  0.64754628  0.98934475  1
  Sb  Sb28  1  0.74774565  0.67462113  0.63424217  1
  Sb  Sb29  1  0.24774565  0.32537887  0.86575783  1
  Sb  Sb30  1  0.75225435  0.17462113  0.36575783  1
  Sb  Sb31  1  0.25225435  0.82537887  0.13424217  1
