# generated using pymatgen
data_YBO3
_symmetry_space_group_name_H-M   'P 1'
_cell_length_a   6.60469848
_cell_length_b   6.59647341
_cell_length_c   8.90402254
_cell_angle_alpha   90.00000000
_cell_angle_beta   90.00000000
_cell_angle_gamma   119.95858576
_symmetry_Int_Tables_number   1
_chemical_formula_structural   YBO3
_chemical_formula_sum   'Y6 B6 O18'
_cell_volume   336.09556474
_cell_formula_units_Z   6
loop_
 _symmetry_equiv_pos_site_id
 _symmetry_equiv_pos_as_xyz
  1  'x, y, z'
loop_
 _atom_site_type_symbol
 _atom_site_label
 _atom_site_symmetry_multiplicity
 _atom_site_fract_x
 _atom_site_fract_y
 _atom_site_fract_z
 _atom_site_occupancy
  B  B0  1  0.09308155  0.76050954  0.50000000  1
  B  B1  1  0.57368157  0.00079830  0.50000000  1
  B  B2  1  0.33336003  0.24224403  0.50000000  1
  B  B3  1  0.33335951  0.09098226  0.00000000  1
  B  B4  1  0.57368271  0.57274808  0.00000000  1
  B  B5  1  0.09307851  0.33243877  0.00000000  1
  O  O6  1  0.55050018  0.33209734  0.00000000  1
  O  O7  1  0.11620997  0.11492744  0.00000000  1
  O  O8  1  0.33337817  0.54861632  0.00000000  1
  O  O9  1  0.33337070  0.78462125  0.50000000  1
  O  O10  1  0.11621146  0.00114912  0.50000000  1
  O  O11  1  0.55049490  0.21826668  0.50000000  1
  O  O12  1  0.98396597  0.33309026  0.85849001  1
  O  O13  1  0.98396597  0.33309026  0.14150999  1
  O  O14  1  0.68281049  0.68252432  0.85849762  1
  O  O15  1  0.68281049  0.68252432  0.14150238  1
  O  O16  1  0.33337174  0.98268661  0.85687589  1
  O  O17  1  0.33337174  0.98268661  0.14312411  1
  O  O18  1  0.33337221  0.35055084  0.35687767  1
  O  O19  1  0.33337221  0.35055084  0.64312233  1
  O  O20  1  0.68280675  1.00014735  0.35849574  1
  O  O21  1  0.68280675  1.00014735  0.64150426  1
  O  O22  1  0.98396706  0.65074137  0.35849046  1
  O  O23  1  0.98396706  0.65074137  0.64150954  1
  Y  Y24  1  0.67478698  0.33732897  0.24999942  1
  Y  Y25  1  0.67478698  0.33732897  0.75000058  1
  Y  Y26  1  0.33337063  0.66662124  0.24999860  1
  Y  Y27  1  0.33337063  0.66662124  0.75000140  1
  Y  Y28  1  0.99194354  0.99590946  0.25000109  1
  Y  Y29  1  0.99194354  0.99590946  0.74999891  1
