# generated using pymatgen
data_Si2H2S3
_symmetry_space_group_name_H-M   'P 1'
_cell_length_a   8.24796817
_cell_length_b   8.24796817
_cell_length_c   9.29560385
_cell_angle_alpha   90.00000000
_cell_angle_beta   90.00000000
_cell_angle_gamma   90.00000000
_symmetry_Int_Tables_number   1
_chemical_formula_structural   Si2H2S3
_chemical_formula_sum   'Si8 H8 S12'
_cell_volume   632.37043848
_cell_formula_units_Z   4
loop_
 _symmetry_equiv_pos_site_id
 _symmetry_equiv_pos_as_xyz
  1  'x, y, z'
loop_
 _atom_site_type_symbol
 _atom_site_label
 _atom_site_symmetry_multiplicity
 _atom_site_fract_x
 _atom_site_fract_y
 _atom_site_fract_z
 _atom_site_occupancy
  H  H0  1  0.38953935  0.83185329  0.71859892  1
  H  H1  1  0.61046065  0.16814671  0.71859892  1
  H  H2  1  0.66814671  0.11046065  0.21859892  1
  H  H3  1  0.16814671  0.38953935  0.28140108  1
  H  H4  1  0.83185329  0.61046065  0.28140108  1
  H  H5  1  0.11046065  0.33185329  0.78140108  1
  H  H6  1  0.88953935  0.66814671  0.78140108  1
  H  H7  1  0.33185329  0.88953935  0.21859892  1
  Si  Si8  1  0.43545626  0.69203693  0.62666210  1
  Si  Si9  1  0.56454374  0.30796307  0.62666210  1
  Si  Si10  1  0.80796307  0.06454374  0.12666210  1
  Si  Si11  1  0.30796307  0.43545626  0.37333790  1
  Si  Si12  1  0.19203693  0.93545626  0.12666210  1
  Si  Si13  1  0.93545626  0.80796307  0.87333790  1
  Si  Si14  1  0.06454374  0.19203693  0.87333790  1
  Si  Si15  1  0.69203693  0.56454374  0.37333790  1
  S  S16  1  0.50000000  0.50000000  0.77225235  1
  S  S17  1  0.50000000  0.50000000  0.22774765  1
  S  S18  1  0.00000000  0.00000000  0.72774765  1
  S  S19  1  0.00000000  0.00000000  0.27225235  1
  S  S20  1  0.63673021  0.77581793  0.49955450  1
  S  S21  1  0.36326979  0.22418207  0.49955450  1
  S  S22  1  0.72418207  0.86326979  -0.00044550  1
  S  S23  1  0.22418207  0.63673021  0.50044550  1
  S  S24  1  0.77581793  0.36326979  0.50044550  1
  S  S25  1  0.86326979  0.27581793  1.00044550  1
  S  S26  1  0.13673021  0.72418207  1.00044550  1
  S  S27  1  0.27581793  0.13673021  -0.00044550  1
