# generated using pymatgen
data_Ca11(ReO6)4
_symmetry_space_group_name_H-M   'P 1'
_cell_length_a   11.11161654
_cell_length_b   11.11161655
_cell_length_c   11.46076144
_cell_angle_alpha   118.99726133
_cell_angle_beta   118.99726135
_cell_angle_gamma   90.00000000
_symmetry_Int_Tables_number   1
_chemical_formula_structural   Ca11(ReO6)4
_chemical_formula_sum   'Ca22 Re8 O48'
_cell_volume   1030.16320856
_cell_formula_units_Z   2
loop_
 _symmetry_equiv_pos_site_id
 _symmetry_equiv_pos_as_xyz
  1  'x, y, z'
loop_
 _atom_site_type_symbol
 _atom_site_label
 _atom_site_symmetry_multiplicity
 _atom_site_fract_x
 _atom_site_fract_y
 _atom_site_fract_z
 _atom_site_occupancy
  O  O0  1  0.47451389  0.76167070  0.15580327  1
  O  O1  1  0.64413258  0.22451389  0.65580327  1
  O  O2  1  0.01167070  0.43128939  0.65580327  1
  O  O3  1  0.68128939  0.39413258  0.15580327  1
  O  O4  1  0.37200029  0.86309562  0.95770965  1
  O  O5  1  0.34461402  0.12200029  0.45770965  1
  O  O6  1  0.11309562  0.33570936  0.45770965  1
  O  O7  1  0.58570936  0.09461402  0.95770965  1
  O  O8  1  0.33024696  0.58556185  0.83112238  1
  O  O9  1  0.49556054  0.08024696  0.33112238  1
  O  O10  1  0.83556185  0.25087543  0.33112238  1
  O  O11  1  0.50087543  0.24556054  0.83112238  1
  O  O12  1  0.88651570  0.16348193  0.54080845  1
  O  O13  1  0.62732652  0.63651570  0.04080845  1
  O  O14  1  0.41348193  0.40429275  0.04080845  1
  O  O15  1  0.65429275  0.37732652  0.54080845  1
  O  O16  1  0.16484361  0.24617849  0.66707839  1
  O  O17  1  0.67089990  0.91484361  0.16707839  1
  O  O18  1  0.49617849  0.25223478  0.16707839  1
  O  O19  1  0.50223478  0.42089990  0.66707839  1
  O  O20  1  0.99021376  0.06535526  0.34491745  1
  O  O21  1  0.52956219  0.74021376  0.84491745  1
  O  O22  1  0.31535526  0.10470369  0.84491745  1
  O  O23  1  0.35470369  0.27956219  0.34491745  1
  O  O24  1  0.93433527  0.62490116  0.27735012  1
  O  O25  1  0.90244896  0.68433527  0.77735012  1
  O  O26  1  0.87490116  0.09301485  0.77735012  1
  O  O27  1  0.34301485  0.65244896  0.27735012  1
  O  O28  1  0.84324437  0.32698835  0.97850119  1
  O  O29  1  0.90151284  0.59324437  0.47850119  1
  O  O30  1  0.12248046  0.41953974  0.21927709  1
  O  O31  1  0.04973735  0.87248046  0.71927709  1
  O  O32  1  0.66953974  0.84679663  0.71927709  1
  O  O33  1  0.09679663  0.79973735  0.21927709  1
  O  O34  1  0.39934438  0.88588770  0.56828010  1
  O  O35  1  0.93239240  0.14934438  0.06828010  1
  O  O36  1  0.13588770  0.91893572  0.06828010  1
  O  O37  1  0.16893572  0.68239240  0.56828010  1
  O  O38  1  0.07014410  0.34507769  0.92378751  1
  O  O39  1  0.82870982  0.82014410  0.42378751  1
  O  O40  1  0.59507769  0.60364341  0.42378751  1
  O  O41  1  0.85364341  0.57870982  0.92378751  1
  O  O42  1  0.14594593  0.16612713  0.01925063  1
  O  O43  1  0.10312350  0.89594593  0.51925063  1
  O  O44  1  0.41612713  0.62330470  0.51925063  1
  O  O45  1  0.87330470  0.85312350  0.01925063  1
  O  O46  1  0.13525682  0.65151284  0.97850119  1
  O  O47  1  0.57698835  0.88525682  0.47850119  1
  Ca  Ca48  1  0.86618489  0.36618489  0.73236979  1
  Ca  Ca49  1  0.61618489  0.61618489  0.23236979  1
  Ca  Ca50  1  0.38246807  0.88246807  0.76493613  1
  Ca  Ca51  1  0.13246807  0.13246807  0.26493613  1
  Ca  Ca52  1  0.17329049  0.67329049  0.34658099  1
  Ca  Ca53  1  0.92329049  0.92329049  0.84658099  1
  Ca  Ca54  1  0.66693013  0.43385153  0.90225101  1
  Ca  Ca55  1  0.71839948  0.41693013  0.40225101  1
  Ca  Ca56  1  0.68385153  0.98532087  0.40225101  1
  Ca  Ca57  1  0.23532087  0.46839948  0.90225101  1
  Ca  Ca58  1  0.76681759  0.03096848  0.09621864  1
  Ca  Ca59  1  0.31525015  0.51681759  0.59621864  1
  Ca  Ca60  1  0.28096848  0.07940105  0.59621864  1
  Ca  Ca61  1  0.32940105  0.06525015  0.09621864  1
  Ca  Ca62  1  0.88122619  0.81353075  0.22783081  1
  Ca  Ca63  1  0.66430006  0.63122619  0.72783081  1
  Ca  Ca64  1  0.06353075  0.09660463  0.72783081  1
  Ca  Ca65  1  0.34660463  0.41430006  0.22783081  1
  Ca  Ca66  1  0.92881029  0.39979717  0.26342969  1
  Ca  Ca67  1  0.11363252  0.67881029  0.76342969  1
  Ca  Ca68  1  0.64979717  0.08461939  0.76342969  1
  Ca  Ca69  1  0.33461939  0.86363252  0.26342969  1
  Re  Re70  1  0.00065464  0.24893136  0.49899940  1
  Re  Re71  1  0.50006804  0.75065464  -0.00100060  1
  Re  Re72  1  0.49893136  0.24834476  -0.00100060  1
  Re  Re73  1  0.49834476  0.25006804  0.49899940  1
  Re  Re74  1  0.99882678  0.74018252  0.99890078  1
  Re  Re75  1  0.50871826  0.74882678  0.49890078  1
  Re  Re76  1  0.99018252  0.75007400  0.49890078  1
  Re  Re77  1  0.00007400  0.25871826  0.99890078  1
