# generated using pymatgen
data_Co(SiP)3
_symmetry_space_group_name_H-M   'P 1'
_cell_length_a   5.72458154
_cell_length_b   5.92612991
_cell_length_c   12.79891460
_cell_angle_alpha   89.89219662
_cell_angle_beta   90.00000000
_cell_angle_gamma   90.00000000
_symmetry_Int_Tables_number   1
_chemical_formula_structural   Co(SiP)3
_chemical_formula_sum   'Co4 Si12 P12'
_cell_volume   434.19746771
_cell_formula_units_Z   4
loop_
 _symmetry_equiv_pos_site_id
 _symmetry_equiv_pos_as_xyz
  1  'x, y, z'
loop_
 _atom_site_type_symbol
 _atom_site_label
 _atom_site_symmetry_multiplicity
 _atom_site_fract_x
 _atom_site_fract_y
 _atom_site_fract_z
 _atom_site_occupancy
  Co  Co0  1  0.53520545  0.99396783  0.87853834  1
  Co  Co1  1  0.03520545  0.00603217  0.12146166  1
  Co  Co2  1  0.96738833  0.48194663  0.61411604  1
  Co  Co3  1  0.46738833  0.51805337  0.38588396  1
  Si  Si4  1  0.52995806  0.17258213  0.31972967  1
  Si  Si5  1  0.02995806  0.82741787  0.68027033  1
  Si  Si6  1  0.56499487  0.62730380  0.22324325  1
  Si  Si7  1  0.06499487  0.37269620  0.77675675  1
  Si  Si8  1  0.16730814  0.92129967  0.95449244  1
  Si  Si9  1  0.66730814  0.07870033  0.04550756  1
  Si  Si10  1  0.59846177  0.52763601  0.67168501  1
  Si  Si11  1  0.09846177  0.47236399  0.32831499  1
  Si  Si12  1  0.49847108  0.06406159  0.57256366  1
  Si  Si13  1  0.99847108  0.93593841  0.42743634  1
  Si  Si14  1  0.58472399  0.63914130  0.92737723  1
  Si  Si15  1  0.08472399  0.36085870  0.07262277  1
  P  P16  1  0.90878068  0.02538475  0.82618075  1
  P  P17  1  0.40878068  0.97461525  0.17381925  1
  P  P18  1  0.98342900  0.56166023  0.92739293  1
  P  P19  1  0.48342900  0.43833977  0.07260707  1
  P  P20  1  0.89367060  0.12502127  0.57360793  1
  P  P21  1  0.39367060  0.87497873  0.42639207  1
  P  P22  1  0.95869494  0.65328571  0.17965555  1
  P  P23  1  0.45869494  0.34671429  0.82034445  1
  P  P24  1  0.92487613  0.13109636  0.27982377  1
  P  P25  1  0.42487613  0.86890364  0.72017623  1
  P  P26  1  0.33713696  0.41475956  0.54907150  1
  P  P27  1  0.83713696  0.58524044  0.45092850  1
