# generated using pymatgen
data_TmCl3
_symmetry_space_group_name_H-M   'P 1'
_cell_length_a   7.13790576
_cell_length_b   7.13790576
_cell_length_c   7.13790576
_cell_angle_alpha   55.59854536
_cell_angle_beta   55.59854534
_cell_angle_gamma   55.59854534
_symmetry_Int_Tables_number   1
_chemical_formula_structural   TmCl3
_chemical_formula_sum   'Tm2 Cl6'
_cell_volume   230.88783950
_cell_formula_units_Z   2
loop_
 _symmetry_equiv_pos_site_id
 _symmetry_equiv_pos_as_xyz
  1  'x, y, z'
loop_
 _atom_site_type_symbol
 _atom_site_label
 _atom_site_symmetry_multiplicity
 _atom_site_fract_x
 _atom_site_fract_y
 _atom_site_fract_z
 _atom_site_occupancy
  Cl  Cl0  1  0.39287670  0.75000000  0.10712330  1
  Cl  Cl1  1  0.75000000  0.10712330  0.39287670  1
  Cl  Cl2  1  0.89287670  0.60712330  0.25000000  1
  Cl  Cl3  1  0.25000000  0.89287670  0.60712330  1
  Cl  Cl4  1  0.60712330  0.25000000  0.89287670  1
  Cl  Cl5  1  0.10712330  0.39287670  0.75000000  1
  Tm  Tm6  1  0.50000000  0.50000000  0.50000000  1
  Tm  Tm7  1  0.00000000  0.00000000  0.00000000  1
