# generated using pymatgen
data_Pr2(ReB2)3
_symmetry_space_group_name_H-M   'P 1'
_cell_length_a   6.34678797
_cell_length_b   6.34678797
_cell_length_c   7.64084139
_cell_angle_alpha   90.55601632
_cell_angle_beta   90.55601630
_cell_angle_gamma   114.84515312
_symmetry_Int_Tables_number   1
_chemical_formula_structural   Pr2(ReB2)3
_chemical_formula_sum   'Pr4 Re6 B12'
_cell_volume   279.25420093
_cell_formula_units_Z   2
loop_
 _symmetry_equiv_pos_site_id
 _symmetry_equiv_pos_as_xyz
  1  'x, y, z'
loop_
 _atom_site_type_symbol
 _atom_site_label
 _atom_site_symmetry_multiplicity
 _atom_site_fract_x
 _atom_site_fract_y
 _atom_site_fract_z
 _atom_site_occupancy
  B  B0  1  0.15281743  0.24288772  0.63238608  1
  B  B1  1  0.75711228  0.84718257  0.86761392  1
  B  B2  1  0.84718257  0.75711228  0.36761392  1
  B  B3  1  0.24288772  0.15281743  0.13238608  1
  B  B4  1  0.15831451  0.58478881  0.98010846  1
  B  B5  1  0.41521119  0.84168549  0.51989154  1
  B  B6  1  0.84168549  0.41521119  0.01989154  1
  B  B7  1  0.58478881  0.15831451  0.48010846  1
  B  B8  1  0.34976284  0.44041931  0.03309739  1
  B  B9  1  0.55958069  0.65023716  0.46690261  1
  B  B10  1  0.65023716  0.55958069  0.96690261  1
  B  B11  1  0.44041931  0.34976284  0.53309739  1
  Pr  Pr12  1  0.44110196  0.09267099  0.82624771  1
  Pr  Pr13  1  0.90732901  0.55889804  0.67375229  1
  Pr  Pr14  1  0.55889804  0.90732901  0.17375229  1
  Pr  Pr15  1  0.09267099  0.44110196  0.32624771  1
  Re  Re16  1  0.41619770  0.58380230  0.75000000  1
  Re  Re17  1  0.58380230  0.41619770  0.25000000  1
  Re  Re18  1  0.80486267  0.98928013  0.58743813  1
  Re  Re19  1  0.01071987  0.19513733  0.91256187  1
  Re  Re20  1  0.19513733  0.01071987  0.41256187  1
  Re  Re21  1  0.98928013  0.80486267  0.08743813  1
