# generated using pymatgen
data_CaMg6Zn
_symmetry_space_group_name_H-M   'P 1'
_cell_length_a   6.56177993
_cell_length_b   6.56177936
_cell_length_c   5.09972197
_cell_angle_alpha   90.00000000
_cell_angle_beta   90.00000000
_cell_angle_gamma   119.72796028
_symmetry_Int_Tables_number   1
_chemical_formula_structural   CaMg6Zn
_chemical_formula_sum   'Ca1 Mg6 Zn1'
_cell_volume   190.67967854
_cell_formula_units_Z   1
loop_
 _symmetry_equiv_pos_site_id
 _symmetry_equiv_pos_as_xyz
  1  'x, y, z'
loop_
 _atom_site_type_symbol
 _atom_site_label
 _atom_site_symmetry_multiplicity
 _atom_site_fract_x
 _atom_site_fract_y
 _atom_site_fract_z
 _atom_site_occupancy
  Ca  Ca0  1  0.17283742  0.32716258  0.25000000  1
  Mg  Mg1  1  0.17594014  0.83916811  0.25000000  1
  Mg  Mg2  1  0.66083189  0.32405986  0.25000000  1
  Mg  Mg3  1  0.66388309  0.83611691  0.25000000  1
  Mg  Mg4  1  0.33861201  0.67996533  0.75000000  1
  Mg  Mg5  1  0.82003467  0.16138799  0.75000000  1
  Mg  Mg6  1  0.83284996  0.66715004  0.75000000  1
  Zn  Zn7  1  0.33501081  0.16498919  0.75000000  1
