# generated using pymatgen
data_La3C2Br3
_symmetry_space_group_name_H-M   'P 1'
_cell_length_a   10.45406569
_cell_length_b   10.45406569
_cell_length_c   17.30637084
_cell_angle_alpha   90.00000000
_cell_angle_beta   90.00000000
_cell_angle_gamma   112.09265422
_symmetry_Int_Tables_number   1
_chemical_formula_structural   La3C2Br3
_chemical_formula_sum   'La24 C16 Br24'
_cell_volume   1752.49950647
_cell_formula_units_Z   8
loop_
 _symmetry_equiv_pos_site_id
 _symmetry_equiv_pos_as_xyz
  1  'x, y, z'
loop_
 _atom_site_type_symbol
 _atom_site_label
 _atom_site_symmetry_multiplicity
 _atom_site_fract_x
 _atom_site_fract_y
 _atom_site_fract_z
 _atom_site_occupancy
  C  C0  1  0.85958311  0.66314946  0.02383572  1
  C  C1  1  0.14041689  0.33685054  0.52383572  1
  C  C2  1  0.66314946  0.85958311  0.97616428  1
  C  C3  1  0.33685054  0.14041689  0.47616428  1
  C  C4  1  0.91340004  0.59971547  0.96824965  1
  C  C5  1  0.08659996  0.40028453  0.46824965  1
  C  C6  1  0.59971547  0.91340004  0.03175035  1
  C  C7  1  0.40028453  0.08659996  0.53175035  1
  C  C8  1  0.71301933  0.27308776  0.65025468  1
  C  C9  1  0.28698067  0.72691224  0.15025468  1
  C  C10  1  0.27308776  0.71301933  0.34974532  1
  C  C11  1  0.72691224  0.28698067  0.84974532  1
  C  C12  1  0.78391313  0.22633950  0.90513640  1
  C  C13  1  0.21608687  0.77366050  0.40513640  1
  C  C14  1  0.22633950  0.78391313  0.09486360  1
  C  C15  1  0.77366050  0.21608687  0.59486360  1
  Br  Br16  1  0.24452497  0.73168897  0.62928908  1
  Br  Br17  1  0.75547503  0.26831103  0.12928908  1
  Br  Br18  1  0.73168897  0.24452497  0.37071092  1
  Br  Br19  1  0.26831103  0.75547503  0.87071092  1
  Br  Br20  1  0.85738731  0.61666490  0.50289192  1
  Br  Br21  1  0.14261269  0.38333510  0.00289192  1
  Br  Br22  1  0.61666490  0.85738731  0.49710808  1
  Br  Br23  1  0.38333510  0.14261269  0.99710808  1
  Br  Br24  1  0.13456284  0.36928714  0.74075437  1
  Br  Br25  1  0.86543716  0.63071286  0.24075437  1
  Br  Br26  1  0.36928714  0.13456284  0.25924563  1
  Br  Br27  1  0.63071286  0.86543716  0.75924563  1
  Br  Br28  1  0.50574380  0.49427561  0.38392771  1
  Br  Br29  1  0.49425620  0.50572439  0.88392771  1
  Br  Br30  1  0.49427561  0.50574380  0.61607229  1
  Br  Br31  1  0.50572439  0.49425620  0.11607229  1
  Br  Br32  1  0.89763755  0.63231133  0.74235779  1
  Br  Br33  1  0.10236245  0.36768867  0.24235779  1
  Br  Br34  1  0.63231133  0.89763755  0.25764221  1
  Br  Br35  1  0.36768867  0.10236245  0.75764221  1
  Br  Br36  1  0.02468577  0.01353048  0.13103017  1
  Br  Br37  1  0.97531423  0.98646952  0.63103017  1
  Br  Br38  1  0.01353048  0.02468577  0.86896983  1
  Br  Br39  1  0.98646952  0.97531423  0.36896983  1
  La  La40  1  0.16514578  0.83485422  0.25000000  1
  La  La41  1  0.83485422  0.16514578  0.75000000  1
  La  La42  1  0.98396984  0.44944760  0.60368304  1
  La  La43  1  0.01603016  0.55055240  0.10368304  1
  La  La44  1  0.44944760  0.98396984  0.39631696  1
  La  La45  1  0.55055240  0.01603016  0.89631696  1
  La  La46  1  0.22500807  0.25243390  0.39522652  1
  La  La47  1  0.77499193  0.74756610  0.89522652  1
  La  La48  1  0.25243390  0.22500807  0.60477348  1
  La  La49  1  0.74756610  0.77499193  0.10477348  1
  La  La50  1  0.60875651  0.32231565  0.51710931  1
  La  La51  1  0.39124349  0.67768435  0.01710931  1
  La  La52  1  0.32231565  0.60875651  0.48289069  1
  La  La53  1  0.67768435  0.39124349  0.98289069  1
  La  La54  1  0.88443537  0.14111945  0.49740195  1
  La  La55  1  0.11556463  0.85888055  0.99740195  1
  La  La56  1  0.14111945  0.88443537  0.50259805  1
  La  La57  1  0.85888055  0.11556463  0.00259805  1
  La  La58  1  0.37525658  0.62474342  0.25000000  1
  La  La59  1  0.62474342  0.37525658  0.75000000  1
  La  La60  1  0.98764731  0.47993627  0.87564903  1
  La  La61  1  0.01235269  0.52006373  0.37564903  1
  La  La62  1  0.47993627  0.98764731  0.12435097  1
  La  La63  1  0.52006373  0.01235269  0.62435097  1
