# generated using pymatgen
data_Mn9(NbGe4)2
_symmetry_space_group_name_H-M   'P 1'
_cell_length_a   5.07321291
_cell_length_b   13.20019117
_cell_length_c   16.03740770
_cell_angle_alpha   90.00000000
_cell_angle_beta   90.00000000
_cell_angle_gamma   90.00000000
_symmetry_Int_Tables_number   1
_chemical_formula_structural   Mn9(NbGe4)2
_chemical_formula_sum   'Mn36 Nb8 Ge32'
_cell_volume   1073.98317980
_cell_formula_units_Z   4
loop_
 _symmetry_equiv_pos_site_id
 _symmetry_equiv_pos_as_xyz
  1  'x, y, z'
loop_
 _atom_site_type_symbol
 _atom_site_label
 _atom_site_symmetry_multiplicity
 _atom_site_fract_x
 _atom_site_fract_y
 _atom_site_fract_z
 _atom_site_occupancy
  Mn  Mn0  1  0.00590837  0.36571485  0.67465924  1
  Mn  Mn1  1  0.50590837  0.63428515  0.32534076  1
  Mn  Mn2  1  0.49409163  0.86571485  0.82534076  1
  Mn  Mn3  1  0.99409163  0.13428515  0.17465924  1
  Mn  Mn4  1  0.99409163  0.63428515  0.32534076  1
  Mn  Mn5  1  0.49409163  0.36571485  0.67465924  1
  Mn  Mn6  1  0.50590837  0.13428515  0.17465924  1
  Mn  Mn7  1  0.00590837  0.86571485  0.82534076  1
  Mn  Mn8  1  0.00144054  0.06056961  0.62190624  1
  Mn  Mn9  1  0.50144054  0.93943039  0.37809376  1
  Mn  Mn10  1  0.49855946  0.56056961  0.87809376  1
  Mn  Mn11  1  0.99855946  0.43943039  0.12190624  1
  Mn  Mn12  1  0.99855946  0.93943039  0.37809376  1
  Mn  Mn13  1  0.49855946  0.06056961  0.62190624  1
  Mn  Mn14  1  0.50144054  0.43943039  0.12190624  1
  Mn  Mn15  1  0.00144054  0.56056961  0.87809376  1
  Mn  Mn16  1  0.75000000  0.06614608  0.80405716  1
  Mn  Mn17  1  0.25000000  0.93385392  0.19594284  1
  Mn  Mn18  1  0.75000000  0.56614608  0.69594284  1
  Mn  Mn19  1  0.25000000  0.43385392  0.30405716  1
  Mn  Mn20  1  0.75000000  0.13541319  0.34181405  1
  Mn  Mn21  1  0.25000000  0.86458681  0.65818595  1
  Mn  Mn22  1  0.75000000  0.63541319  0.15818595  1
  Mn  Mn23  1  0.25000000  0.36458681  0.84181405  1
  Mn  Mn24  1  0.75000000  0.45404367  0.40750183  1
  Mn  Mn25  1  0.25000000  0.54595633  0.59249817  1
  Mn  Mn26  1  0.75000000  0.95404367  0.09249817  1
  Mn  Mn27  1  0.25000000  0.04595633  0.90750183  1
  Mn  Mn28  1  0.75000000  0.12557251  0.00463861  1
  Mn  Mn29  1  0.25000000  0.87442749  0.99536139  1
  Mn  Mn30  1  0.75000000  0.62557251  0.49536139  1
  Mn  Mn31  1  0.25000000  0.37442749  0.50463861  1
  Mn  Mn32  1  0.75000000  0.31123966  0.25135808  1
  Mn  Mn33  1  0.25000000  0.68876034  0.74864192  1
  Mn  Mn34  1  0.75000000  0.81123966  0.24864192  1
  Mn  Mn35  1  0.25000000  0.18876034  0.75135808  1
  Ge  Ge36  1  0.99597770  0.20901811  0.88102846  1
  Ge  Ge37  1  0.49597770  0.79098189  0.11897154  1
  Ge  Ge38  1  0.50402230  0.70901811  0.61897154  1
  Ge  Ge39  1  0.00402230  0.29098189  0.38102846  1
  Ge  Ge40  1  0.00402230  0.79098189  0.11897154  1
  Ge  Ge41  1  0.50402230  0.20901811  0.88102846  1
  Ge  Ge42  1  0.49597770  0.29098189  0.38102846  1
  Ge  Ge43  1  0.99597770  0.70901811  0.61897154  1
  Ge  Ge44  1  0.75000000  0.20519158  0.69687368  1
  Ge  Ge45  1  0.25000000  0.79480842  0.30312632  1
  Ge  Ge46  1  0.75000000  0.70519158  0.80312632  1
  Ge  Ge47  1  0.25000000  0.29480842  0.19687368  1
  Ge  Ge48  1  0.75000000  0.41697349  0.80005605  1
  Ge  Ge49  1  0.25000000  0.58302651  0.19994395  1
  Ge  Ge50  1  0.75000000  0.91697349  0.69994395  1
  Ge  Ge51  1  0.25000000  0.08302651  0.30005605  1
  Ge  Ge52  1  0.75000000  0.05407291  0.48263986  1
  Ge  Ge53  1  0.25000000  0.94592709  0.51736014  1
  Ge  Ge54  1  0.75000000  0.55407291  0.01736014  1
  Ge  Ge55  1  0.25000000  0.44592709  0.98263986  1
  Ge  Ge56  1  0.75000000  0.45363046  0.56432536  1
  Ge  Ge57  1  0.25000000  0.54636954  0.43567464  1
  Ge  Ge58  1  0.75000000  0.95363046  0.93567464  1
  Ge  Ge59  1  0.25000000  0.04636954  0.06432536  1
  Ge  Ge60  1  0.75000000  0.27120092  0.10257234  1
  Ge  Ge61  1  0.25000000  0.72879908  0.89742766  1
  Ge  Ge62  1  0.75000000  0.77120092  0.39742766  1
  Ge  Ge63  1  0.25000000  0.22879908  0.60257234  1
  Ge  Ge64  1  0.75000000  0.49339702  0.25622855  1
  Ge  Ge65  1  0.25000000  0.50660298  0.74377145  1
  Ge  Ge66  1  0.75000000  0.99339702  0.24377145  1
  Ge  Ge67  1  0.25000000  0.00660298  0.75622855  1
  Nb  Nb68  1  0.75000000  0.36371969  0.95786292  1
  Nb  Nb69  1  0.25000000  0.63628031  0.04213708  1
  Nb  Nb70  1  0.75000000  0.86371969  0.54213708  1
  Nb  Nb71  1  0.25000000  0.13628031  0.45786292  1
  Nb  Nb72  1  0.75000000  0.25029547  0.52778526  1
  Nb  Nb73  1  0.25000000  0.74970453  0.47221474  1
  Nb  Nb74  1  0.75000000  0.75029547  0.97221474  1
  Nb  Nb75  1  0.25000000  0.24970453  0.02778526  1
