# generated using pymatgen
data_NaMg6Al
_symmetry_space_group_name_H-M   'P 1'
_cell_length_a   6.43165356
_cell_length_b   6.39099802
_cell_length_c   5.11331734
_cell_angle_alpha   90.00000000
_cell_angle_beta   90.00000000
_cell_angle_gamma   119.79112238
_symmetry_Int_Tables_number   1
_chemical_formula_structural   NaMg6Al
_chemical_formula_sum   'Na1 Mg6 Al1'
_cell_volume   182.40425313
_cell_formula_units_Z   1
loop_
 _symmetry_equiv_pos_site_id
 _symmetry_equiv_pos_as_xyz
  1  'x, y, z'
loop_
 _atom_site_type_symbol
 _atom_site_label
 _atom_site_symmetry_multiplicity
 _atom_site_fract_x
 _atom_site_fract_y
 _atom_site_fract_z
 _atom_site_occupancy
  Na  Na0  1  0.16611600  0.83305750  0.25000000  1
  Mg  Mg1  1  0.66665230  0.33533957  0.25000000  1
  Mg  Mg2  1  0.66665230  0.83131173  0.25000000  1
  Mg  Mg3  1  0.33213836  0.17152248  0.75000000  1
  Mg  Mg4  1  0.33213836  0.66061688  0.75000000  1
  Mg  Mg5  1  0.83706518  0.16853309  0.75000000  1
  Mg  Mg6  1  0.82972948  0.66486524  0.75000000  1
  Al  Al7  1  0.16950804  0.33475352  0.25000000  1
