# generated using pymatgen
data_Ba4Si3Br2
_symmetry_space_group_name_H-M   'P 1'
_cell_length_a   8.90485253
_cell_length_b   8.97138872
_cell_length_c   15.25587037
_cell_angle_alpha   90.00000000
_cell_angle_beta   101.94118308
_cell_angle_gamma   90.00000000
_symmetry_Int_Tables_number   1
_chemical_formula_structural   Ba4Si3Br2
_chemical_formula_sum   'Ba16 Si12 Br8'
_cell_volume   1192.40095172
_cell_formula_units_Z   4
loop_
 _symmetry_equiv_pos_site_id
 _symmetry_equiv_pos_as_xyz
  1  'x, y, z'
loop_
 _atom_site_type_symbol
 _atom_site_label
 _atom_site_symmetry_multiplicity
 _atom_site_fract_x
 _atom_site_fract_y
 _atom_site_fract_z
 _atom_site_occupancy
  Si  Si0  1  0.26072119  0.06489336  0.91233642  1
  Si  Si1  1  0.23927881  0.56489336  0.08766358  1
  Si  Si2  1  0.73927881  0.93510664  0.08766358  1
  Si  Si3  1  0.76072119  0.43510664  0.91233642  1
  Si  Si4  1  0.50787333  0.43242960  0.81534005  1
  Si  Si5  1  0.99212667  0.93242960  0.18465995  1
  Si  Si6  1  0.49212667  0.56757040  0.18465995  1
  Si  Si7  1  0.00787333  0.06757040  0.81534005  1
  Si  Si8  1  0.69748104  0.63003048  0.80221127  1
  Si  Si9  1  0.80251896  0.13003048  0.19778873  1
  Si  Si10  1  0.30251896  0.36996952  0.19778873  1
  Si  Si11  1  0.19748104  0.86996952  0.80221127  1
  Br  Br12  1  0.36577975  0.35928961  0.50748184  1
  Br  Br13  1  0.13422025  0.85928961  0.49251816  1
  Br  Br14  1  0.63422025  0.64071039  0.49251816  1
  Br  Br15  1  0.86577975  0.14071039  0.50748184  1
  Br  Br16  1  0.05355336  0.49340070  0.63698530  1
  Br  Br17  1  0.44644664  0.99340070  0.36301470  1
  Br  Br18  1  0.94644664  0.50659930  0.36301470  1
  Br  Br19  1  0.55355336  0.00659930  0.63698530  1
  Ba  Ba20  1  0.47880272  0.71111783  0.95543053  1
  Ba  Ba21  1  0.02119728  0.21111783  0.04456947  1
  Ba  Ba22  1  0.52119728  0.28888217  0.04456947  1
  Ba  Ba23  1  0.97880272  0.78888217  0.95543053  1
  Ba  Ba24  1  0.26572111  0.66171561  0.33069217  1
  Ba  Ba25  1  0.23427889  0.16171561  0.66930783  1
  Ba  Ba26  1  0.73427889  0.33828439  0.66930783  1
  Ba  Ba27  1  0.76572111  0.83828439  0.33069217  1
  Ba  Ba28  1  0.62933810  0.06195728  0.85428964  1
  Ba  Ba29  1  0.87066190  0.56195728  0.14571036  1
  Ba  Ba30  1  0.37066190  0.93804272  0.14571036  1
  Ba  Ba31  1  0.12933810  0.43804272  0.85428964  1
  Ba  Ba32  1  0.38152993  0.67802863  0.65382904  1
  Ba  Ba33  1  0.11847007  0.17802863  0.34617096  1
  Ba  Ba34  1  0.61847007  0.32197137  0.34617096  1
  Ba  Ba35  1  0.88152993  0.82197137  0.65382904  1
