# generated using pymatgen
data_Zr5P7Pd9
_symmetry_space_group_name_H-M   'P 1'
_cell_length_a   3.86210928
_cell_length_b   6.53469584
_cell_length_c   13.69095479
_cell_angle_alpha   103.80688267
_cell_angle_beta   90.00000000
_cell_angle_gamma   90.00000000
_symmetry_Int_Tables_number   1
_chemical_formula_structural   Zr5P7Pd9
_chemical_formula_sum   'Zr5 P7 Pd9'
_cell_volume   335.54451162
_cell_formula_units_Z   1
loop_
 _symmetry_equiv_pos_site_id
 _symmetry_equiv_pos_as_xyz
  1  'x, y, z'
loop_
 _atom_site_type_symbol
 _atom_site_label
 _atom_site_symmetry_multiplicity
 _atom_site_fract_x
 _atom_site_fract_y
 _atom_site_fract_z
 _atom_site_occupancy
  P  P0  1  0.50000000  0.02923971  0.28792036  1
  P  P1  1  0.00000000  0.87865780  0.00000000  1
  P  P2  1  0.00000000  0.17835897  0.57209019  1
  P  P3  1  0.00000000  0.60626878  0.42790981  1
  P  P4  1  0.50000000  0.31097333  0.86300719  1
  P  P5  1  0.50000000  0.74131935  0.71207964  1
  P  P6  1  0.50000000  0.44796615  0.13699281  1
  Zr  Zr7  1  0.50000000  0.45027433  0.54340920  1
  Zr  Zr8  1  0.50000000  0.90686513  0.45659080  1
  Zr  Zr9  1  0.00000000  0.47815397  0.00000000  1
  Zr  Zr10  1  0.00000000  0.00489323  0.82266369  1
  Zr  Zr11  1  0.00000000  0.18222955  0.17733631  1
  Pd  Pd12  1  0.00000000  0.49721163  0.72345390  1
  Pd  Pd13  1  0.00000000  0.77375773  0.27654610  1
  Pd  Pd14  1  0.50000000  0.12395629  0.00000000  1
  Pd  Pd15  1  0.00000000  0.81090818  0.60645772  1
  Pd  Pd16  1  0.50000000  0.45279216  0.31736900  1
  Pd  Pd17  1  0.50000000  0.13542316  0.68263100  1
  Pd  Pd18  1  0.50000000  0.80402479  0.11654947  1
  Pd  Pd19  1  0.50000000  0.68747531  0.88345053  1
  Pd  Pd20  1  0.00000000  0.20445046  0.39354228  1
