# generated using pymatgen
data_Li4TaN3
_symmetry_space_group_name_H-M   'P 1'
_cell_length_a   4.93480200
_cell_length_b   9.76477500
_cell_length_c   14.21574700
_cell_angle_alpha   90.00000000
_cell_angle_beta   90.00000000
_cell_angle_gamma   90.00000000
_symmetry_Int_Tables_number   1
_chemical_formula_structural   Li4TaN3
_chemical_formula_sum   'Li32 Ta8 N24'
_cell_volume   685.01748736
_cell_formula_units_Z   8
loop_
 _symmetry_equiv_pos_site_id
 _symmetry_equiv_pos_as_xyz
  1  'x, y, z'
loop_
 _atom_site_type_symbol
 _atom_site_label
 _atom_site_symmetry_multiplicity
 _atom_site_fract_x
 _atom_site_fract_y
 _atom_site_fract_z
 _atom_site_occupancy
  Li  Li0  1  0.77370700  0.71426100  0.16478300  1
  Li  Li1  1  0.77370700  0.78573900  0.83521700  1
  Li  Li2  1  0.22629300  0.71426100  0.33521700  1
  Li  Li3  1  0.22629300  0.78573900  0.66478300  1
  Li  Li4  1  0.72629300  0.78573900  0.33521700  1
  Li  Li5  1  0.72629300  0.71426100  0.66478300  1
  Li  Li6  1  0.27370700  0.78573900  0.16478300  1
  Li  Li7  1  0.27370700  0.71426100  0.83521700  1
  Li  Li8  1  0.75000000  0.00000000  0.47570000  1
  Li  Li9  1  0.25000000  0.00000000  0.02430000  1
  Li  Li10  1  0.75000000  0.50000000  0.02430000  1
  Li  Li11  1  0.25000000  0.50000000  0.47570000  1
  Li  Li12  1  0.15467800  0.75000000  0.50000000  1
  Li  Li13  1  0.84532200  0.75000000  0.00000000  1
  Li  Li14  1  0.34532200  0.75000000  0.00000000  1
  Li  Li15  1  0.65467800  0.75000000  0.50000000  1
  Li  Li16  1  0.27370700  0.21426200  0.66478300  1
  Li  Li17  1  0.27370700  0.28573800  0.33521700  1
  Li  Li18  1  0.72629300  0.21426200  0.83521700  1
  Li  Li19  1  0.72629300  0.28573800  0.16478300  1
  Li  Li20  1  0.22629300  0.28573800  0.83521700  1
  Li  Li21  1  0.22629300  0.21426200  0.16478300  1
  Li  Li22  1  0.77370700  0.28573800  0.66478300  1
  Li  Li23  1  0.77370700  0.21426200  0.33521700  1
  Li  Li24  1  0.25000000  0.50000000  0.97570000  1
  Li  Li25  1  0.75000000  0.50000000  0.52430000  1
  Li  Li26  1  0.25000000  0.00000000  0.52430000  1
  Li  Li27  1  0.75000000  0.00000000  0.97570000  1
  Li  Li28  1  0.65467800  0.25000000  0.00000000  1
  Li  Li29  1  0.34532200  0.25000000  0.50000000  1
  Li  Li30  1  0.84532200  0.25000000  0.50000000  1
  Li  Li31  1  0.15467800  0.25000000  0.00000000  1
  Ta  Ta32  1  0.25000000  0.50000000  0.16933300  1
  Ta  Ta33  1  0.75000000  0.50000000  0.33066700  1
  Ta  Ta34  1  0.25000000  0.00000000  0.33066700  1
  Ta  Ta35  1  0.75000000  0.00000000  0.16933300  1
  Ta  Ta36  1  0.75000000  0.00000000  0.66933300  1
  Ta  Ta37  1  0.25000000  0.00000000  0.83066700  1
  Ta  Ta38  1  0.75000000  0.50000000  0.83066700  1
  Ta  Ta39  1  0.25000000  0.50000000  0.66933300  1
  N  N40  1  0.50000000  0.61546300  0.25000000  1
  N  N41  1  0.00000000  0.38453700  0.25000000  1
  N  N42  1  0.00000000  0.88453700  0.25000000  1
  N  N43  1  0.50000000  0.11546300  0.25000000  1
  N  N44  1  0.93098600  0.87461100  0.58646400  1
  N  N45  1  0.93098600  0.62538900  0.41353600  1
  N  N46  1  0.06901400  0.87461100  0.91353600  1
  N  N47  1  0.06901400  0.62538900  0.08646400  1
  N  N48  1  0.56901400  0.62538900  0.91353600  1
  N  N49  1  0.56901400  0.87461100  0.08646400  1
  N  N50  1  0.43098600  0.62538900  0.58646400  1
  N  N51  1  0.43098600  0.87461100  0.41353600  1
  N  N52  1  0.00000000  0.11546300  0.75000000  1
  N  N53  1  0.50000000  0.88453700  0.75000000  1
  N  N54  1  0.50000000  0.38453700  0.75000000  1
  N  N55  1  0.00000000  0.61546300  0.75000000  1
  N  N56  1  0.43098600  0.37461100  0.08646400  1
  N  N57  1  0.43098600  0.12538900  0.91353600  1
  N  N58  1  0.56901400  0.37461100  0.41353600  1
  N  N59  1  0.56901400  0.12538900  0.58646400  1
  N  N60  1  0.06901400  0.12538900  0.41353600  1
  N  N61  1  0.06901400  0.37461100  0.58646400  1
  N  N62  1  0.93098600  0.12538900  0.08646400  1
  N  N63  1  0.93098600  0.37461100  0.91353600  1
