# generated using pymatgen
data_La2Al2I
_symmetry_space_group_name_H-M   'P 1'
_cell_length_a   4.40002668
_cell_length_b   4.40002668
_cell_length_c   17.70004320
_cell_angle_alpha   90.00000000
_cell_angle_beta   90.00000000
_cell_angle_gamma   120.00000001
_symmetry_Int_Tables_number   1
_chemical_formula_structural   La2Al2I
_chemical_formula_sum   'La4 Al4 I2'
_cell_volume   296.76698024
_cell_formula_units_Z   2
loop_
 _symmetry_equiv_pos_site_id
 _symmetry_equiv_pos_as_xyz
  1  'x, y, z'
loop_
 _atom_site_type_symbol
 _atom_site_label
 _atom_site_symmetry_multiplicity
 _atom_site_fract_x
 _atom_site_fract_y
 _atom_site_fract_z
 _atom_site_occupancy
  Al  Al0  1  0.66666667  0.33333333  0.49383919  1
  Al  Al1  1  0.33333333  0.66666667  0.99383919  1
  Al  Al2  1  0.33333333  0.66666667  0.50616081  1
  Al  Al3  1  0.66666667  0.33333333  0.00616081  1
  I  I4  1  0.33333333  0.66666667  0.25000000  1
  I  I5  1  0.66666667  0.33333333  0.75000000  1
  La  La6  1  0.00000000  0.00000000  0.38080962  1
  La  La7  1  0.00000000  0.00000000  0.88080962  1
  La  La8  1  0.00000000  0.00000000  0.61919038  1
  La  La9  1  0.00000000  0.00000000  0.11919038  1
