# generated using pymatgen
data_Te4Pd9
_symmetry_space_group_name_H-M   'P 1'
_cell_length_a   7.56321597
_cell_length_b   9.03858189
_cell_length_c   14.18898312
_cell_angle_alpha   90.00000000
_cell_angle_beta   90.00000000
_cell_angle_gamma   91.62765166
_symmetry_Int_Tables_number   1
_chemical_formula_structural   Te4Pd9
_chemical_formula_sum   'Te16 Pd36'
_cell_volume   969.57812462
_cell_formula_units_Z   4
loop_
 _symmetry_equiv_pos_site_id
 _symmetry_equiv_pos_as_xyz
  1  'x, y, z'
loop_
 _atom_site_type_symbol
 _atom_site_label
 _atom_site_symmetry_multiplicity
 _atom_site_fract_x
 _atom_site_fract_y
 _atom_site_fract_z
 _atom_site_occupancy
  Pd  Pd0  1  0.79336705  0.89505744  0.67818521  1
  Pd  Pd1  1  0.20663295  0.60494256  0.17818521  1
  Pd  Pd2  1  0.20663295  0.10494256  0.32181479  1
  Pd  Pd3  1  0.79336705  0.39505744  0.82181479  1
  Pd  Pd4  1  0.72375124  0.82565644  0.30593547  1
  Pd  Pd5  1  0.27624876  0.67434356  0.80593547  1
  Pd  Pd6  1  0.27624876  0.17434356  0.69406453  1
  Pd  Pd7  1  0.72375124  0.32565644  0.19406453  1
  Pd  Pd8  1  0.96075321  0.61179541  0.93754172  1
  Pd  Pd9  1  0.03924679  0.88820459  0.43754172  1
  Pd  Pd10  1  0.03924679  0.38820459  0.06245828  1
  Pd  Pd11  1  0.96075321  0.11179541  0.56245828  1
  Pd  Pd12  1  0.88982277  0.64296527  0.54802459  1
  Pd  Pd13  1  0.11017723  0.85703473  0.04802459  1
  Pd  Pd14  1  0.11017723  0.35703473  0.45197541  1
  Pd  Pd15  1  0.88982277  0.14296527  0.95197541  1
  Pd  Pd16  1  0.98392781  0.60821502  0.34947889  1
  Pd  Pd17  1  0.01607219  0.89178498  0.84947889  1
  Pd  Pd18  1  0.01607219  0.39178498  0.65052111  1
  Pd  Pd19  1  0.98392781  0.10821502  0.15052111  1
  Pd  Pd20  1  0.83082230  0.63881843  0.13987291  1
  Pd  Pd21  1  0.16917770  0.86118157  0.63987291  1
  Pd  Pd22  1  0.16917770  0.36118157  0.86012709  1
  Pd  Pd23  1  0.83082230  0.13881843  0.36012709  1
  Pd  Pd24  1  0.65538499  0.70166036  0.83011795  1
  Pd  Pd25  1  0.34461501  0.79833964  0.33011795  1
  Pd  Pd26  1  0.34461501  0.29833964  0.16988205  1
  Pd  Pd27  1  0.65538499  0.20166036  0.66988205  1
  Pd  Pd28  1  0.50026666  0.69188544  0.63191742  1
  Pd  Pd29  1  0.49973334  0.80811456  0.13191742  1
  Pd  Pd30  1  0.49973334  0.30811456  0.36808258  1
  Pd  Pd31  1  0.50026666  0.19188544  0.86808258  1
  Pd  Pd32  1  0.58517141  0.60630005  0.43535740  1
  Pd  Pd33  1  0.41482859  0.89369995  0.93535740  1
  Pd  Pd34  1  0.41482859  0.39369995  0.56464260  1
  Pd  Pd35  1  0.58517141  0.10630005  0.06464260  1
  Te  Te36  1  0.75382196  0.85302646  0.99596097  1
  Te  Te37  1  0.24617804  0.64697354  0.49596097  1
  Te  Te38  1  0.24617804  0.14697354  0.00403903  1
  Te  Te39  1  0.75382196  0.35302646  0.50403903  1
  Te  Te40  1  0.70306684  0.88833688  0.49497830  1
  Te  Te41  1  0.29693316  0.61166312  0.99497830  1
  Te  Te42  1  0.29693316  0.11166312  0.50502170  1
  Te  Te43  1  0.70306684  0.38833688  0.00502170  1
  Te  Te44  1  0.95203872  0.64180032  0.73739522  1
  Te  Te45  1  0.04796128  0.85819968  0.23739522  1
  Te  Te46  1  0.04796128  0.35819968  0.26260478  1
  Te  Te47  1  0.95203872  0.14180032  0.76260478  1
  Te  Te48  1  0.53890957  0.56777439  0.24823698  1
  Te  Te49  1  0.46109043  0.93222561  0.74823698  1
  Te  Te50  1  0.46109043  0.43222561  0.75176302  1
  Te  Te51  1  0.53890957  0.06777439  0.25176302  1
