# generated using pymatgen
data_Ag3PSe4
_symmetry_space_group_name_H-M   'P 1'
_cell_length_a   6.93602297
_cell_length_b   7.26074048
_cell_length_c   8.21613965
_cell_angle_alpha   90.00000000
_cell_angle_beta   90.00000000
_cell_angle_gamma   90.00000000
_symmetry_Int_Tables_number   1
_chemical_formula_structural   Ag3PSe4
_chemical_formula_sum   'Ag6 P2 Se8'
_cell_volume   413.77023801
_cell_formula_units_Z   2
loop_
 _symmetry_equiv_pos_site_id
 _symmetry_equiv_pos_as_xyz
  1  'x, y, z'
loop_
 _atom_site_type_symbol
 _atom_site_label
 _atom_site_symmetry_multiplicity
 _atom_site_fract_x
 _atom_site_fract_y
 _atom_site_fract_z
 _atom_site_occupancy
  P  P0  1  0.99577254  0.31721732  0.50000000  1
  P  P1  1  0.49577254  0.68278268  0.00000000  1
  Se  Se2  1  0.89226565  0.16514917  0.72586742  1
  Se  Se3  1  0.39226565  0.83485083  0.77413258  1
  Se  Se4  1  0.37274310  0.39520945  0.00000000  1
  Se  Se5  1  0.87274310  0.60479055  0.50000000  1
  Se  Se6  1  0.39226565  0.83485083  0.22586742  1
  Se  Se7  1  0.89226565  0.16514917  0.27413258  1
  Se  Se8  1  0.32093122  0.31050685  0.50000000  1
  Se  Se9  1  0.82093122  0.68949315  0.00000000  1
  Ag  Ag10  1  0.01413162  0.81221943  0.26147798  1
  Ag  Ag11  1  0.51413162  0.18778057  0.23852202  1
  Ag  Ag12  1  0.51413162  0.18778057  0.76147798  1
  Ag  Ag13  1  0.01413162  0.81221943  0.73852202  1
  Ag  Ag14  1  0.98384860  0.35602677  0.00000000  1
  Ag  Ag15  1  0.48384860  0.64397323  0.50000000  1
