# generated using pymatgen
data_Tb2Se2O7
_symmetry_space_group_name_H-M   'P 1'
_cell_length_a   5.28585827
_cell_length_b   10.70874342
_cell_length_c   10.70874342
_cell_angle_alpha   90.00000000
_cell_angle_beta   90.00000000
_cell_angle_gamma   90.00000000
_symmetry_Int_Tables_number   1
_chemical_formula_structural   Tb2Se2O7
_chemical_formula_sum   'Tb8 Se8 O28'
_cell_volume   606.16735007
_cell_formula_units_Z   4
loop_
 _symmetry_equiv_pos_site_id
 _symmetry_equiv_pos_as_xyz
  1  'x, y, z'
loop_
 _atom_site_type_symbol
 _atom_site_label
 _atom_site_symmetry_multiplicity
 _atom_site_fract_x
 _atom_site_fract_y
 _atom_site_fract_z
 _atom_site_occupancy
  O  O0  1  0.12809763  0.68030457  0.00276863  1
  O  O1  1  0.12809763  0.81969543  0.49723137  1
  O  O2  1  0.62809763  0.00276863  0.81969543  1
  O  O3  1  0.62809763  0.49723137  0.68030457  1
  O  O4  1  0.87190237  0.50276863  0.18030457  1
  O  O5  1  0.37190237  0.31969543  0.50276863  1
  O  O6  1  0.37190237  0.18030457  0.99723137  1
  O  O7  1  0.87190237  0.99723137  0.31969543  1
  O  O8  1  0.87190237  0.31969543  0.99723137  1
  O  O9  1  0.87190237  0.18030457  0.50276863  1
  O  O10  1  0.37190237  0.99723137  0.18030457  1
  O  O11  1  0.37190237  0.50276863  0.31969543  1
  O  O12  1  0.12809763  0.49723137  0.81969543  1
  O  O13  1  0.62809763  0.68030457  0.49723137  1
  O  O14  1  0.62809763  0.81969543  0.00276863  1
  O  O15  1  0.12809763  0.00276863  0.68030457  1
  O  O16  1  0.75000000  0.75000000  0.25000000  1
  O  O17  1  0.25000000  0.25000000  0.75000000  1
  O  O18  1  0.75000000  0.25000000  0.75000000  1
  O  O19  1  0.25000000  0.75000000  0.25000000  1
  O  O20  1  0.80976162  0.06418454  0.06418454  1
  O  O21  1  0.30976162  0.43581546  0.06418454  1
  O  O22  1  0.30976162  0.06418454  0.43581546  1
  O  O23  1  0.80976162  0.43581546  0.43581546  1
  O  O24  1  0.69023838  0.56418454  0.93581546  1
  O  O25  1  0.69023838  0.93581546  0.56418454  1
  O  O26  1  0.19023838  0.56418454  0.56418454  1
  O  O27  1  0.19023838  0.93581546  0.93581546  1
  Se  Se28  1  0.46395786  0.87227522  0.87227522  1
  Se  Se29  1  0.46395786  0.62772478  0.62772478  1
  Se  Se30  1  0.96395786  0.87227522  0.62772478  1
  Se  Se31  1  0.96395786  0.62772478  0.87227522  1
  Se  Se32  1  0.53604214  0.37227522  0.37227522  1
  Se  Se33  1  0.03604214  0.12772478  0.37227522  1
  Se  Se34  1  0.03604214  0.37227522  0.12772478  1
  Se  Se35  1  0.53604214  0.12772478  0.12772478  1
  Tb  Tb36  1  0.00000000  0.62822299  0.37177701  1
  Tb  Tb37  1  0.50000000  0.12822299  0.62822299  1
  Tb  Tb38  1  0.50000000  0.37177701  0.87177701  1
  Tb  Tb39  1  0.00000000  0.87177701  0.12822299  1
  Tb  Tb40  1  0.00000000  0.37177701  0.62822299  1
  Tb  Tb41  1  0.50000000  0.87177701  0.37177701  1
  Tb  Tb42  1  0.50000000  0.62822299  0.12822299  1
  Tb  Tb43  1  0.00000000  0.12822299  0.87177701  1
