# generated using pymatgen
data_K6Tl2Sb3
_symmetry_space_group_name_H-M   'P 1'
_cell_length_a   10.05514666
_cell_length_b   10.05514666
_cell_length_c   20.04402133
_cell_angle_alpha   97.03368327
_cell_angle_beta   97.03368327
_cell_angle_gamma   119.49550362
_symmetry_Int_Tables_number   1
_chemical_formula_structural   K6Tl2Sb3
_chemical_formula_sum   'K24 Tl8 Sb12'
_cell_volume   1711.02009667
_cell_formula_units_Z   4
loop_
 _symmetry_equiv_pos_site_id
 _symmetry_equiv_pos_as_xyz
  1  'x, y, z'
loop_
 _atom_site_type_symbol
 _atom_site_label
 _atom_site_symmetry_multiplicity
 _atom_site_fract_x
 _atom_site_fract_y
 _atom_site_fract_z
 _atom_site_occupancy
  K  K0  1  0.66373355  0.51447066  0.94580525  1
  K  K1  1  0.48552934  0.33626645  0.55419475  1
  K  K2  1  0.33626645  0.48552934  0.05419475  1
  K  K3  1  0.51447066  0.66373355  0.44580525  1
  K  K4  1  0.32795096  0.78327349  0.94641517  1
  K  K5  1  0.21672651  0.67204904  0.55358483  1
  K  K6  1  0.67204904  0.21672651  0.05358483  1
  K  K7  1  0.78327349  0.32795096  0.44641517  1
  K  K8  1  0.92430654  0.41229397  0.82240409  1
  K  K9  1  0.58770603  0.07569346  0.67759591  1
  K  K10  1  0.07569346  0.58770603  0.17759591  1
  K  K11  1  0.41229397  0.92430654  0.32240409  1
  K  K12  1  0.58694270  0.75638710  0.82248933  1
  K  K13  1  0.24361290  0.41305730  0.67751067  1
  K  K14  1  0.41305730  0.24361290  0.17751067  1
  K  K15  1  0.75638710  0.58694270  0.32248933  1
  K  K16  1  0.06191936  0.87456597  0.05431772  1
  K  K17  1  0.12543403  0.93808064  0.44568228  1
  K  K18  1  0.93808064  0.12543403  0.94568228  1
  K  K19  1  0.87456597  0.06191936  0.55431772  1
  K  K20  1  0.97638809  0.02361191  0.75000000  1
  K  K21  1  0.02361191  0.97638809  0.25000000  1
  K  K22  1  0.20013384  0.79986616  0.75000000  1
  K  K23  1  0.79986616  0.20013384  0.25000000  1
  Sb  Sb24  1  0.27247985  0.39509983  0.86191723  1
  Sb  Sb25  1  0.60490017  0.72752015  0.63808277  1
  Sb  Sb26  1  0.72752015  0.60490017  0.13808277  1
  Sb  Sb27  1  0.39509983  0.27247985  0.36191723  1
  Sb  Sb28  1  0.21031038  0.03283876  0.63055173  1
  Sb  Sb29  1  0.96716124  0.78968962  0.86944827  1
  Sb  Sb30  1  0.78968962  0.96716124  0.36944827  1
  Sb  Sb31  1  0.03283876  0.21031038  0.13055173  1
  Sb  Sb32  1  0.57164354  0.11283044  0.86491798  1
  Sb  Sb33  1  0.88716956  0.42835646  0.63508202  1
  Sb  Sb34  1  0.42835646  0.88716956  0.13508202  1
  Sb  Sb35  1  0.11283044  0.57164354  0.36491798  1
  Tl  Tl36  1  0.29461966  0.12472461  0.92920464  1
  Tl  Tl37  1  0.87527539  0.70538034  0.57079536  1
  Tl  Tl38  1  0.70538034  0.87527539  0.07079536  1
  Tl  Tl39  1  0.12472461  0.29461966  0.42920464  1
  Tl  Tl40  1  0.43898358  0.26785485  0.77227094  1
  Tl  Tl41  1  0.73214515  0.56101642  0.72772906  1
  Tl  Tl42  1  0.56101642  0.73214515  0.22772906  1
  Tl  Tl43  1  0.26785485  0.43898358  0.27227094  1
