# generated using pymatgen
data_Ce3SiPd5
_symmetry_space_group_name_H-M   'P 1'
_cell_length_a   7.33071781
_cell_length_b   7.57699557
_cell_length_c   8.39489013
_cell_angle_alpha   116.82623308
_cell_angle_beta   115.88828512
_cell_angle_gamma   90.00000003
_symmetry_Int_Tables_number   1
_chemical_formula_structural   Ce3SiPd5
_chemical_formula_sum   'Ce6 Si2 Pd10'
_cell_volume   362.90200105
_cell_formula_units_Z   2
loop_
 _symmetry_equiv_pos_site_id
 _symmetry_equiv_pos_as_xyz
  1  'x, y, z'
loop_
 _atom_site_type_symbol
 _atom_site_label
 _atom_site_symmetry_multiplicity
 _atom_site_fract_x
 _atom_site_fract_y
 _atom_site_fract_z
 _atom_site_occupancy
  Si  Si0  1  0.75000000  0.21745696  0.00000000  1
  Si  Si1  1  0.25000000  0.78254304  0.00000000  1
  Pd  Pd2  1  0.90257105  0.54218684  0.71013319  1
  Pd  Pd3  1  0.69243786  0.45781316  0.28986681  1
  Pd  Pd4  1  0.59742895  0.83205365  0.28986681  1
  Pd  Pd5  1  0.80756214  0.16794635  0.71013319  1
  Pd  Pd6  1  0.00000000  0.00000000  0.00000000  1
  Pd  Pd7  1  0.50000000  0.00000000  0.00000000  1
  Pd  Pd8  1  0.19243786  0.83205365  0.28986681  1
  Pd  Pd9  1  0.40257105  0.16794635  0.71013319  1
  Pd  Pd10  1  0.30756214  0.54218684  0.71013319  1
  Pd  Pd11  1  0.09742895  0.45781316  0.28986681  1
  Ce  Ce12  1  0.95041790  0.17659909  0.40083580  1
  Ce  Ce13  1  0.04958210  0.82340091  0.59916420  1
  Ce  Ce14  1  0.54958210  0.77576329  0.59916420  1
  Ce  Ce15  1  0.45041790  0.22423671  0.40083580  1
  Ce  Ce16  1  0.75000000  0.61764871  0.00000000  1
  Ce  Ce17  1  0.25000000  0.38235129  0.00000000  1
