# generated using pymatgen
data_VTeO4
_symmetry_space_group_name_H-M   'P 1'
_cell_length_a   5.04153791
_cell_length_b   5.13994421
_cell_length_c   12.37733038
_cell_angle_alpha   97.10295554
_cell_angle_beta   90.00000000
_cell_angle_gamma   90.00000000
_symmetry_Int_Tables_number   1
_chemical_formula_structural   VTeO4
_chemical_formula_sum   'V4 Te4 O16'
_cell_volume   318.27505637
_cell_formula_units_Z   4
loop_
 _symmetry_equiv_pos_site_id
 _symmetry_equiv_pos_as_xyz
  1  'x, y, z'
loop_
 _atom_site_type_symbol
 _atom_site_label
 _atom_site_symmetry_multiplicity
 _atom_site_fract_x
 _atom_site_fract_y
 _atom_site_fract_z
 _atom_site_occupancy
  O  O0  1  0.10964944  0.77902697  0.83590120  1
  O  O1  1  0.60964944  0.72097303  0.66409880  1
  O  O2  1  0.89035056  0.22097303  0.16409880  1
  O  O3  1  0.39035056  0.27902697  0.33590120  1
  O  O4  1  0.42102791  0.36177842  0.79820005  1
  O  O5  1  0.92102791  0.13822158  0.70179995  1
  O  O6  1  0.57897209  0.63822158  0.20179995  1
  O  O7  1  0.07897209  0.86177842  0.29820005  1
  O  O8  1  0.04819813  0.69927126  0.06830047  1
  O  O9  1  0.54819813  0.80072874  0.43169953  1
  O  O10  1  0.95180187  0.30072874  0.93169953  1
  O  O11  1  0.45180187  0.19927126  0.56830047  1
  O  O12  1  0.94993013  0.22641938  0.48313162  1
  O  O13  1  0.44993013  0.27358062  0.01686838  1
  O  O14  1  0.05006987  0.77358062  0.51686838  1
  O  O15  1  0.55006987  0.72641938  0.98313162  1
  V  V16  1  0.27360657  0.54550723  0.93285406  1
  V  V17  1  0.77360657  0.95449277  0.56714594  1
  V  V18  1  0.72639343  0.45449277  0.06714594  1
  V  V19  1  0.22639343  0.04550723  0.43285406  1
  Te  Te20  1  0.30357085  0.49058093  0.66658021  1
  Te  Te21  1  0.80357085  0.00941907  0.83341979  1
  Te  Te22  1  0.69642915  0.50941907  0.33341979  1
  Te  Te23  1  0.19642915  0.99058093  0.16658021  1
