# generated using pymatgen
data_Ba3P2
_symmetry_space_group_name_H-M   'P 1'
_cell_length_a   25.72161130
_cell_length_b   9.90436514
_cell_length_c   9.90436502
_cell_angle_alpha   90.00000157
_cell_angle_beta   54.71878012
_cell_angle_gamma   54.71878057
_symmetry_Int_Tables_number   1
_chemical_formula_structural   Ba3P2
_chemical_formula_sum   'Ba24 P16'
_cell_volume   1455.55846757
_cell_formula_units_Z   8
loop_
 _symmetry_equiv_pos_site_id
 _symmetry_equiv_pos_as_xyz
  1  'x, y, z'
loop_
 _atom_site_type_symbol
 _atom_site_label
 _atom_site_symmetry_multiplicity
 _atom_site_fract_x
 _atom_site_fract_y
 _atom_site_fract_z
 _atom_site_occupancy
  Ba  Ba0  1  0.04495906  0.99251348  0.37458477  1
  Ba  Ba1  1  0.13702972  0.47850352  0.98522724  1
  Ba  Ba2  1  0.04495906  0.37260933  0.49053805  1
  Ba  Ba3  1  0.28837394  0.12739067  0.12541523  1
  Ba  Ba4  1  0.28837394  0.50748652  0.00946195  1
  Ba  Ba5  1  0.13702972  0.61040831  0.60368459  1
  Ba  Ba6  1  0.19630428  0.02149648  0.89631541  1
  Ba  Ba7  1  0.37826870  0.01656290  0.34918729  1
  Ba  Ba8  1  0.19630428  0.88959169  0.51477276  1
  Ba  Ba9  1  0.45506430  0.48399438  0.98343710  1
  Ba  Ba10  1  0.37826870  0.34863000  0.51600562  1
  Ba  Ba11  1  0.63702972  0.10368459  0.11040831  1
  Ba  Ba12  1  0.63702972  0.48522724  0.97850352  1
  Ba  Ba13  1  0.45506430  0.65081271  0.65137000  1
  Ba  Ba14  1  0.54495906  0.99053805  0.87260933  1
  Ba  Ba15  1  0.69630428  0.01477276  0.38959169  1
  Ba  Ba16  1  0.54495906  0.87458477  0.49251348  1
  Ba  Ba17  1  0.78837394  0.50946195  0.00748652  1
  Ba  Ba18  1  0.69630428  0.39631541  0.52149648  1
  Ba  Ba19  1  0.95506430  0.15137000  0.15081271  1
  Ba  Ba20  1  0.95506430  0.48343710  0.98399438  1
  Ba  Ba21  1  0.78837394  0.62541523  0.62739067  1
  Ba  Ba22  1  0.87826870  0.01600562  0.84863000  1
  Ba  Ba23  1  0.87826870  0.84918729  0.51656290  1
  P  P24  1  0.08597469  0.62103747  0.37103747  1
  P  P25  1  0.16666700  0.25000000  0.62891391  1
  P  P26  1  0.24735831  0.87896253  0.12896253  1
  P  P27  1  0.34027463  0.37782977  0.25074823  1
  P  P28  1  0.16666700  0.75000000  0.87108609  1
  P  P29  1  0.34027463  0.10134535  0.72842689  1
  P  P30  1  0.49305837  0.27157311  0.62217023  1
  P  P31  1  0.66666700  0.37108609  0.25000000  1
  P  P32  1  0.58597469  0.87103747  0.12103747  1
  P  P33  1  0.49305837  0.74925177  0.89865465  1
  P  P34  1  0.66666700  0.12891391  0.75000000  1
  P  P35  1  0.74735831  0.62896253  0.37896253  1
  P  P36  1  0.84027463  0.22842689  0.60134535  1
  P  P37  1  0.99305837  0.39865465  0.24925177  1
  P  P38  1  0.84027463  0.75074823  0.87782977  1
  P  P39  1  0.99305837  0.12217023  0.77157311  1
