# generated using pymatgen
data_VPO5
_symmetry_space_group_name_H-M   'P 1'
_cell_length_a   7.81434106
_cell_length_b   6.23485935
_cell_length_c   7.23894650
_cell_angle_alpha   90.00000000
_cell_angle_beta   90.00000000
_cell_angle_gamma   90.00000000
_symmetry_Int_Tables_number   1
_chemical_formula_structural   VPO5
_chemical_formula_sum   'V4 P4 O20'
_cell_volume   352.69101023
_cell_formula_units_Z   4
loop_
 _symmetry_equiv_pos_site_id
 _symmetry_equiv_pos_as_xyz
  1  'x, y, z'
loop_
 _atom_site_type_symbol
 _atom_site_label
 _atom_site_symmetry_multiplicity
 _atom_site_fract_x
 _atom_site_fract_y
 _atom_site_fract_z
 _atom_site_occupancy
  O  O0  1  0.04548830  0.75000031  -0.00102142  1
  O  O1  1  0.12885927  0.05203198  0.24000552  1
  O  O2  1  0.12885927  0.44796715  0.24000552  1
  O  O3  1  0.13310711  0.24999957  0.65084169  1
  O  O4  1  0.21898428  0.75000031  0.48219462  1
  O  O5  1  0.28101542  0.24999957  0.98219441  1
  O  O6  1  0.36689259  0.75000031  0.15084190  1
  O  O7  1  0.37114171  0.55203273  0.74000531  1
  O  O8  1  0.37114171  0.94796790  0.74000531  1
  O  O9  1  0.45451268  0.24999957  0.49897880  1
  O  O10  1  0.54548800  0.75000031  0.50102217  1
  O  O11  1  0.62885897  0.05203198  0.25999427  1
  O  O12  1  0.62885897  0.44796715  0.25999427  1
  O  O13  1  0.63310681  0.24999957  0.84915768  1
  O  O14  1  0.95451238  0.24999957  1.00102099  1
  O  O15  1  0.78101513  0.24999957  0.51780634  1
  O  O16  1  0.86689230  0.75000031  0.34915789  1
  O  O17  1  0.87114141  0.55203273  0.75999406  1
  O  O18  1  0.87114141  0.94796790  0.75999406  1
  O  O19  1  0.71898398  0.75000031  0.01780517  1
  P  P20  1  0.12190384  0.24999957  0.11290907  1
  P  P21  1  0.37809586  0.75000031  0.61290886  1
  P  P22  1  0.62190482  0.24999957  0.38709071  1
  P  P23  1  0.87809556  0.75000031  0.88709189  1
  V  V24  1  0.17321072  0.75000031  0.22803446  1
  V  V25  1  0.32678898  0.24999957  0.72803564  1
  V  V26  1  0.67321042  0.75000031  0.27196533  1
  V  V27  1  0.82678996  0.24999957  0.77196511  1
