# generated using pymatgen
data_PWO5
_symmetry_space_group_name_H-M   'P 1'
_cell_length_a   5.36809802
_cell_length_b   6.75457079
_cell_length_c   11.48995387
_cell_angle_alpha   90.00000000
_cell_angle_beta   90.00000000
_cell_angle_gamma   90.00000000
_symmetry_Int_Tables_number   1
_chemical_formula_structural   PWO5
_chemical_formula_sum   'P4 W4 O20'
_cell_volume   416.61651335
_cell_formula_units_Z   4
loop_
 _symmetry_equiv_pos_site_id
 _symmetry_equiv_pos_as_xyz
  1  'x, y, z'
loop_
 _atom_site_type_symbol
 _atom_site_label
 _atom_site_symmetry_multiplicity
 _atom_site_fract_x
 _atom_site_fract_y
 _atom_site_fract_z
 _atom_site_occupancy
  O  O0  1  0.22731535  0.00850768  0.49648427  1
  O  O1  1  0.72731535  0.99149232  0.50351573  1
  O  O2  1  0.22731535  0.49149232  0.99648427  1
  O  O3  1  0.72731535  0.50850768  0.00351573  1
  O  O4  1  0.29547849  0.66206518  0.62520326  1
  O  O5  1  0.79547849  0.33793482  0.37479674  1
  O  O6  1  0.29547849  0.83793482  0.12520326  1
  O  O7  1  0.79547849  0.16206518  0.87479674  1
  O  O8  1  0.50402918  0.48108471  0.78557316  1
  O  O9  1  0.00402918  0.51891529  0.21442684  1
  O  O10  1  0.50402918  0.01891529  0.28557316  1
  O  O11  1  0.00402918  0.98108471  0.71442684  1
  O  O12  1  0.00204381  0.83491816  0.91421763  1
  O  O13  1  0.50204381  0.16508184  0.08578237  1
  O  O14  1  0.00204381  0.66508184  0.41421763  1
  O  O15  1  0.50204381  0.33491816  0.58578237  1
  O  O16  1  0.26299592  0.13915861  0.87042302  1
  O  O17  1  0.76299592  0.86084139  0.12957698  1
  O  O18  1  0.26299592  0.36084139  0.37042302  1
  O  O19  1  0.76299592  0.63915861  0.62957698  1
  P  P20  1  0.51590473  0.52779140  0.65570231  1
  P  P21  1  0.01590473  0.47220860  0.34429769  1
  P  P22  1  0.51590473  0.97220860  0.15570231  1
  P  P23  1  0.01590473  0.02779140  0.84429769  1
  W  W24  1  0.51423251  0.32833745  0.93737297  1
  W  W25  1  0.01423251  0.67166255  0.06262703  1
  W  W26  1  0.51423251  0.17166255  0.43737297  1
  W  W27  1  0.01423251  0.82833745  0.56262703  1
