# generated using pymatgen
data_Th3Ge2
_symmetry_space_group_name_H-M   'P 1'
_cell_length_a   4.13979874
_cell_length_b   8.01774000
_cell_length_c   8.01774000
_cell_angle_alpha   90.00000000
_cell_angle_beta   90.00000000
_cell_angle_gamma   90.00000000
_symmetry_Int_Tables_number   1
_chemical_formula_structural   Th3Ge2
_chemical_formula_sum   'Th6 Ge4'
_cell_volume   266.12346266
_cell_formula_units_Z   2
loop_
 _symmetry_equiv_pos_site_id
 _symmetry_equiv_pos_as_xyz
  1  'x, y, z'
loop_
 _atom_site_type_symbol
 _atom_site_label
 _atom_site_symmetry_multiplicity
 _atom_site_fract_x
 _atom_site_fract_y
 _atom_site_fract_z
 _atom_site_occupancy
  Ge  Ge0  1  0.00000000  0.62102865  0.12102865  1
  Ge  Ge1  1  0.00000000  0.87897135  0.62102865  1
  Ge  Ge2  1  0.00000000  0.12102865  0.37897135  1
  Ge  Ge3  1  0.00000000  0.37897135  0.87897135  1
  Th  Th4  1  0.50000000  0.67691511  0.82308489  1
  Th  Th5  1  0.50000000  0.82308489  0.32308489  1
  Th  Th6  1  0.50000000  0.32308489  0.17691511  1
  Th  Th7  1  0.50000000  0.17691511  0.67691511  1
  Th  Th8  1  0.00000000  0.50000000  0.50000000  1
  Th  Th9  1  0.00000000  0.00000000  0.00000000  1
