# generated using pymatgen
data_Hg2WO4
_symmetry_space_group_name_H-M   'P 1'
_cell_length_a   5.06804838
_cell_length_b   7.44288520
_cell_length_c   7.44288520
_cell_angle_alpha   106.35305995
_cell_angle_beta   104.63755275
_cell_angle_gamma   104.63755277
_symmetry_Int_Tables_number   1
_chemical_formula_structural   Hg2WO4
_chemical_formula_sum   'Hg4 W2 O8'
_cell_volume   244.27851800
_cell_formula_units_Z   2
loop_
 _symmetry_equiv_pos_site_id
 _symmetry_equiv_pos_as_xyz
  1  'x, y, z'
loop_
 _atom_site_type_symbol
 _atom_site_label
 _atom_site_symmetry_multiplicity
 _atom_site_fract_x
 _atom_site_fract_y
 _atom_site_fract_z
 _atom_site_occupancy
  O  O0  1  0.29696343  0.04770223  0.66685915  1
  O  O1  1  0.20303657  0.33314085  0.95229777  1
  O  O2  1  0.70303657  0.95229777  0.33314085  1
  O  O3  1  0.79696343  0.66685915  0.04770223  1
  O  O4  1  0.84701730  0.91505737  0.81953224  1
  O  O5  1  0.65298270  0.18046776  0.08494263  1
  O  O6  1  0.34701730  0.81953224  0.91505737  1
  O  O7  1  0.15298270  0.08494263  0.18046776  1
  W  W8  1  0.25000000  0.09384543  0.90615457  1
  W  W9  1  0.75000000  0.90615457  0.09384543  1
  Hg  Hg10  1  0.47595529  0.75715815  0.52824792  1
  Hg  Hg11  1  0.02404471  0.47175208  0.24284185  1
  Hg  Hg12  1  0.52404471  0.24284185  0.47175208  1
  Hg  Hg13  1  0.97595529  0.52824792  0.75715815  1
