# generated using pymatgen
data_Mg2V2O7
_symmetry_space_group_name_H-M   'P 1'
_cell_length_a   5.04397647
_cell_length_b   5.49359174
_cell_length_c   10.68926060
_cell_angle_alpha   101.70410603
_cell_angle_beta   101.93650479
_cell_angle_gamma   98.74830572
_symmetry_Int_Tables_number   1
_chemical_formula_structural   Mg2V2O7
_chemical_formula_sum   'Mg4 V4 O14'
_cell_volume   277.88290524
_cell_formula_units_Z   2
loop_
 _symmetry_equiv_pos_site_id
 _symmetry_equiv_pos_as_xyz
  1  'x, y, z'
loop_
 _atom_site_type_symbol
 _atom_site_label
 _atom_site_symmetry_multiplicity
 _atom_site_fract_x
 _atom_site_fract_y
 _atom_site_fract_z
 _atom_site_occupancy
  O  O0  1  0.28894139  0.44562808  0.56035597  1
  O  O1  1  0.71105861  0.55437192  0.43964403  1
  O  O2  1  0.62293583  0.95322354  0.78322752  1
  O  O3  1  0.37706417  0.04677646  0.21677248  1
  O  O4  1  0.76094227  0.11605654  0.54137154  1
  O  O5  1  0.23905773  0.88394346  0.45862846  1
  O  O6  1  0.31168835  0.42552770  0.06724775  1
  O  O7  1  0.68831165  0.57447230  0.93275225  1
  O  O8  1  0.90560070  0.62381070  0.71473505  1
  O  O9  1  0.09439930  0.37618930  0.28526495  1
  O  O10  1  0.20840541  0.92615146  0.96208403  1
  O  O11  1  0.79159459  0.07384854  0.03791597  1
  O  O12  1  0.18269909  0.23504792  0.76593343  1
  O  O13  1  0.81730091  0.76495208  0.23406657  1
  Mg  Mg14  1  0.51472252  0.79244826  0.08651308  1
  Mg  Mg15  1  0.48527748  0.20755174  0.91348692  1
  Mg  Mg16  1  0.42997043  0.21265871  0.41793957  1
  Mg  Mg17  1  0.57002957  0.78734129  0.58206043  1
  V  V18  1  0.03797674  0.34984205  0.64117429  1
  V  V19  1  0.96202326  0.65015795  0.35882571  1
  V  V20  1  0.85229655  0.79786482  0.86852847  1
  V  V21  1  0.14770345  0.20213518  0.13147153  1
