# generated using pymatgen
data_Pr(SiPd)2
_symmetry_space_group_name_H-M   'P 1'
_cell_length_a   4.26041139
_cell_length_b   4.26041138
_cell_length_c   5.83764603
_cell_angle_alpha   111.40194158
_cell_angle_beta   111.40194153
_cell_angle_gamma   90.00000000
_symmetry_Int_Tables_number   1
_chemical_formula_structural   Pr(SiPd)2
_chemical_formula_sum   'Pr1 Si2 Pd2'
_cell_volume   90.76016991
_cell_formula_units_Z   1
loop_
 _symmetry_equiv_pos_site_id
 _symmetry_equiv_pos_as_xyz
  1  'x, y, z'
loop_
 _atom_site_type_symbol
 _atom_site_label
 _atom_site_symmetry_multiplicity
 _atom_site_fract_x
 _atom_site_fract_y
 _atom_site_fract_z
 _atom_site_occupancy
  Si  Si0  1  0.61960869  0.61960869  0.23921739  1
  Si  Si1  1  0.38039131  0.38039131  0.76078261  1
  Pd  Pd2  1  0.75000000  0.25000000  0.50000000  1
  Pd  Pd3  1  0.25000000  0.75000000  0.50000000  1
  Pr  Pr4  1  0.00000000  0.00000000  0.00000000  1
