# generated using pymatgen
data_P2S2O3
_symmetry_space_group_name_H-M   'P 1'
_cell_length_a   9.68895847
_cell_length_b   9.68895847
_cell_length_c   9.91577633
_cell_angle_alpha   119.24616083
_cell_angle_beta   119.24616081
_cell_angle_gamma   90.00000000
_symmetry_Int_Tables_number   1
_chemical_formula_structural   P2S2O3
_chemical_formula_sum   'P8 S8 O12'
_cell_volume   672.93162975
_cell_formula_units_Z   4
loop_
 _symmetry_equiv_pos_site_id
 _symmetry_equiv_pos_as_xyz
  1  'x, y, z'
loop_
 _atom_site_type_symbol
 _atom_site_label
 _atom_site_symmetry_multiplicity
 _atom_site_fract_x
 _atom_site_fract_y
 _atom_site_fract_z
 _atom_site_occupancy
  O  O0  1  0.12507708  0.62507708  0.25015417  1
  O  O1  1  0.84101227  0.08909158  0.49937100  1
  O  O2  1  0.65835873  0.41027941  0.49937100  1
  O  O3  1  0.58972059  0.15898773  0.50062900  1
  O  O4  1  0.34101227  0.91027941  0.49937100  1
  O  O5  1  0.15835873  0.58909158  0.49937100  1
  O  O6  1  0.91090842  0.34164127  0.50062900  1
  O  O7  1  0.41090842  0.65898773  0.50062900  1
  O  O8  1  0.37492292  0.87492292  0.74984583  1
  O  O9  1  0.87492292  0.37492292  0.74984583  1
  O  O10  1  0.62507708  0.12507708  0.25015417  1
  O  O11  1  0.08972059  0.84164127  0.50062900  1
  P  P12  1  0.03483992  0.63957089  0.35750165  1
  P  P13  1  0.32266174  0.71793076  0.35750165  1
  P  P14  1  0.53483992  0.21793076  0.35750165  1
  P  P15  1  0.28206924  0.96516008  0.64249835  1
  P  P16  1  0.36042911  0.67733826  0.64249835  1
  P  P17  1  0.78206924  0.17733826  0.64249835  1
  P  P18  1  0.86042911  0.46516008  0.64249835  1
  P  P19  1  0.82266174  0.13957089  0.35750165  1
  S  S20  1  0.80695982  0.52269559  0.20610338  1
  S  S21  1  0.89914357  0.02269559  0.20610338  1
  S  S22  1  0.31659221  0.19304018  0.79389662  1
  S  S23  1  0.47730441  0.60085643  0.79389662  1
  S  S24  1  0.81659221  0.10085643  0.79389662  1
  S  S25  1  0.97730441  0.69304018  0.79389662  1
  S  S26  1  0.30695982  0.18340779  0.20610338  1
  S  S27  1  0.39914357  0.68340779  0.20610338  1
