# generated using pymatgen
data_Mg15Nb
_symmetry_space_group_name_H-M   'P 1'
_cell_length_a   6.35401033
_cell_length_b   6.35400982
_cell_length_c   10.10757428
_cell_angle_alpha   90.00000000
_cell_angle_beta   90.00000000
_cell_angle_gamma   120.00000263
_symmetry_Int_Tables_number   1
_chemical_formula_structural   Mg15Nb
_chemical_formula_sum   'Mg15 Nb1'
_cell_volume   353.40554526
_cell_formula_units_Z   1
loop_
 _symmetry_equiv_pos_site_id
 _symmetry_equiv_pos_as_xyz
  1  'x, y, z'
loop_
 _atom_site_type_symbol
 _atom_site_label
 _atom_site_symmetry_multiplicity
 _atom_site_fract_x
 _atom_site_fract_y
 _atom_site_fract_z
 _atom_site_occupancy
  Mg  Mg0  1  0.16666700  0.33333300  0.62500000  1
  Mg  Mg1  1  0.16883605  0.83441752  0.12500000  1
  Mg  Mg2  1  0.16705557  0.83352728  0.62500000  1
  Mg  Mg3  1  0.66558248  0.33116395  0.12500000  1
  Mg  Mg4  1  0.66647272  0.33294443  0.62500000  1
  Mg  Mg5  1  0.66558248  0.83441752  0.12500000  1
  Mg  Mg6  1  0.66647272  0.83352728  0.62500000  1
  Mg  Mg7  1  0.32915953  0.17084047  0.37043270  1
  Mg  Mg8  1  0.32915953  0.17084047  0.87956730  1
  Mg  Mg9  1  0.32915953  0.65832006  0.37043270  1
  Mg  Mg10  1  0.32915953  0.65832006  0.87956730  1
  Mg  Mg11  1  0.84167994  0.17084047  0.37043270  1
  Mg  Mg12  1  0.84167994  0.17084047  0.87956730  1
  Mg  Mg13  1  0.83333300  0.66666700  0.37498471  1
  Mg  Mg14  1  0.83333300  0.66666700  0.87501529  1
  Nb  Nb15  1  0.16666700  0.33333300  0.12500000  1
