# generated using pymatgen
data_Eu(CuSi)2
_symmetry_space_group_name_H-M   'P 1'
_cell_length_a   4.09268595
_cell_length_b   4.09268595
_cell_length_c   5.74284520
_cell_angle_alpha   110.87492499
_cell_angle_beta   110.87492499
_cell_angle_gamma   90.00000000
_symmetry_Int_Tables_number   1
_chemical_formula_structural   Eu(CuSi)2
_chemical_formula_sum   'Eu1 Cu2 Si2'
_cell_volume   83.08652067
_cell_formula_units_Z   1
loop_
 _symmetry_equiv_pos_site_id
 _symmetry_equiv_pos_as_xyz
  1  'x, y, z'
loop_
 _atom_site_type_symbol
 _atom_site_label
 _atom_site_symmetry_multiplicity
 _atom_site_fract_x
 _atom_site_fract_y
 _atom_site_fract_z
 _atom_site_occupancy
  Eu  Eu0  1  0.00000000  0.00000000  0.00000000  1
  Cu  Cu1  1  0.25000000  0.75000000  0.50000000  1
  Cu  Cu2  1  0.75000000  0.25000000  0.50000000  1
  Si  Si3  1  0.62136423  0.62136423  0.24272845  1
  Si  Si4  1  0.37863577  0.37863577  0.75727155  1
