# generated using pymatgen
data_SrSiO3
_symmetry_space_group_name_H-M   'P 1'
_cell_length_a   7.21770671
_cell_length_b   7.21770670
_cell_length_c   10.99613718
_cell_angle_alpha   71.37841910
_cell_angle_beta   71.37841913
_cell_angle_gamma   60.17394177
_symmetry_Int_Tables_number   1
_chemical_formula_structural   SrSiO3
_chemical_formula_sum   'Sr6 Si6 O18'
_cell_volume   461.88838970
_cell_formula_units_Z   6
loop_
 _symmetry_equiv_pos_site_id
 _symmetry_equiv_pos_as_xyz
  1  'x, y, z'
loop_
 _atom_site_type_symbol
 _atom_site_label
 _atom_site_symmetry_multiplicity
 _atom_site_fract_x
 _atom_site_fract_y
 _atom_site_fract_z
 _atom_site_occupancy
  O  O0  1  0.63176728  0.36823272  0.25000000  1
  O  O1  1  0.36823272  0.63176728  0.75000000  1
  O  O2  1  0.11338554  0.98097223  0.11064353  1
  O  O3  1  0.01902777  0.88661446  0.38935647  1
  O  O4  1  0.88661446  0.01902777  0.88935647  1
  O  O5  1  0.98097223  0.11338554  0.61064353  1
  O  O6  1  0.41732957  0.79615623  0.25188514  1
  O  O7  1  0.20384377  0.58267043  0.24811486  1
  O  O8  1  0.58267043  0.20384377  0.74811486  1
  O  O9  1  0.79615623  0.41732957  0.75188514  1
  O  O10  1  0.81569109  0.62819087  0.11487465  1
  O  O11  1  0.37180913  0.18430891  0.38512535  1
  O  O12  1  0.53495562  0.71970380  0.89463210  1
  O  O13  1  0.28029620  0.46504438  0.60536790  1
  O  O14  1  0.46504438  0.28029620  0.10536790  1
  O  O15  1  0.71970380  0.53495562  0.39463210  1
  O  O16  1  0.62819087  0.81569109  0.61487465  1
  O  O17  1  0.18430891  0.37180913  0.88512535  1
  Si  Si18  1  0.16917326  0.83082674  0.25000000  1
  Si  Si19  1  0.83082674  0.16917326  0.75000000  1
  Si  Si20  1  0.66579662  0.58166807  0.25364478  1
  Si  Si21  1  0.41833193  0.33420338  0.24635522  1
  Si  Si22  1  0.33420338  0.41833193  0.74635522  1
  Si  Si23  1  0.58166807  0.66579662  0.75364478  1
  Sr  Sr24  1  0.00000000  0.50000000  0.50000000  1
  Sr  Sr25  1  0.50000000  0.00000000  0.00000000  1
  Sr  Sr26  1  0.84831904  0.32645018  0.00083101  1
  Sr  Sr27  1  0.67354982  0.15168096  0.49916899  1
  Sr  Sr28  1  0.15168096  0.67354982  0.99916899  1
  Sr  Sr29  1  0.32645018  0.84831904  0.50083101  1
