# generated using pymatgen
data_Mn(NbS2)4
_symmetry_space_group_name_H-M   'P 1'
_cell_length_a   6.72419203
_cell_length_b   6.72419203
_cell_length_c   12.35083966
_cell_angle_alpha   90.00000000
_cell_angle_beta   90.00000000
_cell_angle_gamma   119.99999995
_symmetry_Int_Tables_number   1
_chemical_formula_structural   Mn(NbS2)4
_chemical_formula_sum   'Mn2 Nb8 S16'
_cell_volume   483.62342755
_cell_formula_units_Z   2
loop_
 _symmetry_equiv_pos_site_id
 _symmetry_equiv_pos_as_xyz
  1  'x, y, z'
loop_
 _atom_site_type_symbol
 _atom_site_label
 _atom_site_symmetry_multiplicity
 _atom_site_fract_x
 _atom_site_fract_y
 _atom_site_fract_z
 _atom_site_occupancy
  S  S0  1  0.33333333  0.66666667  0.61988424  1
  S  S1  1  0.66666667  0.33333333  0.11988424  1
  S  S2  1  0.66666667  0.33333333  0.38011576  1
  S  S3  1  0.33333333  0.66666667  0.88011576  1
  S  S4  1  0.16780145  0.33556472  0.37636121  1
  S  S5  1  0.83223673  0.16780145  0.87636121  1
  S  S6  1  0.33556472  0.16776327  0.87636121  1
  S  S7  1  0.66443528  0.83223673  0.37636121  1
  S  S8  1  0.16776327  0.83219855  0.37636121  1
  S  S9  1  0.83219855  0.66443528  0.87636121  1
  S  S10  1  0.16780145  0.33556472  0.12363879  1
  S  S11  1  0.83223673  0.16780145  0.62363879  1
  S  S12  1  0.33556472  0.16776327  0.62363879  1
  S  S13  1  0.66443528  0.83223673  0.12363879  1
  S  S14  1  0.16776327  0.83219855  0.12363879  1
  S  S15  1  0.83219855  0.66443528  0.62363879  1
  Mn  Mn16  1  0.00000000  0.00000000  0.00000000  1
  Mn  Mn17  1  0.00000000  0.00000000  0.50000000  1
  Nb  Nb18  1  0.98799552  0.49398233  0.25000000  1
  Nb  Nb19  1  0.01200448  0.50601767  0.75000000  1
  Nb  Nb20  1  0.49398233  0.50598681  0.75000000  1
  Nb  Nb21  1  0.50598681  0.01200448  0.25000000  1
  Nb  Nb22  1  0.00000000  0.00000000  0.75000000  1
  Nb  Nb23  1  0.00000000  0.00000000  0.25000000  1
  Nb  Nb24  1  0.50601767  0.49401319  0.25000000  1
  Nb  Nb25  1  0.49401319  0.98799552  0.75000000  1
