# generated using pymatgen
data_LiYF4
_symmetry_space_group_name_H-M   'P 1'
_cell_length_a   5.25390381
_cell_length_b   5.25302983
_cell_length_c   6.57877994
_cell_angle_alpha   113.52648852
_cell_angle_beta   113.53353005
_cell_angle_gamma   90.01033727
_symmetry_Int_Tables_number   1
_chemical_formula_structural   LiYF4
_chemical_formula_sum   'Li2 Y2 F8'
_cell_volume   149.85335786
_cell_formula_units_Z   2
loop_
 _symmetry_equiv_pos_site_id
 _symmetry_equiv_pos_as_xyz
  1  'x, y, z'
loop_
 _atom_site_type_symbol
 _atom_site_label
 _atom_site_symmetry_multiplicity
 _atom_site_fract_x
 _atom_site_fract_y
 _atom_site_fract_z
 _atom_site_occupancy
  Li  Li0  1  0.12497398  0.37502703  0.25000879  1
  Li  Li1  1  0.87502602  0.62497297  0.74999121  1
  F  F2  1  0.67385438  0.53992459  0.91237748  1
  F  F3  1  0.37260749  0.17390036  0.41230165  1
  F  F4  1  0.76144468  0.12750815  0.08765669  1
  F  F5  1  0.96023211  0.26148507  0.58766119  1
  F  F6  1  0.62739251  0.82609964  0.58769835  1
  F  F7  1  0.32614562  0.46007541  0.08762252  1
  F  F8  1  0.23855532  0.87249185  0.91234331  1
  F  F9  1  0.03976789  0.73851493  0.41233881  1
  Y  Y10  1  0.37502595  0.12501548  0.74998957  1
  Y  Y11  1  0.62497405  0.87498452  0.25001043  1
