# generated using pymatgen
data_NdPS4
_symmetry_space_group_name_H-M   'P 1'
_cell_length_a   11.04191335
_cell_length_b   11.04191335
_cell_length_c   12.46772895
_cell_angle_alpha   116.28393148
_cell_angle_beta   116.28393148
_cell_angle_gamma   90.00000000
_symmetry_Int_Tables_number   1
_chemical_formula_structural   NdPS4
_chemical_formula_sum   'Nd8 P8 S32'
_cell_volume   1185.12453574
_cell_formula_units_Z   8
loop_
 _symmetry_equiv_pos_site_id
 _symmetry_equiv_pos_as_xyz
  1  'x, y, z'
loop_
 _atom_site_type_symbol
 _atom_site_label
 _atom_site_symmetry_multiplicity
 _atom_site_fract_x
 _atom_site_fract_y
 _atom_site_fract_z
 _atom_site_occupancy
  P  P0  1  0.28732746  0.25000000  0.50000000  1
  P  P1  1  0.78732746  0.25000000  0.50000000  1
  P  P2  1  0.75000000  0.78732746  0.00000000  1
  P  P3  1  0.25000000  0.71267254  0.00000000  1
  P  P4  1  0.71267254  0.75000000  0.50000000  1
  P  P5  1  0.21267254  0.75000000  0.50000000  1
  P  P6  1  0.25000000  0.21267254  0.00000000  1
  P  P7  1  0.75000000  0.28732746  0.00000000  1
  S  S8  1  0.09076180  0.61284683  0.99698255  1
  S  S9  1  0.90622075  0.88413572  0.99698255  1
  S  S10  1  0.61284683  0.90622075  0.49698255  1
  S  S11  1  0.88413572  0.09076180  0.49698255  1
  S  S12  1  0.40923820  0.61586428  0.00301745  1
  S  S13  1  0.59377925  0.88715317  0.00301745  1
  S  S14  1  0.88715317  0.40923820  0.50301745  1
  S  S15  1  0.61586428  0.59377925  0.50301745  1
  S  S16  1  0.33935278  0.40321483  0.17537091  1
  S  S17  1  0.27215609  0.33935278  0.67537091  1
  S  S18  1  0.40321483  0.83601814  0.67537091  1
  S  S19  1  0.66398186  0.09678517  0.82462909  1
  S  S20  1  0.16064722  0.22784391  0.82462909  1
  S  S21  1  0.22784391  0.66398186  0.32462909  1
  S  S22  1  0.09678517  0.16064722  0.32462909  1
  S  S23  1  0.83601814  0.27215609  0.17537091  1
  S  S24  1  0.66064722  0.59678517  0.82462909  1
  S  S25  1  0.72784391  0.66064722  0.32462909  1
  S  S26  1  0.59678517  0.16398186  0.32462909  1
  S  S27  1  0.33601814  0.90321483  0.17537091  1
  S  S28  1  0.83935278  0.77215609  0.17537091  1
  S  S29  1  0.77215609  0.33601814  0.67537091  1
  S  S30  1  0.90321483  0.83935278  0.67537091  1
  S  S31  1  0.16398186  0.72784391  0.82462909  1
  S  S32  1  0.09377925  0.11586428  0.00301745  1
  S  S33  1  0.38715317  0.09377925  0.50301745  1
  S  S34  1  0.11586428  0.90923820  0.50301745  1
  S  S35  1  0.59076180  0.38413572  0.99698255  1
  S  S36  1  0.40622075  0.11284683  0.99698255  1
  S  S37  1  0.11284683  0.59076180  0.49698255  1
  S  S38  1  0.38413572  0.40622075  0.49698255  1
  S  S39  1  0.90923820  0.38715317  0.00301745  1
  Nd  Nd40  1  0.87500000  0.12500000  0.75000000  1
  Nd  Nd41  1  0.12500000  0.87500000  0.25000000  1
  Nd  Nd42  1  0.62500000  0.37500000  0.25000000  1
  Nd  Nd43  1  0.37500000  0.62500000  0.75000000  1
  Nd  Nd44  1  0.62500000  0.87500000  0.25000000  1
  Nd  Nd45  1  0.87500000  0.62500000  0.75000000  1
  Nd  Nd46  1  0.37500000  0.12500000  0.75000000  1
  Nd  Nd47  1  0.12500000  0.37500000  0.25000000  1
