# generated using pymatgen
data_Ba(GaTe2)2
_symmetry_space_group_name_H-M   'P 1'
_cell_length_a   6.80592694
_cell_length_b   6.99203343
_cell_length_c   6.99203343
_cell_angle_alpha   76.34923925
_cell_angle_beta   60.93512257
_cell_angle_gamma   60.93512257
_symmetry_Int_Tables_number   1
_chemical_formula_structural   Ba(GaTe2)2
_chemical_formula_sum   'Ba1 Ga2 Te4'
_cell_volume   254.20663789
_cell_formula_units_Z   1
loop_
 _symmetry_equiv_pos_site_id
 _symmetry_equiv_pos_as_xyz
  1  'x, y, z'
loop_
 _atom_site_type_symbol
 _atom_site_label
 _atom_site_symmetry_multiplicity
 _atom_site_fract_x
 _atom_site_fract_y
 _atom_site_fract_z
 _atom_site_occupancy
  Ba  Ba0  1  0.75000000  0.99999916  0.00000084  1
  Ga  Ga1  1  0.25000000  0.49981525  0.50018475  1
  Ga  Ga2  1  0.75000000  0.50027825  0.49972175  1
  Te  Te3  1  0.16856470  0.49991529  0.16252552  1
  Te  Te4  1  0.33143530  0.83747448  0.50008471  1
  Te  Te5  1  0.66845601  0.16259238  0.50007482  1
  Te  Te6  1  0.83154399  0.49992518  0.83740762  1
