# generated using pymatgen
data_SmPS4
_symmetry_space_group_name_H-M   'P 1'
_cell_length_a   10.94983104
_cell_length_b   10.94983104
_cell_length_c   12.37685774
_cell_angle_alpha   116.25398133
_cell_angle_beta   116.25398131
_cell_angle_gamma   89.99999998
_symmetry_Int_Tables_number   1
_chemical_formula_structural   SmPS4
_chemical_formula_sum   'Sm8 P8 S32'
_cell_volume   1157.73580484
_cell_formula_units_Z   8
loop_
 _symmetry_equiv_pos_site_id
 _symmetry_equiv_pos_as_xyz
  1  'x, y, z'
loop_
 _atom_site_type_symbol
 _atom_site_label
 _atom_site_symmetry_multiplicity
 _atom_site_fract_x
 _atom_site_fract_y
 _atom_site_fract_z
 _atom_site_occupancy
  P  P0  1  0.28767543  0.25000000  0.50000000  1
  P  P1  1  0.78767543  0.25000000  0.50000000  1
  P  P2  1  0.75000000  0.78767543  0.00000000  1
  P  P3  1  0.25000000  0.71232457  0.00000000  1
  P  P4  1  0.71232457  0.75000000  0.50000000  1
  P  P5  1  0.21232457  0.75000000  0.50000000  1
  P  P6  1  0.25000000  0.21232457  0.00000000  1
  P  P7  1  0.75000000  0.28767543  0.00000000  1
  S  S8  1  0.08851243  0.61223636  0.99617930  1
  S  S9  1  0.90766688  0.88394295  0.99617930  1
  S  S10  1  0.61223636  0.90766688  0.49617930  1
  S  S11  1  0.88394295  0.08851243  0.49617930  1
  S  S12  1  0.41148757  0.61605705  0.00382070  1
  S  S13  1  0.59233312  0.88776364  0.00382070  1
  S  S14  1  0.88776364  0.41148757  0.50382070  1
  S  S15  1  0.61605705  0.59233312  0.50382070  1
  S  S16  1  0.34076108  0.40366700  0.17700841  1
  S  S17  1  0.27334142  0.34076108  0.67700841  1
  S  S18  1  0.40366700  0.83624733  0.67700841  1
  S  S19  1  0.66375267  0.09633300  0.82299159  1
  S  S20  1  0.15923892  0.22665858  0.82299159  1
  S  S21  1  0.22665858  0.66375267  0.32299159  1
  S  S22  1  0.09633300  0.15923892  0.32299159  1
  S  S23  1  0.83624733  0.27334142  0.17700841  1
  S  S24  1  0.65923892  0.59633300  0.82299159  1
  S  S25  1  0.72665858  0.65923892  0.32299159  1
  S  S26  1  0.59633300  0.16375267  0.32299159  1
  S  S27  1  0.33624733  0.90366700  0.17700841  1
  S  S28  1  0.84076108  0.77334142  0.17700841  1
  S  S29  1  0.77334142  0.33624733  0.67700841  1
  S  S30  1  0.90366700  0.84076108  0.67700841  1
  S  S31  1  0.16375267  0.72665858  0.82299159  1
  S  S32  1  0.09233312  0.11605705  0.00382070  1
  S  S33  1  0.38776364  0.09233312  0.50382070  1
  S  S34  1  0.11605705  0.91148757  0.50382070  1
  S  S35  1  0.58851243  0.38394295  0.99617930  1
  S  S36  1  0.40766688  0.11223636  0.99617930  1
  S  S37  1  0.11223636  0.58851243  0.49617930  1
  S  S38  1  0.38394295  0.40766688  0.49617930  1
  S  S39  1  0.91148757  0.38776364  0.00382070  1
  Sm  Sm40  1  0.87500000  0.12500000  0.75000000  1
  Sm  Sm41  1  0.12500000  0.87500000  0.25000000  1
  Sm  Sm42  1  0.62500000  0.37500000  0.25000000  1
  Sm  Sm43  1  0.37500000  0.62500000  0.75000000  1
  Sm  Sm44  1  0.62500000  0.87500000  0.25000000  1
  Sm  Sm45  1  0.87500000  0.62500000  0.75000000  1
  Sm  Sm46  1  0.37500000  0.12500000  0.75000000  1
  Sm  Sm47  1  0.12500000  0.37500000  0.25000000  1
