# generated using pymatgen
data_Sr3UO6
_symmetry_space_group_name_H-M   'P 1'
_cell_length_a   6.05300563
_cell_length_b   6.28418781
_cell_length_c   8.71357677
_cell_angle_alpha   90.00000000
_cell_angle_beta   90.33300517
_cell_angle_gamma   90.00000000
_symmetry_Int_Tables_number   1
_chemical_formula_structural   Sr3UO6
_chemical_formula_sum   'Sr6 U2 O12'
_cell_volume   331.44338851
_cell_formula_units_Z   2
loop_
 _symmetry_equiv_pos_site_id
 _symmetry_equiv_pos_as_xyz
  1  'x, y, z'
loop_
 _atom_site_type_symbol
 _atom_site_label
 _atom_site_symmetry_multiplicity
 _atom_site_fract_x
 _atom_site_fract_y
 _atom_site_fract_z
 _atom_site_occupancy
  O  O0  1  0.42343668  0.74535294  0.17330511  1
  O  O1  1  0.57656332  0.24535294  0.82669489  1
  O  O2  1  0.96809500  0.84178064  0.29980757  1
  O  O3  1  0.03190500  0.34178064  0.70019243  1
  O  O4  1  0.86786336  0.58066381  0.97410516  1
  O  O5  1  0.13213664  0.08066381  0.02589484  1
  O  O6  1  0.92379475  0.79076685  0.67305437  1
  O  O7  1  0.07620525  0.29076685  0.32694563  1
  O  O8  1  0.63217372  0.45574526  0.52586827  1
  O  O9  1  0.36782628  0.95574526  0.47413173  1
  O  O10  1  0.53166685  0.19470244  0.20012875  1
  O  O11  1  0.46833315  0.69470244  0.79987125  1
  Sr  Sr12  1  0.25002123  0.01817908  0.75001008  1
  Sr  Sr13  1  0.74997877  0.51817908  0.24998992  1
  Sr  Sr14  1  0.23549547  0.56699778  0.50716474  1
  Sr  Sr15  1  0.76450453  0.06699778  0.49283526  1
  Sr  Sr16  1  0.73548980  0.96943478  0.00728918  1
  Sr  Sr17  1  0.26451020  0.46943478  0.99271082  1
  U  U18  1  0.24992985  0.01817642  0.25002981  1
  U  U19  1  0.75007015  0.51817642  0.74997019  1
