# generated using pymatgen
data_Ti(MoS2)2
_symmetry_space_group_name_H-M   'P 1'
_cell_length_a   3.21143501
_cell_length_b   6.04752202
_cell_length_c   6.74861400
_cell_angle_alpha   112.64029068
_cell_angle_beta   103.76457234
_cell_angle_gamma   90.00000000
_symmetry_Int_Tables_number   1
_chemical_formula_structural   Ti(MoS2)2
_chemical_formula_sum   'Ti1 Mo2 S4'
_cell_volume   116.87750381
_cell_formula_units_Z   1
loop_
 _symmetry_equiv_pos_site_id
 _symmetry_equiv_pos_as_xyz
  1  'x, y, z'
loop_
 _atom_site_type_symbol
 _atom_site_label
 _atom_site_symmetry_multiplicity
 _atom_site_fract_x
 _atom_site_fract_y
 _atom_site_fract_z
 _atom_site_occupancy
  Ti  Ti0  1  0.00000000  0.00000000  0.00000000  1
  Mo  Mo1  1  0.25900716  0.31494833  0.51801432  1
  Mo  Mo2  1  0.74099284  0.68505167  0.48198568  1
  S  S3  1  0.10922105  0.44330087  0.21844211  1
  S  S4  1  0.89077895  0.55669913  0.78155789  1
  S  S5  1  0.36129355  0.02578435  0.72258711  1
  S  S6  1  0.63870645  0.97421565  0.27741289  1
