# generated using pymatgen
data_Sc2S3
_symmetry_space_group_name_H-M   'P 1'
_cell_length_a   6.41115303
_cell_length_b   6.41115303
_cell_length_c   11.68698980
_cell_angle_alpha   100.63855026
_cell_angle_beta   100.63855027
_cell_angle_gamma   109.08275534
_symmetry_Int_Tables_number   1
_chemical_formula_structural   Sc2S3
_chemical_formula_sum   'Sc8 S12'
_cell_volume   430.37035214
_cell_formula_units_Z   4
loop_
 _symmetry_equiv_pos_site_id
 _symmetry_equiv_pos_as_xyz
  1  'x, y, z'
loop_
 _atom_site_type_symbol
 _atom_site_label
 _atom_site_symmetry_multiplicity
 _atom_site_fract_x
 _atom_site_fract_y
 _atom_site_fract_z
 _atom_site_occupancy
  S  S0  1  0.88435061  0.63435061  0.75000000  1
  S  S1  1  0.36564939  0.11564939  0.75000000  1
  S  S2  1  0.11564939  0.36564939  0.25000000  1
  S  S3  1  0.63435061  0.88435061  0.25000000  1
  S  S4  1  0.95196583  0.19264461  0.91127915  1
  S  S5  1  0.28136546  0.54068668  0.58872085  1
  S  S6  1  0.80735539  0.04803417  0.58872085  1
  S  S7  1  0.45931332  0.71863454  0.91127915  1
  S  S8  1  0.04803417  0.80735539  0.08872085  1
  S  S9  1  0.71863454  0.45931332  0.41127915  1
  S  S10  1  0.19264461  0.95196583  0.41127915  1
  S  S11  1  0.54068668  0.28136546  0.08872085  1
  Sc  Sc12  1  0.04151074  0.79151074  0.58302147  1
  Sc  Sc13  1  0.20848926  0.95848926  0.91697853  1
  Sc  Sc14  1  0.95848926  0.20848926  0.41697853  1
  Sc  Sc15  1  0.79151074  0.04151074  0.08302147  1
  Sc  Sc16  1  0.37732176  0.12732176  0.25464353  1
  Sc  Sc17  1  0.87267824  0.62267824  0.24535647  1
  Sc  Sc18  1  0.62267824  0.87267824  0.74535647  1
  Sc  Sc19  1  0.12732176  0.37732176  0.75464353  1
