# generated using pymatgen
data_SrAu2
_symmetry_space_group_name_H-M   'P 1'
_cell_length_a   4.84020989
_cell_length_b   6.14461019
_cell_length_c   6.14461019
_cell_angle_alpha   76.88849443
_cell_angle_beta   66.80521982
_cell_angle_gamma   66.80521976
_symmetry_Int_Tables_number   1
_chemical_formula_structural   SrAu2
_chemical_formula_sum   'Sr2 Au4'
_cell_volume   153.84208685
_cell_formula_units_Z   2
loop_
 _symmetry_equiv_pos_site_id
 _symmetry_equiv_pos_as_xyz
  1  'x, y, z'
loop_
 _atom_site_type_symbol
 _atom_site_label
 _atom_site_symmetry_multiplicity
 _atom_site_fract_x
 _atom_site_fract_y
 _atom_site_fract_z
 _atom_site_occupancy
  Sr  Sr0  1  0.53421392  0.71578608  0.21578608  1
  Sr  Sr1  1  0.46578608  0.28421392  0.78421392  1
  Au  Au2  1  0.16451806  0.29510520  0.37585869  1
  Au  Au3  1  0.83548194  0.70489480  0.62414131  1
  Au  Au4  1  0.16451806  0.87585869  0.79510520  1
  Au  Au5  1  0.83548194  0.12414131  0.20489480  1
