# generated using pymatgen
data_Ba2WO5
_symmetry_space_group_name_H-M   'P 1'
_cell_length_a   5.80748095
_cell_length_b   7.56897980
_cell_length_c   11.72903559
_cell_angle_alpha   90.00000000
_cell_angle_beta   90.00000000
_cell_angle_gamma   90.00000000
_symmetry_Int_Tables_number   1
_chemical_formula_structural   Ba2WO5
_chemical_formula_sum   'Ba8 W4 O20'
_cell_volume   515.56976909
_cell_formula_units_Z   4
loop_
 _symmetry_equiv_pos_site_id
 _symmetry_equiv_pos_as_xyz
  1  'x, y, z'
loop_
 _atom_site_type_symbol
 _atom_site_label
 _atom_site_symmetry_multiplicity
 _atom_site_fract_x
 _atom_site_fract_y
 _atom_site_fract_z
 _atom_site_occupancy
  O  O0  1  0.00926556  0.17712319  0.61259603  1
  O  O1  1  0.50926556  0.82287681  0.38740397  1
  O  O2  1  0.49073444  0.67712319  0.88740397  1
  O  O3  1  0.99073444  0.32287681  0.11259603  1
  O  O4  1  0.99073444  0.82287681  0.38740397  1
  O  O5  1  0.49073444  0.17712319  0.61259603  1
  O  O6  1  0.50926556  0.32287681  0.11259603  1
  O  O7  1  0.00926556  0.67712319  0.88740397  1
  O  O8  1  0.75000000  0.77402683  0.59270177  1
  O  O9  1  0.25000000  0.22597317  0.40729823  1
  O  O10  1  0.75000000  0.27402683  0.90729823  1
  O  O11  1  0.25000000  0.72597317  0.09270177  1
  O  O12  1  0.50000000  0.00000000  0.00000000  1
  O  O13  1  0.00000000  0.00000000  0.00000000  1
  O  O14  1  0.00000000  0.50000000  0.50000000  1
  O  O15  1  0.50000000  0.50000000  0.50000000  1
  O  O16  1  0.25000000  0.97096243  0.80390366  1
  O  O17  1  0.75000000  0.02903757  0.19609634  1
  O  O18  1  0.25000000  0.47096243  0.69609634  1
  O  O19  1  0.75000000  0.52903757  0.30390366  1
  Ba  Ba20  1  0.75000000  0.67276964  0.08379891  1
  Ba  Ba21  1  0.25000000  0.32723036  0.91620109  1
  Ba  Ba22  1  0.75000000  0.17276964  0.41620109  1
  Ba  Ba23  1  0.25000000  0.82723036  0.58379891  1
  Ba  Ba24  1  0.25000000  0.52080114  0.28341767  1
  Ba  Ba25  1  0.75000000  0.47919886  0.71658233  1
  Ba  Ba26  1  0.25000000  0.02080114  0.21658233  1
  Ba  Ba27  1  0.75000000  0.97919886  0.78341767  1
  W  W28  1  0.25000000  0.82500929  0.93617049  1
  W  W29  1  0.75000000  0.17499071  0.06382951  1
  W  W30  1  0.25000000  0.32500929  0.56382951  1
  W  W31  1  0.75000000  0.67499071  0.43617049  1
