# generated using pymatgen
data_Te4W3S2
_symmetry_space_group_name_H-M   'P 1'
_cell_length_a   3.42149016
_cell_length_b   3.42149577
_cell_length_c   31.74936201
_cell_angle_alpha   89.99977150
_cell_angle_beta   90.00000000
_cell_angle_gamma   119.99994581
_symmetry_Int_Tables_number   1
_chemical_formula_structural   Te4W3S2
_chemical_formula_sum   'Te4 W3 S2'
_cell_volume   321.88235772
_cell_formula_units_Z   1
loop_
 _symmetry_equiv_pos_site_id
 _symmetry_equiv_pos_as_xyz
  1  'x, y, z'
loop_
 _atom_site_type_symbol
 _atom_site_label
 _atom_site_symmetry_multiplicity
 _atom_site_fract_x
 _atom_site_fract_y
 _atom_site_fract_z
 _atom_site_occupancy
  Te  Te0  1  0.33335458  0.66671016  0.40589014  1
  Te  Te1  1  0.66664791  0.33329482  0.51938021  1
  Te  Te2  1  0.66663890  0.33327679  0.63734024  1
  Te  Te3  1  0.33335421  0.66670941  0.28794649  1
  W  W4  1  0.33331305  0.66662609  0.11565920  1
  W  W5  1  0.33331222  0.66662445  0.57839128  1
  W  W6  1  0.66668639  0.33337277  0.34691530  1
  S  S7  1  0.66664652  0.33329205  0.06839293  1
  S  S8  1  0.66664723  0.33329346  0.16292521  1
