# generated using pymatgen
data_LaNiSnH
_symmetry_space_group_name_H-M   'P 1'
_cell_length_a   4.45404839
_cell_length_b   7.30650831
_cell_length_c   8.67917323
_cell_angle_alpha   90.00000000
_cell_angle_beta   90.00000000
_cell_angle_gamma   90.00000000
_symmetry_Int_Tables_number   1
_chemical_formula_structural   LaNiSnH
_chemical_formula_sum   'La4 Ni4 Sn4 H4'
_cell_volume   282.45103484
_cell_formula_units_Z   4
loop_
 _symmetry_equiv_pos_site_id
 _symmetry_equiv_pos_as_xyz
  1  'x, y, z'
loop_
 _atom_site_type_symbol
 _atom_site_label
 _atom_site_symmetry_multiplicity
 _atom_site_fract_x
 _atom_site_fract_y
 _atom_site_fract_z
 _atom_site_occupancy
  La  La0  1  0.24292817  0.01196183  0.31119917  1
  La  La1  1  0.74292817  0.98803817  0.68880083  1
  La  La2  1  0.74292817  0.48803817  0.81119917  1
  La  La3  1  0.24292817  0.51196183  0.18880083  1
  Ni  Ni4  1  0.24253586  0.78158883  0.90373924  1
  Ni  Ni5  1  0.74253586  0.21841117  0.09626076  1
  Ni  Ni6  1  0.74253586  0.71841117  0.40373924  1
  Ni  Ni7  1  0.24253586  0.28158883  0.59626076  1
  Sn  Sn8  1  0.24275631  0.65543369  0.56610821  1
  Sn  Sn9  1  0.74275631  0.34456631  0.43389179  1
  Sn  Sn10  1  0.74275631  0.84456631  0.06610821  1
  Sn  Sn11  1  0.24275631  0.15543369  0.93389179  1
  H  H12  1  0.74287965  0.43711968  0.08091985  1
  H  H13  1  0.24287965  0.56288032  0.91908015  1
  H  H14  1  0.24287965  0.06288032  0.58091985  1
  H  H15  1  0.74287965  0.93711968  0.41908015  1
