# generated using pymatgen
data_KTeF5
_symmetry_space_group_name_H-M   'P 1'
_cell_length_a   4.91708110
_cell_length_b   9.43240576
_cell_length_c   11.50189243
_cell_angle_alpha   90.00000000
_cell_angle_beta   90.00000000
_cell_angle_gamma   90.00000000
_symmetry_Int_Tables_number   1
_chemical_formula_structural   KTeF5
_chemical_formula_sum   'K4 Te4 F20'
_cell_volume   533.45666776
_cell_formula_units_Z   4
loop_
 _symmetry_equiv_pos_site_id
 _symmetry_equiv_pos_as_xyz
  1  'x, y, z'
loop_
 _atom_site_type_symbol
 _atom_site_label
 _atom_site_symmetry_multiplicity
 _atom_site_fract_x
 _atom_site_fract_y
 _atom_site_fract_z
 _atom_site_occupancy
  F  F0  1  0.60766869  0.79009863  0.75000000  1
  F  F1  1  0.60766869  0.70990137  0.25000000  1
  F  F2  1  0.39233131  0.29009863  0.75000000  1
  F  F3  1  0.39233131  0.20990137  0.25000000  1
  F  F4  1  0.97251607  0.18771816  0.37385800  1
  F  F5  1  0.97251607  0.31228184  0.62614200  1
  F  F6  1  0.02748393  0.68771816  0.12614200  1
  F  F7  1  0.02748393  0.81228184  0.87385800  1
  F  F8  1  0.37822463  0.98857880  0.12672155  1
  F  F9  1  0.37822463  0.51142120  0.87327845  1
  F  F10  1  0.62177537  0.48857880  0.37327845  1
  F  F11  1  0.62177537  0.01142120  0.62672155  1
  F  F12  1  0.62177537  0.01142120  0.87327845  1
  F  F13  1  0.62177537  0.48857880  0.12672155  1
  F  F14  1  0.37822463  0.51142120  0.62672155  1
  F  F15  1  0.37822463  0.98857880  0.37327845  1
  F  F16  1  0.97251607  0.18771816  0.12614200  1
  F  F17  1  0.97251607  0.31228184  0.87385800  1
  F  F18  1  0.02748393  0.68771816  0.37385800  1
  F  F19  1  0.02748393  0.81228184  0.62614200  1
  K  K20  1  0.51053150  0.25000000  0.00000000  1
  K  K21  1  0.48946850  0.75000000  0.50000000  1
  K  K22  1  0.48946850  0.75000000  0.00000000  1
  K  K23  1  0.51053150  0.25000000  0.50000000  1
  Te  Te24  1  0.12514334  0.06125955  0.25000000  1
  Te  Te25  1  0.12514334  0.43874045  0.75000000  1
  Te  Te26  1  0.87485666  0.56125955  0.25000000  1
  Te  Te27  1  0.87485666  0.93874045  0.75000000  1
