# generated using pymatgen
data_Ba8Nb7S24
_symmetry_space_group_name_H-M   'P 1'
_cell_length_a   27.64873235
_cell_length_b   11.97098836
_cell_length_c   9.03978044
_cell_angle_alpha   90.00000000
_cell_angle_beta   40.03838028
_cell_angle_gamma   90.00000000
_symmetry_Int_Tables_number   1
_chemical_formula_structural   Ba8Nb7S24
_chemical_formula_sum   'Ba16 Nb14 S48'
_cell_volume   1924.76218782
_cell_formula_units_Z   2
loop_
 _symmetry_equiv_pos_site_id
 _symmetry_equiv_pos_as_xyz
  1  'x, y, z'
loop_
 _atom_site_type_symbol
 _atom_site_label
 _atom_site_symmetry_multiplicity
 _atom_site_fract_x
 _atom_site_fract_y
 _atom_site_fract_z
 _atom_site_occupancy
  Ba  Ba0  1  0.06022580  0.16424993  0.25132939  1
  Ba  Ba1  1  0.06411684  0.33170810  0.74918357  1
  Ba  Ba2  1  0.18977420  0.66424993  0.24867061  1
  Ba  Ba3  1  0.31249170  0.17271198  0.24800139  1
  Ba  Ba4  1  0.18588316  0.83170810  0.75081643  1
  Ba  Ba5  1  0.31316193  0.33849620  0.75077037  1
  Ba  Ba6  1  0.43683807  0.66150380  0.24922963  1
  Ba  Ba7  1  0.56411684  0.16829190  0.24918357  1
  Ba  Ba8  1  0.43750830  0.82728802  0.75199861  1
  Ba  Ba9  1  0.68588316  0.66829190  0.25081643  1
  Ba  Ba10  1  0.56022580  0.33575007  0.75132939  1
  Ba  Ba11  1  0.68977420  0.83575007  0.74867061  1
  Ba  Ba12  1  0.81316193  0.16150380  0.25077037  1
  Ba  Ba13  1  0.81249170  0.32728802  0.74800139  1
  Ba  Ba14  1  0.93750830  0.67271198  0.25199861  1
  Ba  Ba15  1  0.93683807  0.83849620  0.74922963  1
  Nb  Nb16  1  0.98530133  0.00000608  0.05956462  1
  Nb  Nb17  1  0.12784362  0.49999354  0.98912847  1
  Nb  Nb18  1  0.12215638  -0.00000646  0.51087153  1
  Nb  Nb19  1  0.25037854  1.00023420  -0.00206672  1
  Nb  Nb20  1  0.26469867  0.50000608  0.44043538  1
  Nb  Nb21  1  0.37500000  0.00000000  0.50000000  1
  Nb  Nb22  1  0.49962146  -0.00023420  1.00206672  1
  Nb  Nb23  1  0.62215638  0.50000646  0.01087153  1
  Nb  Nb24  1  0.48530133  0.49999392  0.55956462  1
  Nb  Nb25  1  0.76469867  0.99999392  0.94043538  1
  Nb  Nb26  1  0.62784362  1.00000646  0.48912847  1
  Nb  Nb27  1  0.75037854  0.49976580  0.49793328  1
  Nb  Nb28  1  0.87500000  0.50000000  0.00000000  1
  Nb  Nb29  1  -0.00037854  0.50023420  0.50206672  1
  S  S30  1  0.00579485  0.91333587  0.23594170  1
  S  S31  1  0.06116273  0.66925073  0.25754557  1
  S  S32  1  0.12579857  0.91413414  0.24439432  1
  S  S33  1  0.00068613  0.58581605  0.75291635  1
  S  S34  1  0.12420143  0.41413414  0.25560568  1
  S  S35  1  0.06408814  0.83268375  0.74339461  1
  S  S36  1  0.18883727  0.16925073  0.24245443  1
  S  S37  1  0.24420515  0.41333587  0.26405830  1
  S  S38  1  0.12297618  0.58345634  0.75675100  1
  S  S39  1  0.12702382  0.08345634  0.74324900  1
  S  S40  1  0.25337535  0.91633254  0.24107149  1
  S  S41  1  0.18591186  0.33268375  0.75660539  1
  S  S42  1  0.30871875  0.67291215  0.26514436  1
  S  S43  1  0.24931387  0.08581605  0.74708365  1
  S  S44  1  0.37291432  0.91596261  0.25284417  1
  S  S45  1  0.24836544  0.58395645  0.75664537  1
  S  S46  1  0.37342982  0.41335371  0.26635664  1
  S  S47  1  0.43740853  0.17027631  0.25267584  1
  S  S48  1  0.31259147  0.82972369  0.74732416  1
  S  S49  1  0.50163456  0.41604355  0.24335463  1
  S  S50  1  0.37657018  0.58664629  0.73364336  1
  S  S51  1  0.37708568  0.08403739  0.74715583  1
  S  S52  1  0.50068613  0.91418395  0.25291635  1
  S  S53  1  0.44128125  0.32708785  0.73485564  1
  S  S54  1  0.56408814  0.66731625  0.24339461  1
  S  S55  1  0.62297618  0.91654366  0.25675100  1
  S  S56  1  0.49662465  0.08366746  0.75892851  1
  S  S57  1  0.62702382  0.41654366  0.24324900  1
  S  S58  1  0.50579485  0.58666413  0.73594170  1
  S  S59  1  0.68591186  0.16731625  0.25660539  1
  S  S60  1  0.56116273  0.83074927  0.75754557  1
  S  S61  1  0.74931387  0.41418395  0.24708365  1
  S  S62  1  0.62579857  0.58586586  0.74439432  1
  S  S63  1  0.62420143  0.08586586  0.75560568  1
  S  S64  1  0.74836544  0.91604355  0.25664537  1
  S  S65  1  0.81259147  0.67027631  0.24732416  1
  S  S66  1  0.68883727  0.33074927  0.74245443  1
  S  S67  1  0.74420515  0.08666413  0.76405830  1
  S  S68  1  0.87657018  0.91335371  0.23364336  1
  S  S69  1  0.87708568  0.41596261  0.24715583  1
  S  S70  1  0.75337535  0.58366746  0.74107149  1
  S  S71  1  0.94128125  0.17291215  0.23485564  1
  S  S72  1  0.80871875  0.82708785  0.76514436  1
  S  S73  1  0.99662465  0.41633254  0.25892851  1
  S  S74  1  0.87291432  0.58403739  0.75284417  1
  S  S75  1  0.87342982  0.08664629  0.76635664  1
  S  S76  1  0.93740853  0.32972369  0.75267584  1
  S  S77  1  0.00163456  0.08395645  0.74335463  1
