# generated using pymatgen
data_LiFeAsO4
_symmetry_space_group_name_H-M   'P 1'
_cell_length_a   4.95486017
_cell_length_b   6.16488685
_cell_length_c   10.75069130
_cell_angle_alpha   90.00000000
_cell_angle_beta   90.00000000
_cell_angle_gamma   90.00000000
_symmetry_Int_Tables_number   1
_chemical_formula_structural   LiFeAsO4
_chemical_formula_sum   'Li4 Fe4 As4 O16'
_cell_volume   328.39225384
_cell_formula_units_Z   4
loop_
 _symmetry_equiv_pos_site_id
 _symmetry_equiv_pos_as_xyz
  1  'x, y, z'
loop_
 _atom_site_type_symbol
 _atom_site_label
 _atom_site_symmetry_multiplicity
 _atom_site_fract_x
 _atom_site_fract_y
 _atom_site_fract_z
 _atom_site_occupancy
  Li  Li0  1  0.00000000  0.00000000  0.00000000  1
  Li  Li1  1  0.50000000  0.00000000  0.50000000  1
  Li  Li2  1  0.00000000  0.50000000  0.00000000  1
  Li  Li3  1  0.50000000  0.50000000  0.50000000  1
  Fe  Fe4  1  0.01128878  0.75000000  0.72309633  1
  Fe  Fe5  1  0.51128878  0.25000000  0.77690367  1
  Fe  Fe6  1  0.98871122  0.25000000  0.27690367  1
  Fe  Fe7  1  0.48871122  0.75000000  0.22309633  1
  As  As8  1  0.56374086  0.75000000  0.90682429  1
  As  As9  1  0.06374086  0.25000000  0.59317571  1
  As  As10  1  0.43625914  0.25000000  0.09317571  1
  As  As11  1  0.93625914  0.75000000  0.40682429  1
  O  O12  1  0.21866550  0.75000000  0.90605926  1
  O  O13  1  0.71866550  0.25000000  0.59394074  1
  O  O14  1  0.78133450  0.25000000  0.09394074  1
  O  O15  1  0.28133450  0.75000000  0.40605926  1
  O  O16  1  0.79019953  0.75000000  0.55249457  1
  O  O17  1  0.29019953  0.25000000  0.94750543  1
  O  O18  1  0.20980047  0.25000000  0.44750543  1
  O  O19  1  0.70980047  0.75000000  0.05249457  1
  O  O20  1  0.71637450  0.96704751  0.83068815  1
  O  O21  1  0.21637450  0.03295249  0.66931185  1
  O  O22  1  0.28362550  0.46704751  0.16931185  1
  O  O23  1  0.78362550  0.53295249  0.33068815  1
  O  O24  1  0.28362550  0.03295249  0.16931185  1
  O  O25  1  0.78362550  0.96704751  0.33068815  1
  O  O26  1  0.71637450  0.53295249  0.83068815  1
  O  O27  1  0.21637450  0.46704751  0.66931185  1
