# generated using pymatgen
data_KNa2LiTi2Fe2(SiO3)8
_symmetry_space_group_name_H-M   'P 1'
_cell_length_a   10.10227877
_cell_length_b   10.48271308
_cell_length_c   10.48271298
_cell_angle_alpha   75.09304452
_cell_angle_beta   69.99474032
_cell_angle_gamma   69.99474464
_symmetry_Int_Tables_number   1
_chemical_formula_structural   KNa2LiTi2Fe2(SiO3)8
_chemical_formula_sum   'K2 Na4 Li2 Ti4 Fe4 Si16 O48'
_cell_volume   967.75034534
_cell_formula_units_Z   2
loop_
 _symmetry_equiv_pos_site_id
 _symmetry_equiv_pos_as_xyz
  1  'x, y, z'
loop_
 _atom_site_type_symbol
 _atom_site_label
 _atom_site_symmetry_multiplicity
 _atom_site_fract_x
 _atom_site_fract_y
 _atom_site_fract_z
 _atom_site_occupancy
  Si  Si0  1  0.93331837  0.55129989  0.74033582  1
  Si  Si1  1  0.43331837  0.74033582  0.55129989  1
  Si  Si2  1  0.05263892  0.45178403  0.25896642  1
  Si  Si3  1  0.55263892  0.25896642  0.45178403  1
  Si  Si4  1  0.91196915  0.75143691  0.29465906  1
  Si  Si5  1  0.41196915  0.29465906  0.75143691  1
  Si  Si6  1  0.07775162  0.24537869  0.71053110  1
  Si  Si7  1  0.57775162  0.71053110  0.24537869  1
  Si  Si8  1  0.88450493  0.24323380  0.29625523  1
  Si  Si9  1  0.38450493  0.29625523  0.24323380  1
  Si  Si10  1  0.10415956  0.75127736  0.70523746  1
  Si  Si11  1  0.60415956  0.70523746  0.75127736  1
  Si  Si12  1  0.91458709  0.04141856  0.74614523  1
  Si  Si13  1  0.41458709  0.74614523  0.04141856  1
  Si  Si14  1  0.07719718  0.95901025  0.25163102  1
  Si  Si15  1  0.57719718  0.25163102  0.95901025  1
  Ti  Ti16  1  0.89084639  0.66827909  0.01718039  1
  Ti  Ti17  1  0.39084639  0.01718039  0.66827909  1
  Ti  Ti18  1  0.87823886  0.13925050  0.03739254  1
  Ti  Ti19  1  0.37823886  0.03739254  0.13925050  1
  Fe  Fe20  1  0.09237052  0.34317369  0.97862156  1
  Fe  Fe21  1  0.59237052  0.97862156  0.34317369  1
  Fe  Fe22  1  0.10741212  0.85222041  0.96959006  1
  Fe  Fe23  1  0.60741212  0.96959006  0.85222041  1
  Na  Na24  1  0.68794676  0.46495903  0.06274736  1
  Na  Na25  1  0.18794676  0.06274736  0.46495903  1
  Na  Na26  1  0.29039518  0.53840068  0.94090691  1
  Na  Na27  1  0.79039518  0.94090691  0.53840068  1
  K  K28  1  0.74537502  0.41654474  0.58085936  1
  K  K29  1  0.24537502  0.58085936  0.41654474  1
  Li  Li30  1  0.73560002  0.93825462  0.06682736  1
  Li  Li31  1  0.23560002  0.06682736  0.93825462  1
  O  O32  1  0.92179214  0.00698257  0.90719764  1
  O  O33  1  0.42179214  0.90719764  0.00698257  1
  O  O34  1  0.06418225  0.00695965  0.09424384  1
  O  O35  1  0.56418225  0.09424384  0.00695965  1
  O  O36  1  0.92344418  0.77841148  0.12938008  1
  O  O37  1  0.42344418  0.12938008  0.77841148  1
  O  O38  1  0.05925310  0.21093545  0.87477064  1
  O  O39  1  0.55925310  0.87477064  0.21093545  1
  O  O40  1  0.73537105  0.27190958  0.94448047  1
  O  O41  1  0.23537105  0.94448047  0.27190958  1
  O  O42  1  0.26261965  0.72060989  0.05597140  1
  O  O43  1  0.76261965  0.05597140  0.72060989  1
  O  O44  1  0.77182399  0.80129029  0.93887138  1
  O  O45  1  0.27182399  0.93887138  0.80129029  1
  O  O46  1  0.25245367  0.17404898  0.07159684  1
  O  O47  1  0.75245367  0.07159684  0.17404898  1
  O  O48  1  0.89671277  0.27760404  0.13238998  1
  O  O49  1  0.39671277  0.13238998  0.27760404  1
  O  O50  1  0.08596519  0.70916565  0.86872134  1
  O  O51  1  0.58596519  0.86872134  0.70916565  1
  O  O52  1  0.95565631  0.07823303  0.34715081  1
  O  O53  1  0.45565631  0.34715081  0.07823303  1
  O  O54  1  0.04264258  0.91834485  0.65949336  1
  O  O55  1  0.54264258  0.65949336  0.91834485  1
  O  O56  1  0.91657678  0.52292514  0.90479353  1
  O  O57  1  0.41657678  0.90479353  0.52292514  1
  O  O58  1  0.06028658  0.49164873  0.09830207  1
  O  O59  1  0.56028658  0.09830207  0.49164873  1
  O  O60  1  0.96955162  0.32926598  0.33714123  1
  O  O61  1  0.46955162  0.33714123  0.32926598  1
  O  O62  1  0.01784067  0.67124626  0.65725361  1
  O  O63  1  0.51784067  0.65725361  0.67124626  1
  O  O64  1  0.77298557  0.60673095  0.70840224  1
  O  O65  1  0.27298557  0.70840224  0.60673095  1
  O  O66  1  0.21565295  0.39211460  0.28687659  1
  O  O67  1  0.71565295  0.28687659  0.39211460  1
  O  O68  1  0.74195576  0.61275204  0.17970176  1
  O  O69  1  0.24195576  0.17970176  0.61275204  1
  O  O70  1  0.25442194  0.39293007  0.81744581  1
  O  O71  1  0.75442194  0.81744581  0.39293007  1
  O  O72  1  0.97055281  0.58223354  0.34418941  1
  O  O73  1  0.47055281  0.34418941  0.58223354  1
  O  O74  1  0.02025713  0.41472652  0.66424349  1
  O  O75  1  0.52025713  0.66424349  0.41472652  1
  O  O76  1  0.96918089  0.18216658  0.66942006  1
  O  O77  1  0.46918089  0.66942006  0.18216658  1
  O  O78  1  0.03134873  0.81465032  0.32066712  1
  O  O79  1  0.53134873  0.32066712  0.81465032  1
