# generated using pymatgen
data_Te4W3S2
_symmetry_space_group_name_H-M   'P 1'
_cell_length_a   3.42349853
_cell_length_b   3.42350880
_cell_length_c   31.69822019
_cell_angle_alpha   90.00000000
_cell_angle_beta   90.00000000
_cell_angle_gamma   119.99990088
_symmetry_Int_Tables_number   1
_chemical_formula_structural   Te4W3S2
_chemical_formula_sum   'Te4 W3 S2'
_cell_volume   321.74183714
_cell_formula_units_Z   1
loop_
 _symmetry_equiv_pos_site_id
 _symmetry_equiv_pos_as_xyz
  1  'x, y, z'
loop_
 _atom_site_type_symbol
 _atom_site_label
 _atom_site_symmetry_multiplicity
 _atom_site_fract_x
 _atom_site_fract_y
 _atom_site_fract_z
 _atom_site_occupancy
  Te  Te0  1  0.66664754  0.33329407  0.05660558  1
  Te  Te1  1  0.66664637  0.33329173  0.51923305  1
  Te  Te2  1  0.66664637  0.33329173  0.17473195  1
  Te  Te3  1  0.66664754  0.33329407  0.63735842  1
  W  W4  1  0.33331095  0.66662190  0.11565214  1
  W  W5  1  0.33331095  0.66662190  0.57831286  1
  W  W6  1  0.66668702  0.33337405  0.34698200  1
  S  S7  1  0.33335214  0.66670527  0.39429965  1
  S  S8  1  0.33335214  0.66670527  0.29966535  1
