# generated using pymatgen
data_CaV2O4
_symmetry_space_group_name_H-M   'P 1'
_cell_length_a   3.09394272
_cell_length_b   9.27597816
_cell_length_c   10.83650274
_cell_angle_alpha   90.00636774
_cell_angle_beta   90.01578220
_cell_angle_gamma   90.00162739
_symmetry_Int_Tables_number   1
_chemical_formula_structural   CaV2O4
_chemical_formula_sum   'Ca4 V8 O16'
_cell_volume   311.00051809
_cell_formula_units_Z   4
loop_
 _symmetry_equiv_pos_site_id
 _symmetry_equiv_pos_as_xyz
  1  'x, y, z'
loop_
 _atom_site_type_symbol
 _atom_site_label
 _atom_site_symmetry_multiplicity
 _atom_site_fract_x
 _atom_site_fract_y
 _atom_site_fract_z
 _atom_site_occupancy
  Ca  Ca0  1  0.74997629  0.75620226  0.65251595  1
  Ca  Ca1  1  0.24999896  0.24374857  0.34745196  1
  Ca  Ca2  1  0.74990351  0.25625597  0.84734723  1
  Ca  Ca3  1  0.24992655  0.74388285  0.15257882  1
  V  V4  1  0.74998626  0.93460571  0.88715916  1
  V  V5  1  0.25006091  0.06543588  0.11289490  1
  V  V6  1  0.75012463  0.43469466  0.61290384  1
  V  V7  1  0.25014347  0.56526292  0.38707429  1
  V  V8  1  0.75000777  0.91761377  0.39460950  1
  V  V9  1  0.25001732  0.08217703  0.60535691  1
  V  V10  1  0.74981975  0.41773393  0.10532123  1
  V  V11  1  0.24984562  0.58231774  0.89467441  1
  O  O12  1  0.75003735  0.70729418  0.33403273  1
  O  O13  1  0.25003541  0.29277627  0.66614115  1
  O  O14  1  0.75004758  0.20726359  0.16617196  1
  O  O15  1  0.25003262  0.79279145  0.83389061  1
  O  O16  1  0.74909491  0.61750690  0.02484093  1
  O  O17  1  0.24909405  0.38261381  0.97514820  1
  O  O18  1  0.75021563  0.11727733  0.47518600  1
  O  O19  1  0.24993305  0.88243464  0.52483932  1
  O  O20  1  0.75086558  0.52520263  0.78243635  1
  O  O21  1  0.25087402  0.47489673  0.21752068  1
  O  O22  1  0.74977017  0.02516989  0.71748024  1
  O  O23  1  0.25011354  0.97489179  0.28251322  1
  O  O24  1  0.74999149  0.91899469  0.07226308  1
  O  O25  1  0.24993836  0.08106137  0.92768160  1
  O  O26  1  0.75007449  0.41885000  0.42774120  1
  O  O27  1  0.25007071  0.58104342  0.57222453  1
