# generated using pymatgen
data_SrTa4O11
_symmetry_space_group_name_H-M   'P 1'
_cell_length_a   6.31870991
_cell_length_b   6.31871020
_cell_length_c   12.46075418
_cell_angle_alpha   90.00000000
_cell_angle_beta   90.00000000
_cell_angle_gamma   119.99999855
_symmetry_Int_Tables_number   1
_chemical_formula_structural   SrTa4O11
_chemical_formula_sum   'Sr2 Ta8 O22'
_cell_volume   430.85567869
_cell_formula_units_Z   2
loop_
 _symmetry_equiv_pos_site_id
 _symmetry_equiv_pos_as_xyz
  1  'x, y, z'
loop_
 _atom_site_type_symbol
 _atom_site_label
 _atom_site_symmetry_multiplicity
 _atom_site_fract_x
 _atom_site_fract_y
 _atom_site_fract_z
 _atom_site_occupancy
  Sr  Sr0  1  0.66666700  0.33333300  0.25000000  1
  Sr  Sr1  1  0.33333300  0.66666700  0.75000000  1
  Ta  Ta2  1  0.33333300  0.66666700  0.25000000  1
  Ta  Ta3  1  0.66666700  0.33333300  0.75000000  1
  Ta  Ta4  1  0.35636144  0.00000000  0.00000000  1
  Ta  Ta5  1  0.35636144  0.35636144  0.50000000  1
  Ta  Ta6  1  1.00000000  0.64363856  0.50000000  1
  Ta  Ta7  1  0.00000000  0.35636144  0.00000000  1
  Ta  Ta8  1  0.64363856  0.64363856  0.00000000  1
  Ta  Ta9  1  0.64363856  0.00000000  0.50000000  1
  O  O10  1  0.33333300  0.66666700  0.53441531  1
  O  O11  1  0.66666700  0.33333300  0.03441531  1
  O  O12  1  0.66666700  0.33333300  0.46558469  1
  O  O13  1  0.33333300  0.66666700  0.96558469  1
  O  O14  1  0.75538863  0.00000000  0.00000000  1
  O  O15  1  0.75538863  0.75538863  0.50000000  1
  O  O16  1  1.00000000  0.24461137  0.50000000  1
  O  O17  1  0.00000000  0.75538863  0.00000000  1
  O  O18  1  0.24461137  0.24461137  0.00000000  1
  O  O19  1  0.24461137  0.00000000  0.50000000  1
  O  O20  1  0.37022367  0.43298755  0.34566976  1
  O  O21  1  0.93723612  0.37022367  0.84566976  1
  O  O22  1  0.43298755  0.06276388  0.84566976  1
  O  O23  1  0.56701245  0.93723612  0.34566976  1
  O  O24  1  0.06276388  0.62977633  0.34566976  1
  O  O25  1  0.93723612  0.56701245  0.65433024  1
  O  O26  1  0.62977633  0.06276388  0.65433024  1
  O  O27  1  0.62977633  0.56701245  0.84566976  1
  O  O28  1  0.43298755  0.37022367  0.65433024  1
  O  O29  1  0.56701245  0.62977633  0.15433024  1
  O  O30  1  0.06276388  0.43298755  0.15433024  1
  O  O31  1  0.37022367  0.93723612  0.15433024  1
