# generated using pymatgen
data_VAsO5
_symmetry_space_group_name_H-M   'P 1'
_cell_length_a   7.98035462
_cell_length_b   6.43858030
_cell_length_c   7.50109169
_cell_angle_alpha   90.00000000
_cell_angle_beta   90.00000000
_cell_angle_gamma   90.00000000
_symmetry_Int_Tables_number   1
_chemical_formula_structural   VAsO5
_chemical_formula_sum   'V4 As4 O20'
_cell_volume   385.42224871
_cell_formula_units_Z   4
loop_
 _symmetry_equiv_pos_site_id
 _symmetry_equiv_pos_as_xyz
  1  'x, y, z'
loop_
 _atom_site_type_symbol
 _atom_site_label
 _atom_site_symmetry_multiplicity
 _atom_site_fract_x
 _atom_site_fract_y
 _atom_site_fract_z
 _atom_site_occupancy
  As  As0  1  0.12125108  0.75000000  0.61490941  1
  As  As1  1  0.37874892  0.25000000  0.11490941  1
  As  As2  1  0.62125108  0.75000000  0.88509059  1
  As  As3  1  0.87874892  0.25000000  0.38509059  1
  O  O4  1  0.06234410  0.25000000  0.50394510  1
  O  O5  1  0.13745196  0.75000000  0.16975734  1
  O  O6  1  0.12153211  0.54120582  0.75559900  1
  O  O7  1  0.12153211  0.95879418  0.75559900  1
  O  O8  1  0.19967713  0.25000000  0.98453364  1
  O  O9  1  0.30032287  0.75000000  0.48453364  1
  O  O10  1  0.37846789  0.04120582  0.25559900  1
  O  O11  1  0.37846789  0.45879418  0.25559900  1
  O  O12  1  0.36254804  0.25000000  0.66975734  1
  O  O13  1  0.43765590  0.75000000  0.00394510  1
  O  O14  1  0.56234410  0.25000000  0.99605490  1
  O  O15  1  0.63745196  0.75000000  0.33024266  1
  O  O16  1  0.62153211  0.54120582  0.74440100  1
  O  O17  1  0.62153211  0.95879418  0.74440100  1
  O  O18  1  0.69967713  0.25000000  0.51546636  1
  O  O19  1  0.80032287  0.75000000  0.01546636  1
  O  O20  1  0.87846789  0.04120582  0.24440100  1
  O  O21  1  0.87846789  0.45879418  0.24440100  1
  O  O22  1  0.86254804  0.25000000  0.83024266  1
  O  O23  1  0.93765590  0.75000000  0.49605490  1
  V  V24  1  0.16960711  0.25000000  0.73486388  1
  V  V25  1  0.33039289  0.75000000  0.23486388  1
  V  V26  1  0.66960711  0.25000000  0.76513612  1
  V  V27  1  0.83039289  0.75000000  0.26513612  1
