# generated using pymatgen
data_PrNiSnH
_symmetry_space_group_name_H-M   'P 1'
_cell_length_a   4.40968336
_cell_length_b   7.28813280
_cell_length_c   8.54189614
_cell_angle_alpha   90.00000000
_cell_angle_beta   90.00000000
_cell_angle_gamma   90.00000000
_symmetry_Int_Tables_number   1
_chemical_formula_structural   PrNiSnH
_chemical_formula_sum   'Pr4 Ni4 Sn4 H4'
_cell_volume   274.52251558
_cell_formula_units_Z   4
loop_
 _symmetry_equiv_pos_site_id
 _symmetry_equiv_pos_as_xyz
  1  'x, y, z'
loop_
 _atom_site_type_symbol
 _atom_site_label
 _atom_site_symmetry_multiplicity
 _atom_site_fract_x
 _atom_site_fract_y
 _atom_site_fract_z
 _atom_site_occupancy
  Pr  Pr0  1  0.24268605  0.01323301  0.31099785  1
  Pr  Pr1  1  0.74268605  0.98676699  0.68900215  1
  Pr  Pr2  1  0.74268605  0.48676699  0.81099785  1
  Pr  Pr3  1  0.24268605  0.51323301  0.18900215  1
  Ni  Ni4  1  0.24307593  0.78098011  0.90109642  1
  Ni  Ni5  1  0.74307593  0.21901989  0.09890358  1
  Ni  Ni6  1  0.74307593  0.71901989  0.40109642  1
  Ni  Ni7  1  0.24307593  0.28098011  0.59890358  1
  Sn  Sn8  1  0.24265141  0.65784176  0.56846415  1
  Sn  Sn9  1  0.74265141  0.34215824  0.43153585  1
  Sn  Sn10  1  0.74265141  0.84215824  0.06846415  1
  Sn  Sn11  1  0.24265141  0.15784176  0.93153585  1
  H  H12  1  0.74258661  0.43817264  0.08072054  1
  H  H13  1  0.24258661  0.56182736  0.91927946  1
  H  H14  1  0.24258661  0.06182736  0.58072054  1
  H  H15  1  0.74258661  0.93817264  0.41927946  1
