# generated using pymatgen
data_Co(PO3)2
_symmetry_space_group_name_H-M   'P 1'
_cell_length_a   7.28721205
_cell_length_b   7.28947328
_cell_length_c   9.87579914
_cell_angle_alpha   98.58818703
_cell_angle_beta   109.76451577
_cell_angle_gamma   109.86902062
_symmetry_Int_Tables_number   1
_chemical_formula_structural   Co(PO3)2
_chemical_formula_sum   'Co4 P8 O24'
_cell_volume   443.12982239
_cell_formula_units_Z   4
loop_
 _symmetry_equiv_pos_site_id
 _symmetry_equiv_pos_as_xyz
  1  'x, y, z'
loop_
 _atom_site_type_symbol
 _atom_site_label
 _atom_site_symmetry_multiplicity
 _atom_site_fract_x
 _atom_site_fract_y
 _atom_site_fract_z
 _atom_site_occupancy
  Co  Co0  1  0.19988837  0.45053581  0.25020524  1
  Co  Co1  1  0.80011163  0.54946419  0.74979476  1
  Co  Co2  1  0.00000000  0.00000000  0.00000000  1
  Co  Co3  1  0.00000000  0.50000000  0.50000000  1
  P  P4  1  0.29308218  0.75219746  0.02299029  1
  P  P5  1  0.72930157  0.76983778  0.47695151  1
  P  P6  1  0.70691782  0.24780254  0.97700971  1
  P  P7  1  0.27069843  0.23016222  0.52304849  1
  O  O8  1  0.24928725  0.58568258  0.09266445  1
  O  O9  1  0.49301027  0.65621787  0.40797411  1
  O  O10  1  0.75071275  0.41431742  0.90733555  1
  O  O11  1  0.50698973  0.34378213  0.59202589  1
  O  O12  1  0.10716996  0.78684023  0.91879846  1
  O  O13  1  0.86865415  0.68820445  0.58076702  1
  O  O14  1  0.89283004  0.21315977  0.08120154  1
  O  O15  1  0.13134585  0.31179555  0.41923298  1
  O  O16  1  0.46233175  0.96461841  0.15361797  1
  O  O17  1  0.81023053  0.80884374  0.34596275  1
  O  O18  1  0.53766825  0.03538159  0.84638203  1
  O  O19  1  0.18976947  0.19115626  0.65403725  1
  P  P20  1  0.50869036  0.20252666  0.19592810  1
  P  P21  1  0.00600104  0.81298660  0.30373319  1
  P  P22  1  0.49130964  0.79747334  0.80407190  1
  P  P23  1  0.99399896  0.18701340  0.69626681  1
  O  O24  1  0.69334485  0.30630386  0.34549029  1
  O  O25  1  0.96026293  0.84788218  0.15416567  1
  O  O26  1  0.30665515  0.69369614  0.65450971  1
  O  O27  1  0.03973707  0.15211782  0.84583433  1
  O  O28  1  0.29893208  0.21853107  0.17597027  1
  O  O29  1  0.04205822  0.62332258  0.32384417  1
  O  O30  1  0.70106792  0.78146893  0.82402973  1
  O  O31  1  0.95794178  0.37667742  0.67615583  1
  O  O32  1  0.56534652  0.28114539  0.06467475  1
  O  O33  1  0.21596611  0.00105350  0.43491084  1
  O  O34  1  0.43465348  0.71885461  0.93532525  1
  O  O35  1  0.78403389  0.99894650  0.56508916  1
