# generated using pymatgen
data_Cs2Co(NO3)4
_symmetry_space_group_name_H-M   'P 1'
_cell_length_a   8.04195692
_cell_length_b   12.88160088
_cell_length_c   13.77581090
_cell_angle_alpha   101.64529223
_cell_angle_beta   93.34390630
_cell_angle_gamma   105.88828702
_symmetry_Int_Tables_number   1
_chemical_formula_structural   Cs2Co(NO3)4
_chemical_formula_sum   'Cs8 Co4 N16 O48'
_cell_volume   1334.50119864
_cell_formula_units_Z   4
loop_
 _symmetry_equiv_pos_site_id
 _symmetry_equiv_pos_as_xyz
  1  'x, y, z'
loop_
 _atom_site_type_symbol
 _atom_site_label
 _atom_site_symmetry_multiplicity
 _atom_site_fract_x
 _atom_site_fract_y
 _atom_site_fract_z
 _atom_site_occupancy
  Cs  Cs0  1  0.28769220  0.51573751  0.62304643  1
  Cs  Cs1  1  0.71230780  0.48426249  0.37695357  1
  Cs  Cs2  1  0.06976288  0.36350750  0.90238818  1
  Cs  Cs3  1  0.93023712  0.63649250  0.09761182  1
  Cs  Cs4  1  0.70769571  0.87869622  0.92713531  1
  Cs  Cs5  1  0.29230429  0.12130378  0.07286469  1
  Cs  Cs6  1  0.82349791  0.11849129  0.58396532  1
  Cs  Cs7  1  0.17650209  0.88150871  0.41603468  1
  Co  Co8  1  0.11000000  0.83208103  0.72420135  1
  Co  Co9  1  0.89000000  0.16791897  0.27579865  1
  Co  Co10  1  0.53002122  0.31178779  0.75780800  1
  Co  Co11  1  0.46997878  0.68821221  0.24219200  1
  N  N12  1  0.80301437  0.71593688  0.62567784  1
  N  N13  1  0.19698563  0.28406312  0.37432216  1
  N  N14  1  0.10560969  0.68793084  0.86438524  1
  N  N15  1  0.89439031  0.31206916  0.13561476  1
  N  N16  1  0.44267793  0.89529898  0.69946044  1
  N  N17  1  0.55732207  0.10470102  0.30053956  1
  N  N18  1  0.05083972  0.02142155  0.78248626  1
  N  N19  1  0.94916028  0.97857845  0.21751374  1
  N  N20  1  0.31432793  0.17784742  0.60602543  1
  N  N21  1  0.68567207  0.82215258  0.39397457  1
  N  N22  1  0.80597989  0.42046341  0.64627767  1
  N  N23  1  0.19402011  0.57953659  0.35372233  1
  N  N24  1  0.58595673  0.50825721  0.88148715  1
  N  N25  1  0.41404327  0.49174279  0.11851285  1
  N  N26  1  0.57263360  0.18864644  0.87768089  1
  N  N27  1  0.42736640  0.81135356  0.12231911  1
  O  O28  1  0.81156102  0.75310240  0.71964141  1
  O  O29  1  0.18843898  0.24689760  0.28035859  1
  O  O30  1  0.94928851  0.73758151  0.58879551  1
  O  O31  1  0.05071149  0.26241849  0.41120449  1
  O  O32  1  0.66439236  0.66228912  0.57230537  1
  O  O33  1  0.33560764  0.33771088  0.42769463  1
  O  O34  1  0.15265519  0.70096980  0.77765332  1
  O  O35  1  0.84734481  0.29903020  0.22234668  1
  O  O36  1  0.02426510  0.74873850  0.91003705  1
  O  O37  1  0.97573490  0.25126150  0.08996295  1
  O  O38  1  0.14551796  0.61406030  0.89920111  1
  O  O39  1  0.85448204  0.38593970  0.10079889  1
  O  O40  1  0.39877328  0.91443035  0.78776512  1
  O  O41  1  0.60122672  0.08556965  0.21223488  1
  O  O42  1  0.31553847  0.84360885  0.62936976  1
  O  O43  1  0.68446153  0.15639115  0.37063024  1
  O  O44  1  0.59579975  0.92359031  0.68205858  1
  O  O45  1  0.40420025  0.07640969  0.31794142  1
  O  O46  1  0.06805545  0.98666688  0.69106624  1
  O  O47  1  0.93194455  0.01333312  0.30893376  1
  O  O48  1  0.07251943  0.95840952  0.84143625  1
  O  O49  1  0.92748057  0.04159048  0.15856375  1
  O  O50  1  0.01299784  0.10819879  0.81340214  1
  O  O51  1  0.98700216  0.89180121  0.18659786  1
  O  O52  1  0.46337880  0.16399974  0.62441943  1
  O  O53  1  0.53662120  0.83600026  0.37558057  1
  O  O54  1  0.28087063  0.25706841  0.66838591  1
  O  O55  1  0.71912937  0.74293159  0.33161409  1
  O  O56  1  0.20724254  0.11965995  0.53436969  1
  O  O57  1  0.79275746  0.88034005  0.46563031  1
  O  O58  1  0.64330277  0.40508246  0.65860685  1
  O  O59  1  0.35669723  0.59491754  0.34139315  1
  O  O60  1  0.89538555  0.37365022  0.69101147  1
  O  O61  1  0.10461445  0.62634978  0.30898853  1
  O  O62  1  0.87008924  0.48115996  0.58942561  1
  O  O63  1  0.12991076  0.51884004  0.41057439  1
  O  O64  1  0.70843730  0.46309135  0.88137996  1
  O  O65  1  0.29156270  0.53690865  0.11862004  1
  O  O66  1  0.44324146  0.44980247  0.82453860  1
  O  O67  1  0.55675854  0.55019753  0.17546140  1
  O  O68  1  0.59930266  0.60179130  0.93260555  1
  O  O69  1  0.40069734  0.39820870  0.06739445  1
  O  O70  1  0.42987372  0.21450415  0.87160714  1
  O  O71  1  0.57012628  0.78549585  0.12839286  1
  O  O72  1  0.68047252  0.22367603  0.81699233  1
  O  O73  1  0.31952748  0.77632397  0.18300767  1
  O  O74  1  0.60684854  0.13535868  0.93726580  1
  O  O75  1  0.39315146  0.86464132  0.06273420  1
