# generated using pymatgen
data_V2Co2O7
_symmetry_space_group_name_H-M   'P 1'
_cell_length_a   6.71064080
_cell_length_b   8.47671649
_cell_length_c   9.59015691
_cell_angle_alpha   90.00000000
_cell_angle_beta   100.56447681
_cell_angle_gamma   90.00000000
_symmetry_Int_Tables_number   1
_chemical_formula_structural   V2Co2O7
_chemical_formula_sum   'V8 Co8 O28'
_cell_volume   536.28126142
_cell_formula_units_Z   4
loop_
 _symmetry_equiv_pos_site_id
 _symmetry_equiv_pos_as_xyz
  1  'x, y, z'
loop_
 _atom_site_type_symbol
 _atom_site_label
 _atom_site_symmetry_multiplicity
 _atom_site_fract_x
 _atom_site_fract_y
 _atom_site_fract_z
 _atom_site_occupancy
  O  O0  1  0.85097375  0.12086895  0.50282463  1
  O  O1  1  0.14902625  0.62086895  0.99717537  1
  O  O2  1  0.14902625  0.87913105  0.49717537  1
  O  O3  1  0.85097375  0.37913105  0.00282463  1
  O  O4  1  0.03001928  0.42045468  0.74799145  1
  O  O5  1  0.96998072  0.92045468  0.75200855  1
  O  O6  1  0.96998072  0.57954532  0.25200855  1
  O  O7  1  0.03001928  0.07954532  0.24799145  1
  O  O8  1  0.67508812  0.12221781  0.84892209  1
  O  O9  1  0.32491188  0.62221781  0.65107791  1
  O  O10  1  0.32491188  0.87778219  0.15107791  1
  O  O11  1  0.67508812  0.37778219  0.34892209  1
  O  O12  1  0.25072011  0.14411729  0.68096291  1
  O  O13  1  0.74927989  0.64411729  0.81903709  1
  O  O14  1  0.74927989  0.85588271  0.31903709  1
  O  O15  1  0.25072011  0.35588271  0.18096291  1
  O  O16  1  0.60819330  0.13171551  0.12464561  1
  O  O17  1  0.39180670  0.63171551  0.37535439  1
  O  O18  1  0.39180670  0.86828449  0.87535439  1
  O  O19  1  0.60819330  0.36828449  0.62464561  1
  O  O20  1  0.42582457  0.12940911  0.39579300  1
  O  O21  1  0.57417543  0.62940911  0.10420700  1
  O  O22  1  0.57417543  0.87059089  0.60420700  1
  O  O23  1  0.42582457  0.37059089  0.89579300  1
  O  O24  1  0.17262364  0.36844354  0.45949879  1
  O  O25  1  0.82737636  0.86844354  0.04050121  1
  O  O26  1  0.82737636  0.63155646  0.54050121  1
  O  O27  1  0.17262364  0.13155646  0.95949879  1
  V  V28  1  0.19409097  0.48023102  0.31240853  1
  V  V29  1  0.80590903  0.98023102  0.18759147  1
  V  V30  1  0.80590903  0.51976898  0.68759147  1
  V  V31  1  0.19409097  0.01976898  0.81240853  1
  V  V32  1  0.36249610  0.74193215  0.03114459  1
  V  V33  1  0.63750390  0.24193215  0.46885541  1
  V  V34  1  0.63750390  0.25806785  0.96885541  1
  V  V35  1  0.36249610  0.75806785  0.53114459  1
  Co  Co36  1  0.30390055  0.11219564  0.17937932  1
  Co  Co37  1  0.69609945  0.61219564  0.32062068  1
  Co  Co38  1  0.69609945  0.88780436  0.82062068  1
  Co  Co39  1  0.30390055  0.38780436  0.67937932  1
  Co  Co40  1  0.14511869  0.37869552  0.96318953  1
  Co  Co41  1  0.85488131  0.87869552  0.53681047  1
  Co  Co42  1  0.85488131  0.62130448  0.03681047  1
  Co  Co43  1  0.14511869  0.12130448  0.46318953  1
