# generated using pymatgen
data_RbMnF4
_symmetry_space_group_name_H-M   'P 1'
_cell_length_a   6.16482647
_cell_length_b   7.97571118
_cell_length_c   7.99920834
_cell_angle_alpha   90.00000000
_cell_angle_beta   90.85665567
_cell_angle_gamma   90.00000000
_symmetry_Int_Tables_number   1
_chemical_formula_structural   RbMnF4
_chemical_formula_sum   'Rb4 Mn4 F16'
_cell_volume   393.26811737
_cell_formula_units_Z   4
loop_
 _symmetry_equiv_pos_site_id
 _symmetry_equiv_pos_as_xyz
  1  'x, y, z'
loop_
 _atom_site_type_symbol
 _atom_site_label
 _atom_site_symmetry_multiplicity
 _atom_site_fract_x
 _atom_site_fract_y
 _atom_site_fract_z
 _atom_site_occupancy
  Rb  Rb0  1  0.51235760  0.70431786  0.25340452  1
  Rb  Rb1  1  0.48764240  0.20431786  0.24659548  1
  Rb  Rb2  1  0.48764240  0.29568214  0.74659548  1
  Rb  Rb3  1  0.51235760  0.79568214  0.75340452  1
  Mn  Mn4  1  0.00000000  0.00000000  0.00000000  1
  Mn  Mn5  1  0.00000000  0.00000000  0.50000000  1
  Mn  Mn6  1  0.00000000  0.50000000  0.00000000  1
  Mn  Mn7  1  0.00000000  0.50000000  0.50000000  1
  F  F8  1  0.71509385  0.06439284  0.95480712  1
  F  F9  1  0.71427767  0.04968174  0.55192073  1
  F  F10  1  0.28572233  0.54968174  0.94807927  1
  F  F11  1  0.28572233  0.95031826  0.44807927  1
  F  F12  1  0.90500326  0.77030475  0.99782337  1
  F  F13  1  0.09499674  0.27030475  0.50217663  1
  F  F14  1  0.09499674  0.22969525  0.00217663  1
  F  F15  1  0.90500326  0.72969525  0.49782337  1
  F  F16  1  0.07810739  0.98644675  0.73237330  1
  F  F17  1  0.92189261  0.48644675  0.76762670  1
  F  F18  1  0.92189261  0.01355325  0.26762670  1
  F  F19  1  0.07810739  0.51355325  0.23237330  1
  F  F20  1  0.71509385  0.43560716  0.45480712  1
  F  F21  1  0.28490615  0.56439284  0.54519288  1
  F  F22  1  0.28490615  0.93560716  0.04519288  1
  F  F23  1  0.71427767  0.45031826  0.05192073  1
