# generated using pymatgen
data_CoNi(PO3)4
_symmetry_space_group_name_H-M   'P 1'
_cell_length_a   7.26738011
_cell_length_b   7.26803639
_cell_length_c   9.78582981
_cell_angle_alpha   98.54471364
_cell_angle_beta   110.11707250
_cell_angle_gamma   109.68817177
_symmetry_Int_Tables_number   1
_chemical_formula_structural   CoNi(PO3)4
_chemical_formula_sum   'Co2 Ni2 P8 O24'
_cell_volume   436.05293418
_cell_formula_units_Z   2
loop_
 _symmetry_equiv_pos_site_id
 _symmetry_equiv_pos_as_xyz
  1  'x, y, z'
loop_
 _atom_site_type_symbol
 _atom_site_label
 _atom_site_symmetry_multiplicity
 _atom_site_fract_x
 _atom_site_fract_y
 _atom_site_fract_z
 _atom_site_occupancy
  Ni  Ni0  1  0.50000000  0.50000000  0.50000000  1
  Ni  Ni1  1  0.50000000  0.00000000  0.00000000  1
  Co  Co2  1  0.69563370  0.94565822  0.75001429  1
  Co  Co3  1  0.30436630  0.05434178  0.24998571  1
  P  P4  1  0.50518003  0.31128336  0.80229317  1
  P  P5  1  0.00899067  0.70293536  0.69768187  1
  P  P6  1  0.49481997  0.68871664  0.19770683  1
  P  P7  1  0.99100933  0.29706464  0.30231813  1
  P  P8  1  0.76982528  0.72856876  0.02367593  1
  P  P9  1  0.20482027  0.74608821  0.47624165  1
  P  P10  1  0.23017472  0.27143124  0.97632407  1
  P  P11  1  0.79517973  0.25391179  0.52375835  1
  O  O12  1  0.30982443  0.31168065  0.84424189  1
  O  O13  1  0.96750426  0.46565814  0.65583051  1
  O  O14  1  0.69017557  0.68831935  0.15575811  1
  O  O15  1  0.03249574  0.53434186  0.34416949  1
  O  O16  1  0.71717271  0.49997407  0.93420063  1
  O  O17  1  0.06566244  0.78288755  0.56570971  1
  O  O18  1  0.28282729  0.50002593  0.06579937  1
  O  O19  1  0.93433756  0.21711245  0.43429029  1
  O  O20  1  0.45895289  0.34244731  0.65021460  1
  O  O21  1  0.19227479  0.80894077  0.84973874  1
  O  O22  1  0.54104711  0.65755269  0.34978540  1
  O  O23  1  0.80772521  0.19105923  0.15026126  1
  O  O24  1  0.53814839  0.12003959  0.82426713  1
  O  O25  1  0.79572224  0.71383876  0.67574789  1
  O  O26  1  0.46185161  0.87996041  0.17573287  1
  O  O27  1  0.20427776  0.28616124  0.32425211  1
  O  O28  1  0.62579129  0.80813407  0.91844586  1
  O  O29  1  0.38964237  0.70733239  0.58151460  1
  O  O30  1  0.37420871  0.19186593  0.08155414  1
  O  O31  1  0.61035763  0.29266761  0.41848540  1
  O  O32  1  0.00654605  0.84520376  0.09359649  1
  O  O33  1  0.25154588  0.91287712  0.40634788  1
  O  O34  1  0.99345395  0.15479624  0.90640351  1
  O  O35  1  0.74845412  0.08712288  0.59365212  1
