# generated using pymatgen
data_K2CoH12(SO7)2
_symmetry_space_group_name_H-M   'P 1'
_cell_length_a   6.25914085
_cell_length_b   9.10038089
_cell_length_c   12.31597810
_cell_angle_alpha   90.00000000
_cell_angle_beta   90.00000000
_cell_angle_gamma   104.36062730
_symmetry_Int_Tables_number   1
_chemical_formula_structural   K2CoH12(SO7)2
_chemical_formula_sum   'K4 Co2 H24 S4 O28'
_cell_volume   679.60510762
_cell_formula_units_Z   2
loop_
 _symmetry_equiv_pos_site_id
 _symmetry_equiv_pos_as_xyz
  1  'x, y, z'
loop_
 _atom_site_type_symbol
 _atom_site_label
 _atom_site_symmetry_multiplicity
 _atom_site_fract_x
 _atom_site_fract_y
 _atom_site_fract_z
 _atom_site_occupancy
  Co  Co0  1  0.00000000  0.00000000  0.00000000  1
  Co  Co1  1  0.00000000  0.50000000  0.50000000  1
  K  K2  1  0.34502663  0.13140680  0.34693337  1
  K  K3  1  0.65497337  0.36859320  0.84693337  1
  K  K4  1  0.65497337  0.86859320  0.65306663  1
  K  K5  1  0.34502663  0.63140680  0.15306663  1
  S  S6  1  0.72513502  0.40706974  0.13799735  1
  S  S7  1  0.27486498  0.09293026  0.63799735  1
  S  S8  1  0.27486498  0.59293026  0.86200265  1
  S  S9  1  0.72513502  0.90706974  0.36200265  1
  O  O10  1  0.58315233  0.40394198  0.23616993  1
  O  O11  1  0.41684767  0.09605802  0.73616993  1
  O  O12  1  0.41684767  0.59605802  0.76383007  1
  O  O13  1  0.58315233  0.90394198  0.26383007  1
  O  O14  1  0.74913819  0.55243038  0.07870068  1
  O  O15  1  0.25086181  0.94756962  0.57870068  1
  O  O16  1  0.25086181  0.44756962  0.92129932  1
  O  O17  1  0.74913819  0.05243038  0.42129932  1
  O  O18  1  0.61232606  0.27963597  0.06467405  1
  O  O19  1  0.38767394  0.22036403  0.56467405  1
  O  O20  1  0.38767394  0.72036403  0.93532595  1
  O  O21  1  0.61232606  0.77963597  0.43532595  1
  O  O22  1  0.94709529  0.38733305  0.17123956  1
  O  O23  1  0.05290471  0.11266695  0.67123956  1
  O  O24  1  0.05290471  0.61266695  0.82876044  1
  O  O25  1  0.94709529  0.88733305  0.32876044  1
  O  O26  1  0.16846759  0.16805350  0.11314259  1
  O  O27  1  0.83153241  0.33194650  0.61314259  1
  O  O28  1  0.83153241  0.83194650  0.88685741  1
  O  O29  1  0.16846759  0.66805350  0.38685741  1
  O  O30  1  0.03276948  0.82311698  0.11608238  1
  O  O31  1  0.96723052  0.67688302  0.61608238  1
  O  O32  1  0.96723052  0.17688302  0.88391762  1
  O  O33  1  0.03276948  0.32311698  0.38391762  1
  O  O34  1  0.29412950  0.99344543  0.93311729  1
  O  O35  1  0.70587050  0.50655457  0.43311729  1
  O  O36  1  0.70587050  0.00655457  0.06688271  1
  O  O37  1  0.29412950  0.49344543  0.56688271  1
  H  H38  1  0.32286200  0.21557857  0.09063551  1
  H  H39  1  0.67713800  0.28442143  0.59063551  1
  H  H40  1  0.67713800  0.78442143  0.90936449  1
  H  H41  1  0.32286200  0.71557857  0.40936449  1
  H  H42  1  0.09214405  0.25014005  0.12458421  1
  H  H43  1  0.90785595  0.24985895  0.62458421  1
  H  H44  1  0.90785595  0.74985895  0.87541579  1
  H  H45  1  0.09214405  0.75014105  0.37541579  1
  H  H46  1  0.92498403  0.72385345  0.10206213  1
  H  H47  1  0.07501597  0.77614655  0.60206213  1
  H  H48  1  0.07501597  0.27614655  0.89793787  1
  H  H49  1  0.92498403  0.22385345  0.39793787  1
  H  H50  1  -0.00064788  0.85154544  0.19098044  1
  H  H51  1  1.00064788  0.64845456  0.69098044  1
  H  H52  1  1.00064788  0.14845456  0.80901956  1
  H  H53  1  -0.00064788  0.35154544  0.30901956  1
  H  H54  1  0.33390936  0.89449822  0.93883015  1
  H  H55  1  0.66609064  0.60550178  0.43883015  1
  H  H56  1  0.66609064  0.10550178  0.06116985  1
  H  H57  1  0.33390936  0.39449822  0.56116985  1
  H  H58  1  0.32721258  0.02910085  0.85685268  1
  H  H59  1  0.67278742  0.47089915  0.35685268  1
  H  H60  1  0.67278742  0.97089915  0.14314732  1
  H  H61  1  0.32721258  0.52910085  0.64314732  1
