# generated using pymatgen
data_Rb2Co2O3
_symmetry_space_group_name_H-M   'P 1'
_cell_length_a   6.18182504
_cell_length_b   7.91738756
_cell_length_c   12.03813710
_cell_angle_alpha   90.00000000
_cell_angle_beta   90.00000000
_cell_angle_gamma   90.00000000
_symmetry_Int_Tables_number   1
_chemical_formula_structural   Rb2Co2O3
_chemical_formula_sum   'Rb8 Co8 O12'
_cell_volume   589.19343462
_cell_formula_units_Z   4
loop_
 _symmetry_equiv_pos_site_id
 _symmetry_equiv_pos_as_xyz
  1  'x, y, z'
loop_
 _atom_site_type_symbol
 _atom_site_label
 _atom_site_symmetry_multiplicity
 _atom_site_fract_x
 _atom_site_fract_y
 _atom_site_fract_z
 _atom_site_occupancy
  Rb  Rb0  1  0.25000000  0.00539241  0.37941774  1
  Rb  Rb1  1  0.75000000  0.99460759  0.62058226  1
  Rb  Rb2  1  0.75000000  0.50539241  0.12058226  1
  Rb  Rb3  1  0.25000000  0.49460759  0.87941774  1
  Rb  Rb4  1  0.25000000  0.87553965  0.05806713  1
  Rb  Rb5  1  0.75000000  0.12446035  0.94193287  1
  Rb  Rb6  1  0.75000000  0.37553965  0.44193287  1
  Rb  Rb7  1  0.25000000  0.62446035  0.55806713  1
  Co  Co8  1  0.25000000  0.58972737  0.26498758  1
  Co  Co9  1  0.75000000  0.41027263  0.73501242  1
  Co  Co10  1  0.75000000  0.08972737  0.23501242  1
  Co  Co11  1  0.25000000  0.91027263  0.76498758  1
  Co  Co12  1  0.25000000  0.27512855  0.15165464  1
  Co  Co13  1  0.75000000  0.72487145  0.84834536  1
  Co  Co14  1  0.75000000  0.77512855  0.34834536  1
  Co  Co15  1  0.25000000  0.22487145  0.65165464  1
  O  O16  1  0.25000000  0.51523595  0.12045190  1
  O  O17  1  0.75000000  0.48476405  0.87954810  1
  O  O18  1  0.75000000  0.01523595  0.37954810  1
  O  O19  1  0.25000000  0.98476405  0.62045190  1
  O  O20  1  0.99217902  0.16029464  0.15042077  1
  O  O21  1  0.49217902  0.83970536  0.84957923  1
  O  O22  1  0.00782098  0.66029464  0.34957923  1
  O  O23  1  0.50782098  0.33970536  0.65042077  1
  O  O24  1  0.00782098  0.83970536  0.84957923  1
  O  O25  1  0.50782098  0.16029464  0.15042077  1
  O  O26  1  0.99217902  0.33970536  0.65042077  1
  O  O27  1  0.49217902  0.66029464  0.34957923  1
