# generated using pymatgen
data_Gd2(MoO4)3
_symmetry_space_group_name_H-M   'P 1'
_cell_length_a   10.64307157
_cell_length_b   10.63622097
_cell_length_c   10.81999514
_cell_angle_alpha   90.00000000
_cell_angle_beta   90.00000000
_cell_angle_gamma   90.00000000
_symmetry_Int_Tables_number   1
_chemical_formula_structural   Gd2(MoO4)3
_chemical_formula_sum   'Gd8 Mo12 O48'
_cell_volume   1224.84575005
_cell_formula_units_Z   4
loop_
 _symmetry_equiv_pos_site_id
 _symmetry_equiv_pos_as_xyz
  1  'x, y, z'
loop_
 _atom_site_type_symbol
 _atom_site_label
 _atom_site_symmetry_multiplicity
 _atom_site_fract_x
 _atom_site_fract_y
 _atom_site_fract_z
 _atom_site_occupancy
  Gd  Gd0  1  0.81149873  0.00323003  0.23840323  1
  Gd  Gd1  1  0.18850127  0.99676997  0.23840323  1
  Gd  Gd2  1  0.68850127  0.50323003  0.23840323  1
  Gd  Gd3  1  0.31149873  0.49676997  0.23840323  1
  Gd  Gd4  1  0.99735862  0.31117130  0.76353995  1
  Gd  Gd5  1  0.00264138  0.68882870  0.76353995  1
  Gd  Gd6  1  0.50264138  0.81117130  0.76353995  1
  Gd  Gd7  1  0.49735862  0.18882870  0.76353995  1
  Mo  Mo8  1  0.75451406  0.75382960  0.50104381  1
  Mo  Mo9  1  0.24548594  0.24617040  0.50104381  1
  Mo  Mo10  1  0.74548594  0.25382960  0.50104381  1
  Mo  Mo11  1  0.25451406  0.74617040  0.50104381  1
  Mo  Mo12  1  0.79255102  0.99757051  0.85708124  1
  Mo  Mo13  1  0.20744898  0.00242949  0.85708124  1
  Mo  Mo14  1  0.70744898  0.49757051  0.85708124  1
  Mo  Mo15  1  0.29255102  0.50242949  0.85708124  1
  Mo  Mo16  1  0.99373550  0.29256819  0.14471788  1
  Mo  Mo17  1  0.00626450  0.70743181  0.14471788  1
  Mo  Mo18  1  0.50626450  0.79256819  0.14471788  1
  Mo  Mo19  1  0.49373550  0.20743181  0.14471788  1
  O  O20  1  0.87273642  0.50388969  0.80913161  1
  O  O21  1  0.12726358  0.49611031  0.80913161  1
  O  O22  1  0.62726358  0.00388969  0.80913161  1
  O  O23  1  0.37273642  0.99611031  0.80913161  1
  O  O24  1  0.50214255  0.37281817  0.19228710  1
  O  O25  1  0.49785745  0.62718183  0.19228710  1
  O  O26  1  0.99785745  0.87281817  0.19228710  1
  O  O27  1  0.00214255  0.12718183  0.19228710  1
  O  O28  1  0.80352979  0.01066854  0.02108814  1
  O  O29  1  0.19647021  0.98933146  0.02108814  1
  O  O30  1  0.69647021  0.51066854  0.02108814  1
  O  O31  1  0.30352979  0.48933146  0.02108814  1
  O  O32  1  0.49194544  0.19646661  0.98028716  1
  O  O33  1  0.50805456  0.80353339  0.98028716  1
  O  O34  1  0.00805456  0.69646661  0.98028716  1
  O  O35  1  0.99194544  0.30353339  0.98028716  1
  O  O36  1  0.86158801  0.32304044  0.59968881  1
  O  O37  1  0.67598774  0.37311462  0.40629450  1
  O  O38  1  0.82401226  0.87311462  0.40629450  1
  O  O39  1  0.17598774  0.12688538  0.40629450  1
  O  O40  1  0.37597700  0.37467421  0.78854072  1
  O  O41  1  0.62402300  0.62532579  0.78854072  1
  O  O42  1  0.12402300  0.87467421  0.78854072  1
  O  O43  1  0.87597700  0.12532579  0.78854072  1
  O  O44  1  0.12696653  0.37395983  0.20449172  1
  O  O45  1  0.87303347  0.62604017  0.20449172  1
  O  O46  1  0.37303347  0.87395983  0.20449172  1
  O  O47  1  0.62696653  0.12604017  0.20449172  1
  O  O48  1  0.14610792  0.15102802  0.81007696  1
  O  O49  1  0.85389208  0.84897198  0.81007696  1
  O  O50  1  0.35389208  0.65102802  0.81007696  1
  O  O51  1  0.64610792  0.34897198  0.81007696  1
  O  O52  1  0.34966314  0.14408153  0.20151358  1
  O  O53  1  0.65033686  0.85591847  0.20151358  1
  O  O54  1  0.15033686  0.64408153  0.20151358  1
  O  O55  1  0.84966314  0.35591847  0.20151358  1
  O  O56  1  0.31633250  0.36172729  0.40267006  1
  O  O57  1  0.68366750  0.63827271  0.40267006  1
  O  O58  1  0.18366750  0.86172729  0.40267006  1
  O  O59  1  0.81633250  0.13827271  0.40267006  1
  O  O60  1  0.12693769  0.31714829  0.59574354  1
  O  O61  1  0.87306231  0.68285171  0.59574354  1
  O  O62  1  0.37306231  0.81714829  0.59574354  1
  O  O63  1  0.62693769  0.18285171  0.59574354  1
  O  O64  1  0.36158801  0.17695956  0.59968881  1
  O  O65  1  0.63841199  0.82304044  0.59968881  1
  O  O66  1  0.13841199  0.67695956  0.59968881  1
  O  O67  1  0.32401226  0.62688538  0.40629450  1
