# generated using pymatgen
data_NaZr2NiF11
_symmetry_space_group_name_H-M   'P 1'
_cell_length_a   5.71927819
_cell_length_b   5.71927819
_cell_length_c   7.87009529
_cell_angle_alpha   69.24718388
_cell_angle_beta   69.24718387
_cell_angle_gamma   72.78944205
_symmetry_Int_Tables_number   1
_chemical_formula_structural   NaZr2NiF11
_chemical_formula_sum   'Na1 Zr2 Ni1 F11'
_cell_volume   220.79835435
_cell_formula_units_Z   1
loop_
 _symmetry_equiv_pos_site_id
 _symmetry_equiv_pos_as_xyz
  1  'x, y, z'
loop_
 _atom_site_type_symbol
 _atom_site_label
 _atom_site_symmetry_multiplicity
 _atom_site_fract_x
 _atom_site_fract_y
 _atom_site_fract_z
 _atom_site_occupancy
  F  F0  1  0.81390130  0.22067904  0.68522855  1
  F  F1  1  0.77932096  0.18609870  0.31477145  1
  F  F2  1  0.18609870  0.77932096  0.31477145  1
  F  F3  1  0.22067904  0.81390130  0.68522855  1
  F  F4  1  0.50000000  0.50000000  0.50000000  1
  F  F5  1  0.32783257  0.67216743  0.00000000  1
  F  F6  1  0.67216743  0.32783257  0.00000000  1
  F  F7  1  0.24369267  0.24369267  0.35215851  1
  F  F8  1  0.75630733  0.75630733  0.64784149  1
  F  F9  1  0.26850001  0.26850001  0.88947542  1
  F  F10  1  0.73149999  0.73149999  0.11052458  1
  Na  Na11  1  0.00000000  0.00000000  0.00000000  1
  Ni  Ni12  1  0.00000000  0.00000000  0.50000000  1
  Zr  Zr13  1  0.50805305  0.50805305  0.76232091  1
  Zr  Zr14  1  0.49194695  0.49194695  0.23767909  1
