# generated using pymatgen
data_BaLiCoF6
_symmetry_space_group_name_H-M   'P 1'
_cell_length_a   5.62837117
_cell_length_b   8.54480634
_cell_length_c   10.34935225
_cell_angle_alpha   90.00000000
_cell_angle_beta   90.00000000
_cell_angle_gamma   91.24157270
_symmetry_Int_Tables_number   1
_chemical_formula_structural   BaLiCoF6
_chemical_formula_sum   'Ba4 Li4 Co4 F24'
_cell_volume   497.61807764
_cell_formula_units_Z   4
loop_
 _symmetry_equiv_pos_site_id
 _symmetry_equiv_pos_as_xyz
  1  'x, y, z'
loop_
 _atom_site_type_symbol
 _atom_site_label
 _atom_site_symmetry_multiplicity
 _atom_site_fract_x
 _atom_site_fract_y
 _atom_site_fract_z
 _atom_site_occupancy
  Li  Li0  1  0.76747534  0.80927745  0.42650628  1
  Li  Li1  1  0.23252466  0.69072255  0.92650628  1
  Li  Li2  1  0.23252466  0.19072255  0.57349372  1
  Li  Li3  1  0.76747534  0.30927745  0.07349372  1
  F  F4  1  0.48383985  0.81755532  0.00469425  1
  F  F5  1  0.89755064  0.31742248  0.86968631  1
  F  F6  1  0.10244936  0.18257752  0.36968631  1
  F  F7  1  0.10244936  0.68257752  0.13031369  1
  F  F8  1  0.89755064  0.81742248  0.63031369  1
  F  F9  1  0.89081376  0.21554811  0.59858888  1
  F  F10  1  0.10918624  0.28445189  0.09858888  1
  F  F11  1  0.10918624  0.78445189  0.40141112  1
  F  F12  1  0.51616015  0.68244468  0.50469425  1
  F  F13  1  0.62174859  0.25236631  0.24494946  1
  F  F14  1  0.48383985  0.31755532  0.49530575  1
  F  F15  1  0.51616015  0.18244468  0.99530575  1
  F  F16  1  0.37825141  0.74763369  0.75505054  1
  F  F17  1  0.62174859  0.75236631  0.25505054  1
  F  F18  1  0.13417730  0.55612882  0.60212260  1
  F  F19  1  0.37825141  0.24763369  0.74494946  1
  F  F20  1  0.32549473  0.47432302  0.90879991  1
  F  F21  1  0.86582270  0.94387118  0.10212260  1
  F  F22  1  0.86582270  0.44387118  0.39787740  1
  F  F23  1  0.13417730  0.05612882  0.89787740  1
  F  F24  1  0.32549473  0.97432302  0.59120009  1
  F  F25  1  0.67450527  0.52567698  0.09120009  1
  F  F26  1  0.67450527  0.02567698  0.40879991  1
  F  F27  1  0.89081376  0.71554811  0.90141112  1
  Co  Co28  1  0.22290973  0.76687494  0.58139564  1
  Co  Co29  1  0.22290973  0.26687494  0.91860436  1
  Co  Co30  1  0.77709027  0.23312506  0.41860436  1
  Co  Co31  1  0.77709027  0.73312506  0.08139564  1
  Ba  Ba32  1  0.68440101  0.00330789  0.79913534  1
  Ba  Ba33  1  0.68440101  0.50330789  0.70086466  1
  Ba  Ba34  1  0.31559899  0.99669211  0.20086466  1
  Ba  Ba35  1  0.31559899  0.49669211  0.29913534  1
