# generated using pymatgen
data_NaHf2VF11
_symmetry_space_group_name_H-M   'P 1'
_cell_length_a   5.75785288
_cell_length_b   5.75785288
_cell_length_c   7.81745348
_cell_angle_alpha   69.49821619
_cell_angle_beta   69.49821617
_cell_angle_gamma   73.13075972
_symmetry_Int_Tables_number   1
_chemical_formula_structural   NaHf2VF11
_chemical_formula_sum   'Na1 Hf2 V1 F11'
_cell_volume   223.19601032
_cell_formula_units_Z   1
loop_
 _symmetry_equiv_pos_site_id
 _symmetry_equiv_pos_as_xyz
  1  'x, y, z'
loop_
 _atom_site_type_symbol
 _atom_site_label
 _atom_site_symmetry_multiplicity
 _atom_site_fract_x
 _atom_site_fract_y
 _atom_site_fract_z
 _atom_site_occupancy
  F  F0  1  0.80170844  0.22347962  0.69328606  1
  F  F1  1  0.77652038  0.19829156  0.30671394  1
  F  F2  1  0.19829156  0.77652038  0.30671394  1
  F  F3  1  0.22347962  0.80170844  0.69328606  1
  F  F4  1  0.50000000  0.50000000  0.50000000  1
  F  F5  1  0.33241782  0.66758218  0.00000000  1
  F  F6  1  0.66758218  0.33241782  0.00000000  1
  F  F7  1  0.25417038  0.25417038  0.35146892  1
  F  F8  1  0.74582962  0.74582962  0.64853108  1
  F  F9  1  0.26868627  0.26868627  0.88829647  1
  F  F10  1  0.73131373  0.73131373  0.11170353  1
  Na  Na11  1  0.00000000  0.00000000  0.00000000  1
  V  V12  1  0.00000000  0.00000000  0.50000000  1
  Hf  Hf13  1  0.50368255  0.50368255  0.76577286  1
  Hf  Hf14  1  0.49631745  0.49631745  0.23422714  1
