# generated using pymatgen
data_CsFeF4
_symmetry_space_group_name_H-M   'P 1'
_cell_length_a   6.65624738
_cell_length_b   7.93917394
_cell_length_c   7.93917394
_cell_angle_alpha   90.00000000
_cell_angle_beta   90.00000000
_cell_angle_gamma   90.00000000
_symmetry_Int_Tables_number   1
_chemical_formula_structural   CsFeF4
_chemical_formula_sum   'Cs4 Fe4 F16'
_cell_volume   419.54648633
_cell_formula_units_Z   4
loop_
 _symmetry_equiv_pos_site_id
 _symmetry_equiv_pos_as_xyz
  1  'x, y, z'
loop_
 _atom_site_type_symbol
 _atom_site_label
 _atom_site_symmetry_multiplicity
 _atom_site_fract_x
 _atom_site_fract_y
 _atom_site_fract_z
 _atom_site_occupancy
  F  F0  1  0.71871178  0.97100580  0.97100580  1
  F  F1  1  0.71871178  0.52899420  0.52899420  1
  F  F2  1  0.71871178  0.97100580  0.52899420  1
  F  F3  1  0.71871178  0.52899420  0.97100580  1
  F  F4  1  0.28128822  0.47100580  0.47100580  1
  F  F5  1  0.28128822  0.02899420  0.47100580  1
  F  F6  1  0.28128822  0.47100580  0.02899420  1
  F  F7  1  0.28128822  0.02899420  0.02899420  1
  F  F8  1  0.95316622  0.25000000  0.99732334  1
  F  F9  1  0.95316622  0.50267666  0.25000000  1
  F  F10  1  0.95316622  0.99732334  0.25000000  1
  F  F11  1  0.95316622  0.25000000  0.50267666  1
  F  F12  1  0.04683378  0.75000000  0.00267666  1
  F  F13  1  0.04683378  0.75000000  0.49732334  1
  F  F14  1  0.04683378  0.49732334  0.75000000  1
  F  F15  1  0.04683378  0.00267666  0.75000000  1
  Fe  Fe16  1  0.00000000  0.50000000  0.50000000  1
  Fe  Fe17  1  0.00000000  0.00000000  0.50000000  1
  Fe  Fe18  1  0.00000000  0.50000000  0.00000000  1
  Fe  Fe19  1  0.00000000  0.00000000  0.00000000  1
  Cs  Cs20  1  0.50000000  0.25000000  0.75000000  1
  Cs  Cs21  1  0.50000000  0.75000000  0.25000000  1
  Cs  Cs22  1  0.45109996  0.75000000  0.75000000  1
  Cs  Cs23  1  0.54890004  0.25000000  0.25000000  1
