# generated using pymatgen
data_NaMnF4
_symmetry_space_group_name_H-M   'P 1'
_cell_length_a   5.00446426
_cell_length_b   5.85698626
_cell_length_c   5.89451552
_cell_angle_alpha   108.61216041
_cell_angle_beta   90.00000000
_cell_angle_gamma   90.00000000
_symmetry_Int_Tables_number   1
_chemical_formula_structural   NaMnF4
_chemical_formula_sum   'Na2 Mn2 F8'
_cell_volume   163.73861438
_cell_formula_units_Z   2
loop_
 _symmetry_equiv_pos_site_id
 _symmetry_equiv_pos_as_xyz
  1  'x, y, z'
loop_
 _atom_site_type_symbol
 _atom_site_label
 _atom_site_symmetry_multiplicity
 _atom_site_fract_x
 _atom_site_fract_y
 _atom_site_fract_z
 _atom_site_occupancy
  F  F0  1  0.15033867  0.69324257  0.88621416  1
  F  F1  1  0.65033867  0.30675743  0.61378584  1
  F  F2  1  0.84966133  0.30675743  0.11378584  1
  F  F3  1  0.34966133  0.69324257  0.38621416  1
  F  F4  1  0.23321211  0.12039716  0.33479958  1
  F  F5  1  0.73321211  0.87960284  0.16520042  1
  F  F6  1  0.76678789  0.87960284  0.66520042  1
  F  F7  1  0.26678789  0.12039716  0.83479958  1
  Na  Na8  1  0.50000000  0.50000000  0.00000000  1
  Na  Na9  1  0.00000000  0.50000000  0.50000000  1
  Mn  Mn10  1  0.50000000  0.00000000  0.50000000  1
  Mn  Mn11  1  0.00000000  0.00000000  0.00000000  1
