# generated using pymatgen
data_K3MnO3
_symmetry_space_group_name_H-M   'P 1'
_cell_length_a   6.74154556
_cell_length_b   6.83381615
_cell_length_c   11.67813617
_cell_angle_alpha   90.00000000
_cell_angle_beta   90.00000000
_cell_angle_gamma   95.63662148
_symmetry_Int_Tables_number   1
_chemical_formula_structural   K3MnO3
_chemical_formula_sum   'K12 Mn4 O12'
_cell_volume   535.41596497
_cell_formula_units_Z   4
loop_
 _symmetry_equiv_pos_site_id
 _symmetry_equiv_pos_as_xyz
  1  'x, y, z'
loop_
 _atom_site_type_symbol
 _atom_site_label
 _atom_site_symmetry_multiplicity
 _atom_site_fract_x
 _atom_site_fract_y
 _atom_site_fract_z
 _atom_site_occupancy
  K  K0  1  0.65369936  0.85846932  0.99002980  1
  K  K1  1  0.34630064  0.64153068  0.49002980  1
  K  K2  1  0.34630064  0.14153068  0.00997020  1
  K  K3  1  0.65369936  0.35846932  0.50997020  1
  K  K4  1  0.52742425  0.50730398  0.21162305  1
  K  K5  1  0.47257575  0.99269602  0.71162305  1
  K  K6  1  0.47257575  0.49269602  0.78837695  1
  K  K7  1  0.52742425  0.00730398  0.28837695  1
  K  K8  1  0.01928105  0.57845559  0.72629061  1
  K  K9  1  0.98071895  0.92154441  0.22629061  1
  K  K10  1  0.98071895  0.42154441  0.27370939  1
  K  K11  1  0.01928105  0.07845559  0.77370939  1
  Mn  Mn12  1  0.84043444  0.33961706  0.99605216  1
  Mn  Mn13  1  0.15956556  0.16038294  0.49605216  1
  Mn  Mn14  1  0.15956556  0.66038294  0.00394784  1
  Mn  Mn15  1  0.84043444  0.83961706  0.50394784  1
  O  O16  1  0.10742368  0.40249258  0.92570818  1
  O  O17  1  0.89257632  0.09750742  0.42570818  1
  O  O18  1  0.89257632  0.59750742  0.07429182  1
  O  O19  1  0.10742368  0.90249258  0.57429182  1
  O  O20  1  0.69910289  0.21542096  0.87158728  1
  O  O21  1  0.30089711  0.28457904  0.37158728  1
  O  O22  1  0.30089711  0.78457904  0.12841272  1
  O  O23  1  0.69910289  0.71542096  0.62841272  1
  O  O24  1  0.27873813  0.80615401  0.88041314  1
  O  O25  1  0.72126187  0.69384599  0.38041314  1
  O  O26  1  0.72126187  0.19384599  0.11958686  1
  O  O27  1  0.27873813  0.30615401  0.61958686  1
