# generated using pymatgen
data_Ho3CuGeS7
_symmetry_space_group_name_H-M   'P 1'
_cell_length_a   9.81482505
_cell_length_b   9.81482538
_cell_length_c   5.84716770
_cell_angle_alpha   90.00000000
_cell_angle_beta   90.00000000
_cell_angle_gamma   119.99999886
_symmetry_Int_Tables_number   1
_chemical_formula_structural   Ho3CuGeS7
_chemical_formula_sum   'Ho6 Cu2 Ge2 S14'
_cell_volume   487.79947261
_cell_formula_units_Z   2
loop_
 _symmetry_equiv_pos_site_id
 _symmetry_equiv_pos_as_xyz
  1  'x, y, z'
loop_
 _atom_site_type_symbol
 _atom_site_label
 _atom_site_symmetry_multiplicity
 _atom_site_fract_x
 _atom_site_fract_y
 _atom_site_fract_z
 _atom_site_occupancy
  Ho  Ho0  1  0.64187783  0.78009507  0.75001353  1
  Ho  Ho1  1  0.21990493  0.86178275  0.75001353  1
  Ho  Ho2  1  0.13821725  0.35812217  0.75001353  1
  Ho  Ho3  1  0.86178275  0.64187783  0.25001353  1
  Ho  Ho4  1  0.78009507  0.13821725  0.25001353  1
  Ho  Ho5  1  0.35812217  0.21990493  0.25001353  1
  Cu  Cu6  1  0.00000000  0.00000000  0.68617574  1
  Cu  Cu7  1  0.00000000  0.00000000  0.18617574  1
  Ge  Ge8  1  0.66666700  0.33333300  0.83082777  1
  Ge  Ge9  1  0.33333300  0.66666700  0.33082777  1
  S  S10  1  0.15690111  0.89614355  0.20467177  1
  S  S11  1  0.84309889  0.10385645  0.70467177  1
  S  S12  1  0.66666700  0.33333300  0.45256566  1
  S  S13  1  0.73924244  0.84309889  0.20467177  1
  S  S14  1  0.42482341  0.52117629  0.49352498  1
  S  S15  1  0.57517659  0.47882371  0.99352498  1
  S  S16  1  0.10385645  0.26075756  0.20467177  1
  S  S17  1  0.52117629  0.09635288  0.99352498  1
  S  S18  1  0.90364712  0.42482341  0.99352498  1
  S  S19  1  0.89614355  0.73924244  0.70467177  1
  S  S20  1  0.26075756  0.15690111  0.70467177  1
  S  S21  1  0.47882371  0.90364712  0.49352498  1
  S  S22  1  0.33333300  0.66666700  0.95256566  1
  S  S23  1  0.09635288  0.57517659  0.49352498  1
