# generated using pymatgen
data_Hg3AsO4
_symmetry_space_group_name_H-M   'P 1'
_cell_length_a   8.82565524
_cell_length_b   10.52485361
_cell_length_c   14.00671460
_cell_angle_alpha   101.60996046
_cell_angle_beta   90.00000000
_cell_angle_gamma   90.00000000
_symmetry_Int_Tables_number   1
_chemical_formula_structural   Hg3AsO4
_chemical_formula_sum   'Hg24 As8 O32'
_cell_volume   1274.44647650
_cell_formula_units_Z   8
loop_
 _symmetry_equiv_pos_site_id
 _symmetry_equiv_pos_as_xyz
  1  'x, y, z'
loop_
 _atom_site_type_symbol
 _atom_site_label
 _atom_site_symmetry_multiplicity
 _atom_site_fract_x
 _atom_site_fract_y
 _atom_site_fract_z
 _atom_site_occupancy
  Hg  Hg0  1  0.55592175  0.48364363  0.36166777  1
  Hg  Hg1  1  0.05592175  0.51635637  0.13833223  1
  Hg  Hg2  1  0.94407825  0.48364363  0.86166777  1
  Hg  Hg3  1  0.58709839  0.27176546  0.83489876  1
  Hg  Hg4  1  0.25529347  0.05500059  0.96119613  1
  Hg  Hg5  1  0.75529347  0.94499941  0.53880387  1
  Hg  Hg6  1  0.08709839  0.72823454  0.66510124  1
  Hg  Hg7  1  0.93103474  0.08996419  0.66520244  1
  Hg  Hg8  1  0.24470653  0.05500059  0.46119613  1
  Hg  Hg9  1  0.61169899  0.81070261  0.30239967  1
  Hg  Hg10  1  0.91290161  0.27176546  0.33489876  1
  Hg  Hg11  1  0.43103474  0.91003581  0.83479756  1
  Hg  Hg12  1  0.11169899  0.18929739  0.19760033  1
  Hg  Hg13  1  0.26973181  0.51007192  0.40308276  1
  Hg  Hg14  1  0.44407825  0.51635637  0.63833223  1
  Hg  Hg15  1  0.74470653  0.94499941  0.03880387  1
  Hg  Hg16  1  0.76973181  0.48992808  0.09691724  1
  Hg  Hg17  1  0.73026819  0.48992808  0.59691724  1
  Hg  Hg18  1  0.38830101  0.18929739  0.69760033  1
  Hg  Hg19  1  0.06896526  0.91003581  0.33479756  1
  Hg  Hg20  1  0.56896526  0.08996419  0.16520244  1
  Hg  Hg21  1  0.88830101  0.81070261  0.80239967  1
  Hg  Hg22  1  0.23026819  0.51007192  0.90308276  1
  Hg  Hg23  1  0.41290161  0.72823454  0.16510124  1
  As  As24  1  0.09791654  0.36656779  0.59510735  1
  As  As25  1  0.91615515  0.16055308  0.90590072  1
  As  As26  1  0.40208346  0.36656779  0.09510735  1
  As  As27  1  0.08384485  0.83944692  0.09409928  1
  As  As28  1  0.59791654  0.63343221  0.90489265  1
  As  As29  1  0.41615515  0.83944692  0.59409928  1
  As  As30  1  0.58384485  0.16055308  0.40590072  1
  As  As31  1  0.90208346  0.63343221  0.40489265  1
  O  O32  1  0.29860420  0.49287699  0.16542937  1
  O  O33  1  0.09962181  0.37204113  0.47325465  1
  O  O34  1  0.58004758  0.37520260  0.14667459  1
  O  O35  1  0.96444121  0.83281889  0.99586265  1
  O  O36  1  0.40037819  0.37204113  0.97325465  1
  O  O37  1  0.02815985  0.17640368  0.80704117  1
  O  O38  1  0.08004758  0.62479740  0.35332541  1
  O  O39  1  0.80533465  0.02242923  0.88089483  1
  O  O40  1  0.79860420  0.50712301  0.33457063  1
  O  O41  1  0.16992147  0.21698694  0.61042652  1
  O  O42  1  0.59962181  0.62795887  0.02674535  1
  O  O43  1  0.70939542  0.29198792  0.43107330  1
  O  O44  1  0.70139580  0.50712301  0.83457063  1
  O  O45  1  0.53555879  0.83281889  0.49586265  1
  O  O46  1  0.90037819  0.62795887  0.52674535  1
  O  O47  1  0.30533465  0.97757077  0.61910517  1
  O  O48  1  0.41995242  0.62479740  0.85332541  1
  O  O49  1  0.66992147  0.78301306  0.88957348  1
  O  O50  1  0.20939542  0.70801208  0.06892670  1
  O  O51  1  0.47184015  0.17640368  0.30704117  1
  O  O52  1  0.79060458  0.29198792  0.93107330  1
  O  O53  1  0.69466535  0.02242923  0.38089483  1
  O  O54  1  0.20139580  0.49287699  0.66542937  1
  O  O55  1  0.03555879  0.16718111  0.00413735  1
  O  O56  1  0.29060458  0.70801208  0.56892670  1
  O  O57  1  0.91995242  0.37520260  0.64667459  1
  O  O58  1  0.83007853  0.78301306  0.38957348  1
  O  O59  1  0.52815985  0.82359632  0.69295883  1
  O  O60  1  0.46444121  0.16718111  0.50413735  1
  O  O61  1  0.33007853  0.21698694  0.11042652  1
  O  O62  1  0.19466535  0.97757077  0.11910517  1
  O  O63  1  0.97184015  0.82359632  0.19295883  1
