# generated using pymatgen
data_Ti4S8Br6O
_symmetry_space_group_name_H-M   'P 1'
_cell_length_a   9.70664518
_cell_length_b   11.84081303
_cell_length_c   20.08474628
_cell_angle_alpha   90.00000000
_cell_angle_beta   91.65223697
_cell_angle_gamma   90.00000000
_symmetry_Int_Tables_number   1
_chemical_formula_structural   Ti4S8Br6O
_chemical_formula_sum   'Ti16 S32 Br24 O4'
_cell_volume   2307.47194647
_cell_formula_units_Z   4
loop_
 _symmetry_equiv_pos_site_id
 _symmetry_equiv_pos_as_xyz
  1  'x, y, z'
loop_
 _atom_site_type_symbol
 _atom_site_label
 _atom_site_symmetry_multiplicity
 _atom_site_fract_x
 _atom_site_fract_y
 _atom_site_fract_z
 _atom_site_occupancy
  Ti  Ti0  1  0.87559357  0.31321910  0.88089590  1
  Ti  Ti1  1  0.46790631  0.79825935  0.15895821  1
  Ti  Ti2  1  0.53209369  0.29825935  0.34104179  1
  Ti  Ti3  1  0.46790631  0.70174065  0.65895821  1
  Ti  Ti4  1  0.36312570  0.71420691  0.01733081  1
  Ti  Ti5  1  0.12440643  0.81321910  0.61910410  1
  Ti  Ti6  1  0.63687430  0.28579309  0.98266919  1
  Ti  Ti7  1  0.78957773  0.44309698  0.38737041  1
  Ti  Ti8  1  0.78957773  0.05690302  0.88737041  1
  Ti  Ti9  1  0.12440643  0.68678090  0.11910410  1
  Ti  Ti10  1  0.21042227  0.55690302  0.61262959  1
  Ti  Ti11  1  0.36312570  0.78579309  0.51733081  1
  Ti  Ti12  1  0.87559357  0.18678090  0.38089590  1
  Ti  Ti13  1  0.63687430  0.21420691  0.48266919  1
  Ti  Ti14  1  0.53209369  0.20174065  0.84104179  1
  Ti  Ti15  1  0.21042227  0.94309698  0.11262959  1
  S  S16  1  0.54315365  0.49896302  0.36177059  1
  S  S17  1  0.11740866  0.64777828  1.00087614  1
  S  S18  1  0.95810413  0.35608805  0.31760292  1
  S  S19  1  0.33919586  0.54729755  0.71687672  1
  S  S20  1  0.01474039  0.15382026  0.91655310  1
  S  S21  1  0.45684635  -0.00103698  0.13822941  1
  S  S22  1  0.66080414  0.04729755  0.78312328  1
  S  S23  1  0.88259134  0.14777828  0.49912386  1
  S  S24  1  0.98525961  0.84617974  0.08344690  1
  S  S25  1  0.95810413  0.14391195  0.81760292  1
  S  S26  1  0.54914659  0.63896536  0.08582897  1
  S  S27  1  0.98525961  0.65382026  0.58344690  1
  S  S28  1  0.04189587  0.85608805  0.18239708  1
  S  S29  1  0.58866032  0.69889865  0.55536390  1
  S  S30  1  0.01474039  0.34617974  0.41655310  1
  S  S31  1  0.41133968  0.19889865  0.94463610  1
  S  S32  1  0.45684635  0.50103698  0.63822941  1
  S  S33  1  0.58866032  0.80110135  0.05536390  1
  S  S34  1  0.11740866  0.85222172  0.50087614  1
  S  S35  1  0.74820972  0.45779829  0.94880029  1
  S  S36  1  0.45085341  0.13896536  0.41417103  1
  S  S37  1  0.04189587  0.64391195  0.68239708  1
  S  S38  1  0.74820972  0.04220171  0.44880029  1
  S  S39  1  0.25179028  0.95779829  0.55119971  1
  S  S40  1  0.41133968  0.30110135  0.44463610  1
  S  S41  1  0.25179028  0.54220171  0.05119971  1
  S  S42  1  0.54315365  1.00103698  0.86177059  1
  S  S43  1  0.33919586  0.95270245  0.21687672  1
  S  S44  1  0.88259134  0.35222172  -0.00087614  1
  S  S45  1  0.45085341  0.36103464  0.91417103  1
  S  S46  1  0.66080414  0.45270245  0.28312328  1
  S  S47  1  0.54914659  0.86103464  0.58582897  1
  Br  Br48  1  0.56675582  0.16998183  0.59316068  1
  Br  Br49  1  0.12447818  0.36791255  0.60084861  1
  Br  Br50  1  0.65378140  0.78628706  0.23894092  1
  Br  Br51  1  0.87552182  0.63208745  0.39915139  1
  Br  Br52  1  0.30568858  0.64802297  0.22090969  1
  Br  Br53  1  0.12447818  0.13208745  0.10084861  1
  Br  Br54  1  0.04545596  0.05772566  0.34219678  1
  Br  Br55  1  0.34621860  0.21371294  0.76105908  1
  Br  Br56  1  0.30568858  0.85197703  0.72090969  1
  Br  Br57  1  0.04545596  0.44227434  0.84219678  1
  Br  Br58  1  0.95454404  0.55772566  0.15780322  1
  Br  Br59  1  0.65378140  0.71371294  0.73894092  1
  Br  Br60  1  0.43324418  0.83001817  0.40683932  1
  Br  Br61  1  0.34621860  0.28628706  0.26105908  1
  Br  Br62  1  0.43324418  0.66998183  0.90683932  1
  Br  Br63  1  0.95454404  0.94227434  0.65780322  1
  Br  Br64  1  0.69431142  0.35197703  0.77909031  1
  Br  Br65  1  0.27569315  0.57588001  0.48244043  1
  Br  Br66  1  0.72430685  0.42411999  0.51755957  1
  Br  Br67  1  0.56675582  0.33001817  0.09316068  1
  Br  Br68  1  0.72430685  0.07588001  0.01755957  1
  Br  Br69  1  0.69431142  0.14802297  0.27909031  1
  Br  Br70  1  0.27569315  0.92411999  0.98244043  1
  Br  Br71  1  0.87552182  0.86791255  0.89915139  1
  O  O72  1  0.29098278  0.78578890  0.10137923  1
  O  O73  1  0.29098278  0.71421110  0.60137923  1
  O  O74  1  0.70901722  0.21421110  0.89862077  1
  O  O75  1  0.70901722  0.28578890  0.39862077  1
