# generated using pymatgen
data_K2Nd2IrO7
_symmetry_space_group_name_H-M   'P 1'
_cell_length_a   13.18424155
_cell_length_b   13.18424140
_cell_length_c   13.18424130
_cell_angle_alpha   25.28697523
_cell_angle_beta   25.28697665
_cell_angle_gamma   25.28697459
_symmetry_Int_Tables_number   1
_chemical_formula_structural   K2Nd2IrO7
_chemical_formula_sum   'K4 Nd4 Ir2 O14'
_cell_volume   368.00136152
_cell_formula_units_Z   2
loop_
 _symmetry_equiv_pos_site_id
 _symmetry_equiv_pos_as_xyz
  1  'x, y, z'
loop_
 _atom_site_type_symbol
 _atom_site_label
 _atom_site_symmetry_multiplicity
 _atom_site_fract_x
 _atom_site_fract_y
 _atom_site_fract_z
 _atom_site_occupancy
  K  K0  1  0.58712123  0.58712123  0.58712123  1
  K  K1  1  0.41287877  0.41287877  0.41287877  1
  K  K2  1  0.91287877  0.91287877  0.91287877  1
  K  K3  1  0.08712123  0.08712123  0.08712123  1
  Nd  Nd4  1  0.19078917  0.19078917  0.19078917  1
  Nd  Nd5  1  0.30921083  0.30921083  0.30921083  1
  Nd  Nd6  1  0.69078917  0.69078917  0.69078917  1
  Nd  Nd7  1  0.80921083  0.80921083  0.80921083  1
  Ir  Ir8  1  0.00000000  0.00000000  0.00000000  1
  Ir  Ir9  1  0.50000000  0.50000000  0.50000000  1
  O  O10  1  0.20958748  0.60074843  0.77138136  1
  O  O11  1  0.29041252  0.72861864  0.89925157  1
  O  O12  1  0.22861864  0.79041252  0.39925157  1
  O  O13  1  0.70958748  0.27138136  0.10074843  1
  O  O14  1  0.27138136  0.10074843  0.70958748  1
  O  O15  1  0.39925157  0.22861864  0.79041252  1
  O  O16  1  0.89925157  0.29041252  0.72861864  1
  O  O17  1  0.79041252  0.39925157  0.22861864  1
  O  O18  1  0.77138136  0.20958748  0.60074843  1
  O  O19  1  0.60074843  0.77138136  0.20958748  1
  O  O20  1  0.75000000  0.75000000  0.75000000  1
  O  O21  1  0.10074843  0.70958748  0.27138136  1
  O  O22  1  0.25000000  0.25000000  0.25000000  1
  O  O23  1  0.72861864  0.89925157  0.29041252  1
