# generated using pymatgen
data_K2ZnCu3P3O12F
_symmetry_space_group_name_H-M   'P 1'
_cell_length_a   4.97339036
_cell_length_b   8.04599201
_cell_length_c   14.60545865
_cell_angle_alpha   90.00000000
_cell_angle_beta   90.00000000
_cell_angle_gamma   90.72559673
_symmetry_Int_Tables_number   1
_chemical_formula_structural   K2ZnCu3P3O12F
_chemical_formula_sum   'K4 Zn2 Cu6 P6 O24 F2'
_cell_volume   584.40310924
_cell_formula_units_Z   2
loop_
 _symmetry_equiv_pos_site_id
 _symmetry_equiv_pos_as_xyz
  1  'x, y, z'
loop_
 _atom_site_type_symbol
 _atom_site_label
 _atom_site_symmetry_multiplicity
 _atom_site_fract_x
 _atom_site_fract_y
 _atom_site_fract_z
 _atom_site_occupancy
  K  K0  1  0.54802728  0.36226556  0.25000000  1
  K  K1  1  0.50000000  0.00000000  0.50000000  1
  K  K2  1  0.45197272  0.63773444  0.75000000  1
  K  K3  1  0.50000000  0.00000000  0.00000000  1
  Zn  Zn4  1  0.97311838  0.95358672  0.75000000  1
  Zn  Zn5  1  0.02688162  0.04641328  0.25000000  1
  Cu  Cu6  1  0.93276570  0.35621017  0.63626637  1
  Cu  Cu7  1  0.93276570  0.35621017  0.86373363  1
  Cu  Cu8  1  0.06723430  0.64378983  0.13626637  1
  Cu  Cu9  1  0.06723430  0.64378983  0.36373363  1
  Cu  Cu10  1  0.50000000  0.50000000  0.00000000  1
  Cu  Cu11  1  0.50000000  0.50000000  0.50000000  1
  P  P12  1  0.00248013  0.29559629  0.06667491  1
  P  P13  1  0.48132056  0.17739368  0.75000000  1
  P  P14  1  0.99751987  0.70440371  0.93332509  1
  P  P15  1  0.51867944  0.82260632  0.25000000  1
  P  P16  1  0.99751987  0.70440371  0.56667491  1
  P  P17  1  0.00248013  0.29559629  0.43332509  1
  O  O18  1  0.43101269  0.72757255  0.33792846  1
  O  O19  1  0.56898731  0.27242745  0.66207154  1
  O  O20  1  0.94061059  0.21830799  0.52836226  1
  O  O21  1  0.58814169  0.99658756  0.75000000  1
  O  O22  1  0.08245080  0.83092579  0.86003079  1
  O  O23  1  0.16846404  0.53984610  0.57925089  1
  O  O24  1  0.41185831  0.00341244  0.25000000  1
  O  O25  1  0.05938941  0.78169201  0.47163774  1
  O  O26  1  0.69381610  0.65868165  0.92325680  1
  O  O27  1  0.83357961  0.83036298  0.25000000  1
  O  O28  1  0.91754920  0.16907421  0.36003079  1
  O  O29  1  0.43101269  0.72757255  0.16207154  1
  O  O30  1  0.83153596  0.46015390  0.42074911  1
  O  O31  1  0.69381610  0.65868165  0.57674320  1
  O  O32  1  0.05938941  0.78169201  0.02836226  1
  O  O33  1  0.30618390  0.34131835  0.42325680  1
  O  O34  1  0.16846404  0.53984610  0.92074911  1
  O  O35  1  0.08245080  0.83092579  0.63996921  1
  O  O36  1  0.94061059  0.21830799  0.97163774  1
  O  O37  1  0.16642039  0.16963702  0.75000000  1
  O  O38  1  0.83153596  0.46015390  0.07925089  1
  O  O39  1  0.56898731  0.27242745  0.83792846  1
  O  O40  1  0.30618390  0.34131835  0.07674320  1
  O  O41  1  0.91754920  0.16907421  0.13996921  1
  F  F42  1  0.94480599  0.48789985  0.75000000  1
  F  F43  1  0.05519401  0.51210015  0.25000000  1
