# generated using pymatgen
data_Li2CrF6
_symmetry_space_group_name_H-M   'P 1'
_cell_length_a   4.67765662
_cell_length_b   4.67134097
_cell_length_c   9.03881595
_cell_angle_alpha   90.00941168
_cell_angle_beta   90.00000000
_cell_angle_gamma   90.00000000
_symmetry_Int_Tables_number   1
_chemical_formula_structural   Li2CrF6
_chemical_formula_sum   'Li4 Cr2 F12'
_cell_volume   197.50652296
_cell_formula_units_Z   2
loop_
 _symmetry_equiv_pos_site_id
 _symmetry_equiv_pos_as_xyz
  1  'x, y, z'
loop_
 _atom_site_type_symbol
 _atom_site_label
 _atom_site_symmetry_multiplicity
 _atom_site_fract_x
 _atom_site_fract_y
 _atom_site_fract_z
 _atom_site_occupancy
  Li  Li0  1  0.99942278  0.99998343  0.33467618  1
  Li  Li1  1  0.50057722  0.49998343  0.83467618  1
  Li  Li2  1  0.00057722  0.00001657  0.66532382  1
  Li  Li3  1  0.49942278  0.50001657  0.16532382  1
  F  F4  1  0.69168241  0.30699962  0.65190240  1
  F  F5  1  0.19168241  0.19300038  0.84809760  1
  F  F6  1  0.28110136  0.72059583  0.00007478  1
  F  F7  1  0.78110136  0.77940417  0.49992522  1
  F  F8  1  0.71889864  0.27940417  0.99992522  1
  F  F9  1  0.21889864  0.22059583  0.50007478  1
  F  F10  1  0.19107732  0.19296284  0.15217004  1
  F  F11  1  0.69107732  0.30703716  0.34782996  1
  F  F12  1  0.80892268  0.80703716  0.84782996  1
  F  F13  1  0.30892268  0.69296284  0.65217004  1
  F  F14  1  0.80831759  0.80699962  0.15190240  1
  F  F15  1  0.30831759  0.69300038  0.34809760  1
  Cr  Cr16  1  0.50000000  0.50000000  0.50000000  1
  Cr  Cr17  1  0.00000000  0.00000000  0.00000000  1
