# generated using pymatgen
data_YP5O14
_symmetry_space_group_name_H-M   'P 1'
_cell_length_a   9.18981119
_cell_length_b   9.18981105
_cell_length_c   12.62279241
_cell_angle_alpha   88.91792409
_cell_angle_beta   88.91792410
_cell_angle_gamma   89.52800813
_symmetry_Int_Tables_number   1
_chemical_formula_structural   YP5O14
_chemical_formula_sum   'Y4 P20 O56'
_cell_volume   1065.61470004
_cell_formula_units_Z   4
loop_
 _symmetry_equiv_pos_site_id
 _symmetry_equiv_pos_as_xyz
  1  'x, y, z'
loop_
 _atom_site_type_symbol
 _atom_site_label
 _atom_site_symmetry_multiplicity
 _atom_site_fract_x
 _atom_site_fract_y
 _atom_site_fract_z
 _atom_site_occupancy
  Y  Y0  1  0.96787035  0.03212965  0.25000000  1
  Y  Y1  1  0.47876176  0.52123824  0.75000000  1
  Y  Y2  1  0.03212965  0.96787035  0.75000000  1
  Y  Y3  1  0.52123824  0.47876176  0.25000000  1
  P  P4  1  0.95447966  0.68163834  0.39040107  1
  P  P5  1  0.07261540  0.57067385  0.75856361  1
  P  P6  1  0.38665008  0.32129648  1.00032273  1
  P  P7  1  0.17496571  0.87302586  0.46645578  1
  P  P8  1  0.82503429  0.12697414  0.53354422  1
  P  P9  1  0.67870352  0.61334992  0.49967727  1
  P  P10  1  0.68163834  0.95447966  0.89040107  1
  P  P11  1  0.42932615  0.92738460  0.74143639  1
  P  P12  1  0.92738460  0.42932615  0.24143639  1
  P  P13  1  0.12697414  0.82503429  0.03354422  1
  P  P14  1  0.04552034  0.31836166  0.60959893  1
  P  P15  1  0.18365733  0.51984043  0.10474657  1
  P  P16  1  0.81634267  0.48015957  0.89525343  1
  P  P17  1  0.51984043  0.18365733  0.60474657  1
  P  P18  1  0.48015957  0.81634267  0.39525343  1
  P  P19  1  0.61334992  0.67870352  -0.00032273  1
  P  P20  1  0.87302586  0.17496571  0.96645578  1
  P  P21  1  0.32129648  0.38665008  0.50032273  1
  P  P22  1  0.31836166  0.04552034  0.10959893  1
  P  P23  1  0.57067385  0.07261540  0.25856361  1
  O  O24  1  0.22740510  0.53948679  0.78209674  1
  O  O25  1  0.65421662  0.17496187  0.52462950  1
  O  O26  1  0.28028657  0.97958254  0.76902059  1
  O  O27  1  0.84531917  0.03567310  0.63139036  1
  O  O28  1  0.77259490  0.46051321  0.21790326  1
  O  O29  1  0.51207552  0.64102336  0.91353179  1
  O  O30  1  0.98590274  0.53125163  0.33631272  1
  O  O31  1  0.50599511  0.98039424  0.36157726  1
  O  O32  1  0.02041746  0.71971343  0.73097941  1
  O  O33  1  0.34980704  0.42105396  0.38695513  1
  O  O34  1  0.12873342  0.92090169  0.57330442  1
  O  O35  1  0.48792448  0.35897664  0.08646821  1
  O  O36  1  0.57894604  0.65019296  0.11304487  1
  O  O37  1  0.10536460  0.71060205  0.44429391  1
  O  O38  1  0.49400489  0.01960576  0.63842274  1
  O  O39  1  0.17496187  0.65421662  0.02462950  1
  O  O40  1  0.46051321  0.77259490  0.71790326  1
  O  O41  1  0.65019296  0.57894604  0.61304487  1
  O  O42  1  0.10226130  0.20128664  0.67930486  1
  O  O43  1  0.01960576  0.49400489  0.13842274  1
  O  O44  1  0.79871336  0.89773870  0.82069514  1
  O  O45  1  0.89463540  0.28939795  0.55570609  1
  O  O46  1  0.01409726  0.46874837  0.66368728  1
  O  O47  1  0.28332601  0.53819205  0.19354035  1
  O  O48  1  0.53948679  0.22740510  0.28209674  1
  O  O49  1  0.28939795  0.89463540  0.05570609  1
  O  O50  1  0.97958254  0.28028657  0.26902059  1
  O  O51  1  0.53819205  0.28332601  0.69354035  1
  O  O52  1  0.20128664  0.10226130  0.17930486  1
  O  O53  1  0.71060205  0.10536460  0.94429391  1
  O  O54  1  0.82503813  0.34578338  0.97537050  1
  O  O55  1  0.64102336  0.51207552  0.41353179  1
  O  O56  1  0.35116587  0.14763168  0.00943519  1
  O  O57  1  0.46180795  0.71667399  0.30645965  1
  O  O58  1  0.92090169  0.12873342  0.07330442  1
  O  O59  1  0.38971032  0.22302677  0.52867836  1
  O  O60  1  0.64883413  0.85236832  0.99056481  1
  O  O61  1  0.98039424  0.50599511  0.86157726  1
  O  O62  1  0.34578338  0.82503813  0.47537050  1
  O  O63  1  0.85236832  0.64883413  0.49056481  1
  O  O64  1  0.71667399  0.46180795  0.80645965  1
  O  O65  1  0.71971343  0.02041746  0.23097941  1
  O  O66  1  0.22302677  0.38971032  0.02867836  1
  O  O67  1  0.35897664  0.48792448  0.58646821  1
  O  O68  1  0.46874837  0.01409726  0.16368728  1
  O  O69  1  0.87126658  0.07909831  0.42669558  1
  O  O70  1  0.42105396  0.34980704  0.88695513  1
  O  O71  1  0.89773870  0.79871336  0.32069514  1
  O  O72  1  0.77697323  0.61028968  0.97132164  1
  O  O73  1  0.96432690  0.15468083  0.86860964  1
  O  O74  1  0.61028968  0.77697323  0.47132164  1
  O  O75  1  0.03567310  0.84531917  0.13139036  1
  O  O76  1  0.07909831  0.87126658  0.92669558  1
  O  O77  1  0.15468083  0.96432690  0.36860964  1
  O  O78  1  0.53125163  0.98590274  0.83631272  1
  O  O79  1  0.14763168  0.35116587  0.50943519  1
