# generated using pymatgen
data_Na2SrAl4(SiO4)4
_symmetry_space_group_name_H-M   'P 1'
_cell_length_a   8.55653323
_cell_length_b   9.96797654
_cell_length_c   10.71289095
_cell_angle_alpha   117.72527763
_cell_angle_beta   113.53738823
_cell_angle_gamma   90.00003992
_symmetry_Int_Tables_number   1
_chemical_formula_structural   Na2SrAl4(SiO4)4
_chemical_formula_sum   'Na4 Sr2 Al8 Si8 O32'
_cell_volume   721.82457746
_cell_formula_units_Z   2
loop_
 _symmetry_equiv_pos_site_id
 _symmetry_equiv_pos_as_xyz
  1  'x, y, z'
loop_
 _atom_site_type_symbol
 _atom_site_label
 _atom_site_symmetry_multiplicity
 _atom_site_fract_x
 _atom_site_fract_y
 _atom_site_fract_z
 _atom_site_occupancy
  Na  Na0  1  0.36277180  0.08043377  0.80937102  1
  Na  Na1  1  0.86277100  0.22893653  0.80937013  1
  Na  Na2  1  0.94664156  0.58041722  0.80937412  1
  Na  Na3  1  0.44664267  0.72895723  0.80937557  1
  Sr  Sr4  1  0.65403136  0.15405892  0.30811547  1
  Sr  Sr5  1  0.15403098  0.65405659  0.30811542  1
  Al  Al6  1  0.99409008  0.87242958  0.12684229  1
  Al  Al7  1  0.08804100  0.26048739  0.62131313  1
  Al  Al8  1  0.49409004  0.75441274  0.12684229  1
  Al  Al9  1  0.58804096  0.86082575  0.62131319  1
  Al  Al10  1  0.03323570  0.76050646  0.62133560  1
  Al  Al11  1  0.53323574  0.36082932  0.62133568  1
  Al  Al12  1  0.13280589  0.25443316  0.12689654  1
  Al  Al13  1  0.63280586  0.37246341  0.12689656  1
  Si  Si14  1  0.76185448  0.05308467  0.99660181  1
  Si  Si15  1  0.73476815  0.55307568  0.99658788  1
  Si  Si16  1  0.26185453  0.44351715  0.99660177  1
  Si  Si17  1  0.23476817  0.94351220  0.99658783  1
  Si  Si18  1  0.82156193  0.94466417  0.49155513  1
  Si  Si19  1  0.66998651  0.54689589  0.49158906  1
  Si  Si20  1  0.32156188  0.04689094  0.49155520  1
  Si  Si21  1  0.16998650  0.44469322  0.49158900  1
  O  O22  1  0.39347903  0.91861618  0.54389513  1
  O  O23  1  0.15039576  0.62529827  0.54393002  1
  O  O24  1  0.62346707  0.91695603  0.81570640  1
  O  O25  1  0.97216247  0.84218461  0.49773073  1
  O  O26  1  0.89347904  0.12527891  0.54389527  1
  O  O27  1  0.02554927  0.34219726  0.49774100  1
  O  O28  1  0.75793286  0.95832478  0.62153354  1
  O  O29  1  0.65555609  0.44087045  0.31615275  1
  O  O30  1  0.15555610  0.37528238  0.31615268  1
  O  O31  1  0.66056160  0.87525073  0.31611821  1
  O  O32  1  0.86358583  0.66321399  0.62156175  1
  O  O33  1  0.41669884  0.88904632  0.06526534  1
  O  O34  1  0.12346704  0.39875049  0.81570647  1
  O  O35  1  0.07426740  0.85197433  0.99270718  1
  O  O36  1  0.28276599  0.13303497  0.11408637  1
  O  O37  1  0.14862427  0.38905187  0.06529929  1
  O  O38  1  0.47216256  0.15554628  0.49773088  1
  O  O39  1  0.64862413  0.17624737  0.06529943  1
  O  O40  1  0.78276594  0.48105146  0.11408636  1
  O  O41  1  0.25793271  0.16320880  0.62153335  1
  O  O42  1  0.36358580  0.45834768  0.62156161  1
  O  O43  1  0.41850216  0.35200429  0.99272661  1
  O  O44  1  0.57426729  0.64073268  0.99270710  1
  O  O45  1  0.65039594  0.41863203  0.54393027  1
  O  O46  1  0.16056171  0.94086755  0.31611827  1
  O  O47  1  0.52554927  0.65554361  0.49774078  1
  O  O48  1  0.91669911  0.67621906  0.06526545  1
  O  O49  1  0.69223758  0.41692970  0.81569603  1
  O  O50  1  0.19223738  0.89876640  0.81569608  1
  O  O51  1  0.91850210  0.14072230  0.99272668  1
  O  O52  1  0.33132544  0.63304144  0.11406721  1
  O  O53  1  0.83132540  0.98102578  0.11406712  1
