# generated using pymatgen
data_Pr(IO3)3
_symmetry_space_group_name_H-M   'P 1'
_cell_length_a   6.05625443
_cell_length_b   8.97432635
_cell_length_c   15.60691224
_cell_angle_alpha   96.67492742
_cell_angle_beta   90.00000000
_cell_angle_gamma   90.00000000
_symmetry_Int_Tables_number   1
_chemical_formula_structural   Pr(IO3)3
_chemical_formula_sum   'Pr4 I12 O36'
_cell_volume   842.49846604
_cell_formula_units_Z   4
loop_
 _symmetry_equiv_pos_site_id
 _symmetry_equiv_pos_as_xyz
  1  'x, y, z'
loop_
 _atom_site_type_symbol
 _atom_site_label
 _atom_site_symmetry_multiplicity
 _atom_site_fract_x
 _atom_site_fract_y
 _atom_site_fract_z
 _atom_site_occupancy
  Pr  Pr0  1  0.73202356  0.46072556  0.59987635  1
  Pr  Pr1  1  0.23202356  0.03927444  0.90012365  1
  Pr  Pr2  1  0.76797644  0.96072556  0.09987635  1
  Pr  Pr3  1  0.26797644  0.53927444  0.40012365  1
  I  I4  1  0.86442544  0.33709727  0.97709767  1
  I  I5  1  0.68691264  0.78180688  0.85077218  1
  I  I6  1  0.08969870  0.88581003  0.30218187  1
  I  I7  1  0.41030130  0.38581003  0.80218187  1
  I  I8  1  0.13557456  0.66290273  0.02290233  1
  I  I9  1  0.81308736  0.28180688  0.35077218  1
  I  I10  1  0.58969870  0.61418997  0.19781813  1
  I  I11  1  0.63557456  0.83709727  0.47709767  1
  I  I12  1  0.36442544  0.16290273  0.52290233  1
  I  I13  1  0.91030130  0.11418997  0.69781813  1
  I  I14  1  0.18691264  0.71819312  0.64922782  1
  I  I15  1  0.31308736  0.21819312  0.14922782  1
  O  O16  1  0.58688126  0.44880144  0.11693204  1
  O  O17  1  0.39342451  0.57573056  0.67072737  1
  O  O18  1  0.59054109  0.86673789  0.95754530  1
  O  O19  1  0.31713466  0.58860140  0.24518324  1
  O  O20  1  0.81713466  0.91139860  0.25481676  1
  O  O21  1  0.68286534  0.41139860  0.75481676  1
  O  O22  1  0.41293150  0.91218130  0.55330093  1
  O  O23  1  0.90945891  0.36673789  0.45754530  1
  O  O24  1  0.09054109  0.63326211  0.54245470  1
  O  O25  1  0.40945891  0.13326211  0.04245470  1
  O  O26  1  0.10657549  0.07573056  0.17072737  1
  O  O27  1  0.04894625  0.35938826  0.29610430  1
  O  O28  1  0.45105375  0.85938826  0.79610430  1
  O  O29  1  0.58706850  0.08781870  0.44669907  1
  O  O30  1  0.03294375  0.28368501  0.88041504  1
  O  O31  1  0.08706850  0.41218130  0.05330093  1
  O  O32  1  0.89342451  0.92426944  0.82927263  1
  O  O33  1  0.09853951  0.85583568  0.99126115  1
  O  O34  1  0.54894625  0.14061174  0.20389570  1
  O  O35  1  0.95105375  0.64061174  0.70389570  1
  O  O36  1  0.60657549  0.42426944  0.32927263  1
  O  O37  1  0.46705625  0.78368501  0.38041504  1
  O  O38  1  0.90146049  0.14416432  0.00873885  1
  O  O39  1  0.49899140  0.76101959  0.13130450  1
  O  O40  1  0.96705625  0.71631499  0.11958496  1
  O  O41  1  0.91311874  0.94880144  0.61693204  1
  O  O42  1  0.91293150  0.58781870  0.94669907  1
  O  O43  1  0.99899140  0.73898041  0.36869550  1
  O  O44  1  0.53294375  0.21631499  0.61958496  1
  O  O45  1  0.50100860  0.23898041  0.86869550  1
  O  O46  1  0.59853951  0.64416432  0.50873885  1
  O  O47  1  0.18286534  0.08860140  0.74518324  1
  O  O48  1  0.08688126  0.05119856  0.38306796  1
  O  O49  1  0.00100860  0.26101959  0.63130450  1
  O  O50  1  0.40146049  0.35583568  0.49126115  1
  O  O51  1  0.41311874  0.55119856  0.88306796  1
