# generated using pymatgen
data_LaTiI5O16
_symmetry_space_group_name_H-M   'P 1'
_cell_length_a   7.52404572
_cell_length_b   10.65016682
_cell_length_c   18.24249307
_cell_angle_alpha   90.00000000
_cell_angle_beta   90.00000000
_cell_angle_gamma   91.65592553
_symmetry_Int_Tables_number   1
_chemical_formula_structural   LaTiI5O16
_chemical_formula_sum   'La4 Ti4 I20 O64'
_cell_volume   1461.20321963
_cell_formula_units_Z   4
loop_
 _symmetry_equiv_pos_site_id
 _symmetry_equiv_pos_as_xyz
  1  'x, y, z'
loop_
 _atom_site_type_symbol
 _atom_site_label
 _atom_site_symmetry_multiplicity
 _atom_site_fract_x
 _atom_site_fract_y
 _atom_site_fract_z
 _atom_site_occupancy
  La  La0  1  0.75820453  0.74120052  0.76678010  1
  La  La1  1  0.25820453  0.24120052  0.73321990  1
  La  La2  1  0.24179547  0.25879948  0.23321990  1
  La  La3  1  0.74179547  0.75879948  0.26678010  1
  Ti  Ti4  1  0.73560874  0.23426524  0.49829907  1
  Ti  Ti5  1  0.76439126  0.26573476  0.99829907  1
  Ti  Ti6  1  0.23560874  0.73426524  0.00170093  1
  Ti  Ti7  1  0.26439126  0.76573476  0.50170093  1
  I  I8  1  0.09371591  0.56703051  0.37796633  1
  I  I9  1  0.43300240  0.55068081  0.63183541  1
  I  I10  1  0.76311902  0.75311822  0.49466642  1
  I  I11  1  0.59371591  0.06703051  0.12203367  1
  I  I12  1  0.77495432  0.09906760  0.32017142  1
  I  I13  1  0.27048749  0.93708974  0.33625306  1
  I  I14  1  0.26311902  0.25311822  0.00533358  1
  I  I15  1  0.90628409  0.43296949  0.62203367  1
  I  I16  1  0.72951251  0.06291026  0.66374694  1
  I  I17  1  0.72504568  0.40093240  0.82017142  1
  I  I18  1  0.22504568  0.90093240  0.67982858  1
  I  I19  1  0.40628409  0.93296949  0.87796633  1
  I  I20  1  0.23688098  0.24688178  0.50533358  1
  I  I21  1  0.27495432  0.59906760  0.17982858  1
  I  I22  1  0.77048749  0.43708974  0.16374694  1
  I  I23  1  0.73688098  0.74688178  0.99466642  1
  I  I24  1  0.22951251  0.56291026  0.83625306  1
  I  I25  1  0.93300240  0.05068081  0.86816459  1
  I  I26  1  0.56699760  0.44931919  0.36816459  1
  I  I27  1  0.06699760  0.94931919  0.13183541  1
  O  O28  1  0.77660993  0.98060891  0.79961371  1
  O  O29  1  0.16357579  0.86091106  0.58279028  1
  O  O30  1  0.29855107  0.64962889  0.41278544  1
  O  O31  1  0.80290644  0.80170166  0.90312460  1
  O  O32  1  0.79855107  0.14962889  0.08721456  1
  O  O33  1  0.98855809  0.58538564  0.83107255  1
  O  O34  1  0.72339007  0.51939109  0.29961371  1
  O  O35  1  0.78292187  0.52017429  0.69480412  1
  O  O36  1  0.28292187  0.02017429  0.80519588  1
  O  O37  1  0.60438182  0.54849423  0.82393014  1
  O  O38  1  0.56628904  0.29562542  0.77372621  1
  O  O39  1  0.27660993  0.48060891  0.70038629  1
  O  O40  1  0.30290644  0.30170166  0.59687540  1
  O  O41  1  0.21707813  0.47982571  0.30519588  1
  O  O42  1  0.93371096  0.20437458  0.27372621  1
  O  O43  1  0.10438182  0.04849423  0.67606986  1
  O  O44  1  0.83642421  0.13908894  0.41720972  1
  O  O45  1  0.98209975  0.19455655  0.81701824  1
  O  O46  1  0.78180620  0.88518715  0.05181217  1
  O  O47  1  0.75950546  0.10935514  0.93026505  1
  O  O48  1  0.20144893  0.85037111  0.91278544  1
  O  O49  1  0.50538979  0.20748532  0.48737164  1
  O  O50  1  0.72981538  0.41247189  0.06394633  1
  O  O51  1  0.39561818  0.45150577  0.17606986  1
  O  O52  1  0.46856404  0.80897320  0.81423342  1
  O  O53  1  0.00538979  0.70748532  0.01262836  1
  O  O54  1  0.51144191  0.91461436  0.33107255  1
  O  O55  1  0.00604710  0.69733189  0.47587110  1
  O  O56  1  0.48855809  0.08538564  0.66892745  1
  O  O57  1  0.49395290  0.80266811  0.97587110  1
  O  O58  1  0.48209975  0.69455655  0.68298176  1
  O  O59  1  0.22981538  0.91247189  0.43605367  1
  O  O60  1  0.01144191  0.41461436  0.16892745  1
  O  O61  1  0.72817798  0.89222657  0.65849397  1
  O  O62  1  0.49461021  0.79251468  0.51262836  1
  O  O63  1  0.99461021  0.29251468  0.98737164  1
  O  O64  1  0.24049454  0.89064486  0.06973495  1
  O  O65  1  0.89561818  0.95150577  0.32393014  1
  O  O66  1  0.50604710  0.19733189  0.02412890  1
  O  O67  1  0.22817798  0.39222657  0.84150603  1
  O  O68  1  0.33642421  0.63908894  0.08279028  1
  O  O69  1  0.66357579  0.36091106  0.91720972  1
  O  O70  1  0.28180620  0.38518715  0.44818783  1
  O  O71  1  0.77182202  0.60777343  0.15849397  1
  O  O72  1  0.53143596  0.19102680  0.18576658  1
  O  O73  1  0.25950546  0.60935514  0.56973495  1
  O  O74  1  0.99395290  0.30266811  0.52412890  1
  O  O75  1  0.03143596  0.69102680  0.31423342  1
  O  O76  1  0.70144893  0.35037111  0.58721456  1
  O  O77  1  0.77018462  0.08752811  0.56394633  1
  O  O78  1  0.74049454  0.39064486  0.43026505  1
  O  O79  1  0.27018462  0.58752811  0.93605367  1
  O  O80  1  0.21819380  0.11481285  0.94818783  1
  O  O81  1  0.19709356  0.19829834  0.09687540  1
  O  O82  1  0.43371096  0.70437458  0.22627379  1
  O  O83  1  0.96856404  0.30897320  0.68576658  1
  O  O84  1  0.69709356  0.69829834  0.40312460  1
  O  O85  1  0.06628904  0.79562542  0.72627379  1
  O  O86  1  0.71707813  0.97982571  0.19480412  1
  O  O87  1  0.71819380  0.61481285  0.55181217  1
  O  O88  1  0.22339007  0.01939109  0.20038629  1
  O  O89  1  0.27182202  0.10777343  0.34150603  1
  O  O90  1  0.01790025  0.80544345  0.18298176  1
  O  O91  1  0.51790025  0.30544345  0.31701824  1
