# generated using pymatgen
data_Cs2K2TeO5
_symmetry_space_group_name_H-M   'P 1'
_cell_length_a   9.36162253
_cell_length_b   9.36162253
_cell_length_c   9.71189825
_cell_angle_alpha   90.00000000
_cell_angle_beta   90.00000000
_cell_angle_gamma   90.00000000
_symmetry_Int_Tables_number   1
_chemical_formula_structural   Cs2K2TeO5
_chemical_formula_sum   'Cs8 K8 Te4 O20'
_cell_volume   851.15053337
_cell_formula_units_Z   4
loop_
 _symmetry_equiv_pos_site_id
 _symmetry_equiv_pos_as_xyz
  1  'x, y, z'
loop_
 _atom_site_type_symbol
 _atom_site_label
 _atom_site_symmetry_multiplicity
 _atom_site_fract_x
 _atom_site_fract_y
 _atom_site_fract_z
 _atom_site_occupancy
  Cs  Cs0  1  0.66534189  0.66534189  0.50000000  1
  Cs  Cs1  1  0.33465811  0.33465811  0.50000000  1
  Cs  Cs2  1  0.83465811  0.16534189  0.00000000  1
  Cs  Cs3  1  0.50000000  0.00000000  0.75000000  1
  Cs  Cs4  1  0.16534189  0.83465811  0.00000000  1
  Cs  Cs5  1  0.00000000  0.50000000  0.25000000  1
  Cs  Cs6  1  0.00000000  0.50000000  0.75000000  1
  Cs  Cs7  1  0.50000000  0.00000000  0.25000000  1
  K  K8  1  0.12373904  0.12373904  0.71534695  1
  K  K9  1  0.87626096  0.87626096  0.28465305  1
  K  K10  1  0.62373904  0.37626096  0.78465305  1
  K  K11  1  0.37626096  0.62373904  0.21534695  1
  K  K12  1  0.37626096  0.62373904  0.78465305  1
  K  K13  1  0.62373904  0.37626096  0.21534695  1
  K  K14  1  0.12373904  0.12373904  0.28465305  1
  K  K15  1  0.87626096  0.87626096  0.71534695  1
  Te  Te16  1  0.19239793  0.80760207  0.50000000  1
  Te  Te17  1  0.69239793  0.69239793  0.00000000  1
  Te  Te18  1  0.30760207  0.30760207  0.00000000  1
  Te  Te19  1  0.80760207  0.19239793  0.50000000  1
  O  O20  1  0.50165372  0.76862011  0.00000000  1
  O  O21  1  0.23137989  0.49834628  0.00000000  1
  O  O22  1  0.73137989  0.00165372  0.50000000  1
  O  O23  1  0.18033511  0.81966489  0.70112846  1
  O  O24  1  0.31966489  0.31966489  0.20112846  1
  O  O25  1  0.49834628  0.23137989  0.00000000  1
  O  O26  1  0.31966489  0.31966489  0.79887154  1
  O  O27  1  0.16375031  0.16375031  0.00000000  1
  O  O28  1  0.26862011  0.99834628  0.50000000  1
  O  O29  1  0.81966489  0.18033511  0.70112846  1
  O  O30  1  0.76862011  0.50165372  0.00000000  1
  O  O31  1  0.68033511  0.68033511  0.79887154  1
  O  O32  1  0.66375031  0.33624969  0.50000000  1
  O  O33  1  0.00165372  0.73137989  0.50000000  1
  O  O34  1  0.33624969  0.66375031  0.50000000  1
  O  O35  1  0.18033511  0.81966489  0.29887154  1
  O  O36  1  0.68033511  0.68033511  0.20112846  1
  O  O37  1  0.99834628  0.26862011  0.50000000  1
  O  O38  1  0.81966489  0.18033511  0.29887154  1
  O  O39  1  0.83624969  0.83624969  0.00000000  1
