# generated using pymatgen
data_K2U3(IO5)4
_symmetry_space_group_name_H-M   'P 1'
_cell_length_a   7.07802133
_cell_length_b   8.05994186
_cell_length_c   9.23148342
_cell_angle_alpha   92.01380542
_cell_angle_beta   105.37874493
_cell_angle_gamma   91.39057823
_symmetry_Int_Tables_number   1
_chemical_formula_structural   K2U3(IO5)4
_chemical_formula_sum   'K2 U3 I4 O20'
_cell_volume   507.16274291
_cell_formula_units_Z   1
loop_
 _symmetry_equiv_pos_site_id
 _symmetry_equiv_pos_as_xyz
  1  'x, y, z'
loop_
 _atom_site_type_symbol
 _atom_site_label
 _atom_site_symmetry_multiplicity
 _atom_site_fract_x
 _atom_site_fract_y
 _atom_site_fract_z
 _atom_site_occupancy
  K  K0  1  0.74912725  0.39978089  0.15933035  1
  K  K1  1  0.25087275  0.60021911  0.84066965  1
  U  U2  1  0.54990005  0.91642318  0.19153163  1
  U  U3  1  0.45009995  0.08357682  0.80846837  1
  U  U4  1  0.00000000  0.00000000  0.00000000  1
  I  I5  1  0.29515867  0.34924842  0.44036656  1
  I  I6  1  0.70484133  0.65075158  0.55963344  1
  I  I7  1  0.87758262  0.20636472  0.62441652  1
  I  I8  1  0.12241738  0.79363528  0.37558348  1
  O  O9  1  0.30924458  0.98833909  0.98670970  1
  O  O10  1  0.69075542  0.01166091  0.01329030  1
  O  O11  1  0.88986584  0.89295080  0.28944697  1
  O  O12  1  0.65063289  0.47247196  0.42548693  1
  O  O13  1  0.95463725  0.78638554  0.92176085  1
  O  O14  1  0.34936711  0.52752804  0.57451307  1
  O  O15  1  0.57379702  0.12904246  0.27389138  1
  O  O16  1  0.08760716  0.59230563  0.27812249  1
  O  O17  1  0.77432576  0.09444216  0.76548628  1
  O  O18  1  0.11013416  0.10704920  0.71055303  1
  O  O19  1  0.43135952  0.18966134  0.56152497  1
  O  O20  1  0.52956444  0.70096215  0.11475342  1
  O  O21  1  0.56864048  0.81033866  0.43847503  1
  O  O22  1  0.04303307  0.28523282  0.44265925  1
  O  O23  1  0.47043556  0.29903785  0.88524658  1
  O  O24  1  0.42620298  0.87095754  0.72610862  1
  O  O25  1  0.04536275  0.21361446  0.07823915  1
  O  O26  1  0.22567424  0.90555784  0.23451372  1
  O  O27  1  0.95696693  0.71476718  0.55734075  1
  O  O28  1  0.91239284  0.40769437  0.72187751  1
