# generated using pymatgen
data_Na4Cd2Si3O10
_symmetry_space_group_name_H-M   'P 1'
_cell_length_a   5.82945708
_cell_length_b   5.82945710
_cell_length_c   17.90612180
_cell_angle_alpha   81.53553735
_cell_angle_beta   81.53553731
_cell_angle_gamma   61.07789938
_symmetry_Int_Tables_number   1
_chemical_formula_structural   Na4Cd2Si3O10
_chemical_formula_sum   'Na8 Cd4 Si6 O20'
_cell_volume   524.76749480
_cell_formula_units_Z   2
loop_
 _symmetry_equiv_pos_site_id
 _symmetry_equiv_pos_as_xyz
  1  'x, y, z'
loop_
 _atom_site_type_symbol
 _atom_site_label
 _atom_site_symmetry_multiplicity
 _atom_site_fract_x
 _atom_site_fract_y
 _atom_site_fract_z
 _atom_site_occupancy
  Na  Na0  1  0.43192681  0.22108333  0.24357056  1
  Na  Na1  1  0.22108333  0.43192681  0.74357056  1
  Na  Na2  1  0.56807319  0.77891667  0.75642944  1
  Na  Na3  1  0.82464324  0.68342582  0.93990377  1
  Na  Na4  1  0.77891667  0.56807319  0.25642944  1
  Na  Na5  1  0.31657418  0.17535676  0.56009623  1
  Na  Na6  1  0.17535676  0.31657418  0.06009623  1
  Na  Na7  1  0.68342582  0.82464324  0.43990377  1
  Cd  Cd8  1  0.80396567  0.00007790  0.08516940  1
  Cd  Cd9  1  0.00007790  0.80396567  0.58516940  1
  Cd  Cd10  1  0.99992210  0.19603433  0.41483060  1
  Cd  Cd11  1  0.19603433  0.99992210  0.91483060  1
  Si  Si12  1  0.11890958  0.88109042  0.25000000  1
  Si  Si13  1  0.54049295  0.32990006  0.89831766  1
  Si  Si14  1  0.67009994  0.45950705  0.60168234  1
  Si  Si15  1  0.45950705  0.67009994  0.10168234  1
  Si  Si16  1  0.88109042  0.11890958  0.75000000  1
  Si  Si17  1  0.32990006  0.54049295  0.39831766  1
  O  O18  1  0.61547570  0.20503982  0.81287448  1
  O  O19  1  0.13520172  0.08381041  0.78680005  1
  O  O20  1  0.54110684  0.61324908  0.88450201  1
  O  O21  1  0.61324908  0.54110684  0.38450201  1
  O  O22  1  0.10828808  0.77021246  0.45215667  1
  O  O23  1  0.64603602  0.74942345  0.57254373  1
  O  O24  1  0.08381041  0.13520172  0.28680005  1
  O  O25  1  0.79496018  0.38452430  0.68712552  1
  O  O26  1  0.20503982  0.61547570  0.31287448  1
  O  O27  1  0.77021246  0.10828808  0.95215667  1
  O  O28  1  0.25057655  0.35396398  0.92745627  1
  O  O29  1  0.38452430  0.79496018  0.18712552  1
  O  O30  1  0.86479828  0.91618959  0.21319995  1
  O  O31  1  0.35396398  0.25057655  0.42745627  1
  O  O32  1  0.22978754  0.89171192  0.04784333  1
  O  O33  1  0.74942345  0.64603602  0.07254373  1
  O  O34  1  0.89171192  0.22978754  0.54784333  1
  O  O35  1  0.91618959  0.86479828  0.71319995  1
  O  O36  1  0.45889316  0.38675092  0.11549799  1
  O  O37  1  0.38675092  0.45889316  0.61549799  1
