# generated using pymatgen
data_CdHg2SeO6
_symmetry_space_group_name_H-M   'P 1'
_cell_length_a   7.02288481
_cell_length_b   7.35483544
_cell_length_c   7.69477864
_cell_angle_alpha   74.42970797
_cell_angle_beta   68.54983583
_cell_angle_gamma   64.29397864
_symmetry_Int_Tables_number   1
_chemical_formula_structural   CdHg2SeO6
_chemical_formula_sum   'Cd2 Hg4 Se2 O12'
_cell_volume   330.44286611
_cell_formula_units_Z   2
loop_
 _symmetry_equiv_pos_site_id
 _symmetry_equiv_pos_as_xyz
  1  'x, y, z'
loop_
 _atom_site_type_symbol
 _atom_site_label
 _atom_site_symmetry_multiplicity
 _atom_site_fract_x
 _atom_site_fract_y
 _atom_site_fract_z
 _atom_site_occupancy
  Cd  Cd0  1  0.33393866  0.13669960  0.21224688  1
  Cd  Cd1  1  0.66606134  0.86330040  0.78775312  1
  Hg  Hg2  1  0.84446001  0.64350296  0.20941084  1
  Hg  Hg3  1  0.15553999  0.35649704  0.79058916  1
  Hg  Hg4  1  0.65753563  0.35852968  0.79196941  1
  Hg  Hg5  1  0.34246437  0.64147032  0.20803059  1
  Se  Se6  1  0.79748983  0.13397841  0.31305233  1
  Se  Se7  1  0.20251017  0.86602159  0.68694767  1
  O  O8  1  0.63636196  0.20610838  0.17017490  1
  O  O9  1  0.44970642  0.19688336  0.86185416  1
  O  O10  1  0.94189923  0.92056419  0.83051645  1
  O  O11  1  0.77860734  0.92070329  0.45524979  1
  O  O12  1  0.27805277  0.67426192  0.57005693  1
  O  O13  1  0.15287493  0.47705510  0.24348541  1
  O  O14  1  0.22139266  0.07929671  0.54475021  1
  O  O15  1  0.55029358  0.80311664  0.13814584  1
  O  O16  1  0.36363804  0.79389162  0.82982510  1
  O  O17  1  0.84712507  0.52294490  0.75651459  1
  O  O18  1  0.72194723  0.32573808  0.42994307  1
  O  O19  1  0.05810077  0.07943581  0.16948355  1
