# generated using pymatgen
data_RbBe4(BO3)3
_symmetry_space_group_name_H-M   'P 1'
_cell_length_a   6.42971123
_cell_length_b   8.53028444
_cell_length_c   13.35319489
_cell_angle_alpha   90.00000000
_cell_angle_beta   90.00000000
_cell_angle_gamma   90.00000000
_symmetry_Int_Tables_number   1
_chemical_formula_structural   RbBe4(BO3)3
_chemical_formula_sum   'Rb4 Be16 B12 O36'
_cell_volume   732.38622753
_cell_formula_units_Z   4
loop_
 _symmetry_equiv_pos_site_id
 _symmetry_equiv_pos_as_xyz
  1  'x, y, z'
loop_
 _atom_site_type_symbol
 _atom_site_label
 _atom_site_symmetry_multiplicity
 _atom_site_fract_x
 _atom_site_fract_y
 _atom_site_fract_z
 _atom_site_occupancy
  Rb  Rb0  1  0.17417594  0.93328935  0.75000000  1
  Rb  Rb1  1  0.82582406  0.06671065  0.25000000  1
  Rb  Rb2  1  0.67417594  0.56671065  0.25000000  1
  Rb  Rb3  1  0.32582406  0.43328935  0.75000000  1
  Be  Be4  1  0.85721896  0.27641930  0.85713788  1
  Be  Be5  1  0.09365285  0.43818053  0.05720212  1
  Be  Be6  1  0.40634715  0.93818053  0.05720212  1
  Be  Be7  1  0.59365285  0.06181947  0.94279788  1
  Be  Be8  1  0.40634715  0.93818053  0.44279788  1
  Be  Be9  1  0.90634715  0.56181947  0.94279788  1
  Be  Be10  1  0.64278104  0.77641930  0.85713788  1
  Be  Be11  1  0.14278104  0.72358070  0.35713788  1
  Be  Be12  1  0.64278104  0.77641930  0.64286212  1
  Be  Be13  1  0.09365285  0.43818053  0.44279788  1
  Be  Be14  1  0.35721896  0.22358070  0.35713788  1
  Be  Be15  1  0.59365285  0.06181947  0.55720212  1
  Be  Be16  1  0.35721896  0.22358070  0.14286212  1
  Be  Be17  1  0.90634715  0.56181947  0.55720212  1
  Be  Be18  1  0.14278104  0.72358070  0.14286212  1
  Be  Be19  1  0.85721896  0.27641930  0.64286212  1
  B  B20  1  0.68947803  0.04789345  0.75000000  1
  B  B21  1  0.31052197  0.95210655  0.25000000  1
  B  B22  1  0.18947803  0.45210655  0.25000000  1
  B  B23  1  0.19710435  0.17717494  0.96460118  1
  B  B24  1  0.30289565  0.67717494  0.96460118  1
  B  B25  1  0.19710435  0.17717494  0.53539882  1
  B  B26  1  0.80289565  0.82282506  0.46460118  1
  B  B27  1  0.30289565  0.67717494  0.53539882  1
  B  B28  1  0.81052197  0.54789345  0.75000000  1
  B  B29  1  0.80289565  0.82282506  0.03539882  1
  B  B30  1  0.69710435  0.32282506  0.03539882  1
  B  B31  1  0.69710435  0.32282506  0.46460118  1
  O  O32  1  0.34974475  0.02857237  0.16116925  1
  O  O33  1  0.34045000  0.05332804  0.53630826  1
  O  O34  1  0.15955000  0.55332804  0.96369174  1
  O  O35  1  0.84974475  0.47142763  0.83883075  1
  O  O36  1  0.68622123  0.23653886  0.55414434  1
  O  O37  1  0.58228783  0.29041203  0.11745929  1
  O  O38  1  0.81377877  0.73653886  0.55414434  1
  O  O39  1  0.84045000  0.44667196  0.46369174  1
  O  O40  1  0.23261750  0.80125252  0.25000000  1
  O  O41  1  0.26738250  0.30125252  0.25000000  1
  O  O42  1  0.41771217  0.70958797  0.61745929  1
  O  O43  1  0.18622123  0.26346114  0.44585566  1
  O  O44  1  0.58228783  0.29041203  0.38254071  1
  O  O45  1  0.65955000  0.94667196  0.03630826  1
  O  O46  1  0.31377877  0.76346114  0.44585566  1
  O  O47  1  0.84045000  0.44667196  0.03630826  1
  O  O48  1  0.34974475  0.02857237  0.33883075  1
  O  O49  1  0.08228783  0.20958797  0.61745929  1
  O  O50  1  0.31377877  0.76346114  0.05414434  1
  O  O51  1  0.65955000  0.94667196  0.46369174  1
  O  O52  1  0.68622123  0.23653886  0.94585566  1
  O  O53  1  0.18622123  0.26346114  0.05414434  1
  O  O54  1  0.08228783  0.20958797  0.88254071  1
  O  O55  1  0.76738250  0.19874748  0.75000000  1
  O  O56  1  0.41771217  0.70958797  0.88254071  1
  O  O57  1  0.91771217  0.79041203  0.11745929  1
  O  O58  1  0.65025525  0.97142763  0.83883075  1
  O  O59  1  0.34045000  0.05332804  0.96369174  1
  O  O60  1  0.15025525  0.52857237  0.16116925  1
  O  O61  1  0.15025525  0.52857237  0.33883075  1
  O  O62  1  0.84974475  0.47142763  0.66116925  1
  O  O63  1  0.91771217  0.79041203  0.38254071  1
  O  O64  1  0.81377877  0.73653886  0.94585566  1
  O  O65  1  0.65025525  0.97142763  0.66116925  1
  O  O66  1  0.15955000  0.55332804  0.53630826  1
  O  O67  1  0.73261750  0.69874748  0.75000000  1
