# generated using pymatgen
data_Ca4H16C8O25
_symmetry_space_group_name_H-M   'P 1'
_cell_length_a   7.35696561
_cell_length_b   9.65025351
_cell_length_c   9.65025351
_cell_angle_alpha   98.35454544
_cell_angle_beta   112.40679123
_cell_angle_gamma   67.59320877
_symmetry_Int_Tables_number   1
_chemical_formula_structural   Ca4H16C8O25
_chemical_formula_sum   'Ca4 H16 C8 O25'
_cell_volume   585.58616704
_cell_formula_units_Z   1
loop_
 _symmetry_equiv_pos_site_id
 _symmetry_equiv_pos_as_xyz
  1  'x, y, z'
loop_
 _atom_site_type_symbol
 _atom_site_label
 _atom_site_symmetry_multiplicity
 _atom_site_fract_x
 _atom_site_fract_y
 _atom_site_fract_z
 _atom_site_occupancy
  Ca  Ca0  1  0.79659406  0.90284584  0.49716571  1
  Ca  Ca1  1  0.20227419  0.09715416  0.50283429  1
  Ca  Ca2  1  0.29942835  0.49716571  0.09715416  1
  Ca  Ca3  1  0.69943990  0.50283429  0.90284584  1
  H  H4  1  0.94107370  0.09127639  0.75871855  1
  H  H5  1  0.27363154  0.90872361  0.24128145  1
  H  H6  1  0.18235516  0.75871855  0.90872361  1
  H  H7  1  0.03235009  0.24128145  0.09127639  1
  H  H8  1  0.06569024  0.90349999  0.24541840  1
  H  H9  1  0.72377184  0.09650001  0.75458160  1
  H  H10  1  0.82027184  0.24541840  0.09650001  1
  H  H11  1  0.96919024  0.75458160  0.90349999  1
  H  H12  1  0.90561203  0.63528224  0.65900194  1
  H  H13  1  0.88189233  0.36471776  0.34099806  1
  H  H14  1  0.24661009  0.65900194  0.36471776  1
  H  H15  1  0.54089427  0.34099806  0.63528224  1
  H  H16  1  0.09595082  0.36175455  0.33924494  1
  H  H17  1  0.11846043  0.63824545  0.66075506  1
  H  H18  1  0.75670588  0.33924494  0.63824545  1
  H  H19  1  0.45770537  0.66075506  0.36175455  1
  C  C20  1  0.86244378  0.69193404  0.20505522  1
  C  C21  1  0.34932260  0.30806596  0.79494478  1
  C  C22  1  0.65738856  0.20505522  0.30806596  1
  C  C23  1  0.55437782  0.79494478  0.69193404  1
  C  C24  1  0.13501724  0.30989070  0.79358418  1
  C  C25  1  0.65132376  0.69010930  0.20641582  1
  C  C26  1  0.34143306  0.79358418  0.69010930  1
  C  C27  1  0.44490794  0.20641582  0.30989070  1
  O  O28  1  0.85169923  0.03110648  0.73537306  1
  O  O29  1  0.14743265  0.96889352  0.26462694  1
  O  O30  1  0.11632617  0.73537306  0.96889352  1
  O  O31  1  0.88280571  0.26462694  0.03110648  1
  O  O32  1  0.97276958  0.65084480  0.59491117  1
  O  O33  1  0.02870322  0.34915520  0.40508883  1
  O  O34  1  0.37785842  0.59491117  0.34915520  1
  O  O35  1  0.62361438  0.40508883  0.65084480  1
  O  O36  1  0.94480974  0.77687142  0.29919293  1
  O  O37  1  0.42248822  0.22312858  0.70080707  1
  O  O38  1  0.64561680  0.29919293  0.22312858  1
  O  O39  1  0.72168116  0.70080707  0.77687142  1
  O  O40  1  0.04911313  0.22866747  0.69628325  1
  O  O41  1  0.58149735  0.77133253  0.30371675  1
  O  O42  1  0.35282988  0.69628325  0.77133253  1
  O  O43  1  0.27778060  0.30371675  0.22866747  1
  O  O44  1  0.93576231  0.60519357  0.11217340  1
  O  O45  1  0.42878248  0.39480643  0.88782660  1
  O  O46  1  0.82358891  0.11217340  0.39480643  1
  O  O47  1  0.54095588  0.88782660  0.60519357  1
  O  O48  1  0.06251426  0.39610575  0.88706433  1
  O  O49  1  0.57155568  0.60389425  0.11293567  1
  O  O50  1  0.17544993  0.88706433  0.60389425  1
  O  O51  1  0.45862001  0.11293567  0.39610575  1
  O  O52  1  0.34862719  1.00000000  0.00000000  1
