# generated using pymatgen
data_Li4Ga3Si3BrO12
_symmetry_space_group_name_H-M   'P 1'
_cell_length_a   8.66876377
_cell_length_b   8.66876377
_cell_length_c   8.66876377
_cell_angle_alpha   90.00000000
_cell_angle_beta   90.00000000
_cell_angle_gamma   90.00000000
_symmetry_Int_Tables_number   1
_chemical_formula_structural   Li4Ga3Si3BrO12
_chemical_formula_sum   'Li8 Ga6 Si6 Br2 O24'
_cell_volume   651.43562460
_cell_formula_units_Z   2
loop_
 _symmetry_equiv_pos_site_id
 _symmetry_equiv_pos_as_xyz
  1  'x, y, z'
loop_
 _atom_site_type_symbol
 _atom_site_label
 _atom_site_symmetry_multiplicity
 _atom_site_fract_x
 _atom_site_fract_y
 _atom_site_fract_z
 _atom_site_occupancy
  Li  Li0  1  0.32090487  0.32090487  0.67909513  1
  Li  Li1  1  0.17909513  0.82090487  0.82090487  1
  Li  Li2  1  0.32090487  0.67909513  0.32090487  1
  Li  Li3  1  0.82090487  0.17909513  0.82090487  1
  Li  Li4  1  0.17909513  0.17909513  0.17909513  1
  Li  Li5  1  0.67909513  0.67909513  0.67909513  1
  Li  Li6  1  0.67909513  0.32090487  0.32090487  1
  Li  Li7  1  0.82090487  0.82090487  0.17909513  1
  Ga  Ga8  1  0.00000000  0.75000000  0.50000000  1
  Ga  Ga9  1  0.25000000  0.50000000  0.00000000  1
  Ga  Ga10  1  0.50000000  0.00000000  0.75000000  1
  Ga  Ga11  1  0.50000000  0.00000000  0.25000000  1
  Ga  Ga12  1  0.00000000  0.25000000  0.50000000  1
  Ga  Ga13  1  0.75000000  0.50000000  0.00000000  1
  Si  Si14  1  0.00000000  0.50000000  0.25000000  1
  Si  Si15  1  0.50000000  0.75000000  0.00000000  1
  Si  Si16  1  0.50000000  0.25000000  0.00000000  1
  Si  Si17  1  0.00000000  0.50000000  0.75000000  1
  Si  Si18  1  0.75000000  0.00000000  0.50000000  1
  Si  Si19  1  0.25000000  0.00000000  0.50000000  1
  Br  Br20  1  0.00000000  0.00000000  0.00000000  1
  Br  Br21  1  0.50000000  0.50000000  0.50000000  1
  O  O22  1  0.90456928  0.62796867  0.64698666  1
  O  O23  1  0.40456928  0.85301334  0.87203133  1
  O  O24  1  0.09543072  0.37203133  0.64698666  1
  O  O25  1  0.85301334  0.87203133  0.40456928  1
  O  O26  1  0.40456928  0.14698666  0.12796867  1
  O  O27  1  0.64698666  0.09543072  0.37203133  1
  O  O28  1  0.37203133  0.35301334  0.90456928  1
  O  O29  1  0.35301334  0.90456928  0.37203133  1
  O  O30  1  0.59543072  0.85301334  0.12796867  1
  O  O31  1  0.14698666  0.12796867  0.40456928  1
  O  O32  1  0.59543072  0.14698666  0.87203133  1
  O  O33  1  0.87203133  0.59543072  0.14698666  1
  O  O34  1  0.14698666  0.87203133  0.59543072  1
  O  O35  1  0.37203133  0.64698666  0.09543072  1
  O  O36  1  0.12796867  0.59543072  0.85301334  1
  O  O37  1  0.62796867  0.64698666  0.90456928  1
  O  O38  1  0.12796867  0.40456928  0.14698666  1
  O  O39  1  0.35301334  0.09543072  0.62796867  1
  O  O40  1  0.09543072  0.62796867  0.35301334  1
  O  O41  1  0.87203133  0.40456928  0.85301334  1
  O  O42  1  0.62796867  0.35301334  0.09543072  1
  O  O43  1  0.64698666  0.90456928  0.62796867  1
  O  O44  1  0.90456928  0.37203133  0.35301334  1
  O  O45  1  0.85301334  0.12796867  0.59543072  1
