# generated using pymatgen
data_CsTmSeCl2O3
_symmetry_space_group_name_H-M   'P 1'
_cell_length_a   6.64026417
_cell_length_b   6.97331982
_cell_length_c   17.85536087
_cell_angle_alpha   90.00000000
_cell_angle_beta   98.48286693
_cell_angle_gamma   90.00000000
_symmetry_Int_Tables_number   1
_chemical_formula_structural   CsTmSeCl2O3
_chemical_formula_sum   'Cs4 Tm4 Se4 Cl8 O12'
_cell_volume   817.74184129
_cell_formula_units_Z   4
loop_
 _symmetry_equiv_pos_site_id
 _symmetry_equiv_pos_as_xyz
  1  'x, y, z'
loop_
 _atom_site_type_symbol
 _atom_site_label
 _atom_site_symmetry_multiplicity
 _atom_site_fract_x
 _atom_site_fract_y
 _atom_site_fract_z
 _atom_site_occupancy
  Cs  Cs0  1  0.19259515  0.21043915  0.94605527  1
  Cs  Cs1  1  0.30740485  0.71043915  0.55394473  1
  Cs  Cs2  1  0.80740485  0.78956085  0.05394473  1
  Cs  Cs3  1  0.69259515  0.28956085  0.44605527  1
  Tm  Tm4  1  0.37987064  0.82138091  0.24233532  1
  Tm  Tm5  1  0.87987064  0.67861909  0.74233532  1
  Tm  Tm6  1  0.62012936  0.17861909  0.75766468  1
  Tm  Tm7  1  0.12012936  0.32138091  0.25766468  1
  Se  Se8  1  0.07045601  0.18303990  0.70770526  1
  Se  Se9  1  0.42954399  0.68303990  0.79229474  1
  Se  Se10  1  0.57045601  0.31696010  0.20770526  1
  Se  Se11  1  0.92954399  0.81696010  0.29229474  1
  Cl  Cl12  1  0.01463538  0.68838309  0.88807374  1
  Cl  Cl13  1  0.48536462  0.18838309  0.61192626  1
  Cl  Cl14  1  0.51463538  0.81161691  0.38807374  1
  Cl  Cl15  1  0.98536462  0.31161691  0.11192626  1
  Cl  Cl16  1  0.67899229  0.16097527  0.90664573  1
  Cl  Cl17  1  0.82100771  0.66097527  0.59335427  1
  Cl  Cl18  1  0.32100771  0.83902473  0.09335427  1
  Cl  Cl19  1  0.17899229  0.33902473  0.40664573  1
  O  O20  1  0.71547306  0.82499980  0.22710525  1
  O  O21  1  0.91660027  0.00161164  0.73597921  1
  O  O22  1  0.28452694  0.17500020  0.77289475  1
  O  O23  1  0.08339973  0.99838836  0.26402079  1
  O  O24  1  0.07974222  0.64461370  0.25575793  1
  O  O25  1  0.58339973  0.50161164  0.76402079  1
  O  O26  1  0.92025778  0.35538630  0.74424207  1
  O  O27  1  0.57974222  0.85538630  0.75575793  1
  O  O28  1  0.42025778  0.14461370  0.24424207  1
  O  O29  1  0.41660027  0.49838836  0.23597921  1
  O  O30  1  0.78452694  0.32499980  0.27289475  1
  O  O31  1  0.21547306  0.67500020  0.72710525  1
