# generated using pymatgen
data_Rb2NaMn3F12
_symmetry_space_group_name_H-M   'P 1'
_cell_length_a   7.28928460
_cell_length_b   7.65951684
_cell_length_c   10.36300452
_cell_angle_alpha   89.87657408
_cell_angle_beta   86.65216794
_cell_angle_gamma   89.51308829
_symmetry_Int_Tables_number   1
_chemical_formula_structural   Rb2NaMn3F12
_chemical_formula_sum   'Rb4 Na2 Mn6 F24'
_cell_volume   577.58232411
_cell_formula_units_Z   2
loop_
 _symmetry_equiv_pos_site_id
 _symmetry_equiv_pos_as_xyz
  1  'x, y, z'
loop_
 _atom_site_type_symbol
 _atom_site_label
 _atom_site_symmetry_multiplicity
 _atom_site_fract_x
 _atom_site_fract_y
 _atom_site_fract_z
 _atom_site_occupancy
  F  F0  1  0.03984629  0.72928439  0.12715379  1
  F  F1  1  0.96015371  0.27071561  0.87284621  1
  F  F2  1  0.59057238  0.76798179  0.31458782  1
  F  F3  1  0.40942762  0.23201821  0.68541218  1
  F  F4  1  0.76743953  0.43361630  0.56674357  1
  F  F5  1  0.23256047  0.56638370  0.43325643  1
  F  F6  1  0.75296269  0.04925272  0.54604043  1
  F  F7  1  0.24703731  0.95074728  0.45395957  1
  F  F8  1  0.63165563  0.95275088  0.84272876  1
  F  F9  1  0.36834437  0.04724912  0.15727124  1
  F  F10  1  0.62084446  0.53345711  0.83785930  1
  F  F11  1  0.37915554  0.46654289  0.16214070  1
  F  F12  1  0.58552458  0.23324428  0.98738806  1
  F  F13  1  0.41447542  0.76675572  0.01261194  1
  F  F14  1  0.27792214  0.44478647  0.91869052  1
  F  F15  1  0.72207786  0.55521353  0.08130948  1
  F  F16  1  0.25530276  0.06756183  0.89777198  1
  F  F17  1  0.74469724  0.93243817  0.10222802  1
  F  F18  1  0.05864096  0.05353677  0.67222994  1
  F  F19  1  0.94135904  0.94646323  0.32777006  1
  F  F20  1  0.94907627  0.73269909  0.56391906  1
  F  F21  1  0.05092373  0.26730091  0.43608094  1
  F  F22  1  0.11912903  0.44581466  0.67910229  1
  F  F23  1  0.88087097  0.55418534  0.32089771  1
  Na  Na24  1  0.70779247  0.23834739  0.74606168  1
  Na  Na25  1  0.29220753  0.76165261  0.25393832  1
  Mn  Mn26  1  0.81137282  0.74806884  0.21635631  1
  Mn  Mn27  1  0.18862718  0.25193116  0.78364369  1
  Mn  Mn28  1  0.00000000  0.50000000  0.50000000  1
  Mn  Mn29  1  0.00000000  0.00000000  0.50000000  1
  Mn  Mn30  1  0.50000000  0.00000000  0.00000000  1
  Mn  Mn31  1  0.50000000  0.50000000  0.00000000  1
  Rb  Rb32  1  0.51789012  0.74881827  0.60646580  1
  Rb  Rb33  1  0.48210988  0.25118173  0.39353420  1
  Rb  Rb34  1  0.02680341  0.26258639  0.13868912  1
  Rb  Rb35  1  0.97319659  0.73741361  0.86131088  1
