# generated using pymatgen
data_KZrF5
_symmetry_space_group_name_H-M   'P 1'
_cell_length_a   7.50441885
_cell_length_b   8.62215723
_cell_length_c   10.91779759
_cell_angle_alpha   75.21117657
_cell_angle_beta   71.72643655
_cell_angle_gamma   66.21247088
_symmetry_Int_Tables_number   1
_chemical_formula_structural   KZrF5
_chemical_formula_sum   'K6 Zr6 F30'
_cell_volume   607.03709344
_cell_formula_units_Z   6
loop_
 _symmetry_equiv_pos_site_id
 _symmetry_equiv_pos_as_xyz
  1  'x, y, z'
loop_
 _atom_site_type_symbol
 _atom_site_label
 _atom_site_symmetry_multiplicity
 _atom_site_fract_x
 _atom_site_fract_y
 _atom_site_fract_z
 _atom_site_occupancy
  K  K0  1  0.71625621  0.50621960  0.76715832  1
  K  K1  1  0.74547135  0.15717535  0.07157593  1
  K  K2  1  0.22320706  0.17758078  0.57905009  1
  K  K3  1  0.77679294  0.82241922  0.42094991  1
  K  K4  1  0.25452865  0.84282465  0.92842407  1
  K  K5  1  0.28374379  0.49378040  0.23284168  1
  Zr  Zr6  1  0.76619081  0.65919438  0.08065556  1
  Zr  Zr7  1  0.74043038  0.33323128  0.43128119  1
  Zr  Zr8  1  0.25956962  0.66676872  0.56871881  1
  Zr  Zr9  1  0.28120700  0.97194832  0.25493242  1
  Zr  Zr10  1  0.23380919  0.34080562  0.91934444  1
  Zr  Zr11  1  0.71879300  0.02805168  0.74506758  1
  F  F12  1  0.62891093  0.12747896  0.55618410  1
  F  F13  1  0.97974136  0.72091726  0.11230126  1
  F  F14  1  0.32615114  0.12726773  0.06073954  1
  F  F15  1  0.81973323  0.24127985  0.62247578  1
  F  F16  1  0.03565209  0.57700093  0.59820389  1
  F  F17  1  0.38997583  0.11485575  0.80172904  1
  F  F18  1  0.00849786  0.11229133  0.38693799  1
  F  F19  1  0.66421382  0.51043581  0.02411533  1
  F  F20  1  0.57874159  0.23569803  0.86128480  1
  F  F21  1  0.68520486  0.24544685  0.29870948  1
  F  F22  1  0.99184962  0.59777731  0.89809098  1
  F  F23  1  0.05963091  0.99156953  0.17736482  1
  F  F24  1  0.61002417  0.88514425  0.19827096  1
  F  F25  1  0.59242694  0.55779231  0.53539412  1
  F  F26  1  0.34514635  0.16552900  0.28255439  1
  F  F27  1  0.40757306  0.44220769  0.46460588  1
  F  F28  1  0.67384886  0.87273227  0.93926046  1
  F  F29  1  0.02025864  0.27908274  0.88769874  1
  F  F30  1  0.00815038  0.40222269  0.10190902  1
  F  F31  1  0.18026677  0.75872015  0.37752422  1
  F  F32  1  0.65485365  0.83447100  0.71744561  1
  F  F33  1  0.68521983  0.55219165  0.27672881  1
  F  F34  1  0.99150214  0.88770867  0.61306201  1
  F  F35  1  0.42125841  0.76430197  0.13871520  1
  F  F36  1  0.31478017  0.44780835  0.72327119  1
  F  F37  1  0.96434791  0.42299907  0.40179611  1
  F  F38  1  0.94036909  0.00843047  0.82263518  1
  F  F39  1  0.33578618  0.48956419  0.97588467  1
  F  F40  1  0.31479514  0.75455315  0.70129052  1
  F  F41  1  0.37108907  0.87252104  0.44381590  1
