# generated using pymatgen
data_AlSCl3O2
_symmetry_space_group_name_H-M   'P 1'
_cell_length_a   6.48670743
_cell_length_b   7.78823034
_cell_length_c   8.08295160
_cell_angle_alpha   93.40808665
_cell_angle_beta   106.13207786
_cell_angle_gamma   109.94212948
_symmetry_Int_Tables_number   1
_chemical_formula_structural   AlSCl3O2
_chemical_formula_sum   'Al2 S2 Cl6 O4'
_cell_volume   363.33266434
_cell_formula_units_Z   2
loop_
 _symmetry_equiv_pos_site_id
 _symmetry_equiv_pos_as_xyz
  1  'x, y, z'
loop_
 _atom_site_type_symbol
 _atom_site_label
 _atom_site_symmetry_multiplicity
 _atom_site_fract_x
 _atom_site_fract_y
 _atom_site_fract_z
 _atom_site_occupancy
  Al  Al0  1  0.70290190  0.19553288  0.84518620  1
  Al  Al1  1  0.29709810  0.80446712  0.15481380  1
  S  S2  1  0.38955722  0.76426888  0.77802197  1
  S  S3  1  0.61044278  0.23573112  0.22197803  1
  Cl  Cl4  1  0.93571028  0.72299198  0.09134878  1
  Cl  Cl5  1  0.08401726  0.79796948  0.64124599  1
  Cl  Cl6  1  0.06428972  0.27700802  0.90865122  1
  Cl  Cl7  1  0.45819476  0.67857096  0.34691440  1
  Cl  Cl8  1  0.91598274  0.20203052  0.35875401  1
  Cl  Cl9  1  0.54180524  0.32142904  0.65308560  1
  O  O10  1  0.57747433  0.94439928  0.77570904  1
  O  O11  1  0.61962146  0.23103421  0.03655966  1
  O  O12  1  0.38037854  0.76896579  0.96344034  1
  O  O13  1  0.42252567  0.05560072  0.22429096  1
