# generated using pymatgen
data_NaHfMg14
_symmetry_space_group_name_H-M   'P 1'
_cell_length_a   6.47001503
_cell_length_b   6.47001450
_cell_length_c   10.21498653
_cell_angle_alpha   90.00000000
_cell_angle_beta   90.00000000
_cell_angle_gamma   120.00000278
_symmetry_Int_Tables_number   1
_chemical_formula_structural   NaHfMg14
_chemical_formula_sum   'Na1 Hf1 Mg14'
_cell_volume   370.32152917
_cell_formula_units_Z   1
loop_
 _symmetry_equiv_pos_site_id
 _symmetry_equiv_pos_as_xyz
  1  'x, y, z'
loop_
 _atom_site_type_symbol
 _atom_site_label
 _atom_site_symmetry_multiplicity
 _atom_site_fract_x
 _atom_site_fract_y
 _atom_site_fract_z
 _atom_site_occupancy
  Na  Na0  1  0.16666700  0.33333300  0.12500000  1
  Hf  Hf1  1  0.16666700  0.33333300  0.62500000  1
  Mg  Mg2  1  0.16970509  0.83485205  0.12500000  1
  Mg  Mg3  1  0.17218506  0.83609203  0.62500000  1
  Mg  Mg4  1  0.66514795  0.33029491  0.12500000  1
  Mg  Mg5  1  0.66390797  0.32781494  0.62500000  1
  Mg  Mg6  1  0.66514795  0.83485205  0.12500000  1
  Mg  Mg7  1  0.66390797  0.83609203  0.62500000  1
  Mg  Mg8  1  0.33225513  0.16774487  0.37898730  1
  Mg  Mg9  1  0.33225513  0.16774487  0.87101270  1
  Mg  Mg10  1  0.33225513  0.66451127  0.37898730  1
  Mg  Mg11  1  0.33225513  0.66451127  0.87101270  1
  Mg  Mg12  1  0.83548873  0.16774487  0.37898730  1
  Mg  Mg13  1  0.83548873  0.16774487  0.87101270  1
  Mg  Mg14  1  0.83333300  0.66666700  0.37573533  1
  Mg  Mg15  1  0.83333300  0.66666700  0.87426467  1
