# generated using pymatgen
data_AgBi(PS3)2
_symmetry_space_group_name_H-M   'P 1'
_cell_length_a   6.50043874
_cell_length_b   7.46078285
_cell_length_c   9.92939963
_cell_angle_alpha   94.95830670
_cell_angle_beta   90.93934594
_cell_angle_gamma   95.50041785
_symmetry_Int_Tables_number   1
_chemical_formula_structural   AgBi(PS3)2
_chemical_formula_sum   'Ag2 Bi2 P4 S12'
_cell_volume   477.40061009
_cell_formula_units_Z   2
loop_
 _symmetry_equiv_pos_site_id
 _symmetry_equiv_pos_as_xyz
  1  'x, y, z'
loop_
 _atom_site_type_symbol
 _atom_site_label
 _atom_site_symmetry_multiplicity
 _atom_site_fract_x
 _atom_site_fract_y
 _atom_site_fract_z
 _atom_site_occupancy
  Ag  Ag0  1  0.06515112  0.01328049  0.30342564  1
  Ag  Ag1  1  0.93484888  0.98671951  0.69657436  1
  Bi  Bi2  1  0.52909410  0.35921081  0.77598914  1
  Bi  Bi3  1  0.47090590  0.64078919  0.22401086  1
  P  P4  1  0.94259024  0.60708563  0.07282661  1
  P  P5  1  0.44204125  0.88432968  0.56117992  1
  P  P6  1  0.55795875  0.11567032  0.43882008  1
  P  P7  1  0.05740976  0.39291437  0.92717339  1
  S  S8  1  0.17904861  0.81277756  0.08424492  1
  S  S9  1  0.67658883  0.73408574  0.59434051  1
  S  S10  1  0.12730622  0.50337081  0.75451649  1
  S  S11  1  0.32341117  0.26591426  0.40565949  1
  S  S12  1  0.69004048  0.69196457  0.97838849  1
  S  S13  1  0.67207411  0.98971651  0.26332932  1
  S  S14  1  0.82095139  0.18722244  0.91575508  1
  S  S15  1  0.32792589  0.01028349  0.73667068  1
  S  S16  1  0.87269378  0.49662919  0.24548351  1
  S  S17  1  0.30995952  0.30803543  0.02161151  1
  S  S18  1  0.79207531  0.25577268  0.55327238  1
  S  S19  1  0.20792469  0.74422732  0.44672762  1
