# generated using pymatgen
data_SbF4
_symmetry_space_group_name_H-M   'P 1'
_cell_length_a   9.60751705
_cell_length_b   11.81984518
_cell_length_c   12.25595725
_cell_angle_alpha   90.00000000
_cell_angle_beta   90.00000000
_cell_angle_gamma   106.90068316
_symmetry_Int_Tables_number   1
_chemical_formula_structural   SbF4
_chemical_formula_sum   'Sb16 F64'
_cell_volume   1331.66795330
_cell_formula_units_Z   16
loop_
 _symmetry_equiv_pos_site_id
 _symmetry_equiv_pos_as_xyz
  1  'x, y, z'
loop_
 _atom_site_type_symbol
 _atom_site_label
 _atom_site_symmetry_multiplicity
 _atom_site_fract_x
 _atom_site_fract_y
 _atom_site_fract_z
 _atom_site_occupancy
  Sb  Sb0  1  0.75985503  0.55851830  0.57866631  1
  Sb  Sb1  1  0.24014497  0.94148170  0.07866631  1
  Sb  Sb2  1  0.22762015  0.04522513  0.65912310  1
  Sb  Sb3  1  0.79870191  0.70766584  0.90866958  1
  Sb  Sb4  1  0.75985503  0.05851830  0.92133369  1
  Sb  Sb5  1  0.61520480  0.35137978  0.84740437  1
  Sb  Sb6  1  0.22762015  0.54522513  0.84087690  1
  Sb  Sb7  1  0.77237985  0.95477487  0.34087690  1
  Sb  Sb8  1  0.79870191  0.20766584  0.59133042  1
  Sb  Sb9  1  0.38479520  0.14862022  0.34740437  1
  Sb  Sb10  1  0.24014497  0.44148170  0.42133369  1
  Sb  Sb11  1  0.20129809  0.79233416  0.40866958  1
  Sb  Sb12  1  0.77237985  0.45477487  0.15912310  1
  Sb  Sb13  1  0.61520480  0.85137978  0.65259563  1
  Sb  Sb14  1  0.38479520  0.64862022  0.15259563  1
  Sb  Sb15  1  0.20129809  0.29233416  0.09133042  1
  F  F16  1  0.35206876  0.32633333  0.41557686  1
  F  F17  1  0.37440435  0.96892198  0.68440519  1
  F  F18  1  0.86222191  0.13179380  0.79320486  1
  F  F19  1  0.65878308  0.54129645  0.88808822  1
  F  F20  1  0.64551014  0.48816705  0.45816058  1
  F  F21  1  0.14226719  0.06284374  0.08037984  1
  F  F22  1  0.91284618  0.37784571  0.11863747  1
  F  F23  1  0.37440435  0.46892198  0.81559481  1
  F  F24  1  0.85773281  0.43715626  0.58037984  1
  F  F25  1  0.66860112  0.72800220  0.02172614  1
  F  F26  1  0.61686765  0.45909778  0.67933778  1
  F  F27  1  0.66860112  0.22800220  0.47827386  1
  F  F28  1  0.38313235  0.54090222  0.32066222  1
  F  F29  1  0.82284761  0.89829727  0.65874921  1
  F  F30  1  0.91284618  0.87784571  0.38136253  1
  F  F31  1  0.86031397  0.58238768  0.05635609  1
  F  F32  1  0.90721685  0.66109648  0.49220703  1
  F  F33  1  0.11262205  0.96337617  0.77573045  1
  F  F34  1  0.09278315  0.33890352  0.50779297  1
  F  F35  1  0.88737795  0.53662383  0.27573045  1
  F  F36  1  0.82284761  0.39829727  0.84125079  1
  F  F37  1  0.64793124  0.67366667  0.58442314  1
  F  F38  1  0.13968603  0.41761232  0.94364391  1
  F  F39  1  0.34411779  0.75517180  0.30014609  1
  F  F40  1  0.90721685  0.16109648  0.00779297  1
  F  F41  1  0.38313235  0.04090222  0.17933778  1
  F  F42  1  0.17715239  0.60170273  0.15874921  1
  F  F43  1  0.34794244  0.62822973  0.96732671  1
  F  F44  1  0.88737795  0.03662383  0.22426955  1
  F  F45  1  0.11262205  0.46337617  0.72426955  1
  F  F46  1  0.86222191  0.63179380  0.70679514  1
  F  F47  1  0.08715382  0.12215429  0.61863747  1
  F  F48  1  0.33064824  0.17725842  0.74554198  1
  F  F49  1  0.14226719  0.56284374  0.41962016  1
  F  F50  1  0.33139888  0.77199780  0.52172614  1
  F  F51  1  0.13777809  0.36820620  0.29320486  1
  F  F52  1  0.85773281  0.93715626  0.91962016  1
  F  F53  1  0.34121692  0.45870355  0.11191178  1
  F  F54  1  0.08715382  0.62215429  0.88136253  1
  F  F55  1  0.33139888  0.27199780  0.97827386  1
  F  F56  1  0.62559565  0.03107802  0.31559481  1
  F  F57  1  0.17715239  0.10170273  0.34125079  1
  F  F58  1  0.35448986  0.51183295  0.54183942  1
  F  F59  1  0.64551014  0.98816705  0.04183942  1
  F  F60  1  0.62559565  0.53107802  0.18440519  1
  F  F61  1  0.61686765  0.95909778  0.82066222  1
  F  F62  1  0.13968603  0.91761232  0.55635609  1
  F  F63  1  0.66935176  0.82274158  0.25445802  1
  F  F64  1  0.66935176  0.32274158  0.24554198  1
  F  F65  1  0.65588221  0.24482820  0.69985391  1
  F  F66  1  0.65878308  0.04129645  0.61191178  1
  F  F67  1  0.09278315  0.83890352  0.99220703  1
  F  F68  1  0.65205756  0.87177027  0.46732671  1
  F  F69  1  0.35448986  0.01183295  0.95816058  1
  F  F70  1  0.34794244  0.12822973  0.53267329  1
  F  F71  1  0.33064824  0.67725842  0.75445802  1
  F  F72  1  0.86031397  0.08238768  0.44364391  1
  F  F73  1  0.65588221  0.74482820  0.80014609  1
  F  F74  1  0.65205756  0.37177027  0.03267329  1
  F  F75  1  0.64793124  0.17366667  0.91557686  1
  F  F76  1  0.34121692  0.95870355  0.38808822  1
  F  F77  1  0.35206876  0.82633333  0.08442314  1
  F  F78  1  0.13777809  0.86820620  0.20679514  1
  F  F79  1  0.34411779  0.25517180  0.19985391  1
