# generated using pymatgen
data_Na2ZrSiO5
_symmetry_space_group_name_H-M   'P 1'
_cell_length_a   5.53856480
_cell_length_b   13.85916342
_cell_length_c   14.08959692
_cell_angle_alpha   119.73201624
_cell_angle_beta   90.00000000
_cell_angle_gamma   90.00000000
_symmetry_Int_Tables_number   1
_chemical_formula_structural   Na2ZrSiO5
_chemical_formula_sum   'Na16 Zr8 Si8 O40'
_cell_volume   939.13904304
_cell_formula_units_Z   8
loop_
 _symmetry_equiv_pos_site_id
 _symmetry_equiv_pos_as_xyz
  1  'x, y, z'
loop_
 _atom_site_type_symbol
 _atom_site_label
 _atom_site_symmetry_multiplicity
 _atom_site_fract_x
 _atom_site_fract_y
 _atom_site_fract_z
 _atom_site_occupancy
  Na  Na0  1  0.26540642  0.06961112  0.92298680  1
  Na  Na1  1  0.26274864  0.85273667  0.18139330  1
  Na  Na2  1  0.23725136  0.35273667  0.18139330  1
  Na  Na3  1  0.76593589  0.64673102  0.57840074  1
  Na  Na4  1  0.76274864  0.64726333  0.81860670  1
  Na  Na5  1  0.24211282  0.32963508  0.68189996  1
  Na  Na6  1  0.25788718  0.82963508  0.68189996  1
  Na  Na7  1  0.23459358  0.56961112  0.92298680  1
  Na  Na8  1  0.73406411  0.14673102  0.57840074  1
  Na  Na9  1  0.23406411  0.35326898  0.42159926  1
  Na  Na10  1  0.74211282  0.17036492  0.31810004  1
  Na  Na11  1  0.73459358  0.93038888  0.07701320  1
  Na  Na12  1  0.26593589  0.85326898  0.42159926  1
  Na  Na13  1  0.73725136  0.14726333  0.81860670  1
  Na  Na14  1  0.76540642  0.43038888  0.07701320  1
  Na  Na15  1  0.75788718  0.67036492  0.31810004  1
  Zr  Zr16  1  0.26350551  0.80721189  0.93482547  1
  Zr  Zr17  1  0.73649449  0.19278811  0.06517453  1
  Zr  Zr18  1  0.73921924  0.87201269  0.56495241  1
  Zr  Zr19  1  0.23921924  0.62798731  0.43504759  1
  Zr  Zr20  1  0.23649449  0.30721189  0.93482547  1
  Zr  Zr21  1  0.26078076  0.12798731  0.43504759  1
  Zr  Zr22  1  0.76078076  0.37201269  0.56495241  1
  Zr  Zr23  1  0.76350551  0.69278811  0.06517453  1
  Si  Si24  1  0.27870118  0.59203249  0.15907643  1
  Si  Si25  1  0.22455015  0.06793513  0.65934777  1
  Si  Si26  1  0.72455015  0.43206487  0.34065223  1
  Si  Si27  1  0.72129882  0.40796751  0.84092357  1
  Si  Si28  1  0.27544985  0.56793513  0.65934777  1
  Si  Si29  1  0.77544985  0.93206487  0.34065223  1
  Si  Si30  1  0.77870118  0.90796751  0.84092357  1
  Si  Si31  1  0.22129882  0.09203249  0.15907643  1
  O  O32  1  0.74970156  0.35993102  0.70878511  1
  O  O33  1  0.75029844  0.85993102  0.70878511  1
  O  O34  1  0.56421673  0.53092318  0.64121864  1
  O  O35  1  0.71112806  0.86903723  0.41064276  1
  O  O36  1  0.40061842  0.16361480  0.12437389  1
  O  O37  1  0.19955893  0.46002343  0.08918123  1
  O  O38  1  0.78887194  0.36903723  0.41064276  1
  O  O39  1  0.28887194  0.13096277  0.58935724  1
  O  O40  1  0.59744090  0.03984708  0.38165319  1
  O  O41  1  0.90061842  0.33638520  0.87562611  1
  O  O42  1  0.59938158  0.83638520  0.87562611  1
  O  O43  1  0.97324556  0.76773696  0.99752649  1
  O  O44  1  0.25029844  0.64006898  0.29121489  1
  O  O45  1  0.30044107  0.96002343  0.08918123  1
  O  O46  1  0.56651683  0.60557210  0.13490357  1
  O  O47  1  0.02675444  0.23226304  0.00247351  1
  O  O48  1  0.09938158  0.66361480  0.12437389  1
  O  O49  1  0.43348317  0.39442790  0.86509643  1
  O  O50  1  0.52675444  0.26773696  0.99752649  1
  O  O51  1  0.96566870  0.22766994  0.49295049  1
  O  O52  1  0.21112806  0.63096277  0.58935724  1
  O  O53  1  0.24970156  0.14006898  0.29121489  1
  O  O54  1  0.43578327  0.46907682  0.35878136  1
  O  O55  1  0.40255910  0.96015292  0.61834681  1
  O  O56  1  0.03433130  0.77233006  0.50704951  1
  O  O57  1  0.80044107  0.53997657  0.91081877  1
  O  O58  1  0.09744090  0.46015292  0.61834681  1
  O  O59  1  0.22312104  0.65167561  0.79041383  1
  O  O60  1  0.69955893  0.03997657  0.91081877  1
  O  O61  1  0.06651683  0.89442790  0.86509643  1
  O  O62  1  0.53433130  0.72766994  0.49295049  1
  O  O63  1  0.90255910  0.53984708  0.38165319  1
  O  O64  1  0.46566870  0.27233006  0.50704951  1
  O  O65  1  0.06421673  0.96907682  0.35878136  1
  O  O66  1  0.77687896  0.34832439  0.20958617  1
  O  O67  1  0.93578327  0.03092318  0.64121864  1
  O  O68  1  0.47324556  0.73226304  0.00247351  1
  O  O69  1  0.72312104  0.84832439  0.20958617  1
  O  O70  1  0.93348317  0.10557210  0.13490357  1
  O  O71  1  0.27687896  0.15167561  0.79041383  1
