# generated using pymatgen
data_NaSrBO3
_symmetry_space_group_name_H-M   'P 1'
_cell_length_a   5.39326490
_cell_length_b   6.12790276
_cell_length_c   9.33740370
_cell_angle_alpha   90.00000000
_cell_angle_beta   90.00000000
_cell_angle_gamma   100.25549491
_symmetry_Int_Tables_number   1
_chemical_formula_structural   NaSrBO3
_chemical_formula_sum   'Na4 Sr4 B4 O12'
_cell_volume   303.66537778
_cell_formula_units_Z   4
loop_
 _symmetry_equiv_pos_site_id
 _symmetry_equiv_pos_as_xyz
  1  'x, y, z'
loop_
 _atom_site_type_symbol
 _atom_site_label
 _atom_site_symmetry_multiplicity
 _atom_site_fract_x
 _atom_site_fract_y
 _atom_site_fract_z
 _atom_site_occupancy
  Na  Na0  1  0.25653867  0.03515790  0.75883357  1
  Na  Na1  1  0.74346133  0.46484210  0.25883357  1
  Na  Na2  1  0.74346133  0.96484210  0.24116643  1
  Na  Na3  1  0.25653867  0.53515790  0.74116643  1
  Sr  Sr4  1  0.75334179  0.78487039  0.58705499  1
  Sr  Sr5  1  0.24665821  0.71512961  0.08705499  1
  Sr  Sr6  1  0.24665821  0.21512961  0.41294501  1
  Sr  Sr7  1  0.75334179  0.28487039  0.91294501  1
  B  B8  1  0.24606096  0.23714205  0.07974498  1
  B  B9  1  0.24606096  0.73714205  0.42025502  1
  B  B10  1  0.75393904  0.26285795  0.57974498  1
  B  B11  1  0.75393904  0.76285795  0.92025502  1
  O  O12  1  0.72382958  0.68699115  0.06061423  1
  O  O13  1  0.03707960  0.78015301  0.34480438  1
  O  O14  1  0.27617042  0.31300885  0.93938577  1
  O  O15  1  0.57666853  0.86909850  0.85504518  1
  O  O16  1  0.42333147  0.63090150  0.35504518  1
  O  O17  1  0.57666853  0.36909850  0.64495482  1
  O  O18  1  0.42333147  0.13090150  0.14495482  1
  O  O19  1  0.72382958  0.18699115  0.43938577  1
  O  O20  1  0.96292040  0.21984699  0.65519562  1
  O  O21  1  0.96292040  0.71984699  0.84480438  1
  O  O22  1  0.03707960  0.28015301  0.15519562  1
  O  O23  1  0.27617042  0.81300885  0.56061423  1
