# generated using pymatgen
data_KNaThF6
_symmetry_space_group_name_H-M   'P 1'
_cell_length_a   6.38138314
_cell_length_b   6.38138312
_cell_length_c   7.97659144
_cell_angle_alpha   90.00000000
_cell_angle_beta   90.00000000
_cell_angle_gamma   120.00000017
_symmetry_Int_Tables_number   1
_chemical_formula_structural   KNaThF6
_chemical_formula_sum   'K2 Na2 Th2 F12'
_cell_volume   281.30510819
_cell_formula_units_Z   2
loop_
 _symmetry_equiv_pos_site_id
 _symmetry_equiv_pos_as_xyz
  1  'x, y, z'
loop_
 _atom_site_type_symbol
 _atom_site_label
 _atom_site_symmetry_multiplicity
 _atom_site_fract_x
 _atom_site_fract_y
 _atom_site_fract_z
 _atom_site_occupancy
  K  K0  1  0.66666700  0.33333300  0.39126154  1
  K  K1  1  0.33333300  0.66666700  0.60873846  1
  Na  Na2  1  0.00000000  0.00000000  0.23452887  1
  Na  Na3  1  0.00000000  0.00000000  0.76547113  1
  Th  Th4  1  0.33333300  0.66666700  0.12126306  1
  Th  Th5  1  0.66666700  0.33333300  0.87873694  1
  F  F6  1  0.27616880  0.89274107  0.32127022  1
  F  F7  1  0.92405955  0.61071521  0.09709051  1
  F  F8  1  0.38928479  0.31334434  0.09709051  1
  F  F9  1  0.61071521  0.68665566  0.90290949  1
  F  F10  1  0.89274107  0.61657227  0.67872978  1
  F  F11  1  0.72383120  0.10725893  0.67872978  1
  F  F12  1  0.31334434  0.92405955  0.90290949  1
  F  F13  1  0.07594045  0.38928479  0.90290949  1
  F  F14  1  0.10725893  0.38342773  0.32127022  1
  F  F15  1  0.68665566  0.07594045  0.09709051  1
  F  F16  1  0.61657227  0.72383120  0.32127022  1
  F  F17  1  0.38342773  0.27616880  0.67872978  1
