# generated using pymatgen
data_Na2PHO3
_symmetry_space_group_name_H-M   'P 1'
_cell_length_a   5.14129480
_cell_length_b   7.07583147
_cell_length_c   9.78090701
_cell_angle_alpha   90.00000000
_cell_angle_beta   92.42504507
_cell_angle_gamma   90.00000000
_symmetry_Int_Tables_number   1
_chemical_formula_structural   Na2PHO3
_chemical_formula_sum   'Na8 P4 H4 O12'
_cell_volume   355.50032512
_cell_formula_units_Z   4
loop_
 _symmetry_equiv_pos_site_id
 _symmetry_equiv_pos_as_xyz
  1  'x, y, z'
loop_
 _atom_site_type_symbol
 _atom_site_label
 _atom_site_symmetry_multiplicity
 _atom_site_fract_x
 _atom_site_fract_y
 _atom_site_fract_z
 _atom_site_occupancy
  Na  Na0  1  0.72305365  0.93880901  0.25361745  1
  Na  Na1  1  0.77694635  0.43880901  0.24638255  1
  Na  Na2  1  0.22304424  0.69212477  0.10432717  1
  Na  Na3  1  0.27695576  0.19212477  0.39567283  1
  Na  Na4  1  0.27694635  0.06119099  0.74638255  1
  Na  Na5  1  0.77695576  0.30787523  0.89567283  1
  Na  Na6  1  0.72304424  0.80787523  0.60432717  1
  Na  Na7  1  0.22305365  0.56119099  0.75361745  1
  P  P8  1  0.18347855  0.74048993  0.42670603  1
  P  P9  1  0.31652145  0.24048993  0.07329397  1
  P  P10  1  0.81652145  0.25951007  0.57329397  1
  P  P11  1  0.68347855  0.75951007  0.92670603  1
  H  H12  1  0.32621440  0.57039071  0.41371431  1
  H  H13  1  0.82621440  0.92960929  0.91371431  1
  H  H14  1  0.17378560  0.07039071  0.08628569  1
  H  H15  1  0.67378560  0.42960929  0.58628569  1
  O  O16  1  0.71810903  0.12544505  0.68478927  1
  O  O17  1  0.74604846  0.69058136  0.07437259  1
  O  O18  1  0.78189097  0.62544505  0.81521073  1
  O  O19  1  0.24604846  0.80941864  0.57437259  1
  O  O20  1  0.89362110  0.69282729  0.40090801  1
  O  O21  1  0.25395154  0.30941864  0.92562741  1
  O  O22  1  0.28189097  0.87455495  0.31521073  1
  O  O23  1  0.10637890  0.30717271  0.59909199  1
  O  O24  1  0.21810903  0.37455495  0.18478927  1
  O  O25  1  0.75395154  0.19058136  0.42562741  1
  O  O26  1  0.60637890  0.19282729  0.09909199  1
  O  O27  1  0.39362110  0.80717271  0.90090801  1
