# generated using pymatgen
data_AsS(ClF2)3
_symmetry_space_group_name_H-M   'P 1'
_cell_length_a   8.07603182
_cell_length_b   8.93232450
_cell_length_c   12.26879780
_cell_angle_alpha   90.00000000
_cell_angle_beta   90.00000000
_cell_angle_gamma   90.00000000
_symmetry_Int_Tables_number   1
_chemical_formula_structural   AsS(ClF2)3
_chemical_formula_sum   'As4 S4 Cl12 F24'
_cell_volume   885.04330764
_cell_formula_units_Z   4
loop_
 _symmetry_equiv_pos_site_id
 _symmetry_equiv_pos_as_xyz
  1  'x, y, z'
loop_
 _atom_site_type_symbol
 _atom_site_label
 _atom_site_symmetry_multiplicity
 _atom_site_fract_x
 _atom_site_fract_y
 _atom_site_fract_z
 _atom_site_occupancy
  As  As0  1  0.29408531  0.53083903  0.68728441  1
  As  As1  1  0.70591469  0.03083903  0.81271559  1
  As  As2  1  0.79408531  0.96916097  0.31271559  1
  As  As3  1  0.20591469  0.46916097  0.18728441  1
  S  S4  1  0.15932387  0.02527327  0.02492925  1
  S  S5  1  0.34067613  0.97472673  0.52492925  1
  S  S6  1  0.84067613  0.52527327  0.47507075  1
  S  S7  1  0.65932387  0.47472673  0.97507075  1
  Cl  Cl8  1  0.16538382  0.83156801  0.94473768  1
  Cl  Cl9  1  0.83461618  0.33156801  0.55526232  1
  Cl  Cl10  1  0.14188032  0.99018409  0.62116288  1
  Cl  Cl11  1  0.35811968  0.00981591  0.12116288  1
  Cl  Cl12  1  0.77809262  0.67298762  0.58882737  1
  Cl  Cl13  1  0.72190738  0.32701238  0.08882737  1
  Cl  Cl14  1  0.64188032  0.50981591  0.37883712  1
  Cl  Cl15  1  0.27809262  0.82701238  0.41117263  1
  Cl  Cl16  1  0.66538382  0.66843199  0.05526232  1
  Cl  Cl17  1  0.85811968  0.49018409  0.87883712  1
  Cl  Cl18  1  0.33461618  0.16843199  0.44473768  1
  Cl  Cl19  1  0.22190738  0.17298762  0.91117263  1
  F  F20  1  0.18151954  0.52851534  0.56235300  1
  F  F21  1  0.79630199  0.85660008  0.77558270  1
  F  F22  1  0.20369801  0.35660008  0.72441730  1
  F  F23  1  0.31848046  0.47148466  0.06235300  1
  F  F24  1  0.53969288  0.93610995  0.87589666  1
  F  F25  1  0.12457545  0.62604223  0.74980727  1
  F  F26  1  0.62457545  0.87395777  0.25019273  1
  F  F27  1  0.37542455  0.37395777  0.24980727  1
  F  F28  1  0.88316568  0.79381149  0.34991311  1
  F  F29  1  0.59723888  0.03711030  0.68732277  1
  F  F30  1  0.38316568  0.70618851  0.65008689  1
  F  F31  1  0.81848046  0.02851534  0.93764700  1
  F  F32  1  0.09723888  0.46288970  0.31267723  1
  F  F33  1  0.70369801  0.14339992  0.27558270  1
  F  F34  1  0.87542455  0.12604223  0.75019273  1
  F  F35  1  0.90276112  0.96288970  0.18732277  1
  F  F36  1  0.40276112  0.53711030  0.81267723  1
  F  F37  1  0.61683432  0.20618851  0.84991311  1
  F  F38  1  0.46030712  0.43610995  0.62410334  1
  F  F39  1  0.29630199  0.64339992  0.22441730  1
  F  F40  1  0.68151954  0.97148466  0.43764700  1
  F  F41  1  0.03969288  0.56389005  0.12410334  1
  F  F42  1  0.96030712  0.06389005  0.37589666  1
  F  F43  1  0.11683432  0.29381149  0.15008689  1
