# generated using pymatgen
data_TaP2S2Cl5
_symmetry_space_group_name_H-M   'P 1'
_cell_length_a   6.83919223
_cell_length_b   13.80074572
_cell_length_c   27.37130554
_cell_angle_alpha   90.00000000
_cell_angle_beta   93.92369320
_cell_angle_gamma   90.00000000
_symmetry_Int_Tables_number   1
_chemical_formula_structural   TaP2S2Cl5
_chemical_formula_sum   'Ta8 P16 S16 Cl40'
_cell_volume   2577.41128565
_cell_formula_units_Z   8
loop_
 _symmetry_equiv_pos_site_id
 _symmetry_equiv_pos_as_xyz
  1  'x, y, z'
loop_
 _atom_site_type_symbol
 _atom_site_label
 _atom_site_symmetry_multiplicity
 _atom_site_fract_x
 _atom_site_fract_y
 _atom_site_fract_z
 _atom_site_occupancy
  Ta  Ta0  1  0.72024066  0.78686880  0.97250888  1
  Ta  Ta1  1  0.22024066  0.71313120  0.47250888  1
  Ta  Ta2  1  0.77975934  0.28686880  0.52749112  1
  Ta  Ta3  1  0.67581778  0.61315141  0.70256150  1
  Ta  Ta4  1  0.82418222  0.11315141  0.79743850  1
  Ta  Ta5  1  0.32418222  0.38684859  0.29743850  1
  Ta  Ta6  1  0.27975934  0.21313120  0.02749112  1
  Ta  Ta7  1  0.17581778  0.88684859  0.20256150  1
  P  P8  1  0.91910863  0.07072877  0.38008912  1
  P  P9  1  0.20969572  0.43175406  0.14103610  1
  P  P10  1  0.57559960  0.65672809  0.90042474  1
  P  P11  1  0.08089137  0.92927123  0.61991088  1
  P  P12  1  0.94399266  0.08945854  0.70298574  1
  P  P13  1  0.92440040  0.15672809  0.59957526  1
  P  P14  1  0.05600734  0.91054146  0.29701426  1
  P  P15  1  0.42440040  0.34327191  0.09957526  1
  P  P16  1  0.41910863  0.42927123  0.88008912  1
  P  P17  1  0.58089137  0.57072877  0.11991088  1
  P  P18  1  0.55600734  0.58945854  0.79701426  1
  P  P19  1  0.79030428  0.56824594  0.85896390  1
  P  P20  1  0.44399266  0.41054146  0.20298574  1
  P  P21  1  0.07559960  0.84327191  0.40042474  1
  P  P22  1  0.70969572  0.06824594  0.64103610  1
  P  P23  1  0.29030428  0.93175406  0.35896390  1
  S  S24  1  0.85693931  0.02443178  0.30608011  1
  S  S25  1  0.03676063  0.21741457  0.66742244  1
  S  S26  1  0.26576651  0.57121637  0.11816818  1
  S  S27  1  0.46323937  0.71741457  0.83257756  1
  S  S28  1  0.37913754  0.55291452  0.92534598  1
  S  S29  1  0.35693931  0.47556822  0.80608011  1
  S  S30  1  0.76576651  0.92878363  0.61816818  1
  S  S31  1  0.23423349  0.07121637  0.38183182  1
  S  S32  1  0.14306069  0.97556822  0.69391989  1
  S  S33  1  0.62086246  0.44708548  0.07465402  1
  S  S34  1  0.12086246  0.05291452  0.57465402  1
  S  S35  1  0.64306069  0.52443178  0.19391989  1
  S  S36  1  0.96323937  0.78258543  0.33257756  1
  S  S37  1  0.53676063  0.28258543  0.16742244  1
  S  S38  1  0.73423349  0.42878363  0.88183182  1
  S  S39  1  0.87913754  0.94708548  0.42534598  1
  Cl  Cl40  1  0.45817240  0.74440506  0.70273046  1
  Cl  Cl41  1  0.44654472  0.73603905  0.01280133  1
  Cl  Cl42  1  0.91016305  0.98564646  0.17851345  1
  Cl  Cl43  1  0.54182760  0.25559494  0.29726954  1
  Cl  Cl44  1  0.48228481  0.10463773  0.07219742  1
  Cl  Cl45  1  0.01771519  0.60463773  0.42780258  1
  Cl  Cl46  1  0.34912992  0.02549940  0.22916570  1
  Cl  Cl47  1  0.65087008  0.97450060  0.77083430  1
  Cl  Cl48  1  0.37579076  0.85948335  0.49686526  1
  Cl  Cl49  1  0.14468585  0.11311514  0.96829437  1
  Cl  Cl50  1  0.98228481  0.39536227  0.57219742  1
  Cl  Cl51  1  0.35531415  0.61311514  0.53170563  1
  Cl  Cl52  1  0.95817240  0.75559494  0.20273046  1
  Cl  Cl53  1  0.12420924  0.35948335  0.00313474  1
  Cl  Cl54  1  0.85531415  0.88688486  0.03170563  1
  Cl  Cl55  1  0.08983695  0.01435354  0.82148655  1
  Cl  Cl56  1  0.69731422  0.13527197  0.87152137  1
  Cl  Cl57  1  0.84912992  0.47450060  0.72916570  1
  Cl  Cl58  1  0.41016305  0.51435354  0.67851345  1
  Cl  Cl59  1  0.05345528  0.23603905  0.48719867  1
  Cl  Cl60  1  0.54531000  0.30648408  0.58496148  1
  Cl  Cl61  1  0.40644412  0.79201822  0.24860381  1
  Cl  Cl62  1  0.04182760  0.24440506  0.79726954  1
  Cl  Cl63  1  0.62420924  0.14051665  0.50313474  1
  Cl  Cl64  1  0.55345528  0.26396095  0.98719867  1
  Cl  Cl65  1  0.95469000  0.80648408  0.91503852  1
  Cl  Cl66  1  0.87579076  0.64051665  0.99686526  1
  Cl  Cl67  1  0.30268578  0.86472803  0.12847863  1
  Cl  Cl68  1  0.64468585  0.38688486  0.46829437  1
  Cl  Cl69  1  0.45469000  0.69351592  0.41503852  1
  Cl  Cl70  1  0.94654472  0.76396095  0.51280133  1
  Cl  Cl71  1  0.80268578  0.63527197  0.62847863  1
  Cl  Cl72  1  0.15087008  0.52549940  0.27083430  1
  Cl  Cl73  1  0.90644412  0.70798178  0.74860381  1
  Cl  Cl74  1  0.09355588  0.29201822  0.25139619  1
  Cl  Cl75  1  0.59355588  0.20798178  0.75139619  1
  Cl  Cl76  1  0.58983695  0.48564646  0.32148655  1
  Cl  Cl77  1  0.04531000  0.19351592  0.08496148  1
  Cl  Cl78  1  0.19731422  0.36472803  0.37152137  1
  Cl  Cl79  1  0.51771519  0.89536227  0.92780258  1
