# generated using pymatgen
data_Rb2Bi4O7
_symmetry_space_group_name_H-M   'P 1'
_cell_length_a   12.49483172
_cell_length_b   12.49483123
_cell_length_c   15.81216884
_cell_angle_alpha   86.32520176
_cell_angle_beta   86.32520192
_cell_angle_gamma   63.06514272
_symmetry_Int_Tables_number   1
_chemical_formula_structural   Rb2Bi4O7
_chemical_formula_sum   'Rb16 Bi32 O56'
_cell_volume   2194.58808385
_cell_formula_units_Z   8
loop_
 _symmetry_equiv_pos_site_id
 _symmetry_equiv_pos_as_xyz
  1  'x, y, z'
loop_
 _atom_site_type_symbol
 _atom_site_label
 _atom_site_symmetry_multiplicity
 _atom_site_fract_x
 _atom_site_fract_y
 _atom_site_fract_z
 _atom_site_occupancy
  Rb  Rb0  1  0.46065294  0.37157779  0.71090691  1
  Rb  Rb1  1  0.37141837  0.97827094  0.20819088  1
  Rb  Rb2  1  0.62842221  0.53934706  0.78909309  1
  Rb  Rb3  1  0.87326961  0.45366088  0.20977771  1
  Rb  Rb4  1  0.37157779  0.46065294  0.21090691  1
  Rb  Rb5  1  0.62858163  0.02172906  0.79180912  1
  Rb  Rb6  1  0.45366088  0.87326961  0.70977771  1
  Rb  Rb7  1  0.03214518  0.12761059  0.29069120  1
  Rb  Rb8  1  0.53934706  0.62842221  0.28909309  1
  Rb  Rb9  1  0.02172906  0.62858163  0.29180912  1
  Rb  Rb10  1  0.87238941  0.96785482  0.20930880  1
  Rb  Rb11  1  0.12673039  0.54633912  0.79022229  1
  Rb  Rb12  1  0.12761059  0.03214518  0.79069120  1
  Rb  Rb13  1  0.96785482  0.87238941  0.70930880  1
  Rb  Rb14  1  0.97827094  0.37141837  0.70819088  1
  Rb  Rb15  1  0.54633912  0.12673039  0.29022229  1
  Bi  Bi16  1  0.70134227  0.78585664  0.38567343  1
  Bi  Bi17  1  0.04308758  0.60188197  0.03881278  1
  Bi  Bi18  1  0.78318378  0.73596315  0.62690359  1
  Bi  Bi19  1  0.26403685  0.21681622  0.87309641  1
  Bi  Bi20  1  0.60489120  0.08985344  0.04207307  1
  Bi  Bi21  1  0.10943295  0.09100678  0.04306477  1
  Bi  Bi22  1  0.29865773  0.21414336  0.61432657  1
  Bi  Bi23  1  0.21543113  0.75686961  0.37894397  1
  Bi  Bi24  1  0.29002841  0.70316167  0.88124574  1
  Bi  Bi25  1  0.78456887  0.24313039  0.62105603  1
  Bi  Bi26  1  0.89056705  0.90899322  0.95693523  1
  Bi  Bi27  1  0.70316167  0.29002841  0.38124574  1
  Bi  Bi28  1  0.60188197  0.04308758  0.53881278  1
  Bi  Bi29  1  0.24313039  0.78456887  0.12105603  1
  Bi  Bi30  1  0.54753568  0.60013401  0.03475765  1
  Bi  Bi31  1  0.08985344  0.60489120  0.54207307  1
  Bi  Bi32  1  0.78585664  0.70134227  0.88567343  1
  Bi  Bi33  1  0.75686961  0.21543113  0.87894397  1
  Bi  Bi34  1  0.29683833  0.70997159  0.61875426  1
  Bi  Bi35  1  0.70997159  0.29683833  0.11875426  1
  Bi  Bi36  1  0.45246432  0.39986599  0.96524235  1
  Bi  Bi37  1  0.60013401  0.54753568  0.53475765  1
  Bi  Bi38  1  0.73596315  0.78318378  0.12690359  1
  Bi  Bi39  1  0.39986599  0.45246432  0.46524235  1
  Bi  Bi40  1  0.39510880  0.91014656  0.95792693  1
  Bi  Bi41  1  0.39811803  0.95691242  0.46118722  1
  Bi  Bi42  1  0.21414336  0.29865773  0.11432657  1
  Bi  Bi43  1  0.90899322  0.89056705  0.45693523  1
  Bi  Bi44  1  0.21681622  0.26403685  0.37309641  1
  Bi  Bi45  1  0.95691242  0.39811803  0.96118722  1
  Bi  Bi46  1  0.91014656  0.39510880  0.45792693  1
  Bi  Bi47  1  0.09100678  0.10943295  0.54306477  1
  O  O48  1  0.71465015  0.28534985  0.75000000  1
  O  O49  1  0.02904767  0.35095833  0.34383593  1
  O  O50  1  0.64904167  0.97095233  0.15616407  1
  O  O51  1  0.71864967  0.91061018  0.97158528  1
  O  O52  1  0.71596207  0.76051161  0.75805858  1
  O  O53  1  0.58305251  0.38518106  0.53237040  1
  O  O54  1  0.23326705  0.08647809  0.38663214  1
  O  O55  1  0.89036729  0.51398298  0.85019668  1
  O  O56  1  0.88379160  0.58060526  0.03121023  1
  O  O57  1  0.48601702  0.10963271  0.64980332  1
  O  O58  1  0.91352191  0.76673295  0.11336786  1
  O  O59  1  0.58231953  0.22473477  0.89758413  1
  O  O60  1  0.41939474  0.11620840  0.46878977  1
  O  O61  1  0.74478380  0.93193859  0.37750442  1
  O  O62  1  0.25521620  0.06806141  0.62249558  1
  O  O63  1  0.28403793  0.23948839  0.24194142  1
  O  O64  1  0.91061018  0.71864967  0.47158528  1
  O  O65  1  0.22473477  0.58231953  0.39758413  1
  O  O66  1  0.38518106  0.58305251  0.03237040  1
  O  O67  1  0.41694749  0.61481894  0.46762960  1
  O  O68  1  0.43915182  0.74042422  0.88020543  1
  O  O69  1  0.77713494  0.08840681  0.02881559  1
  O  O70  1  0.28135033  0.08938982  0.02841472  1
  O  O71  1  0.76306408  0.23693592  0.25000000  1
  O  O72  1  0.41768047  0.77526523  0.10241587  1
  O  O73  1  0.35095833  0.02904767  0.84383593  1
  O  O74  1  0.51344561  0.38960016  0.35203129  1
  O  O75  1  0.56084818  0.25957578  0.11979457  1
  O  O76  1  0.77526523  0.41768047  0.60241587  1
  O  O77  1  0.08647809  0.23326705  0.88663214  1
  O  O78  1  0.76051161  0.71596207  0.25805858  1
  O  O79  1  0.51398298  0.89036729  0.35019668  1
  O  O80  1  0.74042422  0.43915182  0.38020543  1
  O  O81  1  0.48655439  0.61039984  0.64796871  1
  O  O82  1  0.06806141  0.25521620  0.12249558  1
  O  O83  1  0.76673295  0.91352191  0.61336786  1
  O  O84  1  0.25957578  0.56084818  0.61979457  1
  O  O85  1  0.84888140  0.02749780  0.84454893  1
  O  O86  1  0.22286506  0.91159319  0.97118441  1
  O  O87  1  0.61481894  0.41694749  0.96762960  1
  O  O88  1  0.08938982  0.28135033  0.52841472  1
  O  O89  1  0.28534985  0.71465015  0.25000000  1
  O  O90  1  0.11620840  0.41939474  0.96878977  1
  O  O91  1  0.97095233  0.64904167  0.65616407  1
  O  O92  1  0.23948839  0.28403793  0.74194142  1
  O  O93  1  0.58060526  0.88379160  0.53121023  1
  O  O94  1  0.38960016  0.51344561  0.85203129  1
  O  O95  1  0.10963271  0.48601702  0.14980332  1
  O  O96  1  0.15111860  0.97250220  0.15545107  1
  O  O97  1  0.23693592  0.76306408  0.75000000  1
  O  O98  1  0.08840681  0.77713494  0.52881559  1
  O  O99  1  0.93193859  0.74478380  0.87750442  1
  O  O100  1  0.91159319  0.22286506  0.47118441  1
  O  O101  1  0.97250220  0.15111860  0.65545107  1
  O  O102  1  0.02749780  0.84888140  0.34454893  1
  O  O103  1  0.61039984  0.48655439  0.14796871  1
