# generated using pymatgen
data_K2Ti(SiO3)3
_symmetry_space_group_name_H-M   'P 1'
_cell_length_a   7.71575130
_cell_length_b   7.71575174
_cell_length_c   7.71575164
_cell_angle_alpha   82.44123691
_cell_angle_beta   82.44123651
_cell_angle_gamma   82.44123659
_symmetry_Int_Tables_number   1
_chemical_formula_structural   K2Ti(SiO3)3
_chemical_formula_sum   'K4 Ti2 Si6 O18'
_cell_volume   448.33174691
_cell_formula_units_Z   2
loop_
 _symmetry_equiv_pos_site_id
 _symmetry_equiv_pos_as_xyz
  1  'x, y, z'
loop_
 _atom_site_type_symbol
 _atom_site_label
 _atom_site_symmetry_multiplicity
 _atom_site_fract_x
 _atom_site_fract_y
 _atom_site_fract_z
 _atom_site_occupancy
  K  K0  1  0.76961694  0.22821216  0.99490452  1
  K  K1  1  0.99490452  0.76961694  0.22821216  1
  K  K2  1  0.22821216  0.99490452  0.76961694  1
  K  K3  1  0.49650023  0.49650023  0.49650023  1
  Ti  Ti4  1  0.22240389  0.22240389  0.22240389  1
  Ti  Ti5  1  0.74077809  0.74077809  0.74077809  1
  Si  Si6  1  0.50997950  0.89055784  0.09800019  1
  Si  Si7  1  0.89055784  0.09800019  0.50997950  1
  Si  Si8  1  0.09800019  0.50997950  0.89055784  1
  Si  Si9  1  0.54904898  0.01521003  0.43633118  1
  Si  Si10  1  0.01521003  0.43633118  0.54904898  1
  Si  Si11  1  0.43633118  0.54904898  0.01521003  1
  O  O12  1  0.09997000  0.32387720  0.01751492  1
  O  O13  1  0.15724957  0.46702653  0.68395492  1
  O  O14  1  0.46702653  0.68395492  0.15724957  1
  O  O15  1  0.94241707  0.24375593  0.62881967  1
  O  O16  1  0.62881967  0.94241707  0.24375593  1
  O  O17  1  0.84785732  0.58757429  0.55645368  1
  O  O18  1  0.91061881  0.63160122  0.90425889  1
  O  O19  1  0.90425889  0.91061881  0.63160122  1
  O  O20  1  0.58757429  0.55645368  0.84785732  1
  O  O21  1  0.24375593  0.62881967  0.94241707  1
  O  O22  1  0.63160122  0.90425889  0.91061881  1
  O  O23  1  0.55645368  0.84785732  0.58757429  1
  O  O24  1  0.68395492  0.15724957  0.46702653  1
  O  O25  1  0.12105188  0.42639778  0.35436678  1
  O  O26  1  0.42639778  0.35436678  0.12105188  1
  O  O27  1  0.01751492  0.09997000  0.32387720  1
  O  O28  1  0.35436678  0.12105188  0.42639778  1
  O  O29  1  0.32387720  0.01751492  0.09997000  1
