# generated using pymatgen
data_Mg14SiBi
_symmetry_space_group_name_H-M   'P 1'
_cell_length_a   6.37298342
_cell_length_b   6.37298290
_cell_length_c   10.21872406
_cell_angle_alpha   90.00000000
_cell_angle_beta   90.00000000
_cell_angle_gamma   120.00000270
_symmetry_Int_Tables_number   1
_chemical_formula_structural   Mg14SiBi
_chemical_formula_sum   'Mg14 Si1 Bi1'
_cell_volume   359.42876748
_cell_formula_units_Z   1
loop_
 _symmetry_equiv_pos_site_id
 _symmetry_equiv_pos_as_xyz
  1  'x, y, z'
loop_
 _atom_site_type_symbol
 _atom_site_label
 _atom_site_symmetry_multiplicity
 _atom_site_fract_x
 _atom_site_fract_y
 _atom_site_fract_z
 _atom_site_occupancy
  Mg  Mg0  1  0.16355474  0.83177687  0.12500000  1
  Mg  Mg1  1  0.16636924  0.83318412  0.62500000  1
  Mg  Mg2  1  0.66822313  0.33644526  0.12500000  1
  Mg  Mg3  1  0.66681588  0.33363076  0.62500000  1
  Mg  Mg4  1  0.66822313  0.83177687  0.12500000  1
  Mg  Mg5  1  0.66681588  0.83318412  0.62500000  1
  Mg  Mg6  1  0.33549319  0.16450681  0.36569778  1
  Mg  Mg7  1  0.33549319  0.16450681  0.88430222  1
  Mg  Mg8  1  0.33549319  0.67098737  0.36569778  1
  Mg  Mg9  1  0.33549319  0.67098737  0.88430222  1
  Mg  Mg10  1  0.82901263  0.16450681  0.36569778  1
  Mg  Mg11  1  0.82901263  0.16450681  0.88430222  1
  Mg  Mg12  1  0.83333300  0.66666700  0.37752725  1
  Mg  Mg13  1  0.83333300  0.66666700  0.87247275  1
  Si  Si14  1  0.16666700  0.33333300  0.12500000  1
  Bi  Bi15  1  0.16666700  0.33333300  0.62500000  1
