# generated using pymatgen
data_Ba5Re3BrO15
_symmetry_space_group_name_H-M   'P 1'
_cell_length_a   11.17859804
_cell_length_b   11.17859840
_cell_length_c   7.95533528
_cell_angle_alpha   90.00000000
_cell_angle_beta   90.00000000
_cell_angle_gamma   119.99999893
_symmetry_Int_Tables_number   1
_chemical_formula_structural   Ba5Re3BrO15
_chemical_formula_sum   'Ba10 Re6 Br2 O30'
_cell_volume   860.92202487
_cell_formula_units_Z   2
loop_
 _symmetry_equiv_pos_site_id
 _symmetry_equiv_pos_as_xyz
  1  'x, y, z'
loop_
 _atom_site_type_symbol
 _atom_site_label
 _atom_site_symmetry_multiplicity
 _atom_site_fract_x
 _atom_site_fract_y
 _atom_site_fract_z
 _atom_site_occupancy
  Ba  Ba0  1  1.00000000  0.26827273  0.74295357  1
  Ba  Ba1  1  0.33333300  0.66666700  0.00341229  1
  Ba  Ba2  1  0.26827273  0.26827273  0.24295357  1
  Ba  Ba3  1  0.73172727  0.73172727  0.74295357  1
  Ba  Ba4  1  0.66666700  0.33333300  0.00341229  1
  Ba  Ba5  1  0.73172727  0.00000000  0.24295357  1
  Ba  Ba6  1  0.66666700  0.33333300  0.50341229  1
  Ba  Ba7  1  0.33333300  0.66666700  0.50341229  1
  Ba  Ba8  1  0.26827273  0.00000000  0.74295357  1
  Ba  Ba9  1  0.00000000  0.73172727  0.24295357  1
  Re  Re10  1  0.60778961  0.60778961  0.29880111  1
  Re  Re11  1  0.60778961  0.00000000  0.79880111  1
  Re  Re12  1  0.39221039  0.00000000  0.29880111  1
  Re  Re13  1  0.00000000  0.39221039  0.29880111  1
  Re  Re14  1  1.00000000  0.60778961  0.79880111  1
  Re  Re15  1  0.39221039  0.39221039  0.79880111  1
  Br  Br16  1  0.00000000  0.00000000  0.97065189  1
  Br  Br17  1  0.00000000  0.00000000  0.47065189  1
  O  O18  1  0.13031151  0.55268832  0.75972883  1
  O  O19  1  0.60973394  0.86880228  0.93874099  1
  O  O20  1  0.86880228  0.25906834  0.43874099  1
  O  O21  1  0.74093166  0.60973394  0.43874099  1
  O  O22  1  0.39026606  0.25906834  0.93874099  1
  O  O23  1  1.00000000  0.29929909  0.11991353  1
  O  O24  1  0.57762318  0.44731168  0.75972883  1
  O  O25  1  0.42237682  0.86968849  0.75972883  1
  O  O26  1  0.13119772  0.74093166  0.93874099  1
  O  O27  1  0.44731168  0.86968849  0.25972883  1
  O  O28  1  0.86880228  0.60973394  0.93874099  1
  O  O29  1  0.70070091  0.00000000  0.61991353  1
  O  O30  1  0.44731168  0.57762318  0.75972883  1
  O  O31  1  0.13119772  0.39026606  0.43874099  1
  O  O32  1  0.86968849  0.42237682  0.75972883  1
  O  O33  1  0.25906834  0.86880228  0.43874099  1
  O  O34  1  0.29929909  0.00000000  0.11991353  1
  O  O35  1  0.57762318  0.13031151  0.25972883  1
  O  O36  1  0.00000000  0.70070091  0.61991353  1
  O  O37  1  0.39026606  0.13119772  0.43874099  1
  O  O38  1  0.42237682  0.55268832  0.25972883  1
  O  O39  1  0.55268832  0.42237682  0.25972883  1
  O  O40  1  0.13031151  0.57762318  0.25972883  1
  O  O41  1  0.86968849  0.44731168  0.25972883  1
  O  O42  1  0.60973394  0.74093166  0.43874099  1
  O  O43  1  0.70070091  0.70070091  0.11991353  1
  O  O44  1  0.74093166  0.13119772  0.93874099  1
  O  O45  1  0.55268832  0.13031151  0.75972883  1
  O  O46  1  0.29929909  0.29929909  0.61991353  1
  O  O47  1  0.25906834  0.39026606  0.93874099  1
