# generated using pymatgen
data_FeSiP3O11
_symmetry_space_group_name_H-M   'P 1'
_cell_length_a   14.10140611
_cell_length_b   14.10140583
_cell_length_c   14.10140512
_cell_angle_alpha   34.91038467
_cell_angle_beta   34.91038629
_cell_angle_gamma   34.91038604
_symmetry_Int_Tables_number   1
_chemical_formula_structural   FeSiP3O11
_chemical_formula_sum   'Fe4 Si4 P12 O44'
_cell_volume   819.88589398
_cell_formula_units_Z   4
loop_
 _symmetry_equiv_pos_site_id
 _symmetry_equiv_pos_as_xyz
  1  'x, y, z'
loop_
 _atom_site_type_symbol
 _atom_site_label
 _atom_site_symmetry_multiplicity
 _atom_site_fract_x
 _atom_site_fract_y
 _atom_site_fract_z
 _atom_site_occupancy
  Fe  Fe0  1  0.15813914  0.15813914  0.15813914  1
  Fe  Fe1  1  0.34186086  0.34186086  0.34186086  1
  Fe  Fe2  1  0.84186086  0.84186086  0.84186086  1
  Fe  Fe3  1  0.65813914  0.65813914  0.65813914  1
  Si  Si4  1  0.03998123  0.03998123  0.03998123  1
  Si  Si5  1  0.46001877  0.46001877  0.46001877  1
  Si  Si6  1  0.96001877  0.96001877  0.96001877  1
  Si  Si7  1  0.53998123  0.53998123  0.53998123  1
  P  P8  1  0.49169483  0.78616012  0.08238639  1
  P  P9  1  0.08238639  0.49169483  0.78616012  1
  P  P10  1  0.78616012  0.08238639  0.49169483  1
  P  P11  1  0.71383988  0.00830517  0.41761361  1
  P  P12  1  0.41761361  0.71383988  0.00830517  1
  P  P13  1  0.00830517  0.41761361  0.71383988  1
  P  P14  1  0.50830517  0.21383988  0.91761361  1
  P  P15  1  0.91761361  0.50830517  0.21383988  1
  P  P16  1  0.21383988  0.91761361  0.50830517  1
  P  P17  1  0.28616012  0.99169483  0.58238639  1
  P  P18  1  0.58238639  0.28616012  0.99169483  1
  P  P19  1  0.99169483  0.58238639  0.28616012  1
  O  O20  1  0.09323765  0.21222685  0.85402392  1
  O  O21  1  0.85402392  0.09323765  0.21222685  1
  O  O22  1  0.21222685  0.85402392  0.09323765  1
  O  O23  1  0.28777315  0.40676235  0.64597608  1
  O  O24  1  0.64597608  0.28777315  0.40676235  1
  O  O25  1  0.40676235  0.64597608  0.28777315  1
  O  O26  1  0.90676235  0.78777315  0.14597608  1
  O  O27  1  0.14597608  0.90676235  0.78777315  1
  O  O28  1  0.78777315  0.14597608  0.90676235  1
  O  O29  1  0.71222685  0.59323765  0.35402392  1
  O  O30  1  0.35402392  0.71222685  0.59323765  1
  O  O31  1  0.59323765  0.35402392  0.71222685  1
  O  O32  1  0.34537530  0.98230102  0.05644440  1
  O  O33  1  0.05644440  0.34537530  0.98230102  1
  O  O34  1  0.98230102  0.05644440  0.34537530  1
  O  O35  1  0.51769898  0.15462470  0.44355560  1
  O  O36  1  0.44355560  0.51769898  0.15462470  1
  O  O37  1  0.15462470  0.44355560  0.51769898  1
  O  O38  1  0.65462470  0.01769898  0.94355560  1
  O  O39  1  0.94355560  0.65462470  0.01769898  1
  O  O40  1  0.01769898  0.94355560  0.65462470  1
  O  O41  1  0.48230102  0.84537530  0.55644440  1
  O  O42  1  0.55644440  0.48230102  0.84537530  1
  O  O43  1  0.84537530  0.55644440  0.48230102  1
  O  O44  1  0.32629410  0.27425830  0.96582723  1
  O  O45  1  0.96582723  0.32629410  0.27425830  1
  O  O46  1  0.27425830  0.96582723  0.32629410  1
  O  O47  1  0.22574170  0.17370590  0.53417277  1
  O  O48  1  0.53417277  0.22574170  0.17370590  1
  O  O49  1  0.17370590  0.53417277  0.22574170  1
  O  O50  1  0.67370590  0.72574170  0.03417277  1
  O  O51  1  0.03417277  0.67370590  0.72574170  1
  O  O52  1  0.72574170  0.03417277  0.67370590  1
  O  O53  1  0.77425830  0.82629410  0.46582723  1
  O  O54  1  0.46582723  0.77425830  0.82629410  1
  O  O55  1  0.82629410  0.46582723  0.77425830  1
  O  O56  1  0.96286687  0.53713313  0.75000000  1
  O  O57  1  0.75000000  0.96286687  0.53713313  1
  O  O58  1  0.53713313  0.75000000  0.96286687  1
  O  O59  1  0.03713313  0.46286687  0.25000000  1
  O  O60  1  0.25000000  0.03713313  0.46286687  1
  O  O61  1  0.46286687  0.25000000  0.03713313  1
  O  O62  1  0.00000000  0.00000000  0.00000000  1
  O  O63  1  0.50000000  0.50000000  0.50000000  1
