# generated using pymatgen
data_KBa4Sb3O
_symmetry_space_group_name_H-M   'P 1'
_cell_length_a   8.95406921
_cell_length_b   8.95406877
_cell_length_c   10.53640566
_cell_angle_alpha   115.14502695
_cell_angle_beta   115.14502562
_cell_angle_gamma   90.00000512
_symmetry_Int_Tables_number   1
_chemical_formula_structural   KBa4Sb3O
_chemical_formula_sum   'K2 Ba8 Sb6 O2'
_cell_volume   675.22771588
_cell_formula_units_Z   2
loop_
 _symmetry_equiv_pos_site_id
 _symmetry_equiv_pos_as_xyz
  1  'x, y, z'
loop_
 _atom_site_type_symbol
 _atom_site_label
 _atom_site_symmetry_multiplicity
 _atom_site_fract_x
 _atom_site_fract_y
 _atom_site_fract_z
 _atom_site_occupancy
  K  K0  1  0.00000000  0.00000000  0.00000000  1
  K  K1  1  0.50000000  0.50000000  0.00000000  1
  Ba  Ba2  1  0.49583444  0.31224561  0.30808005  1
  Ba  Ba3  1  0.81224561  0.99583444  0.30808005  1
  Ba  Ba4  1  0.99583444  0.49583444  0.30808005  1
  Ba  Ba5  1  0.50416556  0.68775439  0.69191995  1
  Ba  Ba6  1  0.68775439  0.18775439  0.69191995  1
  Ba  Ba7  1  0.00416556  0.50416556  0.69191995  1
  Ba  Ba8  1  0.31224561  0.81224561  0.30808005  1
  Ba  Ba9  1  0.18775439  0.00416556  0.69191995  1
  Sb  Sb10  1  0.11554881  0.38445119  0.00000000  1
  Sb  Sb11  1  0.75000000  0.75000000  0.50000000  1
  Sb  Sb12  1  0.38445119  0.88445119  1.00000000  1
  Sb  Sb13  1  0.61554881  0.11554881  0.00000000  1
  Sb  Sb14  1  0.88445119  0.61554881  1.00000000  1
  Sb  Sb15  1  0.25000000  0.25000000  0.50000000  1
  O  O16  1  0.25000000  0.75000000  0.50000000  1
  O  O17  1  0.75000000  0.25000000  0.50000000  1
