# generated using pymatgen
data_Ag15P4S16Cl3
_symmetry_space_group_name_H-M   'P 1'
_cell_length_a   13.04682125
_cell_length_b   13.04682109
_cell_length_c   13.04682145
_cell_angle_alpha   109.47122283
_cell_angle_beta   109.47122261
_cell_angle_gamma   109.47121893
_symmetry_Int_Tables_number   1
_chemical_formula_structural   Ag15P4S16Cl3
_chemical_formula_sum   'Ag30 P8 S32 Cl6'
_cell_volume   1709.59104432
_cell_formula_units_Z   2
loop_
 _symmetry_equiv_pos_site_id
 _symmetry_equiv_pos_as_xyz
  1  'x, y, z'
loop_
 _atom_site_type_symbol
 _atom_site_label
 _atom_site_symmetry_multiplicity
 _atom_site_fract_x
 _atom_site_fract_y
 _atom_site_fract_z
 _atom_site_occupancy
  Ag  Ag0  1  0.62701906  0.78165316  0.58797357  1
  Ag  Ag1  1  0.87500000  0.12500000  0.75000000  1
  Ag  Ag2  1  0.46095452  0.15463410  0.87298094  1
  Ag  Ag3  1  0.91202643  0.69367959  0.03904548  1
  Ag  Ag4  1  0.53904548  0.19367959  0.41202643  1
  Ag  Ag5  1  0.65463410  0.96095452  0.37298094  1
  Ag  Ag6  1  0.87298094  0.46095452  0.15463410  1
  Ag  Ag7  1  0.12701906  0.08797357  0.28165316  1
  Ag  Ag8  1  0.03904548  0.91202643  0.69367959  1
  Ag  Ag9  1  0.34536590  0.80632041  0.71834684  1
  Ag  Ag10  1  0.41202643  0.53904548  0.19367959  1
  Ag  Ag11  1  0.12500000  0.75000000  0.87500000  1
  Ag  Ag12  1  0.78165316  0.58797357  0.62701906  1
  Ag  Ag13  1  0.84536590  0.21834684  0.30632041  1
  Ag  Ag14  1  0.69367959  0.03904548  0.91202643  1
  Ag  Ag15  1  0.28165316  0.12701906  0.08797357  1
  Ag  Ag16  1  0.37298094  0.65463410  0.96095452  1
  Ag  Ag17  1  0.96095452  0.37298094  0.65463410  1
  Ag  Ag18  1  0.75000000  0.87500000  0.12500000  1
  Ag  Ag19  1  0.62500000  0.37500000  0.25000000  1
  Ag  Ag20  1  0.30632041  0.84536590  0.21834684  1
  Ag  Ag21  1  0.71834684  0.34536590  0.80632041  1
  Ag  Ag22  1  0.15463410  0.87298094  0.46095452  1
  Ag  Ag23  1  0.08797357  0.28165316  0.12701906  1
  Ag  Ag24  1  0.58797357  0.62701906  0.78165316  1
  Ag  Ag25  1  0.80632041  0.71834684  0.34536590  1
  Ag  Ag26  1  0.25000000  0.62500000  0.37500000  1
  Ag  Ag27  1  0.19367959  0.41202643  0.53904548  1
  Ag  Ag28  1  0.21834684  0.30632041  0.84536590  1
  Ag  Ag29  1  0.37500000  0.25000000  0.62500000  1
  P  P30  1  0.39972991  0.39972991  0.39972991  1
  P  P31  1  0.10027009  0.50000000  0.00000000  1
  P  P32  1  0.00000000  0.60027009  0.50000000  1
  P  P33  1  0.00000000  0.10027009  0.50000000  1
  P  P34  1  0.50000000  0.00000000  0.60027009  1
  P  P35  1  0.50000000  0.00000000  0.10027009  1
  P  P36  1  0.89972991  0.89972991  0.89972991  1
  P  P37  1  0.60027009  0.50000000  0.00000000  1
  S  S38  1  0.08170722  0.32209854  0.94757786  1
  S  S39  1  0.94757786  0.08170722  0.32209854  1
  S  S40  1  0.44303796  0.50000000  0.00000000  1
  S  S41  1  0.75960868  0.67790146  0.12547932  1
  S  S42  1  0.63412936  0.37452068  0.05242214  1
  S  S43  1  0.94303796  0.50000000  0.00000000  1
  S  S44  1  0.05696204  0.05696204  0.05696204  1
  S  S45  1  0.25960868  0.62547932  0.17790146  1
  S  S46  1  1.00000000  0.94303796  0.50000000  1
  S  S47  1  0.24039132  0.41829278  0.36587064  1
  S  S48  1  0.13412936  0.55242214  0.87452068  1
  S  S49  1  0.58170722  0.44757786  0.82209854  1
  S  S50  1  0.50000000  0.00000000  0.94303796  1
  S  S51  1  0.12547932  0.75960868  0.67790146  1
  S  S52  1  0.41829278  0.36587064  0.24039132  1
  S  S53  1  0.44757786  0.82209854  0.58170722  1
  S  S54  1  0.32209854  0.94757786  0.08170722  1
  S  S55  1  0.74039132  0.86587064  0.91829278  1
  S  S56  1  0.86587064  0.91829278  0.74039132  1
  S  S57  1  0.67790146  0.12547932  0.75960868  1
  S  S58  1  0.50000000  0.00000000  0.44303796  1
  S  S59  1  1.00000000  0.44303796  0.50000000  1
  S  S60  1  0.05242214  0.63412936  0.37452068  1
  S  S61  1  0.82209854  0.58170722  0.44757786  1
  S  S62  1  0.36587064  0.24039132  0.41829278  1
  S  S63  1  0.55696204  0.55696204  0.55696204  1
  S  S64  1  0.17790146  0.25960868  0.62547932  1
  S  S65  1  0.37452068  0.05242214  0.63412936  1
  S  S66  1  0.62547932  0.17790146  0.25960868  1
  S  S67  1  0.55242214  0.87452068  0.13412936  1
  S  S68  1  0.91829278  0.74039132  0.86587064  1
  S  S69  1  0.87452068  0.13412936  0.55242214  1
  Cl  Cl70  1  0.25000000  0.12500000  0.87500000  1
  Cl  Cl71  1  0.37500000  0.62500000  0.75000000  1
  Cl  Cl72  1  0.62500000  0.75000000  0.37500000  1
  Cl  Cl73  1  0.87500000  0.25000000  0.12500000  1
  Cl  Cl74  1  0.75000000  0.37500000  0.62500000  1
  Cl  Cl75  1  0.12500000  0.87500000  0.25000000  1
