# generated using pymatgen
data_KSb2PO8
_symmetry_space_group_name_H-M   'P 1'
_cell_length_a   7.19509835
_cell_length_b   7.21905552
_cell_length_c   15.25878608
_cell_angle_alpha   95.19916474
_cell_angle_beta   90.00000000
_cell_angle_gamma   119.89028208
_symmetry_Int_Tables_number   1
_chemical_formula_structural   KSb2PO8
_chemical_formula_sum   'K4 Sb8 P4 O32'
_cell_volume   683.37879504
_cell_formula_units_Z   4
loop_
 _symmetry_equiv_pos_site_id
 _symmetry_equiv_pos_as_xyz
  1  'x, y, z'
loop_
 _atom_site_type_symbol
 _atom_site_label
 _atom_site_symmetry_multiplicity
 _atom_site_fract_x
 _atom_site_fract_y
 _atom_site_fract_z
 _atom_site_occupancy
  K  K0  1  0.09274783  0.94239224  0.11554697  1
  K  K1  1  0.84964441  0.94239224  0.61554697  1
  K  K2  1  0.90725217  0.05760776  0.88445303  1
  K  K3  1  0.15035559  0.05760776  0.38445303  1
  Sb  Sb4  1  0.12427783  0.50270569  0.24668144  1
  Sb  Sb5  1  0.54515517  0.35377327  0.93665116  1
  Sb  Sb6  1  0.80861810  0.35377327  0.43665116  1
  Sb  Sb7  1  0.87572217  0.49729431  0.75331856  1
  Sb  Sb8  1  0.45484483  0.64622673  0.06334884  1
  Sb  Sb9  1  0.37842786  0.50270569  0.74668144  1
  Sb  Sb10  1  0.62157214  0.49729431  0.25331856  1
  Sb  Sb11  1  0.19138190  0.64622673  0.56334884  1
  P  P12  1  0.51150430  0.79789900  0.39410345  1
  P  P13  1  0.71360530  0.20210100  0.10589655  1
  P  P14  1  0.28639470  0.79789900  0.89410345  1
  P  P15  1  0.48849570  0.20210100  0.60589655  1
  O  O16  1  0.75446492  0.34964738  0.03197406  1
  O  O17  1  0.58623053  0.33164512  0.35493691  1
  O  O18  1  0.92861208  0.25547767  0.15294345  1
  O  O19  1  0.07138792  0.74452233  0.84705655  1
  O  O20  1  0.66028005  0.68029804  0.15873626  1
  O  O21  1  0.33852169  0.77742291  0.32664415  1
  O  O22  1  0.66715599  0.66714822  0.97210545  1
  O  O23  1  0.43890121  0.77742291  0.82664415  1
  O  O24  1  0.66147831  0.22257709  0.67335585  1
  O  O25  1  0.59518245  0.34964738  0.53197406  1
  O  O26  1  0.67313441  0.74452233  0.34705655  1
  O  O27  1  0.69508136  0.63442365  0.75345685  1
  O  O28  1  0.33971995  0.31970196  0.84126374  1
  O  O29  1  0.56109879  0.22257709  0.17335585  1
  O  O30  1  0.33284401  0.33285178  0.02789455  1
  O  O31  1  0.93934229  0.63442365  0.25345685  1
  O  O32  1  0.35312565  0.97082830  0.56216975  1
  O  O33  1  1.00000777  0.33285178  0.52789455  1
  O  O34  1  -0.00000777  0.66714822  0.47210545  1
  O  O35  1  0.38229736  0.02917170  0.93783025  1
  O  O36  1  0.06065771  0.36557635  0.74654315  1
  O  O37  1  0.97998201  0.31970196  0.34126374  1
  O  O38  1  0.41376947  0.66835488  0.64506309  1
  O  O39  1  0.61770264  0.97082830  0.06216975  1
  O  O40  1  0.24553508  0.65035262  0.96802594  1
  O  O41  1  0.02001799  0.68029804  0.65873626  1
  O  O42  1  0.40481755  0.65035262  0.46802594  1
  O  O43  1  0.64687435  0.02917170  0.43783025  1
  O  O44  1  0.25458541  0.66835488  0.14506309  1
  O  O45  1  0.32686559  0.25547767  0.65294345  1
  O  O46  1  0.30491864  0.36557635  0.24654315  1
  O  O47  1  0.74541459  0.33164512  0.85493691  1
