# generated using pymatgen
data_TlInSiS4
_symmetry_space_group_name_H-M   'P 1'
_cell_length_a   7.72303866
_cell_length_b   12.68734843
_cell_length_c   16.85347964
_cell_angle_alpha   90.00000000
_cell_angle_beta   90.00000000
_cell_angle_gamma   90.00000000
_symmetry_Int_Tables_number   1
_chemical_formula_structural   TlInSiS4
_chemical_formula_sum   'Tl8 In8 Si8 S32'
_cell_volume   1651.38622086
_cell_formula_units_Z   8
loop_
 _symmetry_equiv_pos_site_id
 _symmetry_equiv_pos_as_xyz
  1  'x, y, z'
loop_
 _atom_site_type_symbol
 _atom_site_label
 _atom_site_symmetry_multiplicity
 _atom_site_fract_x
 _atom_site_fract_y
 _atom_site_fract_z
 _atom_site_occupancy
  Tl  Tl0  1  0.25000000  0.38475489  0.07073495  1
  Tl  Tl1  1  0.25000000  0.02043560  0.16771306  1
  Tl  Tl2  1  0.25000000  0.47956440  0.66771306  1
  Tl  Tl3  1  0.25000000  0.11524511  0.57073495  1
  Tl  Tl4  1  0.75000000  0.97956440  0.83228694  1
  Tl  Tl5  1  0.75000000  0.61524511  0.92926505  1
  Tl  Tl6  1  0.75000000  0.88475489  0.42926505  1
  Tl  Tl7  1  0.75000000  0.52043560  0.33228694  1
  In  In8  1  0.99241455  0.27441877  0.84662839  1
  In  In9  1  0.00758545  0.77441877  0.65337161  1
  In  In10  1  0.49241455  0.72558123  0.15337161  1
  In  In11  1  0.99241455  0.22558123  0.34662839  1
  In  In12  1  0.50758545  0.22558123  0.34662839  1
  In  In13  1  0.49241455  0.77441877  0.65337161  1
  In  In14  1  0.50758545  0.27441877  0.84662839  1
  In  In15  1  0.00758545  0.72558123  0.15337161  1
  Si  Si16  1  0.75000000  0.19715141  0.01841250  1
  Si  Si17  1  0.75000000  0.20073851  0.66942103  1
  Si  Si18  1  0.25000000  0.79926149  0.33057897  1
  Si  Si19  1  0.75000000  0.30284859  0.51841250  1
  Si  Si20  1  0.25000000  0.69715141  0.48158750  1
  Si  Si21  1  0.25000000  0.70073851  0.83057897  1
  Si  Si22  1  0.25000000  0.80284859  0.98158750  1
  Si  Si23  1  0.75000000  0.29926149  0.16942103  1
  S  S24  1  0.75000000  0.10096411  0.34063638  1
  S  S25  1  0.25000000  0.86625980  0.86221688  1
  S  S26  1  0.25000000  0.60096411  0.15936362  1
  S  S27  1  0.52131136  0.14863522  0.72875317  1
  S  S28  1  0.75000000  0.36423332  0.05055264  1
  S  S29  1  0.98210982  0.14859731  0.96154813  1
  S  S30  1  0.01789018  0.64859731  0.53845187  1
  S  S31  1  0.47868864  0.64863522  0.77124683  1
  S  S32  1  0.25000000  0.89903589  0.65936362  1
  S  S33  1  0.01789018  0.85140269  0.03845187  1
  S  S34  1  0.75000000  0.88673503  0.65179538  1
  S  S35  1  0.51789018  0.35140269  0.46154813  1
  S  S36  1  0.25000000  0.38673503  0.84820462  1
  S  S37  1  0.48210982  0.64859731  0.53845187  1
  S  S38  1  0.51789018  0.14859731  0.96154813  1
  S  S39  1  0.25000000  0.11326497  0.34820462  1
  S  S40  1  0.98210982  0.35140269  0.46154813  1
  S  S41  1  0.02131136  0.85136478  0.27124683  1
  S  S42  1  0.97868864  0.35136478  0.22875317  1
  S  S43  1  0.75000000  0.39903589  0.84063638  1
  S  S44  1  0.75000000  0.61326497  0.15179538  1
  S  S45  1  0.47868864  0.85136478  0.27124683  1
  S  S46  1  0.02131136  0.64863522  0.77124683  1
  S  S47  1  0.75000000  0.13576668  0.55055264  1
  S  S48  1  0.25000000  0.86423332  0.44944736  1
  S  S49  1  0.25000000  0.63576668  0.94944736  1
  S  S50  1  0.97868864  0.14863522  0.72875317  1
  S  S51  1  0.75000000  0.36625980  0.63778312  1
  S  S52  1  0.75000000  0.13374020  0.13778312  1
  S  S53  1  0.52131136  0.35136478  0.22875317  1
  S  S54  1  0.48210982  0.85140269  0.03845187  1
  S  S55  1  0.25000000  0.63374020  0.36221688  1
