# generated using pymatgen
data_Ba5As3ClO12
_symmetry_space_group_name_H-M   'P 1'
_cell_length_a   10.79341809
_cell_length_b   10.79341792
_cell_length_c   7.83249422
_cell_angle_alpha   90.00000000
_cell_angle_beta   90.00000000
_cell_angle_gamma   120.00000051
_symmetry_Int_Tables_number   1
_chemical_formula_structural   Ba5As3ClO12
_chemical_formula_sum   'Ba10 As6 Cl2 O24'
_cell_volume   790.22125299
_cell_formula_units_Z   2
loop_
 _symmetry_equiv_pos_site_id
 _symmetry_equiv_pos_as_xyz
  1  'x, y, z'
loop_
 _atom_site_type_symbol
 _atom_site_label
 _atom_site_symmetry_multiplicity
 _atom_site_fract_x
 _atom_site_fract_y
 _atom_site_fract_z
 _atom_site_occupancy
  Ba  Ba0  1  0.66666700  0.33333300  0.50148579  1
  Ba  Ba1  1  0.33333300  0.66666700  0.49851421  1
  Ba  Ba2  1  0.00547863  0.25423502  0.25000000  1
  Ba  Ba3  1  0.33333300  0.66666700  1.00148579  1
  Ba  Ba4  1  0.74576498  0.75124360  0.25000000  1
  Ba  Ba5  1  0.24875640  0.99452137  0.25000000  1
  Ba  Ba6  1  0.75124360  0.00547863  0.75000000  1
  Ba  Ba7  1  0.99452137  0.74576498  0.75000000  1
  Ba  Ba8  1  0.66666700  0.33333300  -0.00148579  1
  Ba  Ba9  1  0.25423502  0.24875640  0.75000000  1
  As  As10  1  0.96601751  0.59382298  0.25000000  1
  As  As11  1  0.59382298  0.62780547  0.75000000  1
  As  As12  1  0.37219453  0.96601751  0.75000000  1
  As  As13  1  0.40617702  0.37219453  0.25000000  1
  As  As14  1  0.03398249  0.40617702  0.75000000  1
  As  As15  1  0.62780547  0.03398249  0.25000000  1
  Cl  Cl16  1  0.00000000  0.00000000  0.00000000  1
  Cl  Cl17  1  0.00000000  0.00000000  0.50000000  1
  O  O18  1  0.64439575  0.73741040  0.92710638  1
  O  O19  1  0.33300576  0.48232641  0.25000000  1
  O  O20  1  0.35560425  0.26258960  0.42710638  1
  O  O21  1  0.40841975  0.53101590  0.75000000  1
  O  O22  1  0.09301465  0.35560425  0.57289362  1
  O  O23  1  0.66699424  0.51767359  0.75000000  1
  O  O24  1  0.85067935  0.33300576  0.75000000  1
  O  O25  1  0.12259616  0.59158025  0.75000000  1
  O  O26  1  0.59158025  0.46898410  0.25000000  1
  O  O27  1  0.73741040  0.09301465  0.07289362  1
  O  O28  1  0.09301465  0.35560425  0.92710638  1
  O  O29  1  0.87740384  0.40841975  0.25000000  1
  O  O30  1  0.46898410  0.87740384  0.75000000  1
  O  O31  1  0.90698535  0.64439575  0.07289362  1
  O  O32  1  0.90698535  0.64439575  0.42710638  1
  O  O33  1  0.48232641  0.14932065  0.75000000  1
  O  O34  1  0.35560425  0.26258960  0.07289362  1
  O  O35  1  0.73741040  0.09301465  0.42710638  1
  O  O36  1  0.14932065  0.66699424  0.25000000  1
  O  O37  1  0.26258960  0.90698535  0.92710638  1
  O  O38  1  0.51767359  0.85067935  0.25000000  1
  O  O39  1  0.26258960  0.90698535  0.57289362  1
  O  O40  1  0.64439575  0.73741040  0.57289362  1
  O  O41  1  0.53101590  0.12259616  0.25000000  1
