# generated using pymatgen
data_Na2TeO4
_symmetry_space_group_name_H-M   'P 1'
_cell_length_a   5.25066855
_cell_length_b   10.79476478
_cell_length_c   14.07218407
_cell_angle_alpha   103.49072987
_cell_angle_beta   90.00000000
_cell_angle_gamma   90.00000000
_symmetry_Int_Tables_number   1
_chemical_formula_structural   Na2TeO4
_chemical_formula_sum   'Na16 Te8 O32'
_cell_volume   775.59977435
_cell_formula_units_Z   8
loop_
 _symmetry_equiv_pos_site_id
 _symmetry_equiv_pos_as_xyz
  1  'x, y, z'
loop_
 _atom_site_type_symbol
 _atom_site_label
 _atom_site_symmetry_multiplicity
 _atom_site_fract_x
 _atom_site_fract_y
 _atom_site_fract_z
 _atom_site_occupancy
  Na  Na0  1  0.10979735  0.04402940  0.68473191  1
  Na  Na1  1  0.74805386  0.43298208  0.59930071  1
  Na  Na2  1  0.26293285  0.35601106  0.19672505  1
  Na  Na3  1  0.73706715  0.64398894  0.80327495  1
  Na  Na4  1  0.24805386  0.56701792  0.90069929  1
  Na  Na5  1  0.23706715  0.35601106  0.69672505  1
  Na  Na6  1  0.76293285  0.64398894  0.30327495  1
  Na  Na7  1  0.39020265  0.04402940  0.18473191  1
  Na  Na8  1  0.75412621  0.12947121  0.53452269  1
  Na  Na9  1  0.89020265  0.95597060  0.31526809  1
  Na  Na10  1  0.75194614  0.43298208  0.09930071  1
  Na  Na11  1  0.60979735  0.95597060  0.81526809  1
  Na  Na12  1  0.25194614  0.56701792  0.40069929  1
  Na  Na13  1  0.74587379  0.12947121  0.03452269  1
  Na  Na14  1  0.25412621  0.87052879  0.96547731  1
  Na  Na15  1  0.24587379  0.87052879  0.46547731  1
  Te  Te16  1  0.72422316  0.29066610  0.81676382  1
  Te  Te17  1  0.27577684  0.70933390  0.18323618  1
  Te  Te18  1  0.22422316  0.70933390  0.68323618  1
  Te  Te19  1  0.27601701  0.22277655  0.42273538  1
  Te  Te20  1  0.72398299  0.77722345  0.57726462  1
  Te  Te21  1  0.77601701  0.77722345  0.07726462  1
  Te  Te22  1  0.22398299  0.22277655  0.92273538  1
  Te  Te23  1  0.77577684  0.29066610  0.31676382  1
  O  O24  1  0.09451987  0.18423886  0.28702525  1
  O  O25  1  0.63704385  0.23532638  0.19093710  1
  O  O26  1  0.59669257  0.13848360  0.35613851  1
  O  O27  1  0.45225512  0.67768117  0.04835970  1
  O  O28  1  0.35098285  0.06881903  0.94199816  1
  O  O29  1  0.95225512  0.32231883  0.45164030  1
  O  O30  1  0.58389520  0.44145986  0.79618716  1
  O  O31  1  0.91637382  0.72032852  0.95314633  1
  O  O32  1  0.90330743  0.13848360  0.85613851  1
  O  O33  1  0.13704385  0.76467362  0.30906290  1
  O  O34  1  0.08362618  0.27967148  0.04685367  1
  O  O35  1  0.54774488  0.32231883  0.95164030  1
  O  O36  1  0.40548013  0.18423886  0.78702525  1
  O  O37  1  0.36295615  0.76467362  0.80906290  1
  O  O38  1  0.54747360  0.63054093  0.62198323  1
  O  O39  1  0.58362618  0.72032852  0.45314633  1
  O  O40  1  0.59451987  0.81576114  0.21297475  1
  O  O41  1  0.04774488  0.67768117  0.54835970  1
  O  O42  1  0.85098285  0.93118097  0.55800184  1
  O  O43  1  0.04747360  0.36945907  0.87801677  1
  O  O44  1  0.41610480  0.55854014  0.20381284  1
  O  O45  1  0.90548013  0.81576114  0.71297475  1
  O  O46  1  0.41637382  0.27967148  0.54685367  1
  O  O47  1  0.09669257  0.86151640  0.14386149  1
  O  O48  1  0.08389520  0.55854014  0.70381284  1
  O  O49  1  0.14901715  0.06881903  0.44199816  1
  O  O50  1  0.40330743  0.86151640  0.64386149  1
  O  O51  1  0.64901715  0.93118097  0.05800184  1
  O  O52  1  0.45252640  0.36945907  0.37801677  1
  O  O53  1  0.95252640  0.63054093  0.12198323  1
  O  O54  1  0.91610480  0.44145986  0.29618716  1
  O  O55  1  0.86295615  0.23532638  0.69093710  1
