# generated using pymatgen
data_Ga(IO3)3
_symmetry_space_group_name_H-M   'P 1'
_cell_length_a   9.24005635
_cell_length_b   9.24005601
_cell_length_c   5.40634966
_cell_angle_alpha   90.00000000
_cell_angle_beta   90.00000000
_cell_angle_gamma   120.00000121
_symmetry_Int_Tables_number   1
_chemical_formula_structural   Ga(IO3)3
_chemical_formula_sum   'Ga2 I6 O18'
_cell_volume   399.74586521
_cell_formula_units_Z   2
loop_
 _symmetry_equiv_pos_site_id
 _symmetry_equiv_pos_as_xyz
  1  'x, y, z'
loop_
 _atom_site_type_symbol
 _atom_site_label
 _atom_site_symmetry_multiplicity
 _atom_site_fract_x
 _atom_site_fract_y
 _atom_site_fract_z
 _atom_site_occupancy
  Ga  Ga0  1  0.66666700  0.33333300  0.39507138  1
  Ga  Ga1  1  0.33333300  0.66666700  0.89507138  1
  I  I2  1  0.68459954  0.66216137  0.75338244  1
  I  I3  1  0.31540046  0.33783863  0.25338244  1
  I  I4  1  0.02243817  0.68459954  0.25338244  1
  I  I5  1  0.33783863  0.02243817  0.75338244  1
  I  I6  1  0.66216137  0.97756183  0.25338244  1
  I  I7  1  0.97756183  0.31540046  0.75338244  1
  O  O8  1  0.83010499  0.77873979  0.51013207  1
  O  O9  1  0.57495147  0.44916924  0.60423361  1
  O  O10  1  0.87421777  0.42504853  0.60423361  1
  O  O11  1  0.77873979  0.94863480  0.01013207  1
  O  O12  1  0.22126021  0.05136520  0.51013207  1
  O  O13  1  0.05136520  0.83010499  0.01013207  1
  O  O14  1  0.71499028  0.19261003  0.16563809  1
  O  O15  1  0.55083076  0.12578223  0.60423361  1
  O  O16  1  0.47761975  0.28500972  0.16563809  1
  O  O17  1  0.94863480  0.16989501  0.51013207  1
  O  O18  1  0.42504853  0.55083076  0.10423361  1
  O  O19  1  0.12578223  0.57495147  0.10423361  1
  O  O20  1  0.28500972  0.80738997  0.66563809  1
  O  O21  1  0.52238025  0.71499028  0.66563809  1
  O  O22  1  0.44916924  0.87421777  0.10423361  1
  O  O23  1  0.80738997  0.52238025  0.16563809  1
  O  O24  1  0.16989501  0.22126021  0.01013207  1
  O  O25  1  0.19261003  0.47761975  0.66563809  1
