# generated using pymatgen
data_K6U5V2O23
_symmetry_space_group_name_H-M   'P 1'
_cell_length_a   7.09126406
_cell_length_b   7.21707765
_cell_length_c   25.03073570
_cell_angle_alpha   90.00000000
_cell_angle_beta   90.00000000
_cell_angle_gamma   98.78712521
_symmetry_Int_Tables_number   1
_chemical_formula_structural   K6U5V2O23
_chemical_formula_sum   'K12 U10 V4 O46'
_cell_volume   1265.99231423
_cell_formula_units_Z   2
loop_
 _symmetry_equiv_pos_site_id
 _symmetry_equiv_pos_as_xyz
  1  'x, y, z'
loop_
 _atom_site_type_symbol
 _atom_site_label
 _atom_site_symmetry_multiplicity
 _atom_site_fract_x
 _atom_site_fract_y
 _atom_site_fract_z
 _atom_site_occupancy
  K  K0  1  0.04917552  0.76471557  0.03934685  1
  K  K1  1  0.13054888  0.77174070  0.38664601  1
  K  K2  1  0.04917552  0.26471557  0.46065315  1
  K  K3  1  0.76480761  0.71375748  0.70727688  1
  K  K4  1  0.76480761  0.21375748  0.79272312  1
  K  K5  1  0.86945112  0.72825930  0.88664601  1
  K  K6  1  0.95082448  0.23528443  0.96065315  1
  K  K7  1  0.23519239  0.78624252  0.20727688  1
  K  K8  1  0.95082448  0.73528443  0.53934685  1
  K  K9  1  0.13054888  0.27174070  0.11335399  1
  K  K10  1  0.23519239  0.28624252  0.29272312  1
  K  K11  1  0.86945112  0.22825930  0.61335399  1
  U  U12  1  0.65250862  0.02777913  0.35781913  1
  U  U13  1  0.59207763  0.51460338  0.41874113  1
  U  U14  1  0.59207763  0.01460338  0.08125887  1
  U  U15  1  0.40792237  0.48539662  0.58125887  1
  U  U16  1  0.50000000  0.00000000  0.50000000  1
  U  U17  1  0.34749138  0.97222087  0.64218087  1
  U  U18  1  0.65250862  0.52777913  0.14218087  1
  U  U19  1  0.34749138  0.47222087  0.85781913  1
  U  U20  1  0.40792237  0.98539662  0.91874113  1
  U  U21  1  0.50000000  0.50000000  0.00000000  1
  V  V22  1  0.21360491  0.95452689  0.79680016  1
  V  V23  1  0.78639509  0.54547311  0.29680016  1
  V  V24  1  0.21360491  0.45452689  0.70319984  1
  V  V25  1  0.78639509  0.04547311  0.20319984  1
  O  O26  1  0.75747130  0.52838279  0.97870926  1
  O  O27  1  0.68909097  0.03485281  0.26642774  1
  O  O28  1  0.34148759  0.46840687  0.39239309  1
  O  O29  1  0.65851241  0.53159313  0.60760691  1
  O  O30  1  0.84827480  0.05869457  0.05875827  1
  O  O31  1  0.56368778  0.82679240  0.42934678  1
  O  O32  1  0.08675698  0.43290468  0.87246762  1
  O  O33  1  0.43631222  0.67320760  0.92934678  1
  O  O34  1  0.56368778  0.32679240  0.07065322  1
  O  O35  1  0.91324302  0.06709532  0.37246762  1
  O  O36  1  0.59008027  0.69860794  0.06809326  1
  O  O37  1  0.84827480  0.55869457  0.44124173  1
  O  O38  1  0.70656109  0.71739588  0.33803131  1
  O  O39  1  0.24252870  0.47161721  0.02129074  1
  O  O40  1  0.70656109  0.21739588  0.16196869  1
  O  O41  1  0.59008027  0.19860794  0.43190674  1
  O  O42  1  0.30988741  0.65014462  0.66329982  1
  O  O43  1  0.40991973  0.30139206  0.93190674  1
  O  O44  1  0.02794303  0.57569564  0.29273087  1
  O  O45  1  0.31090903  0.46514719  0.76642774  1
  O  O46  1  0.60341709  0.99975890  0.66181075  1
  O  O47  1  0.34148759  0.96840687  0.10760691  1
  O  O48  1  0.40991973  0.80139206  0.56809326  1
  O  O49  1  0.30988741  0.15014462  0.83670018  1
  O  O50  1  0.97205697  0.92430436  0.79273087  1
  O  O51  1  0.97205697  0.42430436  0.70726913  1
  O  O52  1  0.75747130  0.02838279  0.52129074  1
  O  O53  1  0.29343891  0.28260412  0.66196869  1
  O  O54  1  0.24252870  0.97161721  0.47870926  1
  O  O55  1  0.15172520  0.44130543  0.55875827  1
  O  O56  1  0.91324302  0.56709532  0.12753238  1
  O  O57  1  0.15172520  0.94130543  0.94124173  1
  O  O58  1  0.60341709  0.49975890  0.83818925  1
  O  O59  1  0.39658291  0.00024110  0.33818925  1
  O  O60  1  0.08675698  0.93290468  0.62753238  1
  O  O61  1  0.69011259  0.84985538  0.16329982  1
  O  O62  1  0.39658291  0.50024110  0.16181075  1
  O  O63  1  0.69011259  0.34985538  0.33670018  1
  O  O64  1  0.02794303  0.07569564  0.20726913  1
  O  O65  1  0.43631222  0.17320760  0.57065322  1
  O  O66  1  0.31090903  0.96514719  0.73357226  1
  O  O67  1  0.65851241  0.03159313  0.89239309  1
  O  O68  1  0.29343891  0.78260412  0.83803131  1
  O  O69  1  0.50000000  0.00000000  0.00000000  1
  O  O70  1  0.50000000  0.50000000  0.50000000  1
  O  O71  1  0.68909097  0.53485281  0.23357226  1
