# generated using pymatgen
data_Sr7GeN6
_symmetry_space_group_name_H-M   'P 1'
_cell_length_a   6.62644562
_cell_length_b   11.67779467
_cell_length_c   13.93855126
_cell_angle_alpha   90.00000000
_cell_angle_beta   90.00000000
_cell_angle_gamma   90.00000000
_symmetry_Int_Tables_number   1
_chemical_formula_structural   Sr7GeN6
_chemical_formula_sum   'Sr28 Ge4 N24'
_cell_volume   1078.59675572
_cell_formula_units_Z   4
loop_
 _symmetry_equiv_pos_site_id
 _symmetry_equiv_pos_as_xyz
  1  'x, y, z'
loop_
 _atom_site_type_symbol
 _atom_site_label
 _atom_site_symmetry_multiplicity
 _atom_site_fract_x
 _atom_site_fract_y
 _atom_site_fract_z
 _atom_site_occupancy
  Sr  Sr0  1  0.64512197  0.72414226  0.37435278  1
  Sr  Sr1  1  0.73609956  0.96211829  0.52022077  1
  Sr  Sr2  1  0.14512197  0.77585774  0.37435278  1
  Sr  Sr3  1  0.94093829  0.50000000  0.75000000  1
  Sr  Sr4  1  0.61075921  0.29427406  0.87696978  1
  Sr  Sr5  1  0.23609956  0.46211829  0.97977923  1
  Sr  Sr6  1  0.05906171  0.50000000  0.25000000  1
  Sr  Sr7  1  0.73609956  0.03788171  0.97977923  1
  Sr  Sr8  1  0.61075921  0.70572594  0.62303022  1
  Sr  Sr9  1  0.55906171  0.00000000  0.25000000  1
  Sr  Sr10  1  0.35487803  0.27585774  0.62564722  1
  Sr  Sr11  1  0.85487803  0.77585774  0.87435278  1
  Sr  Sr12  1  0.88924079  0.20572594  0.37696978  1
  Sr  Sr13  1  0.11075921  0.79427406  0.62303022  1
  Sr  Sr14  1  0.23609956  0.53788171  0.52022077  1
  Sr  Sr15  1  0.64512197  0.27585774  0.12564722  1
  Sr  Sr16  1  0.26390044  0.96211829  0.02022077  1
  Sr  Sr17  1  0.14512197  0.22414226  0.12564722  1
  Sr  Sr18  1  0.26390044  0.03788171  0.47977923  1
  Sr  Sr19  1  0.44093829  0.00000000  0.75000000  1
  Sr  Sr20  1  0.88924079  0.79427406  0.12303022  1
  Sr  Sr21  1  0.85487803  0.22414226  0.62564722  1
  Sr  Sr22  1  0.35487803  0.72414226  0.87435278  1
  Sr  Sr23  1  0.38924079  0.70572594  0.12303022  1
  Sr  Sr24  1  0.76390044  0.53788171  0.02022077  1
  Sr  Sr25  1  0.38924079  0.29427406  0.37696978  1
  Sr  Sr26  1  0.11075921  0.20572594  0.87696978  1
  Sr  Sr27  1  0.76390044  0.46211829  0.47977923  1
  Ge  Ge28  1  0.56976826  0.50000000  0.25000000  1
  Ge  Ge29  1  0.93023174  0.00000000  0.75000000  1
  Ge  Ge30  1  0.43023174  0.50000000  0.75000000  1
  Ge  Ge31  1  0.06976826  0.00000000  0.25000000  1
  N  N32  1  0.90182873  0.04550528  0.14391363  1
  N  N33  1  0.74058940  0.62628566  0.20844663  1
  N  N34  1  0.40182873  0.54550528  0.35608637  1
  N  N35  1  0.24058940  0.87371434  0.20844663  1
  N  N36  1  0.59350491  0.83398642  0.99733136  1
  N  N37  1  0.59350491  0.16601358  0.50266864  1
  N  N38  1  0.90182873  0.95449472  0.35608637  1
  N  N39  1  0.90649509  0.33398642  0.00266864  1
  N  N40  1  0.40649509  0.83398642  0.49733136  1
  N  N41  1  0.75941060  0.12628566  0.79155337  1
  N  N42  1  0.74058940  0.37371434  0.29155337  1
  N  N43  1  0.40649509  0.16601358  0.00266864  1
  N  N44  1  0.59817127  0.54550528  0.85608637  1
  N  N45  1  0.59817127  0.45449472  0.64391363  1
  N  N46  1  0.25941060  0.62628566  0.70844663  1
  N  N47  1  0.75941060  0.87371434  0.70844663  1
  N  N48  1  0.09350491  0.66601358  0.99733136  1
  N  N49  1  0.09817127  0.04550528  0.64391363  1
  N  N50  1  0.24058940  0.12628566  0.29155337  1
  N  N51  1  0.09817127  0.95449472  0.85608637  1
  N  N52  1  0.90649509  0.66601358  0.49733136  1
  N  N53  1  0.09350491  0.33398642  0.50266864  1
  N  N54  1  0.40182873  0.45449472  0.14391363  1
  N  N55  1  0.25941060  0.37371434  0.79155337  1
