# generated using pymatgen
data_Na2MoSeO6
_symmetry_space_group_name_H-M   'P 1'
_cell_length_a   8.48309460
_cell_length_b   8.48309460
_cell_length_c   8.48309460
_cell_angle_alpha   90.00000000
_cell_angle_beta   90.00000000
_cell_angle_gamma   90.00000000
_symmetry_Int_Tables_number   1
_chemical_formula_structural   Na2MoSeO6
_chemical_formula_sum   'Na8 Mo4 Se4 O24'
_cell_volume   610.46803743
_cell_formula_units_Z   4
loop_
 _symmetry_equiv_pos_site_id
 _symmetry_equiv_pos_as_xyz
  1  'x, y, z'
loop_
 _atom_site_type_symbol
 _atom_site_label
 _atom_site_symmetry_multiplicity
 _atom_site_fract_x
 _atom_site_fract_y
 _atom_site_fract_z
 _atom_site_occupancy
  Na  Na0  1  0.75168669  0.24831331  0.74831331  1
  Na  Na1  1  0.46655209  0.46655209  0.46655209  1
  Na  Na2  1  0.53344791  0.96655209  0.03344791  1
  Na  Na3  1  0.25168669  0.25168669  0.25168669  1
  Na  Na4  1  0.74831331  0.75168669  0.24831331  1
  Na  Na5  1  0.03344791  0.53344791  0.96655209  1
  Na  Na6  1  0.96655209  0.03344791  0.53344791  1
  Na  Na7  1  0.24831331  0.74831331  0.75168669  1
  Mo  Mo8  1  0.99185802  0.50814198  0.49185802  1
  Mo  Mo9  1  0.00814198  0.00814198  0.00814198  1
  Mo  Mo10  1  0.49185802  0.99185802  0.50814198  1
  Mo  Mo11  1  0.50814198  0.49185802  0.99185802  1
  Se  Se12  1  0.32692578  0.17307422  0.82692578  1
  Se  Se13  1  0.82692578  0.32692578  0.17307422  1
  Se  Se14  1  0.67307422  0.67307422  0.67307422  1
  Se  Se15  1  0.17307422  0.82692578  0.32692578  1
  O  O16  1  0.40120832  0.99586716  0.75553896  1
  O  O17  1  0.49586716  0.74446104  0.59879168  1
  O  O18  1  0.68993346  0.01497727  0.57627837  1
  O  O19  1  0.00413284  0.25553896  0.09879168  1
  O  O20  1  0.18993346  0.48502273  0.42372163  1
  O  O21  1  0.75553896  0.40120832  0.99586716  1
  O  O22  1  0.07627837  0.81006654  0.98502273  1
  O  O23  1  0.01497727  0.57627837  0.68993346  1
  O  O24  1  0.31006654  0.51497727  0.92372163  1
  O  O25  1  0.99586716  0.75553896  0.40120832  1
  O  O26  1  0.90120832  0.50413284  0.24446104  1
  O  O27  1  0.92372163  0.31006654  0.51497727  1
  O  O28  1  0.51497727  0.92372163  0.31006654  1
  O  O29  1  0.24446104  0.90120832  0.50413284  1
  O  O30  1  0.09879168  0.00413284  0.25553896  1
  O  O31  1  0.42372163  0.18993346  0.48502273  1
  O  O32  1  0.25553896  0.09879168  0.00413284  1
  O  O33  1  0.98502273  0.07627837  0.81006654  1
  O  O34  1  0.59879168  0.49586716  0.74446104  1
  O  O35  1  0.81006654  0.98502273  0.07627837  1
  O  O36  1  0.74446104  0.59879168  0.49586716  1
  O  O37  1  0.48502273  0.42372163  0.18993346  1
  O  O38  1  0.57627837  0.68993346  0.01497727  1
  O  O39  1  0.50413284  0.24446104  0.90120832  1
