# generated using pymatgen
data_RbV2I3O13
_symmetry_space_group_name_H-M   'P 1'
_cell_length_a   8.16944192
_cell_length_b   9.69127592
_cell_length_c   9.69127576
_cell_angle_alpha   66.21919346
_cell_angle_beta   65.07166625
_cell_angle_gamma   65.07166242
_symmetry_Int_Tables_number   1
_chemical_formula_structural   RbV2I3O13
_chemical_formula_sum   'Rb2 V4 I6 O26'
_cell_volume   606.76838857
_cell_formula_units_Z   2
loop_
 _symmetry_equiv_pos_site_id
 _symmetry_equiv_pos_as_xyz
  1  'x, y, z'
loop_
 _atom_site_type_symbol
 _atom_site_label
 _atom_site_symmetry_multiplicity
 _atom_site_fract_x
 _atom_site_fract_y
 _atom_site_fract_z
 _atom_site_occupancy
  Rb  Rb0  1  0.44405146  0.85915745  0.64084255  1
  Rb  Rb1  1  0.94405146  0.14084255  0.35915745  1
  V  V2  1  0.58511025  0.11129587  0.14591097  1
  V  V3  1  0.08511025  0.64591097  0.61129587  1
  V  V4  1  0.84231709  0.88870413  0.85408903  1
  V  V5  1  0.34231709  0.35408903  0.38870413  1
  I  I6  1  0.93513817  0.76533620  0.25305680  1
  I  I7  1  0.43513817  0.75305680  0.26533620  1
  I  I8  1  0.21869779  0.47228342  0.02771658  1
  I  I9  1  0.71869779  0.52771658  0.97228342  1
  I  I10  1  0.45353117  0.24694320  0.73466380  1
  I  I11  1  0.95353117  0.23466380  0.74694320  1
  O  O12  1  0.48631800  0.55387461  0.24813248  1
  O  O13  1  0.54330879  0.26504361  0.23495639  1
  O  O14  1  0.01254374  0.40972224  0.09027776  1
  O  O15  1  0.89884040  0.52711553  0.77005255  1
  O  O16  1  0.31192880  0.71699101  0.48672790  1
  O  O17  1  0.39884040  0.27005255  0.02711553  1
  O  O18  1  0.79247207  0.30533570  0.63303500  1
  O  O19  1  0.17084752  0.50000000  0.50000000  1
  O  O20  1  0.01564771  0.01327210  0.78300899  1
  O  O21  1  0.28832509  0.44612539  0.75186752  1
  O  O22  1  0.04330879  0.73495639  0.76504361  1
  O  O23  1  0.93680820  0.78753310  0.51495123  1
  O  O24  1  0.73084277  0.69466430  0.36696500  1
  O  O25  1  0.23929252  0.21246690  0.48504877  1
  O  O26  1  0.67084752  0.00000000  1.00000000  1
  O  O27  1  0.73929252  0.98504877  0.71246690  1
  O  O28  1  0.98631800  0.74813248  0.05387461  1
  O  O29  1  0.81192880  0.98672790  0.21699101  1
  O  O30  1  0.29247207  0.13303500  0.80533570  1
  O  O31  1  0.23084277  0.86696500  0.19466430  1
  O  O32  1  0.78832509  0.25186752  0.94612539  1
  O  O33  1  0.51254374  0.59027776  0.90972224  1
  O  O34  1  0.19600847  0.47288447  0.22994745  1
  O  O35  1  0.43680820  0.01495123  0.28753310  1
  O  O36  1  0.69600847  0.72994745  0.97288447  1
  O  O37  1  0.51564771  0.28300899  0.51327210  1
