# generated using pymatgen
data_K8UCr4(NO12)2
_symmetry_space_group_name_H-M   'P 1'
_cell_length_a   7.23612122
_cell_length_b   9.85146390
_cell_length_c   9.88198089
_cell_angle_alpha   105.65623912
_cell_angle_beta   97.42188696
_cell_angle_gamma   93.23657474
_symmetry_Int_Tables_number   1
_chemical_formula_structural   K8UCr4(NO12)2
_chemical_formula_sum   'K8 U1 Cr4 N2 O24'
_cell_volume   669.54804545
_cell_formula_units_Z   1
loop_
 _symmetry_equiv_pos_site_id
 _symmetry_equiv_pos_as_xyz
  1  'x, y, z'
loop_
 _atom_site_type_symbol
 _atom_site_label
 _atom_site_symmetry_multiplicity
 _atom_site_fract_x
 _atom_site_fract_y
 _atom_site_fract_z
 _atom_site_occupancy
  K  K0  1  0.99426051  0.73739175  0.24517194  1
  K  K1  1  0.74807781  0.49064828  0.45901467  1
  K  K2  1  0.25192219  0.50935172  0.54098533  1
  K  K3  1  0.60786017  0.30412878  0.05040510  1
  K  K4  1  0.37875872  0.09094162  0.34809220  1
  K  K5  1  0.00573949  0.26260825  0.75482806  1
  K  K6  1  0.62124128  0.90905838  0.65190780  1
  K  K7  1  0.39213983  0.69587122  0.94959490  1
  U  U8  1  0.00000000  0.00000000  0.00000000  1
  Cr  Cr9  1  0.12949029  0.87530246  0.63883742  1
  Cr  Cr10  1  0.85443206  0.61309799  0.84141497  1
  Cr  Cr11  1  0.87050971  0.12469754  0.36116258  1
  Cr  Cr12  1  0.14556794  0.38690201  0.15858503  1
  N  N13  1  0.49511501  0.70244877  0.29569307  1
  N  N14  1  0.50488499  0.29755123  0.70430693  1
  O  O15  1  0.78150228  0.51104015  0.93375999  1
  O  O16  1  0.32761640  0.34180252  0.24968884  1
  O  O17  1  0.71117881  0.20480390  0.28513301  1
  O  O18  1  0.98310385  0.76240608  0.95966393  1
  O  O19  1  0.52894127  0.31989958  0.58664491  1
  O  O20  1  0.01689615  0.23759392  0.04033607  1
  O  O21  1  0.97478685  0.75431816  0.52592206  1
  O  O22  1  0.21849772  0.48895985  0.06624001  1
  O  O23  1  0.47105873  0.68010042  0.41335509  1
  O  O24  1  0.60171029  0.21256897  0.75200204  1
  O  O25  1  0.67238360  0.65819748  0.75031116  1
  O  O26  1  0.38451480  0.36069203  0.77401630  1
  O  O27  1  0.74389643  0.99412141  0.95550567  1
  O  O28  1  0.23352197  0.97377134  0.55551751  1
  O  O29  1  0.39828971  0.78743103  0.24799796  1
  O  O30  1  0.61548520  0.63930797  0.22598370  1
  O  O31  1  0.01577344  0.98162772  0.76765547  1
  O  O32  1  0.02521315  0.24568184  0.47407794  1
  O  O33  1  0.25610357  0.00587859  0.04449433  1
  O  O34  1  0.76647803  0.02622866  0.44448249  1
  O  O35  1  0.01135896  0.47200573  0.27058539  1
  O  O36  1  0.28882119  0.79519610  0.71486699  1
  O  O37  1  0.98864104  0.52799427  0.72941461  1
  O  O38  1  0.98422656  0.01837228  0.23234453  1
