# generated using pymatgen
data_NbI4
_symmetry_space_group_name_H-M   'P 1'
_cell_length_a   8.06197749
_cell_length_b   8.06197786
_cell_length_c   14.89742855
_cell_angle_alpha   90.00000000
_cell_angle_beta   90.00000000
_cell_angle_gamma   121.93933579
_symmetry_Int_Tables_number   1
_chemical_formula_structural   NbI4
_chemical_formula_sum   'Nb4 I16'
_cell_volume   821.67858966
_cell_formula_units_Z   4
loop_
 _symmetry_equiv_pos_site_id
 _symmetry_equiv_pos_as_xyz
  1  'x, y, z'
loop_
 _atom_site_type_symbol
 _atom_site_label
 _atom_site_symmetry_multiplicity
 _atom_site_fract_x
 _atom_site_fract_y
 _atom_site_fract_z
 _atom_site_occupancy
  Nb  Nb0  1  0.66293240  0.90970765  0.37667700  1
  Nb  Nb1  1  0.33706760  0.09029235  0.87667700  1
  Nb  Nb2  1  0.09029235  0.33706760  0.37667700  1
  Nb  Nb3  1  0.90970765  0.66293240  0.87667700  1
  I  I4  1  0.25942915  0.22759119  0.02796229  1
  I  I5  1  0.26551574  0.73448426  0.44822701  1
  I  I6  1  0.77240881  0.74057085  0.02796229  1
  I  I7  1  0.51229536  0.48770464  0.80494875  1
  I  I8  1  0.74613388  0.25386612  0.46042913  1
  I  I9  1  0.74057085  0.77240881  0.52796229  1
  I  I10  1  0.99022325  0.52536944  0.72636877  1
  I  I11  1  0.99278542  0.00721458  0.79307899  1
  I  I12  1  0.25386612  0.74613388  0.96042913  1
  I  I13  1  0.47463056  0.00977675  0.72636877  1
  I  I14  1  0.00977675  0.47463056  0.22636877  1
  I  I15  1  0.52536944  0.99022325  0.22636877  1
  I  I16  1  0.48770464  0.51229536  0.30494875  1
  I  I17  1  0.00721458  0.99278542  0.29307899  1
  I  I18  1  0.22759119  0.25942915  0.52796229  1
  I  I19  1  0.73448426  0.26551574  0.94822701  1
