# generated using pymatgen
data_Rb2BaNb2Se11
_symmetry_space_group_name_H-M   'P 1'
_cell_length_a   8.01111788
_cell_length_b   14.30379793
_cell_length_c   17.29627400
_cell_angle_alpha   90.00000000
_cell_angle_beta   96.26111647
_cell_angle_gamma   90.00000000
_symmetry_Int_Tables_number   1
_chemical_formula_structural   Rb2BaNb2Se11
_chemical_formula_sum   'Rb8 Ba4 Nb8 Se44'
_cell_volume   1970.14779854
_cell_formula_units_Z   4
loop_
 _symmetry_equiv_pos_site_id
 _symmetry_equiv_pos_as_xyz
  1  'x, y, z'
loop_
 _atom_site_type_symbol
 _atom_site_label
 _atom_site_symmetry_multiplicity
 _atom_site_fract_x
 _atom_site_fract_y
 _atom_site_fract_z
 _atom_site_occupancy
  Rb  Rb0  1  0.73773873  0.45857303  0.91523022  1
  Rb  Rb1  1  0.26226127  0.54142697  0.08476978  1
  Rb  Rb2  1  0.73773873  0.04142697  0.41523022  1
  Rb  Rb3  1  0.70758881  0.11655351  0.73294883  1
  Rb  Rb4  1  0.26226127  0.95857303  0.58476978  1
  Rb  Rb5  1  0.29241119  0.61655351  0.76705117  1
  Rb  Rb6  1  0.70758881  0.38344649  0.23294883  1
  Rb  Rb7  1  0.29241119  0.88344649  0.26705117  1
  Ba  Ba8  1  0.75087468  0.12237424  0.03289733  1
  Ba  Ba9  1  0.75087468  0.37762576  0.53289733  1
  Ba  Ba10  1  0.24912532  0.62237424  0.46710267  1
  Ba  Ba11  1  0.24912532  0.87762576  0.96710267  1
  Nb  Nb12  1  0.85709797  0.67245244  0.19486977  1
  Nb  Nb13  1  0.85709797  0.82754756  0.69486977  1
  Nb  Nb14  1  0.27861688  0.28307829  0.60582233  1
  Nb  Nb15  1  0.14290203  0.32754756  0.80513023  1
  Nb  Nb16  1  0.72138312  0.78307829  0.89417767  1
  Nb  Nb17  1  0.27861688  0.21692171  0.10582233  1
  Nb  Nb18  1  0.14290203  0.17245244  0.30513023  1
  Nb  Nb19  1  0.72138312  0.71692171  0.39417767  1
  Se  Se20  1  0.85371098  0.83554990  0.30166898  1
  Se  Se21  1  0.83697449  0.87645012  0.02354489  1
  Se  Se22  1  0.03903526  0.71760934  0.61094258  1
  Se  Se23  1  0.16302551  0.12354988  0.97645511  1
  Se  Se24  1  0.50425674  0.80617921  0.44486325  1
  Se  Se25  1  0.44104148  0.17672385  0.25089733  1
  Se  Se26  1  0.79347977  0.55351302  0.10120657  1
  Se  Se27  1  0.39908395  0.45382547  0.60560819  1
  Se  Se28  1  0.96096474  0.21760934  0.88905742  1
  Se  Se29  1  0.03903526  0.78239066  0.11094258  1
  Se  Se30  1  0.62338510  0.70526981  0.65447483  1
  Se  Se31  1  0.07772367  0.42455945  0.67524719  1
  Se  Se32  1  0.00862834  0.18811611  0.56697000  1
  Se  Se33  1  0.60091605  0.54617453  0.39439181  1
  Se  Se34  1  0.60091605  0.95382547  0.89439181  1
  Se  Se35  1  0.37661490  0.29473019  0.34552517  1
  Se  Se36  1  0.16302551  0.37645012  0.47645511  1
  Se  Se37  1  0.83993363  0.36236186  0.73578252  1
  Se  Se38  1  0.14628902  0.33554990  0.19833102  1
  Se  Se39  1  0.79347977  0.94648698  0.60120657  1
  Se  Se40  1  0.14628902  0.16445010  0.69833102  1
  Se  Se41  1  0.62338510  0.79473019  0.15447483  1
  Se  Se42  1  0.50425674  0.69382079  0.94486325  1
  Se  Se43  1  0.16006637  0.86236186  0.76421748  1
  Se  Se44  1  0.83993363  0.13763814  0.23578252  1
  Se  Se45  1  0.92227633  0.57544055  0.32475281  1
  Se  Se46  1  0.20652023  0.05351302  0.39879343  1
  Se  Se47  1  0.16006637  0.63763814  0.26421748  1
  Se  Se48  1  0.85371098  0.66445010  0.80166898  1
  Se  Se49  1  0.39908395  0.04617453  0.10560819  1
  Se  Se50  1  0.55895852  0.67672385  0.24910267  1
  Se  Se51  1  0.55895852  0.82327615  0.74910267  1
  Se  Se52  1  0.07772367  0.07544055  0.17524719  1
  Se  Se53  1  0.20652023  0.44648698  0.89879343  1
  Se  Se54  1  0.37661490  0.20526981  0.84552517  1
  Se  Se55  1  0.44104148  0.32327615  0.75089733  1
  Se  Se56  1  0.99137166  0.81188389  0.43303000  1
  Se  Se57  1  0.96096474  0.28239066  0.38905742  1
  Se  Se58  1  0.00862834  0.31188389  0.06697000  1
  Se  Se59  1  0.49574326  0.19382079  0.55513675  1
  Se  Se60  1  0.92227633  0.92455945  0.82475281  1
  Se  Se61  1  0.99137166  0.68811611  0.93303000  1
  Se  Se62  1  0.49574326  0.30617921  0.05513675  1
  Se  Se63  1  0.83697449  0.62354988  0.52354489  1
