# generated using pymatgen
data_Ba3(SnP2)2
_symmetry_space_group_name_H-M   'P 1'
_cell_length_a   7.82314669
_cell_length_b   7.98730977
_cell_length_c   19.69270709
_cell_angle_alpha   90.00000000
_cell_angle_beta   90.00000000
_cell_angle_gamma   112.49617621
_symmetry_Int_Tables_number   1
_chemical_formula_structural   Ba3(SnP2)2
_chemical_formula_sum   'Ba12 Sn8 P16'
_cell_volume   1136.88038373
_cell_formula_units_Z   4
loop_
 _symmetry_equiv_pos_site_id
 _symmetry_equiv_pos_as_xyz
  1  'x, y, z'
loop_
 _atom_site_type_symbol
 _atom_site_label
 _atom_site_symmetry_multiplicity
 _atom_site_fract_x
 _atom_site_fract_y
 _atom_site_fract_z
 _atom_site_occupancy
  Ba  Ba0  1  0.99121302  0.73713922  0.94048863  1
  Ba  Ba1  1  0.49121302  0.73713922  0.55951137  1
  Ba  Ba2  1  0.50730077  0.20889300  0.68257317  1
  Ba  Ba3  1  0.98743774  0.74005254  0.43404524  1
  Ba  Ba4  1  0.50878698  0.26286078  0.44048863  1
  Ba  Ba5  1  0.51256226  0.25994746  0.93404524  1
  Ba  Ba6  1  0.00878698  0.26286078  0.05951137  1
  Ba  Ba7  1  0.48743774  0.74005254  0.06595476  1
  Ba  Ba8  1  0.99269923  0.79110700  0.18257317  1
  Ba  Ba9  1  0.01256226  0.25994746  0.56595476  1
  Ba  Ba10  1  0.49269923  0.79110700  0.31742683  1
  Ba  Ba11  1  0.00730077  0.20889300  0.81742683  1
  Sn  Sn12  1  0.39315272  0.31612306  0.24270779  1
  Sn  Sn13  1  0.47740564  0.79027509  0.87814344  1
  Sn  Sn14  1  0.97740564  0.79027509  0.62185656  1
  Sn  Sn15  1  0.10684728  0.68387694  0.74270779  1
  Sn  Sn16  1  0.02259436  0.20972491  0.37814344  1
  Sn  Sn17  1  0.52259436  0.20972491  0.12185656  1
  Sn  Sn18  1  0.60684728  0.68387694  0.75729221  1
  Sn  Sn19  1  0.89315272  0.31612306  0.25729221  1
  P  P20  1  0.78645758  0.95851318  0.68199207  1
  P  P21  1  0.74352145  0.49388608  0.06481782  1
  P  P22  1  0.71354242  0.04148682  0.18199207  1
  P  P23  1  0.24730830  0.99849076  0.55343481  1
  P  P24  1  0.79070424  0.49058818  0.79788467  1
  P  P25  1  0.25647855  0.50611392  0.93518218  1
  P  P26  1  0.20929576  0.50941182  0.20211533  1
  P  P27  1  0.70929576  0.50941182  0.29788467  1
  P  P28  1  0.25269170  0.00150924  0.05343481  1
  P  P29  1  0.24352145  0.49388608  0.43518218  1
  P  P30  1  0.75647855  0.50611392  0.56481782  1
  P  P31  1  0.28645758  0.95851318  0.81800793  1
  P  P32  1  0.74730830  0.99849076  0.94656519  1
  P  P33  1  0.21354242  0.04148682  0.31800793  1
  P  P34  1  0.75269170  0.00150924  0.44656519  1
  P  P35  1  0.29070424  0.49058818  0.70211533  1
