# generated using pymatgen
data_Cu(SbO3)2
_symmetry_space_group_name_H-M   'P 1'
_cell_length_a   4.73037104
_cell_length_b   4.73037104
_cell_length_c   9.40712423
_cell_angle_alpha   90.00000000
_cell_angle_beta   90.00000000
_cell_angle_gamma   90.00000000
_symmetry_Int_Tables_number   1
_chemical_formula_structural   Cu(SbO3)2
_chemical_formula_sum   'Cu2 Sb4 O12'
_cell_volume   210.49767035
_cell_formula_units_Z   2
loop_
 _symmetry_equiv_pos_site_id
 _symmetry_equiv_pos_as_xyz
  1  'x, y, z'
loop_
 _atom_site_type_symbol
 _atom_site_label
 _atom_site_symmetry_multiplicity
 _atom_site_fract_x
 _atom_site_fract_y
 _atom_site_fract_z
 _atom_site_occupancy
  O  O0  1  0.69707971  0.69707971  0.67128095  1
  O  O1  1  0.30292029  0.30292029  0.67128095  1
  O  O2  1  0.69707971  0.69707971  0.32871905  1
  O  O3  1  0.19707971  0.80292029  0.17128095  1
  O  O4  1  0.80292029  0.19707971  0.17128095  1
  O  O5  1  0.80292029  0.19707971  0.82871905  1
  O  O6  1  0.30937358  0.30937358  0.00000000  1
  O  O7  1  0.19062642  0.80937358  0.50000000  1
  O  O8  1  0.80937358  0.19062642  0.50000000  1
  O  O9  1  0.69062642  0.69062642  0.00000000  1
  O  O10  1  0.30292029  0.30292029  0.32871905  1
  O  O11  1  0.19707971  0.80292029  0.82871905  1
  Cu  Cu12  1  0.00000000  0.00000000  0.00000000  1
  Cu  Cu13  1  0.50000000  0.50000000  0.50000000  1
  Sb  Sb14  1  0.50000000  0.50000000  0.83229630  1
  Sb  Sb15  1  0.00000000  0.00000000  0.33229630  1
  Sb  Sb16  1  0.50000000  0.50000000  0.16770370  1
  Sb  Sb17  1  0.00000000  0.00000000  0.66770370  1
