# generated using pymatgen
data_Cs2MnBr4
_symmetry_space_group_name_H-M   'P 1'
_cell_length_a   7.99538969
_cell_length_b   10.42081754
_cell_length_c   14.08776315
_cell_angle_alpha   90.00470188
_cell_angle_beta   90.00115854
_cell_angle_gamma   89.99976097
_symmetry_Int_Tables_number   1
_chemical_formula_structural   Cs2MnBr4
_chemical_formula_sum   'Cs8 Mn4 Br16'
_cell_volume   1173.77124939
_cell_formula_units_Z   4
loop_
 _symmetry_equiv_pos_site_id
 _symmetry_equiv_pos_as_xyz
  1  'x, y, z'
loop_
 _atom_site_type_symbol
 _atom_site_label
 _atom_site_symmetry_multiplicity
 _atom_site_fract_x
 _atom_site_fract_y
 _atom_site_fract_z
 _atom_site_occupancy
  Cs  Cs0  1  0.25000196  0.63095611  0.40380758  1
  Cs  Cs1  1  0.24999722  0.48024245  0.82673486  1
  Cs  Cs2  1  0.75000017  0.01974700  0.32673766  1
  Cs  Cs3  1  0.74999782  0.36904130  0.59619083  1
  Cs  Cs4  1  0.74999748  0.51975100  0.17326863  1
  Cs  Cs5  1  0.24999729  0.98024496  0.67326113  1
  Cs  Cs6  1  0.25000003  0.13093950  0.09619169  1
  Cs  Cs7  1  0.75000005  0.86905479  0.90381190  1
  Mn  Mn8  1  0.24999832  0.72862706  0.07669547  1
  Mn  Mn9  1  0.75000325  0.77133848  0.57668545  1
  Mn  Mn10  1  0.25000400  0.22867741  0.42330503  1
  Mn  Mn11  1  0.74999543  0.27136748  0.92330721  1
  Br  Br12  1  0.50151553  0.32197838  0.34545089  1
  Br  Br13  1  0.25000145  0.31465450  0.58907405  1
  Br  Br14  1  0.24999680  0.81464790  0.91094617  1
  Br  Br15  1  0.99855031  0.82193235  0.15453393  1
  Br  Br16  1  0.00145421  0.17805313  0.84546461  1
  Br  Br17  1  0.49854972  0.17805836  0.84546619  1
  Br  Br18  1  0.49850567  0.67802416  0.65454632  1
  Br  Br19  1  0.75000124  0.00856920  0.59330161  1
  Br  Br20  1  0.00149266  0.67802417  0.65454539  1
  Br  Br21  1  0.75000079  0.50866178  0.90669456  1
  Br  Br22  1  0.50144062  0.82192821  0.15453395  1
  Br  Br23  1  0.99850052  0.32197376  0.34545455  1
  Br  Br24  1  0.25000022  0.49134336  0.09330705  1
  Br  Br25  1  0.25000021  0.99146435  0.40670387  1
  Br  Br26  1  0.75000052  0.68534744  0.41093509  1
  Br  Br27  1  0.74999652  0.18535145  0.08904432  1
