# generated using pymatgen
data_NaCoBP2H2O9
_symmetry_space_group_name_H-M   'P 1'
_cell_length_a   6.58616643
_cell_length_b   9.72370605
_cell_length_c   11.49928139
_cell_angle_alpha   90.00000000
_cell_angle_beta   90.00000000
_cell_angle_gamma   107.13525256
_symmetry_Int_Tables_number   1
_chemical_formula_structural   NaCoBP2H2O9
_chemical_formula_sum   'Na4 Co4 B4 P8 H8 O36'
_cell_volume   703.74736527
_cell_formula_units_Z   4
loop_
 _symmetry_equiv_pos_site_id
 _symmetry_equiv_pos_as_xyz
  1  'x, y, z'
loop_
 _atom_site_type_symbol
 _atom_site_label
 _atom_site_symmetry_multiplicity
 _atom_site_fract_x
 _atom_site_fract_y
 _atom_site_fract_z
 _atom_site_occupancy
  Na  Na0  1  0.93020476  0.44840635  0.31297837  1
  Na  Na1  1  0.93020476  0.94840635  0.18702163  1
  Na  Na2  1  0.06979524  0.55159365  0.68702163  1
  Na  Na3  1  0.06979524  0.05159365  0.81297837  1
  Co  Co4  1  0.38128962  0.59856161  0.92359225  1
  Co  Co5  1  0.61871038  0.40143839  0.07640775  1
  Co  Co6  1  0.61871038  0.90143839  0.42359225  1
  Co  Co7  1  0.38128962  0.09856161  0.57640775  1
  B  B8  1  0.73070609  0.15186162  0.95542084  1
  B  B9  1  0.73070609  0.65186162  0.54457916  1
  B  B10  1  0.26929391  0.34813838  0.45542084  1
  B  B11  1  0.26929391  0.84813838  0.04457916  1
  P  P12  1  0.52890273  0.56512284  0.32711615  1
  P  P13  1  0.07618313  0.31743080  0.06261664  1
  P  P14  1  0.07618313  0.81743080  0.43738336  1
  P  P15  1  0.92381687  0.68256920  0.93738336  1
  P  P16  1  0.47109727  0.93487716  0.82711615  1
  P  P17  1  0.92381687  0.18256920  0.56261664  1
  P  P18  1  0.52890273  0.06512284  0.17288385  1
  P  P19  1  0.47109727  0.43487716  0.67288385  1
  H  H20  1  0.73795913  0.79025692  0.82881041  1
  H  H21  1  0.26204087  0.70974308  0.32881041  1
  H  H22  1  0.73795913  0.29025692  0.67118959  1
  H  H23  1  0.42403369  0.72567650  0.13620339  1
  H  H24  1  0.57596631  0.77432350  0.63620339  1
  H  H25  1  0.26204087  0.20974308  0.17118959  1
  H  H26  1  0.57596631  0.27432350  0.86379661  1
  H  H27  1  0.42403369  0.22567650  0.36379661  1
  O  O28  1  0.30638864  0.45283470  0.35859530  1
  O  O29  1  0.96531010  0.72529204  0.54688208  1
  O  O30  1  0.63106274  0.01322689  0.27431978  1
  O  O31  1  0.69361136  0.04716530  0.85859530  1
  O  O32  1  0.70118675  0.08783323  0.52826940  1
  O  O33  1  0.51260148  0.28904072  0.69438511  1
  O  O34  1  0.39645675  0.24791292  0.44466982  1
  O  O35  1  0.07033475  0.10388240  0.61460774  1
  O  O36  1  0.30638864  0.95283470  0.14140470  1
  O  O37  1  0.92966525  0.89611760  0.38539226  1
  O  O38  1  0.29881325  0.91216677  0.47173060  1
  O  O39  1  0.48739852  0.71095928  0.30561489  1
  O  O40  1  0.68256792  0.07246753  0.06732589  1
  O  O41  1  0.31743208  0.42753247  0.56732589  1
  O  O42  1  0.96531010  0.22529204  0.95311792  1
  O  O43  1  0.07033475  0.60388240  0.88539226  1
  O  O44  1  0.03468990  0.27470796  0.45311792  1
  O  O45  1  0.39645675  0.74791292  0.05533018  1
  O  O46  1  0.92966525  0.39611760  0.11460774  1
  O  O47  1  0.68256792  0.57246753  0.43267411  1
  O  O48  1  0.36893726  0.48677311  0.77431978  1
  O  O49  1  0.69361136  0.54716530  0.64140470  1
  O  O50  1  0.60354325  0.75208708  0.55533018  1
  O  O51  1  0.48739852  0.21095928  0.19438511  1
  O  O52  1  0.89391890  0.79634746  0.84463114  1
  O  O53  1  0.03468990  0.77470796  0.04688208  1
  O  O54  1  0.60354325  0.25208708  0.94466982  1
  O  O55  1  0.29881325  0.41216677  0.02826940  1
  O  O56  1  0.10608110  0.70365254  0.34463114  1
  O  O57  1  0.89391890  0.29634746  0.65536886  1
  O  O58  1  0.36893726  0.98677311  0.72568022  1
  O  O59  1  0.63106274  0.51322689  0.22568022  1
  O  O60  1  0.51260148  0.78904072  0.80561489  1
  O  O61  1  0.10608110  0.20365254  0.15536886  1
  O  O62  1  0.70118675  0.58783323  0.97173060  1
  O  O63  1  0.31743208  0.92753247  0.93267411  1
