# generated using pymatgen
data_RbBi(MoO4)2
_symmetry_space_group_name_H-M   'P 1'
_cell_length_a   5.37833573
_cell_length_b   11.81863293
_cell_length_c   12.31274801
_cell_angle_alpha   90.00000000
_cell_angle_beta   90.00000000
_cell_angle_gamma   92.21301453
_symmetry_Int_Tables_number   1
_chemical_formula_structural   RbBi(MoO4)2
_chemical_formula_sum   'Rb4 Bi4 Mo8 O32'
_cell_volume   782.07087705
_cell_formula_units_Z   4
loop_
 _symmetry_equiv_pos_site_id
 _symmetry_equiv_pos_as_xyz
  1  'x, y, z'
loop_
 _atom_site_type_symbol
 _atom_site_label
 _atom_site_symmetry_multiplicity
 _atom_site_fract_x
 _atom_site_fract_y
 _atom_site_fract_z
 _atom_site_occupancy
  Rb  Rb0  1  0.98334828  0.62160844  0.62446859  1
  Rb  Rb1  1  0.48334828  0.62160844  0.87553141  1
  Rb  Rb2  1  0.51665172  0.37839156  0.12446859  1
  Rb  Rb3  1  0.01665172  0.37839156  0.37553141  1
  Bi  Bi4  1  0.49096984  0.87927341  0.12429089  1
  Bi  Bi5  1  0.00903016  0.12072659  0.62429089  1
  Bi  Bi6  1  0.50903016  0.12072659  0.87570911  1
  Bi  Bi7  1  0.99096984  0.87927341  0.37570911  1
  Mo  Mo8  1  0.00415206  0.34188574  0.85423009  1
  Mo  Mo9  1  0.97660480  0.88743685  0.88688716  1
  Mo  Mo10  1  0.02339520  0.11256315  0.11311284  1
  Mo  Mo11  1  0.47660480  0.88743685  0.61311284  1
  Mo  Mo12  1  0.99584794  0.65811426  0.14576991  1
  Mo  Mo13  1  0.50415206  0.34188574  0.64576991  1
  Mo  Mo14  1  0.52339520  0.11256315  0.38688716  1
  Mo  Mo15  1  0.49584794  0.65811426  0.35423009  1
  O  O16  1  0.15541657  0.00113456  0.19600377  1
  O  O17  1  0.25161194  0.05075743  0.45973227  1
  O  O18  1  0.24233834  0.73051333  0.06437574  1
  O  O19  1  0.31568252  0.77783114  0.29007145  1
  O  O20  1  0.18447668  0.41860865  0.94847828  1
  O  O21  1  0.25766166  0.26948667  0.56437574  1
  O  O22  1  0.42238045  0.22202734  0.30431531  1
  O  O23  1  0.07761955  0.77797266  0.80431531  1
  O  O24  1  0.31552332  0.58139135  0.44847828  1
  O  O25  1  0.65541657  0.00113456  0.30399623  1
  O  O26  1  0.74099221  0.82381029  0.97511310  1
  O  O27  1  0.74233834  0.73051333  0.43562426  1
  O  O28  1  0.74838806  0.94924257  0.54026773  1
  O  O29  1  0.25900779  0.17618971  0.02488690  1
  O  O30  1  0.68447668  0.41860865  0.55152172  1
  O  O31  1  0.75900779  0.17618971  0.47511310  1
  O  O32  1  0.34458343  0.99886544  0.69600377  1
  O  O33  1  0.15760135  0.56033733  0.22638571  1
  O  O34  1  0.68431748  0.22216886  0.70992855  1
  O  O35  1  0.81568252  0.77783114  0.20992855  1
  O  O36  1  0.65760135  0.56033733  0.27361429  1
  O  O37  1  0.34239865  0.43966267  0.72638571  1
  O  O38  1  0.75161194  0.05075743  0.04026773  1
  O  O39  1  0.92238045  0.22202734  0.19568469  1
  O  O40  1  0.84458343  0.99886544  0.80399623  1
  O  O41  1  0.84239865  0.43966267  0.77361429  1
  O  O42  1  0.57761955  0.77797266  0.69568469  1
  O  O43  1  0.81552332  0.58139135  0.05152172  1
  O  O44  1  0.24099221  0.82381029  0.52488690  1
  O  O45  1  0.75766166  0.26948667  0.93562426  1
  O  O46  1  0.18431748  0.22216886  0.79007145  1
  O  O47  1  0.24838806  0.94924257  0.95973227  1
