# generated using pymatgen
data_CoSn2H12(OF)6
_symmetry_space_group_name_H-M   'P 1'
_cell_length_a   6.78755306
_cell_length_b   7.16975121
_cell_length_c   7.03513200
_cell_angle_alpha   77.53265471
_cell_angle_beta   71.16888960
_cell_angle_gamma   78.89916226
_symmetry_Int_Tables_number   1
_chemical_formula_structural   CoSn2H12(OF)6
_chemical_formula_sum   'Co1 Sn2 H12 O6 F6'
_cell_volume   313.59050077
_cell_formula_units_Z   1
loop_
 _symmetry_equiv_pos_site_id
 _symmetry_equiv_pos_as_xyz
  1  'x, y, z'
loop_
 _atom_site_type_symbol
 _atom_site_label
 _atom_site_symmetry_multiplicity
 _atom_site_fract_x
 _atom_site_fract_y
 _atom_site_fract_z
 _atom_site_occupancy
  Co  Co0  1  0.00000000  0.00000000  0.00000000  1
  Sn  Sn1  1  0.33564209  0.36615220  0.32546367  1
  Sn  Sn2  1  0.66435791  0.63384780  0.67453633  1
  H  H3  1  0.24814477  0.95848715  0.24618504  1
  H  H4  1  0.22925523  0.93080233  0.62861082  1
  H  H5  1  0.92456363  0.63734967  0.18311294  1
  H  H6  1  0.64872314  0.18359074  0.91798347  1
  H  H7  1  0.07543637  0.36265033  0.81688706  1
  H  H8  1  0.11099893  0.74766271  0.73585683  1
  H  H9  1  0.75185523  0.04151285  0.75381496  1
  H  H10  1  0.74173414  0.73180037  0.08193878  1
  H  H11  1  0.35127686  0.81640926  0.08201653  1
  H  H12  1  0.25826586  0.26819963  0.91806122  1
  H  H13  1  0.77074477  0.06919767  0.37138918  1
  H  H14  1  0.88900107  0.25233729  0.26414317  1
  O  O15  1  0.80883735  0.16139577  0.24133957  1
  O  O16  1  0.78391309  0.11727631  0.84042032  1
  O  O17  1  0.19116265  0.83860423  0.75866043  1
  O  O18  1  0.21608691  0.88272369  0.15957968  1
  O  O19  1  0.16118462  0.23915105  0.85192212  1
  O  O20  1  0.83881538  0.76084895  0.14807788  1
  F  F21  1  0.02984901  0.42137030  0.28703187  1
  F  F22  1  0.97015099  0.57862970  0.71296813  1
  F  F23  1  0.42947401  0.31372712  0.02040925  1
  F  F24  1  0.57052599  0.68627288  0.97959075  1
  F  F25  1  0.70901856  0.92633708  0.59522345  1
  F  F26  1  0.29098144  0.07366292  0.40477655  1
