# generated using pymatgen
data_LuP2H4NO7
_symmetry_space_group_name_H-M   'P 1'
_cell_length_a   7.73401932
_cell_length_b   8.74928562
_cell_length_c   10.99371201
_cell_angle_alpha   90.00000000
_cell_angle_beta   90.00000000
_cell_angle_gamma   106.15337231
_symmetry_Int_Tables_number   1
_chemical_formula_structural   LuP2H4NO7
_chemical_formula_sum   'Lu4 P8 H16 N4 O28'
_cell_volume   714.54371178
_cell_formula_units_Z   4
loop_
 _symmetry_equiv_pos_site_id
 _symmetry_equiv_pos_as_xyz
  1  'x, y, z'
loop_
 _atom_site_type_symbol
 _atom_site_label
 _atom_site_symmetry_multiplicity
 _atom_site_fract_x
 _atom_site_fract_y
 _atom_site_fract_z
 _atom_site_occupancy
  Lu  Lu0  1  0.23565233  0.75640668  0.39961538  1
  Lu  Lu1  1  0.76434767  0.74359332  0.89961538  1
  Lu  Lu2  1  0.76434767  0.24359332  0.60038462  1
  Lu  Lu3  1  0.23565233  0.25640668  0.10038462  1
  P  P4  1  0.12801403  0.32391024  0.40038100  1
  P  P5  1  0.87198597  0.17608976  0.90038100  1
  P  P6  1  0.87198597  0.67608976  0.59961900  1
  P  P7  1  0.12801403  0.82391024  0.09961900  1
  P  P8  1  0.43373263  0.18835370  0.36575142  1
  P  P9  1  0.56626737  0.31164630  0.86575142  1
  P  P10  1  0.56626737  0.81164630  0.63424858  1
  P  P11  1  0.43373263  0.68835370  0.13424858  1
  H  H12  1  0.84206293  0.04928859  0.29781225  1
  H  H13  1  0.15793707  0.45071141  0.79781225  1
  H  H14  1  0.15793707  0.95071141  0.70218775  1
  H  H15  1  0.84206293  0.54928859  0.20218775  1
  H  H16  1  0.82251317  0.92566515  0.41558196  1
  H  H17  1  0.17748683  0.57433485  0.91558196  1
  H  H18  1  0.17748683  0.07433485  0.58441804  1
  H  H19  1  0.82251317  0.42566515  0.08441804  1
  H  H20  1  0.90087996  0.87941861  0.28360064  1
  H  H21  1  0.09912004  0.62058139  0.78360064  1
  H  H22  1  0.09912004  0.12058139  0.71639936  1
  H  H23  1  0.90087996  0.37941861  0.21639936  1
  H  H24  1  0.67732863  0.86816059  0.29748859  1
  H  H25  1  0.32267137  0.63183941  0.79748859  1
  H  H26  1  0.32267137  0.13184041  0.70251141  1
  H  H27  1  0.67732863  0.36816059  0.20251141  1
  N  N28  1  0.80882248  0.93114534  0.32277068  1
  N  N29  1  0.19117752  0.56885466  0.82277068  1
  N  N30  1  0.19117752  0.06885466  0.67722932  1
  N  N31  1  0.80882248  0.43114534  0.17722932  1
  O  O32  1  0.14958007  0.50123877  0.40744934  1
  O  O33  1  0.85041993  0.99876123  0.90744934  1
  O  O34  1  0.85041993  0.49876123  0.59255066  1
  O  O35  1  0.14958007  0.00123877  0.09255066  1
  O  O36  1  0.07215873  0.75704812  0.22837995  1
  O  O37  1  0.92784127  0.74295188  0.72837995  1
  O  O38  1  0.92784127  0.24295188  0.77162005  1
  O  O39  1  0.07215873  0.25704812  0.27162005  1
  O  O40  1  0.32188124  0.01665770  0.38517480  1
  O  O41  1  0.67811876  0.48334230  0.88517480  1
  O  O42  1  0.67811876  0.98334230  0.61482520  1
  O  O43  1  0.32188124  0.51665770  0.11482520  1
  O  O44  1  0.99860325  0.77269569  0.50269928  1
  O  O45  1  0.00139675  0.72730431  0.00269928  1
  O  O46  1  0.00139675  0.22730431  0.49730072  1
  O  O47  1  0.99860325  0.27269569  0.99730072  1
  O  O48  1  0.38502687  0.77148792  0.56951184  1
  O  O49  1  0.61497313  0.72851208  0.06951184  1
  O  O50  1  0.61497313  0.22851208  0.43048816  1
  O  O51  1  0.38502687  0.27148792  0.93048816  1
  O  O52  1  0.45421467  0.74018781  0.26871633  1
  O  O53  1  0.54578533  0.75981219  0.76871633  1
  O  O54  1  0.54578533  0.25981219  0.73128367  1
  O  O55  1  0.45421467  0.24018781  0.23128367  1
  O  O56  1  0.32441887  0.30037870  0.43189804  1
  O  O57  1  0.67558113  0.19962130  0.93189804  1
  O  O58  1  0.67558113  0.69962130  0.56810196  1
  O  O59  1  0.32441887  0.80037870  0.06810196  1
