# generated using pymatgen
data_Mg14CuSi
_symmetry_space_group_name_H-M   'P 1'
_cell_length_a   6.17594463
_cell_length_b   6.22473723
_cell_length_c   10.18786195
_cell_angle_alpha   90.00000000
_cell_angle_beta   90.00000000
_cell_angle_gamma   120.26168839
_symmetry_Int_Tables_number   1
_chemical_formula_structural   Mg14CuSi
_chemical_formula_sum   'Mg14 Cu1 Si1'
_cell_volume   338.28819158
_cell_formula_units_Z   1
loop_
 _symmetry_equiv_pos_site_id
 _symmetry_equiv_pos_as_xyz
  1  'x, y, z'
loop_
 _atom_site_type_symbol
 _atom_site_label
 _atom_site_symmetry_multiplicity
 _atom_site_fract_x
 _atom_site_fract_y
 _atom_site_fract_z
 _atom_site_occupancy
  Mg  Mg0  1  0.17050280  0.33525090  0.62500000  1
  Mg  Mg1  1  0.16950721  0.83475310  0.62500000  1
  Mg  Mg2  1  0.68087933  0.34052520  0.12500000  1
  Mg  Mg3  1  0.66441673  0.33250993  0.62500000  1
  Mg  Mg4  1  0.68087933  0.84035313  0.12500000  1
  Mg  Mg5  1  0.66441673  0.83190579  0.62500000  1
  Mg  Mg6  1  0.32526054  0.16367550  0.35582404  1
  Mg  Mg7  1  0.32526054  0.16367550  0.89417596  1
  Mg  Mg8  1  0.32526054  0.66158603  0.35582404  1
  Mg  Mg9  1  0.32526054  0.66158603  0.89417596  1
  Mg  Mg10  1  0.83649249  0.16824675  0.37099212  1
  Mg  Mg11  1  0.83649249  0.16824675  0.87900788  1
  Mg  Mg12  1  0.83532699  0.66766400  0.37267104  1
  Mg  Mg13  1  0.83532699  0.66766400  0.87732896  1
  Cu  Cu14  1  0.16507244  0.33253572  0.12500000  1
  Si  Si15  1  0.15964434  0.82982167  0.12500000  1
