# generated using pymatgen
data_Cs3NaLi2(BO3)2
_symmetry_space_group_name_H-M   'P 1'
_cell_length_a   6.81487824
_cell_length_b   7.41804309
_cell_length_c   10.39734197
_cell_angle_alpha   96.60860107
_cell_angle_beta   101.48876106
_cell_angle_gamma   103.86843686
_symmetry_Int_Tables_number   1
_chemical_formula_structural   Cs3NaLi2(BO3)2
_chemical_formula_sum   'Cs6 Na2 Li4 B4 O12'
_cell_volume   492.69246379
_cell_formula_units_Z   2
loop_
 _symmetry_equiv_pos_site_id
 _symmetry_equiv_pos_as_xyz
  1  'x, y, z'
loop_
 _atom_site_type_symbol
 _atom_site_label
 _atom_site_symmetry_multiplicity
 _atom_site_fract_x
 _atom_site_fract_y
 _atom_site_fract_z
 _atom_site_occupancy
  Cs  Cs0  1  0.64704750  0.26879044  0.92441646  1
  Cs  Cs1  1  0.81692938  0.69634123  0.51706515  1
  Cs  Cs2  1  0.35295250  0.73120956  0.07558354  1
  Cs  Cs3  1  0.18307062  0.30365877  0.48293485  1
  Cs  Cs4  1  0.78588987  0.77417973  0.87091462  1
  Cs  Cs5  1  0.21411013  0.22582027  0.12908538  1
  Na  Na6  1  0.32696358  0.82654096  0.41632762  1
  Na  Na7  1  0.67303642  0.17345904  0.58367238  1
  Li  Li8  1  0.20234689  0.08966423  0.76393111  1
  Li  Li9  1  0.22624542  0.59795237  0.75884949  1
  Li  Li10  1  0.77375458  0.40204763  0.24115051  1
  Li  Li11  1  0.79765311  0.91033577  0.23606889  1
  B  B12  1  0.34934596  0.86862084  0.68661441  1
  B  B13  1  0.03232263  0.31325471  0.78150479  1
  B  B14  1  0.65065404  0.13137916  0.31338559  1
  B  B15  1  0.96767737  0.68674529  0.21849521  1
  O  O16  1  0.24803111  0.36941641  0.83746319  1
  O  O17  1  0.30659715  0.87494648  0.81477901  1
  O  O18  1  0.07230060  0.87835894  0.23748730  1
  O  O19  1  0.69340285  0.12505352  0.18522099  1
  O  O20  1  0.34751297  0.02504586  0.62432699  1
  O  O21  1  0.37796786  0.70267300  0.62557752  1
  O  O22  1  0.75196889  0.63058359  0.16253681  1
  O  O23  1  0.65248703  0.97495414  0.37567301  1
  O  O24  1  0.93161784  0.44671808  0.73937160  1
  O  O25  1  0.92769940  0.12164106  0.76251270  1
  O  O26  1  0.62203214  0.29732700  0.37442248  1
  O  O27  1  0.06838216  0.55328192  0.26062840  1
