# generated using pymatgen
data_Co5Te4Cl4O11
_symmetry_space_group_name_H-M   'P 1'
_cell_length_a   8.51699718
_cell_length_b   10.42077644
_cell_length_c   10.35157066
_cell_angle_alpha   110.52693453
_cell_angle_beta   97.23879926
_cell_angle_gamma   97.87379382
_symmetry_Int_Tables_number   1
_chemical_formula_structural   Co5Te4Cl4O11
_chemical_formula_sum   'Co10 Te8 Cl8 O22'
_cell_volume   837.16200722
_cell_formula_units_Z   2
loop_
 _symmetry_equiv_pos_site_id
 _symmetry_equiv_pos_as_xyz
  1  'x, y, z'
loop_
 _atom_site_type_symbol
 _atom_site_label
 _atom_site_symmetry_multiplicity
 _atom_site_fract_x
 _atom_site_fract_y
 _atom_site_fract_z
 _atom_site_occupancy
  Co  Co0  1  0.60550574  0.00074086  0.29900490  1
  Co  Co1  1  0.39449426  0.99925914  0.70099510  1
  Co  Co2  1  0.36375198  0.81410497  0.92210953  1
  Co  Co3  1  0.40053742  0.23964079  0.54854970  1
  Co  Co4  1  0.63624802  0.18589503  0.07789047  1
  Co  Co5  1  0.58525853  0.40119087  0.88087111  1
  Co  Co6  1  0.59946258  0.76035921  0.45145030  1
  Co  Co7  1  0.40795066  0.43032149  0.34317650  1
  Co  Co8  1  0.41474147  0.59880913  0.11912889  1
  Co  Co9  1  0.59204934  0.56967851  0.65682350  1
  Te  Te10  1  0.22354876  0.45757929  0.78984491  1
  Te  Te11  1  0.28336514  0.21554064  0.99687548  1
  Te  Te12  1  0.78549745  0.32929890  0.44153804  1
  Te  Te13  1  0.71663486  0.78445936  0.00312452  1
  Te  Te14  1  0.25949812  0.87905719  0.32335766  1
  Te  Te15  1  0.77645124  0.54242071  0.21015509  1
  Te  Te16  1  0.21450255  0.67070110  0.55846196  1
  Te  Te17  1  0.74050188  0.12094281  0.67664234  1
  Cl  Cl18  1  0.18098591  0.12592784  0.65650491  1
  Cl  Cl19  1  0.19794624  0.29001813  0.40030920  1
  Cl  Cl20  1  0.18310253  0.93043000  0.04671013  1
  Cl  Cl21  1  0.80205376  0.70998187  0.59969080  1
  Cl  Cl22  1  0.81792081  0.48638218  0.79818512  1
  Cl  Cl23  1  0.81901409  0.87407216  0.34349509  1
  Cl  Cl24  1  0.81689747  0.06957000  0.95328987  1
  Cl  Cl25  1  0.18207919  0.51361782  0.20181488  1
  O  O26  1  0.84389593  0.44897100  0.33414579  1
  O  O27  1  0.55570317  0.20326674  0.72000497  1
  O  O28  1  0.58070858  0.38261293  0.48471958  1
  O  O29  1  0.59746066  0.94467803  0.60691438  1
  O  O30  1  0.63378922  0.61979263  0.04562103  1
  O  O31  1  0.40253934  0.05532197  0.39308562  1
  O  O32  1  0.27145293  0.85277349  0.49826179  1
  O  O33  1  0.44429683  0.79673326  0.27999503  1
  O  O34  1  0.70097916  0.37193765  0.05238990  1
  O  O35  1  0.42695205  0.27654011  0.16972679  1
  O  O36  1  0.72854707  0.14722651  0.50173821  1
  O  O37  1  0.30046718  0.82339512  0.73194566  1
  O  O38  1  0.69953282  0.17660488  0.26805434  1
  O  O39  1  0.36621078  0.38020737  0.95437897  1
  O  O40  1  0.29902084  0.62806235  0.94761010  1
  O  O41  1  0.57605123  0.56975968  0.28035618  1
  O  O42  1  0.15610407  0.55102900  0.66585421  1
  O  O43  1  0.41929142  0.61738707  0.51528042  1
  O  O44  1  0.57304795  0.72345989  0.83027321  1
  O  O45  1  0.56705294  0.89663248  0.08202637  1
  O  O46  1  0.43294706  0.10336752  0.91797363  1
  O  O47  1  0.42394877  0.43024032  0.71964382  1
