# generated using pymatgen
data_CsInI4
_symmetry_space_group_name_H-M   'P 1'
_cell_length_a   7.81948249
_cell_length_b   9.03297692
_cell_length_c   19.57743173
_cell_angle_alpha   89.99987908
_cell_angle_beta   90.00009983
_cell_angle_gamma   106.25828438
_symmetry_Int_Tables_number   1
_chemical_formula_structural   CsInI4
_chemical_formula_sum   'Cs4 In4 I16'
_cell_volume   1327.51705123
_cell_formula_units_Z   4
loop_
 _symmetry_equiv_pos_site_id
 _symmetry_equiv_pos_as_xyz
  1  'x, y, z'
loop_
 _atom_site_type_symbol
 _atom_site_label
 _atom_site_symmetry_multiplicity
 _atom_site_fract_x
 _atom_site_fract_y
 _atom_site_fract_z
 _atom_site_occupancy
  Cs  Cs0  1  0.81307659  0.21018070  0.86947085  1
  Cs  Cs1  1  0.81306826  0.71017411  0.63052511  1
  Cs  Cs2  1  0.18692867  0.28981648  0.36947294  1
  Cs  Cs3  1  0.18692688  0.78982144  0.13052868  1
  In  In4  1  0.19005102  0.79606534  0.87253370  1
  In  In5  1  0.80995328  0.70394485  0.37253622  1
  In  In6  1  0.19005153  0.29606461  0.62746575  1
  In  In7  1  0.80994826  0.20393415  0.12746519  1
  I  I8  1  0.63610260  0.14060860  0.25014494  1
  I  I9  1  0.72884196  0.93341642  0.05257628  1
  I  I10  1  0.36389308  0.85938767  0.74985408  1
  I  I11  1  0.27115975  0.56658190  0.55257699  1
  I  I12  1  0.82862058  0.20895573  0.65723418  1
  I  I13  1  0.82862110  0.70895383  0.84276695  1
  I  I14  1  0.72884000  0.43341779  0.44742513  1
  I  I15  1  0.63610019  0.64061199  0.24985573  1
  I  I16  1  0.36389859  0.35938927  0.75014520  1
  I  I17  1  0.27116267  0.06657928  0.94742541  1
  I  I18  1  0.72843117  0.93028368  0.44845350  1
  I  I19  1  0.27156998  0.56971811  0.94845242  1
  I  I20  1  0.17137838  0.79105000  0.34276743  1
  I  I21  1  0.17137777  0.29104649  0.15723076  1
  I  I22  1  0.27156760  0.06971697  0.55154506  1
  I  I23  1  0.72843007  0.43028058  0.05154749  1
