# generated using pymatgen
data_Cs2Cr4Cd(HO4)4
_symmetry_space_group_name_H-M   'P 1'
_cell_length_a   7.70983937
_cell_length_b   8.13315600
_cell_length_c   8.17140271
_cell_angle_alpha   91.14721974
_cell_angle_beta   63.09634699
_cell_angle_gamma   81.45962831
_symmetry_Int_Tables_number   1
_chemical_formula_structural   Cs2Cr4Cd(HO4)4
_chemical_formula_sum   'Cs2 Cr4 Cd1 H4 O16'
_cell_volume   449.65165343
_cell_formula_units_Z   1
loop_
 _symmetry_equiv_pos_site_id
 _symmetry_equiv_pos_as_xyz
  1  'x, y, z'
loop_
 _atom_site_type_symbol
 _atom_site_label
 _atom_site_symmetry_multiplicity
 _atom_site_fract_x
 _atom_site_fract_y
 _atom_site_fract_z
 _atom_site_occupancy
  Cs  Cs0  1  0.73245769  0.17241465  0.74050671  1
  Cs  Cs1  1  0.26754231  0.82758535  0.25949329  1
  Cr  Cr2  1  0.26354918  0.32508815  0.50182006  1
  Cr  Cr3  1  0.73645082  0.67491185  0.49817994  1
  Cr  Cr4  1  0.71525761  0.15476362  0.22967611  1
  Cr  Cr5  1  0.28474239  0.84523638  0.77032389  1
  Cd  Cd6  1  0.00000000  0.50000000  0.00000000  1
  H  H7  1  0.76200907  0.80577570  0.00795553  1
  H  H8  1  0.81257465  0.71159117  0.81754306  1
  H  H9  1  0.18742535  0.28840883  0.18245694  1
  H  H10  1  0.23799093  0.19422430  0.99204447  1
  O  O11  1  0.89617478  0.07572070  0.26911345  1
  O  O12  1  0.10382522  0.92427930  0.73088655  1
  O  O13  1  0.78015489  0.69283884  0.94756134  1
  O  O14  1  0.82814255  0.77778283  0.60633502  1
  O  O15  1  0.49589232  0.78437800  0.55002321  1
  O  O16  1  0.88129470  0.66052251  0.27311452  1
  O  O17  1  0.71701272  0.49207295  0.56992681  1
  O  O18  1  0.17185745  0.22221717  0.39366498  1
  O  O19  1  0.50410768  0.21562200  0.44997679  1
  O  O20  1  0.76704081  0.31818047  0.11045979  1
  O  O21  1  0.11870530  0.33947749  0.72688548  1
  O  O22  1  0.33198188  0.98471923  0.88589221  1
  O  O23  1  0.66801812  0.01528077  0.11410779  1
  O  O24  1  0.21984511  0.30716116  0.05243866  1
  O  O25  1  0.28298728  0.50792705  0.43007319  1
  O  O26  1  0.23295919  0.68181953  0.88954021  1
