# generated using pymatgen
data_KPb2Cl5
_symmetry_space_group_name_H-M   'P 1'
_cell_length_a   8.12587874
_cell_length_b   8.99126493
_cell_length_c   12.76613159
_cell_angle_alpha   89.41158685
_cell_angle_beta   90.00000000
_cell_angle_gamma   90.00000000
_symmetry_Int_Tables_number   1
_chemical_formula_structural   KPb2Cl5
_chemical_formula_sum   'K4 Pb8 Cl20'
_cell_volume   932.66900902
_cell_formula_units_Z   4
loop_
 _symmetry_equiv_pos_site_id
 _symmetry_equiv_pos_as_xyz
  1  'x, y, z'
loop_
 _atom_site_type_symbol
 _atom_site_label
 _atom_site_symmetry_multiplicity
 _atom_site_fract_x
 _atom_site_fract_y
 _atom_site_fract_z
 _atom_site_occupancy
  K  K0  1  0.54774266  0.48933406  0.32752567  1
  K  K1  1  0.04774266  0.51066594  0.17247433  1
  K  K2  1  0.45225734  0.51066594  0.67247433  1
  K  K3  1  0.95225734  0.48933406  0.82752567  1
  Pb  Pb4  1  0.49559999  0.98968181  0.32560245  1
  Pb  Pb5  1  0.99559999  0.01031819  0.17439755  1
  Pb  Pb6  1  0.50440001  0.01031819  0.67439755  1
  Pb  Pb7  1  0.00440001  0.98968181  0.82560245  1
  Pb  Pb8  1  0.93993973  0.74389438  0.50619760  1
  Pb  Pb9  1  0.43993973  0.25610562  0.99380240  1
  Pb  Pb10  1  0.06006027  0.25610562  0.49380240  1
  Pb  Pb11  1  0.56006027  0.74389438  0.00619760  1
  Cl  Cl12  1  0.66007162  0.03768074  0.10360849  1
  Cl  Cl13  1  0.16007162  0.96231926  0.39639151  1
  Cl  Cl14  1  0.33992838  0.96231926  0.89639151  1
  Cl  Cl15  1  0.83992838  0.03768074  0.60360849  1
  Cl  Cl16  1  0.54200216  0.78431223  0.50493838  1
  Cl  Cl17  1  0.04200216  0.21568777  0.99506162  1
  Cl  Cl18  1  0.45799784  0.21568777  0.49506162  1
  Cl  Cl19  1  0.95799784  0.78431223  0.00493838  1
  Cl  Cl20  1  0.68317620  0.46012967  0.07583005  1
  Cl  Cl21  1  0.18317620  0.53987033  0.42416995  1
  Cl  Cl22  1  0.31682380  0.53987033  0.92416995  1
  Cl  Cl23  1  0.81682380  0.46012967  0.57583005  1
  Cl  Cl24  1  0.81198189  0.76262108  0.28589261  1
  Cl  Cl25  1  0.31198189  0.23737892  0.21410739  1
  Cl  Cl26  1  0.18801811  0.23737892  0.71410739  1
  Cl  Cl27  1  0.68801811  0.76262108  0.78589261  1
  Cl  Cl28  1  0.84490509  0.23484929  0.31007014  1
  Cl  Cl29  1  0.34490509  0.76515071  0.18992986  1
  Cl  Cl30  1  0.15509491  0.76515071  0.68992986  1
  Cl  Cl31  1  0.65509491  0.23484929  0.81007014  1
