# generated using pymatgen
data_Tl2(ReSe2)3
_symmetry_space_group_name_H-M   'P 1'
_cell_length_a   10.10966285
_cell_length_b   10.14515331
_cell_length_c   12.49442927
_cell_angle_alpha   90.49392664
_cell_angle_beta   90.00000000
_cell_angle_gamma   119.88434559
_symmetry_Int_Tables_number   1
_chemical_formula_structural   Tl2(ReSe2)3
_chemical_formula_sum   'Tl8 Re12 Se24'
_cell_volume   1111.03010446
_cell_formula_units_Z   4
loop_
 _symmetry_equiv_pos_site_id
 _symmetry_equiv_pos_as_xyz
  1  'x, y, z'
loop_
 _atom_site_type_symbol
 _atom_site_label
 _atom_site_symmetry_multiplicity
 _atom_site_fract_x
 _atom_site_fract_y
 _atom_site_fract_z
 _atom_site_occupancy
  Tl  Tl0  1  0.14441980  0.79314571  0.51439299  1
  Tl  Tl1  1  0.78446440  0.00000000  0.75000000  1
  Tl  Tl2  1  0.35127409  0.20685429  0.98560701  1
  Tl  Tl3  1  0.21553560  0.00000000  0.25000000  1
  Tl  Tl4  1  0.41215432  0.00000000  0.75000000  1
  Tl  Tl5  1  0.64872591  0.79314571  0.01439299  1
  Tl  Tl6  1  0.85558020  0.20685429  0.48560701  1
  Tl  Tl7  1  0.58784568  0.00000000  0.25000000  1
  Re  Re8  1  0.11458622  0.58701147  0.12675485  1
  Re  Re9  1  0.60231266  0.41991930  0.57999964  1
  Re  Re10  1  0.31393390  0.32191179  0.52491307  1
  Re  Re11  1  0.00797790  0.32191179  0.02491307  1
  Re  Re12  1  0.68606610  0.67808821  0.47508693  1
  Re  Re13  1  0.88541378  0.41298853  0.87324515  1
  Re  Re14  1  0.81760664  0.41991930  0.07999964  1
  Re  Re15  1  0.99202210  0.67808821  0.97508693  1
  Re  Re16  1  0.18239336  0.58008070  0.92000036  1
  Re  Re17  1  0.47242526  0.58701147  0.62675485  1
  Re  Re18  1  0.52757474  0.41298853  0.37324515  1
  Re  Re19  1  0.39768734  0.58008070  0.42000036  1
  Se  Se20  1  0.07449409  0.32263468  0.82927980  1
  Se  Se21  1  0.29207854  0.48947723  0.06811274  1
  Se  Se22  1  0.24814059  0.32263468  0.32927980  1
  Se  Se23  1  0.92550591  0.67736532  0.17072020  1
  Se  Se24  1  0.19739869  0.48947723  0.56811274  1
  Se  Se25  1  0.60544997  0.66123928  0.28004588  1
  Se  Se26  1  0.72133389  0.16765744  0.97777270  1
  Se  Se27  1  0.26955762  0.71106918  0.30714748  1
  Se  Se28  1  0.01065421  0.07493493  0.08029664  1
  Se  Se29  1  0.98934579  0.92506507  0.91970336  1
  Se  Se30  1  0.75185941  0.67736532  0.67072020  1
  Se  Se31  1  0.93571928  0.92506507  0.41970336  1
  Se  Se32  1  0.70792146  0.51052277  0.93188726  1
  Se  Se33  1  0.44151155  0.71106918  0.80714748  1
  Se  Se34  1  0.05578931  0.66123928  0.78004588  1
  Se  Se35  1  0.06428072  0.07493493  0.58029664  1
  Se  Se36  1  0.55367644  0.83234256  0.52222730  1
  Se  Se37  1  0.94421069  0.33876072  0.21995412  1
  Se  Se38  1  0.73044238  0.28893082  0.69285252  1
  Se  Se39  1  0.55848845  0.28893082  0.19285252  1
  Se  Se40  1  0.44632356  0.16765744  0.47777270  1
  Se  Se41  1  0.80260131  0.51052277  0.43188726  1
  Se  Se42  1  0.27866611  0.83234256  0.02222730  1
  Se  Se43  1  0.39455003  0.33876072  0.71995412  1
