# generated using pymatgen
data_CeBiPd
_symmetry_space_group_name_H-M   'P 1'
_cell_length_a   4.86764027
_cell_length_b   4.86769279
_cell_length_c   4.86768068
_cell_angle_alpha   60.00370979
_cell_angle_beta   60.00383086
_cell_angle_gamma   60.00336382
_symmetry_Int_Tables_number   1
_chemical_formula_structural   CeBiPd
_chemical_formula_sum   'Ce1 Bi1 Pd1'
_cell_volume   81.56136917
_cell_formula_units_Z   1
loop_
 _symmetry_equiv_pos_site_id
 _symmetry_equiv_pos_as_xyz
  1  'x, y, z'
loop_
 _atom_site_type_symbol
 _atom_site_label
 _atom_site_symmetry_multiplicity
 _atom_site_fract_x
 _atom_site_fract_y
 _atom_site_fract_z
 _atom_site_occupancy
  Ce  Ce0  1  0.49999818  0.49999997  0.50000019  1
  Bi  Bi1  1  0.00000036  -0.00000139  0.00000044  1
  Pd  Pd2  1  0.25000145  0.25000142  0.24999936  1
