# generated using pymatgen
data_LiCaAlF6
_symmetry_space_group_name_H-M   'P 1'
_cell_length_a   5.08317861
_cell_length_b   5.08317861
_cell_length_c   9.74955505
_cell_angle_alpha   90.00000000
_cell_angle_beta   90.00000000
_cell_angle_gamma   119.99999994
_symmetry_Int_Tables_number   1
_chemical_formula_structural   LiCaAlF6
_chemical_formula_sum   'Li2 Ca2 Al2 F12'
_cell_volume   218.16554718
_cell_formula_units_Z   2
loop_
 _symmetry_equiv_pos_site_id
 _symmetry_equiv_pos_as_xyz
  1  'x, y, z'
loop_
 _atom_site_type_symbol
 _atom_site_label
 _atom_site_symmetry_multiplicity
 _atom_site_fract_x
 _atom_site_fract_y
 _atom_site_fract_z
 _atom_site_occupancy
  Li  Li0  1  0.33333333  0.66666667  0.25000000  1
  Li  Li1  1  0.66666667  0.33333333  0.75000000  1
  F  F2  1  0.37581831  0.03132400  0.14312944  1
  F  F3  1  0.62418169  0.65550569  0.64312944  1
  F  F4  1  0.34449431  0.96867600  0.64312944  1
  F  F5  1  0.03132400  0.37581831  0.64312944  1
  F  F6  1  0.96867600  0.62418169  0.35687056  1
  F  F7  1  0.96867600  0.34449431  0.14312944  1
  F  F8  1  0.65550569  0.62418169  0.14312944  1
  F  F9  1  0.65550569  0.03132400  0.35687056  1
  F  F10  1  0.03132400  0.65550569  0.85687056  1
  F  F11  1  0.37581831  0.34449431  0.35687056  1
  F  F12  1  0.62418169  0.96867600  0.85687056  1
  F  F13  1  0.34449431  0.37581831  0.85687056  1
  Al  Al14  1  0.66666667  0.33333333  0.25000000  1
  Al  Al15  1  0.33333333  0.66666667  0.75000000  1
  Ca  Ca16  1  0.00000000  0.00000000  0.00000000  1
  Ca  Ca17  1  0.00000000  0.00000000  0.50000000  1
