# generated using pymatgen
data_AlTlI4
_symmetry_space_group_name_H-M   'P 1'
_cell_length_a   8.13004134
_cell_length_b   8.47489605
_cell_length_c   16.54169747
_cell_angle_alpha   95.51748534
_cell_angle_beta   90.00000000
_cell_angle_gamma   90.00000000
_symmetry_Int_Tables_number   1
_chemical_formula_structural   AlTlI4
_chemical_formula_sum   'Al4 Tl4 I16'
_cell_volume   1134.46317542
_cell_formula_units_Z   4
loop_
 _symmetry_equiv_pos_site_id
 _symmetry_equiv_pos_as_xyz
  1  'x, y, z'
loop_
 _atom_site_type_symbol
 _atom_site_label
 _atom_site_symmetry_multiplicity
 _atom_site_fract_x
 _atom_site_fract_y
 _atom_site_fract_z
 _atom_site_occupancy
  Al  Al0  1  0.14251051  0.75464124  0.36001746  1
  Al  Al1  1  0.64251051  0.24535876  0.13998254  1
  Al  Al2  1  0.35748949  0.75464124  0.86001746  1
  Al  Al3  1  0.85748949  0.24535876  0.63998254  1
  Tl  Tl4  1  0.50147415  0.25424976  0.86251329  1
  Tl  Tl5  1  0.99852585  0.25424976  0.36251329  1
  Tl  Tl6  1  0.49852585  0.74575024  0.13748671  1
  Tl  Tl7  1  0.00147415  0.74575024  0.63748671  1
  I  I8  1  0.25935874  0.58278303  0.46732844  1
  I  I9  1  0.61151174  0.41709762  0.27521109  1
  I  I10  1  0.11151174  0.58290238  0.22478891  1
  I  I11  1  0.65544627  0.01997883  0.66013849  1
  I  I12  1  0.34455373  0.98002117  0.33986151  1
  I  I13  1  0.86099546  0.85924237  0.40920750  1
  I  I14  1  0.75935874  0.41721697  0.03267156  1
  I  I15  1  0.15544627  0.98002117  0.83986151  1
  I  I16  1  0.74064126  0.41721697  0.53267156  1
  I  I17  1  0.84455373  0.01997883  0.16013849  1
  I  I18  1  0.88848826  0.41709762  0.77521109  1
  I  I19  1  0.24064126  0.58278303  0.96732844  1
  I  I20  1  0.13900454  0.14075763  0.59079250  1
  I  I21  1  0.63900454  0.85924237  0.90920750  1
  I  I22  1  0.36099546  0.14075763  0.09079250  1
  I  I23  1  0.38848826  0.58290238  0.72478891  1
