# generated using pymatgen
data_Cs3AlP2
_symmetry_space_group_name_H-M   'P 1'
_cell_length_a   8.76759212
_cell_length_b   11.42269954
_cell_length_c   19.23268310
_cell_angle_alpha   100.36024420
_cell_angle_beta   90.00000000
_cell_angle_gamma   90.00000000
_symmetry_Int_Tables_number   1
_chemical_formula_structural   Cs3AlP2
_chemical_formula_sum   'Cs24 Al8 P16'
_cell_volume   1894.74202998
_cell_formula_units_Z   8
loop_
 _symmetry_equiv_pos_site_id
 _symmetry_equiv_pos_as_xyz
  1  'x, y, z'
loop_
 _atom_site_type_symbol
 _atom_site_label
 _atom_site_symmetry_multiplicity
 _atom_site_fract_x
 _atom_site_fract_y
 _atom_site_fract_z
 _atom_site_occupancy
  Cs  Cs0  1  0.93131832  0.37619938  0.11147150  1
  Cs  Cs1  1  0.25731351  0.63926089  0.71106858  1
  Cs  Cs2  1  0.91328888  0.73579580  0.07879696  1
  Cs  Cs3  1  0.56868168  0.37619938  0.61147150  1
  Cs  Cs4  1  0.88125108  0.71022444  0.33887373  1
  Cs  Cs5  1  0.58671112  0.73579580  0.57879696  1
  Cs  Cs6  1  0.52463994  0.15013532  0.96737224  1
  Cs  Cs7  1  0.44202567  0.08221502  0.74397889  1
  Cs  Cs8  1  0.06868168  0.62380062  0.88852850  1
  Cs  Cs9  1  0.47536006  0.84986468  0.03262776  1
  Cs  Cs10  1  0.61874892  0.71022444  0.83887373  1
  Cs  Cs11  1  0.11874892  0.28977556  0.66112627  1
  Cs  Cs12  1  0.75731351  0.36073911  0.78893142  1
  Cs  Cs13  1  0.24268649  0.63926089  0.21106858  1
  Cs  Cs14  1  0.41328888  0.26420420  0.42120304  1
  Cs  Cs15  1  0.05797433  0.08221502  0.24397889  1
  Cs  Cs16  1  0.38125108  0.28977556  0.16112627  1
  Cs  Cs17  1  0.02463994  0.84986468  0.53262776  1
  Cs  Cs18  1  0.94202567  0.91778498  0.75602111  1
  Cs  Cs19  1  0.08671112  0.26420420  0.92120304  1
  Cs  Cs20  1  0.55797433  0.91778498  0.25602111  1
  Cs  Cs21  1  0.97536006  0.15013532  0.46737224  1
  Cs  Cs22  1  0.74268649  0.36073911  0.28893142  1
  Cs  Cs23  1  0.43131832  0.62380062  0.38852850  1
  Al  Al24  1  0.94657719  0.53607548  0.57263612  1
  Al  Al25  1  0.88734717  0.04332966  0.05454666  1
  Al  Al26  1  0.55342281  0.53607548  0.07263612  1
  Al  Al27  1  0.11265283  0.95667034  0.94545334  1
  Al  Al28  1  0.61265283  0.04332966  0.55454666  1
  Al  Al29  1  0.38734717  0.95667034  0.44545334  1
  Al  Al30  1  0.44657719  0.46392452  0.92736388  1
  Al  Al31  1  0.05342281  0.46392452  0.42736388  1
  P  P32  1  0.65625121  0.94621510  0.43727849  1
  P  P33  1  0.20200231  0.50628048  0.53166164  1
  P  P34  1  0.78700617  0.10362878  0.63988447  1
  P  P35  1  0.36132294  0.40449256  0.81464782  1
  P  P36  1  0.84374879  0.94621510  0.93727849  1
  P  P37  1  0.79799769  0.49371952  0.46833836  1
  P  P38  1  0.71299383  0.10362878  0.13988447  1
  P  P39  1  0.86132294  0.59550744  0.68535218  1
  P  P40  1  0.70200231  0.49371952  0.96833836  1
  P  P41  1  0.13867706  0.40449256  0.31464782  1
  P  P42  1  0.34374879  0.05378490  0.56272151  1
  P  P43  1  0.15625121  0.05378490  0.06272151  1
  P  P44  1  0.29799769  0.50628048  0.03166164  1
  P  P45  1  0.28700617  0.89637122  0.86011553  1
  P  P46  1  0.21299383  0.89637122  0.36011553  1
  P  P47  1  0.63867706  0.59550744  0.18535218  1
