# generated using pymatgen
data_Ba(H8O5)2
_symmetry_space_group_name_H-M   'P 1'
_cell_length_a   6.48781052
_cell_length_b   6.49295486
_cell_length_c   11.45469482
_cell_angle_alpha   90.09012936
_cell_angle_beta   89.91903466
_cell_angle_gamma   90.22131091
_symmetry_Int_Tables_number   1
_chemical_formula_structural   Ba(H8O5)2
_chemical_formula_sum   'Ba2 H32 O20'
_cell_volume   482.52504169
_cell_formula_units_Z   2
loop_
 _symmetry_equiv_pos_site_id
 _symmetry_equiv_pos_as_xyz
  1  'x, y, z'
loop_
 _atom_site_type_symbol
 _atom_site_label
 _atom_site_symmetry_multiplicity
 _atom_site_fract_x
 _atom_site_fract_y
 _atom_site_fract_z
 _atom_site_occupancy
  Ba  Ba0  1  0.99799726  0.99468916  0.25116504  1
  Ba  Ba1  1  0.00013037  0.99265568  0.74865836  1
  H  H2  1  0.04415177  0.45472934  0.37502343  1
  H  H3  1  0.28175405  0.39691080  0.35261551  1
  H  H4  1  0.72020846  0.58932928  0.35110093  1
  H  H5  1  0.84883463  0.66008976  0.46469405  1
  H  H6  1  0.59070001  0.27302520  0.34969167  1
  H  H7  1  0.66114783  0.15081505  0.46480398  1
  H  H8  1  0.40028616  0.71752583  0.35481632  1
  H  H9  1  0.44605547  0.95860766  0.37612745  1
  H  H10  1  0.71644638  0.39307325  0.85467032  1
  H  H11  1  0.95548247  0.44984110  0.87409205  1
  H  H12  1  0.27650226  0.59399781  0.85441567  1
  H  H13  1  0.14543302  0.66597764  0.96690423  1
  H  H14  1  0.40612749  0.27081082  0.85006469  1
  H  H15  1  0.33559867  0.14429916  0.96283127  1
  H  H16  1  0.54547242  0.95641243  0.87174124  1
  H  H17  1  0.60169354  0.71684581  0.85507219  1
  H  H18  1  0.95487871  0.53212125  0.62442134  1
  H  H19  1  0.71689101  0.59398593  0.64388067  1
  H  H20  1  0.15582584  0.33249094  0.53527213  1
  H  H21  1  0.27613621  0.39940935  0.65104242  1
  H  H22  1  0.40212818  0.71786344  0.64700410  1
  H  H23  1  0.32713206  0.84496076  0.53364878  1
  H  H24  1  0.54186661  0.04014283  0.62506709  1
  H  H25  1  0.59929291  0.27884257  0.64483673  1
  H  H26  1  0.04546143  0.53557657  0.12682291  1
  H  H27  1  0.28450711  0.59710357  0.14278234  1
  H  H28  1  0.84620317  0.32521674  0.03647791  1
  H  H29  1  0.72306649  0.39702797  0.14950206  1
  H  H30  1  0.59868382  0.71739945  0.14371111  1
  H  H31  1  0.67012387  0.85268694  0.03243558  1
  H  H32  1  0.45348648  0.03287717  0.12551647  1
  H  H33  1  0.39872905  0.27290044  0.14041810  1
  O  O34  1  0.49859904  0.49695509  0.31250694  1
  O  O35  1  0.49778359  0.49496770  0.81631135  1
  O  O36  1  0.49696716  0.49631160  0.68606058  1
  O  O37  1  0.50154535  0.49673896  0.18222722  1
  O  O38  1  0.14543934  0.33950451  0.38319814  1
  O  O39  1  0.85835045  0.64896962  0.37760599  1
  O  O40  1  0.64750958  0.13594984  0.37807148  1
  O  O41  1  0.33596100  0.85114416  0.38414005  1
  O  O42  1  0.85333074  0.33433557  0.88200208  1
  O  O43  1  0.13830756  0.65339629  0.87976067  1
  O  O44  1  0.34700576  0.13262718  0.87590033  1
  O  O45  1  0.66059941  0.85408943  0.88168653  1
  O  O46  1  0.85504579  0.64881111  0.61521050  1
  O  O47  1  0.13954545  0.34022607  0.62219118  1
  O  O48  1  0.34403942  0.85575238  0.62043963  1
  O  O49  1  0.65723877  0.14149024  0.61672927  1
  O  O50  1  0.14454318  0.65321814  0.11798283  1
  O  O51  1  0.86123340  0.33883402  0.12302457  1
  O  O52  1  0.65535651  0.85792769  0.11948197  1
  O  O53  1  0.33964327  0.13498667  0.11479855  1
