# generated using pymatgen
data_Y7C2I12N
_symmetry_space_group_name_H-M   'P 1'
_cell_length_a   9.93986337
_cell_length_b   10.61232688
_cell_length_c   17.02780732
_cell_angle_alpha   101.51291221
_cell_angle_beta   92.98938642
_cell_angle_gamma   112.79106918
_symmetry_Int_Tables_number   1
_chemical_formula_structural   Y7C2I12N
_chemical_formula_sum   'Y14 C4 I24 N2'
_cell_volume   1605.87247364
_cell_formula_units_Z   2
loop_
 _symmetry_equiv_pos_site_id
 _symmetry_equiv_pos_as_xyz
  1  'x, y, z'
loop_
 _atom_site_type_symbol
 _atom_site_label
 _atom_site_symmetry_multiplicity
 _atom_site_fract_x
 _atom_site_fract_y
 _atom_site_fract_z
 _atom_site_occupancy
  Y  Y0  1  0.28199803  0.24242324  0.35044391  1
  Y  Y1  1  0.71800197  0.75757676  0.64955609  1
  Y  Y2  1  0.93541226  0.57085573  0.73682586  1
  Y  Y3  1  0.48002830  0.56662057  0.32093155  1
  Y  Y4  1  0.13243575  0.11610433  0.14378308  1
  Y  Y5  1  0.33727757  0.45574092  0.11357638  1
  Y  Y6  1  0.66272243  0.54425908  0.88642362  1
  Y  Y7  1  0.54538350  0.25240283  0.19071825  1
  Y  Y8  1  0.64037644  0.45204153  0.48058351  1
  Y  Y9  1  0.06458774  0.42914427  0.26317414  1
  Y  Y10  1  0.51997170  0.43337943  0.67906845  1
  Y  Y11  1  0.45461650  0.74759717  0.80928175  1
  Y  Y12  1  0.35962356  0.54795847  0.51941649  1
  Y  Y13  1  0.86756425  0.88389567  0.85621692  1
  C  C14  1  0.75510614  0.63879594  0.76614801  1
  C  C15  1  0.36270249  0.31963337  0.21602352  1
  C  C16  1  0.63729751  0.68036663  0.78397648  1
  C  C17  1  0.24489386  0.36120406  0.23385199  1
  I  I18  1  0.45770619  0.85521744  0.65026359  1
  I  I19  1  0.27147272  0.70658550  0.38965448  1
  I  I20  1  0.17359136  0.84674653  0.83571635  1
  I  I21  1  0.96875279  0.67879966  0.57584528  1
  I  I22  1  0.95080516  0.05550427  0.73201721  1
  I  I23  1  0.66107640  0.02649415  0.91123688  1
  I  I24  1  0.60669379  0.39906665  0.05018212  1
  I  I25  1  0.33892360  0.97350585  0.08876312  1
  I  I26  1  0.43987171  0.25363764  0.80331239  1
  I  I27  1  0.90511584  0.43016614  0.87417064  1
  I  I28  1  0.70117637  0.81772468  0.46990446  1
  I  I29  1  0.12506997  0.19860331  0.98228245  1
  I  I30  1  0.72852728  0.29341450  0.61034552  1
  I  I31  1  0.03124721  0.32120034  0.42415472  1
  I  I32  1  0.56012829  0.74636236  0.19668761  1
  I  I33  1  0.39330621  0.60093335  0.94981788  1
  I  I34  1  0.29882363  0.18227532  0.53009554  1
  I  I35  1  0.21378938  0.47047996  0.68780211  1
  I  I36  1  0.87493003  0.80139669  0.01771755  1
  I  I37  1  0.54229381  0.14478256  0.34973641  1
  I  I38  1  0.09488416  0.56983386  0.12582936  1
  I  I39  1  0.82640864  0.15325347  0.16428365  1
  I  I40  1  0.04919484  0.94449573  0.26798279  1
  I  I41  1  0.78621062  0.52952004  0.31219789  1
  N  N42  1  0.55921437  0.54870475  0.58426019  1
  N  N43  1  0.44078563  0.45129525  0.41573981  1
