# generated using pymatgen
data_Te6MoBr3
_symmetry_space_group_name_H-M   'P 1'
_cell_length_a   8.63553350
_cell_length_b   12.05952419
_cell_length_c   14.64510120
_cell_angle_alpha   81.43603542
_cell_angle_beta   83.16133942
_cell_angle_gamma   73.94515654
_symmetry_Int_Tables_number   1
_chemical_formula_structural   Te6MoBr3
_chemical_formula_sum   'Te24 Mo4 Br12'
_cell_volume   1444.44381593
_cell_formula_units_Z   4
loop_
 _symmetry_equiv_pos_site_id
 _symmetry_equiv_pos_as_xyz
  1  'x, y, z'
loop_
 _atom_site_type_symbol
 _atom_site_label
 _atom_site_symmetry_multiplicity
 _atom_site_fract_x
 _atom_site_fract_y
 _atom_site_fract_z
 _atom_site_occupancy
  Te  Te0  1  0.33142687  0.34828281  0.45499064  1
  Te  Te1  1  0.17614812  0.15560554  0.05652852  1
  Te  Te2  1  0.46360675  0.81046155  0.30406504  1
  Te  Te3  1  0.90392656  0.19818249  0.95629709  1
  Te  Te4  1  0.18841796  0.47153718  0.10612824  1
  Te  Te5  1  0.35455960  0.70954244  0.47444325  1
  Te  Te6  1  0.76711216  0.95647908  0.53055602  1
  Te  Te7  1  0.23288784  0.04352092  0.46944398  1
  Te  Te8  1  0.78482131  0.72856269  0.36810432  1
  Te  Te9  1  0.82385188  0.84439446  0.94347148  1
  Te  Te10  1  0.64544040  0.29045756  0.52555675  1
  Te  Te11  1  0.96997404  0.23985827  0.20855280  1
  Te  Te12  1  0.14505986  0.42753328  0.86938786  1
  Te  Te13  1  0.29949489  0.70011920  0.89670106  1
  Te  Te14  1  0.81158204  0.52846282  0.89387176  1
  Te  Te15  1  0.53639325  0.18953845  0.69593496  1
  Te  Te16  1  0.70050511  0.29988080  0.10329894  1
  Te  Te17  1  0.63597063  0.06221666  0.36560636  1
  Te  Te18  1  0.85494014  0.57246672  0.13061214  1
  Te  Te19  1  0.36402937  0.93778334  0.63439364  1
  Te  Te20  1  0.09607344  0.80181751  0.04370291  1
  Te  Te21  1  0.21517869  0.27143731  0.63189568  1
  Te  Te22  1  0.66857313  0.65171719  0.54500936  1
  Te  Te23  1  0.03002596  0.76014173  0.79144720  1
  Mo  Mo24  1  0.02658358  0.61675846  0.96528226  1
  Mo  Mo25  1  0.97341642  0.38324154  0.03471774  1
  Mo  Mo26  1  0.52922459  0.88291865  0.46739588  1
  Mo  Mo27  1  0.47077541  0.11708135  0.53260412  1
  Br  Br28  1  0.49809405  0.33381755  0.92590683  1
  Br  Br29  1  0.02161286  0.37327998  0.40234423  1
  Br  Br30  1  0.50190595  0.66618245  0.07409317  1
  Br  Br31  1  0.86817844  0.11150773  0.71952217  1
  Br  Br32  1  0.61782314  0.39580276  0.30110119  1
  Br  Br33  1  0.38217686  0.60419724  0.69889881  1
  Br  Br34  1  0.13182156  0.88849227  0.28047783  1
  Br  Br35  1  0.35514539  0.16769104  0.23161959  1
  Br  Br36  1  0.25415254  0.10076713  0.84783090  1
  Br  Br37  1  0.64485461  0.83230896  0.76838041  1
  Br  Br38  1  0.97838714  0.62672002  0.59765577  1
  Br  Br39  1  0.74584746  0.89923287  0.15216910  1
