# generated using pymatgen
data_Ba(H2O3)2
_symmetry_space_group_name_H-M   'P 1'
_cell_length_a   6.12970595
_cell_length_b   6.12970595
_cell_length_c   8.82731423
_cell_angle_alpha   77.59074545
_cell_angle_beta   102.40925455
_cell_angle_gamma   119.58052813
_symmetry_Int_Tables_number   1
_chemical_formula_structural   Ba(H2O3)2
_chemical_formula_sum   'Ba2 H8 O12'
_cell_volume   279.38210709
_cell_formula_units_Z   2
loop_
 _symmetry_equiv_pos_site_id
 _symmetry_equiv_pos_as_xyz
  1  'x, y, z'
loop_
 _atom_site_type_symbol
 _atom_site_label
 _atom_site_symmetry_multiplicity
 _atom_site_fract_x
 _atom_site_fract_y
 _atom_site_fract_z
 _atom_site_occupancy
  Ba  Ba0  1  0.86245548  0.86245548  0.75000000  1
  Ba  Ba1  1  0.13754452  0.13754452  0.25000000  1
  H  H2  1  0.26742109  0.59807361  0.62438926  1
  H  H3  1  0.59807361  0.26742109  0.87561074  1
  H  H4  1  0.73257891  0.40192639  0.37561074  1
  H  H5  1  0.40192639  0.73257891  0.12438926  1
  H  H6  1  0.58585652  0.33265428  0.51550746  1
  H  H7  1  0.33265428  0.58585652  0.98449254  1
  H  H8  1  0.41414348  0.66734572  0.48449254  1
  H  H9  1  0.66734572  0.41414348  0.01550746  1
  O  O10  1  0.19518799  0.93000730  0.55727769  1
  O  O11  1  0.93000730  0.19518799  0.94272231  1
  O  O12  1  0.80481201  0.06999270  0.44272231  1
  O  O13  1  0.06999270  0.80481201  0.05727769  1
  O  O14  1  0.34940017  0.97943022  0.69426192  1
  O  O15  1  0.97943022  0.34940017  0.80573808  1
  O  O16  1  0.65059983  0.02056978  0.30573808  1
  O  O17  1  0.02056978  0.65059983  0.19426192  1
  O  O18  1  0.38221185  0.56152073  0.58573846  1
  O  O19  1  0.56152073  0.38221185  0.91426154  1
  O  O20  1  0.61778815  0.43847927  0.41426154  1
  O  O21  1  0.43847927  0.61778815  0.08573846  1
