# generated using pymatgen
data_As3HO6
_symmetry_space_group_name_H-M   'P 1'
_cell_length_a   12.94650060
_cell_length_b   4.70990914
_cell_length_c   11.42978177
_cell_angle_alpha   90.00000000
_cell_angle_beta   116.86796517
_cell_angle_gamma   90.00000000
_symmetry_Int_Tables_number   1
_chemical_formula_structural   As3HO6
_chemical_formula_sum   'As12 H4 O24'
_cell_volume   621.71626959
_cell_formula_units_Z   4
loop_
 _symmetry_equiv_pos_site_id
 _symmetry_equiv_pos_as_xyz
  1  'x, y, z'
loop_
 _atom_site_type_symbol
 _atom_site_label
 _atom_site_symmetry_multiplicity
 _atom_site_fract_x
 _atom_site_fract_y
 _atom_site_fract_z
 _atom_site_occupancy
  As  As0  1  0.97035340  0.24687183  0.64147401  1
  As  As1  1  0.02964660  0.74687183  0.85852599  1
  As  As2  1  0.02964660  0.75312817  0.35852599  1
  As  As3  1  0.97035340  0.25312817  0.14147401  1
  As  As4  1  0.44568649  0.55542931  0.64236835  1
  As  As5  1  0.55431351  0.05542931  0.85763165  1
  As  As6  1  0.55431351  0.44457069  0.35763165  1
  As  As7  1  0.44568649  0.94457069  0.14236835  1
  As  As8  1  0.24878703  0.38076652  0.73636706  1
  As  As9  1  0.75121297  0.88076652  0.76363294  1
  As  As10  1  0.75121297  0.61923348  0.26363294  1
  As  As11  1  0.24878703  0.11923348  0.23636706  1
  H  H12  1  0.27196643  0.84212921  0.82480487  1
  H  H13  1  0.72803357  0.34212921  0.67519513  1
  H  H14  1  0.72803357  0.15787079  0.17519513  1
  H  H15  1  0.27196643  0.65787079  0.32480487  1
  O  O16  1  0.03577232  0.10961370  0.80974392  1
  O  O17  1  0.96422768  0.60961370  0.69025608  1
  O  O18  1  0.96422768  0.89038630  0.19025608  1
  O  O19  1  0.03577232  0.39038630  0.30974392  1
  O  O20  1  0.10916209  0.26755701  0.62724969  1
  O  O21  1  0.89083791  0.76755701  0.87275031  1
  O  O22  1  0.89083791  0.73244299  0.37275031  1
  O  O23  1  0.10916209  0.23244299  0.12724969  1
  O  O24  1  0.29531020  0.53379373  0.62948276  1
  O  O25  1  0.70468980  0.03379373  0.87051724  1
  O  O26  1  0.70468980  0.46620627  0.37051724  1
  O  O27  1  0.29531020  0.96620627  0.12948276  1
  O  O28  1  0.48603531  0.18914353  0.68831734  1
  O  O29  1  0.51396469  0.68914353  0.81168266  1
  O  O30  1  0.51396469  0.81085647  0.31168266  1
  O  O31  1  0.48603531  0.31085647  0.18831734  1
  O  O32  1  0.23489327  0.64898698  0.83391112  1
  O  O33  1  0.76510673  0.14898698  0.66608888  1
  O  O34  1  0.76510673  0.35101302  0.16608888  1
  O  O35  1  0.23489327  0.85101302  0.33391112  1
  O  O36  1  0.33110597  0.10931892  0.82776311  1
  O  O37  1  0.66889403  0.60931892  0.67223689  1
  O  O38  1  0.66889403  0.89068108  0.17223689  1
  O  O39  1  0.33110597  0.39068108  0.32776311  1
