# generated using pymatgen
data_Ba(HO)2
_symmetry_space_group_name_H-M   'P 1'
_cell_length_a   9.48917742
_cell_length_b   7.91733003
_cell_length_c   6.81569570
_cell_angle_alpha   90.00000000
_cell_angle_beta   94.41139426
_cell_angle_gamma   90.00000000
_symmetry_Int_Tables_number   1
_chemical_formula_structural   Ba(HO)2
_chemical_formula_sum   'Ba8 H16 O16'
_cell_volume   510.53907833
_cell_formula_units_Z   8
loop_
 _symmetry_equiv_pos_site_id
 _symmetry_equiv_pos_as_xyz
  1  'x, y, z'
loop_
 _atom_site_type_symbol
 _atom_site_label
 _atom_site_symmetry_multiplicity
 _atom_site_fract_x
 _atom_site_fract_y
 _atom_site_fract_z
 _atom_site_occupancy
  Ba  Ba0  1  0.89424311  0.14610821  0.24859716  1
  Ba  Ba1  1  0.39424311  0.35389179  0.74859716  1
  Ba  Ba2  1  0.10575689  0.85389179  0.75140284  1
  Ba  Ba3  1  0.60575689  0.64610821  0.25140284  1
  Ba  Ba4  1  0.31642380  0.04670002  0.28031569  1
  Ba  Ba5  1  0.81642380  0.45329998  0.78031569  1
  Ba  Ba6  1  0.68357620  0.95329998  0.71968431  1
  Ba  Ba7  1  0.18357620  0.54670002  0.21968431  1
  H  H8  1  0.61820765  0.04863378  0.18726618  1
  H  H9  1  0.11820765  0.45136622  0.68726618  1
  H  H10  1  0.38179235  0.95136622  0.81273382  1
  H  H11  1  0.88179235  0.54863378  0.31273382  1
  H  H12  1  0.02177984  0.84853575  0.22260067  1
  H  H13  1  0.52177984  0.65146425  0.72260067  1
  H  H14  1  0.97822016  0.15146425  0.77739933  1
  H  H15  1  0.47822016  0.34853575  0.27739933  1
  H  H16  1  0.88122443  0.72466745  0.06773827  1
  H  H17  1  0.38122443  0.77533255  0.56773827  1
  H  H18  1  0.11877557  0.27533255  0.93226173  1
  H  H19  1  0.61877557  0.22466745  0.43226173  1
  H  H20  1  0.41369479  0.73781670  0.94981069  1
  H  H21  1  0.91369479  0.76218330  0.44981069  1
  H  H22  1  0.58630521  0.26218330  0.05018931  1
  H  H23  1  0.08630521  0.23781670  0.55018931  1
  O  O24  1  0.61949989  0.99929806  0.32017182  1
  O  O25  1  0.11949989  0.50070194  0.82017182  1
  O  O26  1  0.38050011  0.00070194  0.67982818  1
  O  O27  1  0.88050011  0.49929806  0.17982818  1
  O  O28  1  0.08237458  0.85890480  0.34820678  1
  O  O29  1  0.58237458  0.64109520  0.84820678  1
  O  O30  1  0.91762542  0.14109520  0.65179322  1
  O  O31  1  0.41762542  0.35890480  0.15179322  1
  O  O32  1  0.89534540  0.83813883  0.01159312  1
  O  O33  1  0.39534540  0.66186117  0.51159312  1
  O  O34  1  0.10465460  0.16186117  0.98840688  1
  O  O35  1  0.60465460  0.33813883  0.48840688  1
  O  O36  1  0.34305598  0.79321040  0.02725041  1
  O  O37  1  0.84305598  0.70678960  0.52725041  1
  O  O38  1  0.65694402  0.20678960  0.97274959  1
  O  O39  1  0.15694402  0.29321040  0.47274959  1
