# generated using pymatgen
data_Eu3(GaNi)4
_symmetry_space_group_name_H-M   'P 1'
_cell_length_a   6.45680922
_cell_length_b   6.45615628
_cell_length_c   6.45447849
_cell_angle_alpha   109.14458551
_cell_angle_beta   109.66107940
_cell_angle_gamma   109.61209856
_symmetry_Int_Tables_number   1
_chemical_formula_structural   Eu3(GaNi)4
_chemical_formula_sum   'Eu3 Ga4 Ni4'
_cell_volume   207.11007021
_cell_formula_units_Z   1
loop_
 _symmetry_equiv_pos_site_id
 _symmetry_equiv_pos_as_xyz
  1  'x, y, z'
loop_
 _atom_site_type_symbol
 _atom_site_label
 _atom_site_symmetry_multiplicity
 _atom_site_fract_x
 _atom_site_fract_y
 _atom_site_fract_z
 _atom_site_occupancy
  Eu  Eu0  1  0.00001083  0.50001535  0.49999574  1
  Eu  Eu1  1  0.50000247  0.00000111  0.49998329  1
  Eu  Eu2  1  0.49997218  0.49996901  0.99997843  1
  Ga  Ga3  1  0.60444532  0.60446482  0.60444243  1
  Ga  Ga4  1  0.00002238  0.99995777  0.39554817  1
  Ga  Ga5  1  0.00006782  0.39555747  0.99993882  1
  Ga  Ga6  1  0.39559352  0.00008314  0.00001450  1
  Ni  Ni7  1  0.24058900  0.23991428  0.24007631  1
  Ni  Ni8  1  0.99986443  0.00060316  0.75999120  1
  Ni  Ni9  1  0.75934148  0.99935520  0.99928084  1
  Ni  Ni10  1  0.00009058  0.76007868  0.00075027  1
