# generated using pymatgen
data_Cs5Sb8
_symmetry_space_group_name_H-M   'P 1'
_cell_length_a   7.47068122
_cell_length_b   11.66038309
_cell_length_c   28.21043603
_cell_angle_alpha   90.00000000
_cell_angle_beta   96.65637107
_cell_angle_gamma   90.00000000
_symmetry_Int_Tables_number   1
_chemical_formula_structural   Cs5Sb8
_chemical_formula_sum   'Cs20 Sb32'
_cell_volume   2440.87433129
_cell_formula_units_Z   4
loop_
 _symmetry_equiv_pos_site_id
 _symmetry_equiv_pos_as_xyz
  1  'x, y, z'
loop_
 _atom_site_type_symbol
 _atom_site_label
 _atom_site_symmetry_multiplicity
 _atom_site_fract_x
 _atom_site_fract_y
 _atom_site_fract_z
 _atom_site_occupancy
  Cs  Cs0  1  0.52319230  0.42909274  0.42613808  1
  Cs  Cs1  1  0.25747480  0.60307565  0.97871073  1
  Cs  Cs2  1  0.76382995  0.19248835  0.69010551  1
  Cs  Cs3  1  0.74252520  0.39692435  0.02128927  1
  Cs  Cs4  1  0.28649876  0.46354435  0.25761227  1
  Cs  Cs5  1  0.23617005  0.80751165  0.30989449  1
  Cs  Cs6  1  0.02562531  0.18608978  0.37774497  1
  Cs  Cs7  1  0.28649876  0.03645565  0.75761227  1
  Cs  Cs8  1  0.02562531  0.31391022  0.87774497  1
  Cs  Cs9  1  0.76382995  0.30751165  0.19010551  1
  Cs  Cs10  1  0.97437469  0.81391022  0.62225503  1
  Cs  Cs11  1  0.97437469  0.68608978  0.12225503  1
  Cs  Cs12  1  0.71350124  0.53645565  0.74238773  1
  Cs  Cs13  1  0.23617005  0.69248835  0.80989449  1
  Cs  Cs14  1  0.52319230  0.07090726  0.92613808  1
  Cs  Cs15  1  0.25747480  0.89692435  0.47871073  1
  Cs  Cs16  1  0.47680770  0.57090726  0.57386192  1
  Cs  Cs17  1  0.74252520  0.10307565  0.52128927  1
  Cs  Cs18  1  0.47680770  0.92909274  0.07386192  1
  Cs  Cs19  1  0.71350124  0.96354435  0.24238773  1
  Sb  Sb20  1  0.51527626  0.30001484  0.81649320  1
  Sb  Sb21  1  0.23907886  0.24766777  0.52439114  1
  Sb  Sb22  1  0.69529866  0.85780762  0.83703201  1
  Sb  Sb23  1  0.80471448  0.87073305  0.74411310  1
  Sb  Sb24  1  0.19148446  0.36089967  0.11281756  1
  Sb  Sb25  1  0.98673309  0.47509950  0.62530641  1
  Sb  Sb26  1  0.30470134  0.35780762  0.66296799  1
  Sb  Sb27  1  0.93906014  0.40300101  0.52762787  1
  Sb  Sb28  1  0.48472374  0.80001484  0.68350680  1
  Sb  Sb29  1  0.98673309  0.02490050  0.12530641  1
  Sb  Sb30  1  0.80851554  0.86089967  0.38718244  1
  Sb  Sb31  1  0.51527626  0.19998516  0.31649320  1
  Sb  Sb32  1  0.80471448  0.62926695  0.24411310  1
  Sb  Sb33  1  0.48472374  0.69998516  0.18350680  1
  Sb  Sb34  1  0.01326691  0.52490050  0.37469359  1
  Sb  Sb35  1  0.46865682  0.96089489  0.60891105  1
  Sb  Sb36  1  0.76092114  0.74766777  0.97560886  1
  Sb  Sb37  1  0.76092114  0.75233223  0.47560886  1
  Sb  Sb38  1  0.19148446  0.13910033  0.61281756  1
  Sb  Sb39  1  0.30470134  0.14219238  0.16296799  1
  Sb  Sb40  1  0.19528552  0.37073305  0.75588690  1
  Sb  Sb41  1  0.19528552  0.12926695  0.25588690  1
  Sb  Sb42  1  0.06093986  0.59699899  0.47237213  1
  Sb  Sb43  1  0.46865682  0.53910511  0.10891105  1
  Sb  Sb44  1  0.93906014  0.09699899  0.02762787  1
  Sb  Sb45  1  0.53134318  0.46089489  0.89108895  1
  Sb  Sb46  1  0.01326691  0.97509950  0.87469359  1
  Sb  Sb47  1  0.06093986  0.90300101  0.97237213  1
  Sb  Sb48  1  0.80851554  0.63910033  0.88718244  1
  Sb  Sb49  1  0.53134318  0.03910511  0.39108895  1
  Sb  Sb50  1  0.23907886  0.25233223  0.02439114  1
  Sb  Sb51  1  0.69529866  0.64219238  0.33703201  1
