# generated using pymatgen
data_Cs7NbIn3As5
_symmetry_space_group_name_H-M   'P 1'
_cell_length_a   8.96861986
_cell_length_b   9.87055107
_cell_length_c   15.02003475
_cell_angle_alpha   85.51296512
_cell_angle_beta   85.77991680
_cell_angle_gamma   86.50966503
_symmetry_Int_Tables_number   1
_chemical_formula_structural   Cs7NbIn3As5
_chemical_formula_sum   'Cs14 Nb2 In6 As10'
_cell_volume   1319.94921253
_cell_formula_units_Z   2
loop_
 _symmetry_equiv_pos_site_id
 _symmetry_equiv_pos_as_xyz
  1  'x, y, z'
loop_
 _atom_site_type_symbol
 _atom_site_label
 _atom_site_symmetry_multiplicity
 _atom_site_fract_x
 _atom_site_fract_y
 _atom_site_fract_z
 _atom_site_occupancy
  Cs  Cs0  1  0.81775275  0.37094332  0.63916418  1
  Cs  Cs1  1  0.81073464  0.81590962  0.12685559  1
  Cs  Cs2  1  0.24320353  0.00746175  0.46684039  1
  Cs  Cs3  1  0.26899188  0.25327150  0.25278608  1
  Cs  Cs4  1  0.74404621  0.50375094  0.97323428  1
  Cs  Cs5  1  0.25595379  0.49624906  0.02676572  1
  Cs  Cs6  1  0.69282070  0.07947415  0.88571847  1
  Cs  Cs7  1  0.75679647  0.99253825  0.53315961  1
  Cs  Cs8  1  0.73100812  0.74672850  0.74721392  1
  Cs  Cs9  1  0.30512694  0.33563616  0.60199521  1
  Cs  Cs10  1  0.18224725  0.62905668  0.36083582  1
  Cs  Cs11  1  0.18926536  0.18409038  0.87314441  1
  Cs  Cs12  1  0.30717930  0.92052585  0.11428153  1
  Cs  Cs13  1  0.69487306  0.66436384  0.39800479  1
  Nb  Nb14  1  0.35368424  0.60469751  0.77203791  1
  Nb  Nb15  1  0.64631576  0.39530249  0.22796209  1
  In  In16  1  0.06873437  0.80932866  0.86669103  1
  In  In17  1  0.93126563  0.19067134  0.13330897  1
  In  In18  1  0.36635684  0.94730084  0.70473588  1
  In  In19  1  0.09406028  0.72245211  0.62514729  1
  In  In20  1  0.90593972  0.27754789  0.37485271  1
  In  In21  1  0.63364316  0.05269916  0.29526412  1
  As  As22  1  0.91570898  0.45178540  0.21230919  1
  As  As23  1  0.61635394  0.20485736  0.12493695  1
  As  As24  1  0.08429102  0.54821460  0.78769081  1
  As  As25  1  0.58870482  0.29821513  0.38859392  1
  As  As26  1  0.41129518  0.70178487  0.61140608  1
  As  As27  1  0.04242309  0.99058847  0.70210633  1
  As  As28  1  0.51140649  0.40148733  0.80792501  1
  As  As29  1  0.48859351  0.59851267  0.19207499  1
  As  As30  1  0.38364606  0.79514264  0.87506305  1
  As  As31  1  0.95757691  0.00941153  0.29789367  1
