# generated using pymatgen
data_CeInAu2
_symmetry_space_group_name_H-M   'P 1'
_cell_length_a   5.04949923
_cell_length_b   5.05133278
_cell_length_c   5.05073502
_cell_angle_alpha   60.06539204
_cell_angle_beta   60.09293165
_cell_angle_gamma   60.09003733
_symmetry_Int_Tables_number   1
_chemical_formula_structural   CeInAu2
_chemical_formula_sum   'Ce1 In1 Au2'
_cell_volume   91.26574292
_cell_formula_units_Z   1
loop_
 _symmetry_equiv_pos_site_id
 _symmetry_equiv_pos_as_xyz
  1  'x, y, z'
loop_
 _atom_site_type_symbol
 _atom_site_label
 _atom_site_symmetry_multiplicity
 _atom_site_fract_x
 _atom_site_fract_y
 _atom_site_fract_z
 _atom_site_occupancy
  Ce  Ce0  1  0.00000272  0.00000521  0.99998108  1
  In  In1  1  0.50000237  0.50000210  0.49999996  1
  Au  Au2  1  0.24990257  0.24991032  0.24987185  1
  Au  Au3  1  0.75009235  0.75008237  0.75014711  1
