# generated using pymatgen
data_K5Th(PS4)3
_symmetry_space_group_name_H-M   'P 1'
_cell_length_a   9.84923440
_cell_length_b   11.58655937
_cell_length_c   20.30838475
_cell_angle_alpha   90.00000000
_cell_angle_beta   90.12470817
_cell_angle_gamma   90.00000000
_symmetry_Int_Tables_number   1
_chemical_formula_structural   K5Th(PS4)3
_chemical_formula_sum   'K20 Th4 P12 S48'
_cell_volume   2317.56177233
_cell_formula_units_Z   4
loop_
 _symmetry_equiv_pos_site_id
 _symmetry_equiv_pos_as_xyz
  1  'x, y, z'
loop_
 _atom_site_type_symbol
 _atom_site_label
 _atom_site_symmetry_multiplicity
 _atom_site_fract_x
 _atom_site_fract_y
 _atom_site_fract_z
 _atom_site_occupancy
  K  K0  1  0.35897966  0.40788966  0.91637344  1
  K  K1  1  0.88050962  0.35937467  0.57926064  1
  K  K2  1  0.61949038  0.85937467  0.92073936  1
  K  K3  1  0.18133843  0.90382463  0.90276512  1
  K  K4  1  0.85897966  0.09211034  0.41637344  1
  K  K5  1  0.31866157  0.40382463  0.59723488  1
  K  K6  1  0.17062900  0.89214358  0.24971761  1
  K  K7  1  0.14102034  0.90788966  0.58362656  1
  K  K8  1  0.68133843  0.59617537  0.40276512  1
  K  K9  1  0.32937100  0.39214358  0.25028239  1
  K  K10  1  0.64102034  0.59211034  0.08362656  1
  K  K11  1  0.88550938  0.34413860  0.25805520  1
  K  K12  1  0.38050962  0.14062533  0.07926064  1
  K  K13  1  0.67062900  0.60785642  0.74971761  1
  K  K14  1  0.82937100  0.10785642  0.75028239  1
  K  K15  1  0.61449062  0.84413860  0.24194480  1
  K  K16  1  0.38550938  0.15586140  0.75805520  1
  K  K17  1  0.11949038  0.64062533  0.42073936  1
  K  K18  1  0.11449062  0.65586140  0.74194480  1
  K  K19  1  0.81866157  0.09617537  0.09723488  1
  Th  Th20  1  0.89285323  0.35169931  0.91864135  1
  Th  Th21  1  0.39285323  0.14830069  0.41864135  1
  Th  Th22  1  0.60714677  0.85169931  0.58135865  1
  Th  Th23  1  0.10714677  0.64830069  0.08135865  1
  P  P24  1  0.09229916  0.32890950  0.08106247  1
  P  P25  1  0.90283038  0.66899587  0.23750737  1
  P  P26  1  0.40283038  0.83100413  0.73750737  1
  P  P27  1  0.62082392  0.18940400  0.92086829  1
  P  P28  1  0.90770084  0.67109050  0.91893753  1
  P  P29  1  0.09716962  0.33100413  0.76249263  1
  P  P30  1  0.87917608  0.68940400  0.57913171  1
  P  P31  1  0.37917608  0.81059600  0.07913171  1
  P  P32  1  0.59229916  0.17109050  0.58106247  1
  P  P33  1  0.59716962  0.16899587  0.26249263  1
  P  P34  1  0.12082392  0.31059600  0.42086829  1
  P  P35  1  0.40770084  0.82890950  0.41893753  1
  S  S36  1  0.07309927  0.56865406  0.21829065  1
  S  S37  1  0.23909084  0.93568388  0.41959484  1
  S  S38  1  0.09324725  0.22952725  0.99736413  1
  S  S39  1  0.42545751  0.06309596  0.56840944  1
  S  S40  1  0.64417219  0.29736507  0.84085008  1
  S  S41  1  0.44430306  0.10209342  0.91924613  1
  S  S42  1  0.42690073  0.06865406  0.28170935  1
  S  S43  1  0.94430306  0.39790658  0.41924613  1
  S  S44  1  0.09433472  0.22800631  0.16059899  1
  S  S45  1  0.09412740  0.22310520  0.84430609  1
  S  S46  1  0.73909084  0.56431612  0.91959484  1
  S  S47  1  0.91692060  0.76256156  0.32108098  1
  S  S48  1  0.77237683  0.07614462  0.26171810  1
  S  S49  1  0.92690073  0.43134594  0.78170935  1
  S  S50  1  0.27237683  0.42385538  0.76171810  1
  S  S51  1  0.59324725  0.27047275  0.49736413  1
  S  S52  1  0.55569694  0.89790658  0.08075387  1
  S  S53  1  0.90675275  0.77047275  0.00263587  1
  S  S54  1  0.57309927  0.93134594  0.71829065  1
  S  S55  1  0.76090916  0.06431612  0.58040516  1
  S  S56  1  0.07454249  0.56309596  0.93159056  1
  S  S57  1  0.59433472  0.27199369  0.66059899  1
  S  S58  1  0.35582781  0.70263493  0.15914992  1
  S  S59  1  0.58307940  0.26256156  0.17891902  1
  S  S60  1  0.40566528  0.72800631  0.33940101  1
  S  S61  1  0.85582781  0.79736507  0.65914992  1
  S  S62  1  0.70223711  0.59511179  0.57833675  1
  S  S63  1  0.79776289  0.09511179  0.92166325  1
  S  S64  1  0.90587260  0.77689480  0.15569391  1
  S  S65  1  0.35694352  0.70277577  0.99909207  1
  S  S66  1  0.08307940  0.23743844  0.67891902  1
  S  S67  1  0.41692060  0.73743844  0.82108098  1
  S  S68  1  0.29776289  0.40488821  0.42166325  1
  S  S69  1  0.20223711  0.90488821  0.07833675  1
  S  S70  1  0.57454249  0.93690404  0.43159056  1
  S  S71  1  0.14417219  0.20263493  0.34085008  1
  S  S72  1  0.40587260  0.72310520  0.65569391  1
  S  S73  1  0.40675275  0.72952725  0.50263587  1
  S  S74  1  0.14305648  0.20277577  0.50090793  1
  S  S75  1  0.92545751  0.43690404  0.06840944  1
  S  S76  1  0.72762317  0.57614462  0.23828190  1
  S  S77  1  0.64305648  0.29722423  0.00090793  1
  S  S78  1  0.90566528  0.77199369  0.83940101  1
  S  S79  1  0.85694352  0.79722423  0.49909207  1
  S  S80  1  0.59412740  0.27689480  0.34430609  1
  S  S81  1  0.05569694  0.60209342  0.58075387  1
  S  S82  1  0.22762317  0.92385538  0.73828190  1
  S  S83  1  0.26090916  0.43568388  0.08040516  1
