# generated using pymatgen
data_Te2MoWSeS
_symmetry_space_group_name_H-M   'P 1'
_cell_length_a   3.39994622
_cell_length_b   3.40002606
_cell_length_c   38.73843844
_cell_angle_alpha   90.00018517
_cell_angle_beta   90.00000000
_cell_angle_gamma   119.99922321
_symmetry_Int_Tables_number   1
_chemical_formula_structural   Te2MoWSeS
_chemical_formula_sum   'Te4 Mo2 W2 Se2 S2'
_cell_volume   387.82020768
_cell_formula_units_Z   2
loop_
 _symmetry_equiv_pos_site_id
 _symmetry_equiv_pos_as_xyz
  1  'x, y, z'
loop_
 _atom_site_type_symbol
 _atom_site_label
 _atom_site_symmetry_multiplicity
 _atom_site_fract_x
 _atom_site_fract_y
 _atom_site_fract_z
 _atom_site_occupancy
  Te  Te0  1  0.33335689  0.66671478  0.33041106  1
  Te  Te1  1  0.33335076  0.66670252  0.70581582  1
  Te  Te2  1  0.33335069  0.66670238  0.23312129  1
  Te  Te3  1  0.33335086  0.66670272  0.60923862  1
  Mo  Mo4  1  0.33329552  0.66659103  0.09393482  1
  Mo  Mo5  1  0.66668622  0.33337245  0.65755777  1
  W  W6  1  0.33331217  0.66662434  0.46969289  1
  W  W7  1  0.66669073  0.33338146  0.28180614  1
  Se  Se8  1  0.66664898  0.33329696  0.42699264  1
  Se  Se9  1  0.66664968  0.33329837  0.51231007  1
  S  S10  1  0.66665330  0.33330559  0.05513512  1
  S  S11  1  0.66665420  0.33330740  0.13273178  1
