# generated using pymatgen
data_BaIn4Ir
_symmetry_space_group_name_H-M   'P 1'
_cell_length_a   4.47214296
_cell_length_b   8.06966616
_cell_length_c   8.74549656
_cell_angle_alpha   90.00000000
_cell_angle_beta   90.00000000
_cell_angle_gamma   90.00000000
_symmetry_Int_Tables_number   1
_chemical_formula_structural   BaIn4Ir
_chemical_formula_sum   'Ba2 In8 Ir2'
_cell_volume   315.61360789
_cell_formula_units_Z   2
loop_
 _symmetry_equiv_pos_site_id
 _symmetry_equiv_pos_as_xyz
  1  'x, y, z'
loop_
 _atom_site_type_symbol
 _atom_site_label
 _atom_site_symmetry_multiplicity
 _atom_site_fract_x
 _atom_site_fract_y
 _atom_site_fract_z
 _atom_site_occupancy
  Ba  Ba0  1  0.00000000  0.60776729  0.25000000  1
  Ba  Ba1  1  0.00000000  0.39223271  0.75000000  1
  In  In2  1  0.50000000  0.94490914  0.25000000  1
  In  In3  1  0.50000000  0.05509086  0.75000000  1
  In  In4  1  0.50000000  0.70040696  0.56833738  1
  In  In5  1  0.50000000  0.29959304  0.43166262  1
  In  In6  1  0.00000000  0.00000000  0.00000000  1
  In  In7  1  0.50000000  0.70040696  0.93166262  1
  In  In8  1  0.50000000  0.29959304  0.06833738  1
  In  In9  1  0.00000000  0.00000000  0.50000000  1
  Ir  Ir10  1  0.00000000  0.81585775  0.75000000  1
  Ir  Ir11  1  0.00000000  0.18414225  0.25000000  1
