# generated using pymatgen
data_CsTi(PS4)2
_symmetry_space_group_name_H-M   'P 1'
_cell_length_a   7.13195660
_cell_length_b   11.75684904
_cell_length_c   17.58933658
_cell_angle_alpha   98.19827964
_cell_angle_beta   90.00021485
_cell_angle_gamma   107.65950724
_symmetry_Int_Tables_number   1
_chemical_formula_structural   CsTi(PS4)2
_chemical_formula_sum   'Cs4 Ti4 P8 S32'
_cell_volume   1389.52716930
_cell_formula_units_Z   4
loop_
 _symmetry_equiv_pos_site_id
 _symmetry_equiv_pos_as_xyz
  1  'x, y, z'
loop_
 _atom_site_type_symbol
 _atom_site_label
 _atom_site_symmetry_multiplicity
 _atom_site_fract_x
 _atom_site_fract_y
 _atom_site_fract_z
 _atom_site_occupancy
  Cs  Cs0  1  0.70182093  0.82424775  0.35085752  1
  Cs  Cs1  1  0.48765583  0.50583480  0.61809297  1
  Cs  Cs2  1  0.01817936  0.50583655  0.11809481  1
  Cs  Cs3  1  0.12242609  0.82424788  0.85085467  1
  Ti  Ti4  1  0.65346163  0.99342332  0.10191285  1
  Ti  Ti5  1  0.02358230  0.29532861  0.84581557  1
  Ti  Ti6  1  0.33995150  0.99342311  0.60191217  1
  Ti  Ti7  1  0.27174921  0.29533395  0.34581885  1
  P  P8  1  0.42207126  0.13801659  0.21018703  1
  P  P9  1  0.25262407  0.15299026  0.48441645  1
  P  P10  1  0.90035066  0.15298375  0.98442365  1
  P  P11  1  0.09076534  0.72234154  0.60147780  1
  P  P12  1  0.63158133  0.72234053  0.10147325  1
  P  P13  1  0.13056656  0.53193658  0.35891947  1
  P  P14  1  0.71592851  0.13799986  0.71017856  1
  P  P15  1  0.40139273  0.53194069  0.85891979  1
  S  S16  1  0.12195847  0.51423961  0.89826868  1
  S  S17  1  0.14431042  0.67794343  0.31436913  1
  S  S18  1  0.89888110  0.66875569  0.49736290  1
  S  S19  1  0.39228743  0.51426470  0.39827876  1
  S  S20  1  0.42908241  0.06327052  0.73870303  1
  S  S21  1  0.26704584  0.97856708  0.46401490  1
  S  S22  1  0.55251934  0.59105898  0.16355195  1
  S  S23  1  0.01674818  0.87455318  0.64438354  1
  S  S24  1  0.76989212  0.66875133  0.99736220  1
  S  S25  1  0.01036769  0.36280551  0.29511652  1
  S  S26  1  0.82009086  0.32260066  0.74304623  1
  S  S27  1  0.38620431  0.08157853  0.09376160  1
  S  S28  1  0.63418502  0.06327148  0.23870115  1
  S  S29  1  0.02394384  0.18689702  0.43021083  1
  S  S30  1  0.50255230  0.32259187  0.24302684  1
  S  S31  1  0.37819168  0.79190337  0.57124083  1
  S  S32  1  0.85779250  0.87455226  0.14438563  1
  S  S33  1  0.71152991  0.97857016  0.96401699  1
  S  S34  1  0.91400633  0.09038027  0.77382240  1
  S  S35  1  0.77343335  0.26917543  0.94382799  1
  S  S36  1  0.91683365  0.50474839  0.44929576  1
  S  S37  1  0.53362562  0.67794607  0.81437445  1
  S  S38  1  0.58791444  0.50474258  0.94929592  1
  S  S39  1  0.49574143  0.26916644  0.44384053  1
  S  S40  1  0.24201453  0.17689772  0.60192283  1
  S  S41  1  0.03853937  0.59106325  0.66354713  1
  S  S42  1  0.69538040  0.08157796  0.59376691  1
  S  S43  1  0.35239966  0.36278287  0.79512474  1
  S  S44  1  0.16294738  0.18691172  0.93019448  1
  S  S45  1  0.17638589  0.09035932  0.27381115  1
  S  S46  1  0.41369503  0.79190602  0.07123928  1
  S  S47  1  0.93487218  0.17690082  0.10191931  1
