# generated using pymatgen
data_CsAs2Se3
_symmetry_space_group_name_H-M   'P 1'
_cell_length_a   7.65859381
_cell_length_b   13.67846805
_cell_length_c   15.07723760
_cell_angle_alpha   90.00000000
_cell_angle_beta   90.00000000
_cell_angle_gamma   90.00000000
_symmetry_Int_Tables_number   1
_chemical_formula_structural   CsAs2Se3
_chemical_formula_sum   'Cs8 As16 Se24'
_cell_volume   1579.45870450
_cell_formula_units_Z   8
loop_
 _symmetry_equiv_pos_site_id
 _symmetry_equiv_pos_as_xyz
  1  'x, y, z'
loop_
 _atom_site_type_symbol
 _atom_site_label
 _atom_site_symmetry_multiplicity
 _atom_site_fract_x
 _atom_site_fract_y
 _atom_site_fract_z
 _atom_site_occupancy
  Cs  Cs0  1  0.25000000  0.91575056  0.09405345  1
  Cs  Cs1  1  0.25000000  0.58424944  0.59405345  1
  Cs  Cs2  1  0.75000000  0.08424944  0.90594655  1
  Cs  Cs3  1  0.25000000  0.59531865  0.92197578  1
  Cs  Cs4  1  0.25000000  0.90468135  0.42197578  1
  Cs  Cs5  1  0.75000000  0.09531865  0.57802422  1
  Cs  Cs6  1  0.75000000  0.40468135  0.07802422  1
  Cs  Cs7  1  0.75000000  0.41575056  0.40594655  1
  As  As8  1  0.41662319  0.22884781  0.74308465  1
  As  As9  1  0.75000000  0.72338948  0.48517049  1
  As  As10  1  0.25000000  0.56560108  0.21166989  1
  As  As11  1  0.75000000  0.77661052  0.98517049  1
  As  As12  1  0.91662319  0.72884781  0.75691535  1
  As  As13  1  0.58337681  0.77115219  0.25691535  1
  As  As14  1  0.41662319  0.27115219  0.24308465  1
  As  As15  1  0.25000000  0.27661052  0.51482951  1
  As  As16  1  0.58337681  0.72884781  0.75691535  1
  As  As17  1  0.08337681  0.27115219  0.24308465  1
  As  As18  1  0.25000000  0.93439892  0.71166989  1
  As  As19  1  0.25000000  0.22338948  0.01482951  1
  As  As20  1  0.75000000  0.43439892  0.78833011  1
  As  As21  1  0.91662319  0.77115219  0.25691535  1
  As  As22  1  0.75000000  0.06560108  0.28833011  1
  As  As23  1  0.08337681  0.22884781  0.74308465  1
  Se  Se24  1  0.25000000  0.42991131  0.11207327  1
  Se  Se25  1  0.99206626  0.64409962  0.14343284  1
  Se  Se26  1  0.01367048  0.16587886  0.11371342  1
  Se  Se27  1  0.48632952  0.33412114  0.61371342  1
  Se  Se28  1  0.51367048  0.83412114  0.88628658  1
  Se  Se29  1  0.49206626  0.35590038  0.85656716  1
  Se  Se30  1  0.51367048  0.66587886  0.38628658  1
  Se  Se31  1  0.50793374  0.85590038  0.64343284  1
  Se  Se32  1  0.25000000  0.09893988  0.90451494  1
  Se  Se33  1  0.00793374  0.14409962  0.35656716  1
  Se  Se34  1  0.75000000  0.92991131  0.38792673  1
  Se  Se35  1  0.01367048  0.33412114  0.61371342  1
  Se  Se36  1  0.25000000  0.07008869  0.61207327  1
  Se  Se37  1  0.00793374  0.35590038  0.85656716  1
  Se  Se38  1  0.99206626  0.85590038  0.64343284  1
  Se  Se39  1  0.75000000  0.59893988  0.59548506  1
  Se  Se40  1  0.25000000  0.40106012  0.40451494  1
  Se  Se41  1  0.75000000  0.90106012  0.09548506  1
  Se  Se42  1  0.48632952  0.16587886  0.11371342  1
  Se  Se43  1  0.98632952  0.66587886  0.38628658  1
  Se  Se44  1  0.50793374  0.64409962  0.14343284  1
  Se  Se45  1  0.75000000  0.57008869  0.88792673  1
  Se  Se46  1  0.49206626  0.14409962  0.35656716  1
  Se  Se47  1  0.98632952  0.83412114  0.88628658  1
