# generated using pymatgen
data_Nd(BO2)3
_symmetry_space_group_name_H-M   'P 1'
_cell_length_a   7.54788641
_cell_length_b   12.56618126
_cell_length_c   16.34830914
_cell_angle_alpha   90.00000000
_cell_angle_beta   90.00000000
_cell_angle_gamma   90.00000000
_symmetry_Int_Tables_number   1
_chemical_formula_structural   Nd(BO2)3
_chemical_formula_sum   'Nd16 B48 O96'
_cell_volume   1550.60620332
_cell_formula_units_Z   16
loop_
 _symmetry_equiv_pos_site_id
 _symmetry_equiv_pos_as_xyz
  1  'x, y, z'
loop_
 _atom_site_type_symbol
 _atom_site_label
 _atom_site_symmetry_multiplicity
 _atom_site_fract_x
 _atom_site_fract_y
 _atom_site_fract_z
 _atom_site_occupancy
  Nd  Nd0  1  0.75000000  0.06973360  0.82963136  1
  Nd  Nd1  1  0.25000000  0.22317654  0.37391368  1
  Nd  Nd2  1  0.75000000  0.41393640  0.95275314  1
  Nd  Nd3  1  0.75000000  0.77682346  0.62608632  1
  Nd  Nd4  1  0.25000000  0.91393640  0.54724686  1
  Nd  Nd5  1  0.25000000  0.93026640  0.17036864  1
  Nd  Nd6  1  0.75000000  0.00495963  0.12036387  1
  Nd  Nd7  1  0.25000000  0.27682346  0.87391368  1
  Nd  Nd8  1  0.25000000  0.99504037  0.87963613  1
  Nd  Nd9  1  0.75000000  0.49504037  0.62036387  1
  Nd  Nd10  1  0.75000000  0.08606360  0.45275314  1
  Nd  Nd11  1  0.75000000  0.72317654  0.12608632  1
  Nd  Nd12  1  0.25000000  0.50495963  0.37963613  1
  Nd  Nd13  1  0.25000000  0.56973360  0.67036864  1
  Nd  Nd14  1  0.75000000  0.43026640  0.32963136  1
  Nd  Nd15  1  0.25000000  0.58606360  0.04724686  1
  B  B16  1  0.42682407  0.34445196  0.05952408  1
  B  B17  1  0.93784655  0.18067779  0.97202473  1
  B  B18  1  0.57773087  0.64575951  0.38914904  1
  B  B19  1  0.42893591  0.18722475  0.71700811  1
  B  B20  1  0.42682407  0.15554804  0.55952408  1
  B  B21  1  0.43784655  0.68067779  0.52797527  1
  B  B22  1  0.06215345  0.81932221  0.02797527  1
  B  B23  1  0.06215345  0.68067779  0.52797527  1
  B  B24  1  0.57317593  0.84445196  0.44047592  1
  B  B25  1  0.42565787  0.51888476  0.84475615  1
  B  B26  1  0.57434213  0.48111524  0.15524385  1
  B  B27  1  0.07317593  0.34445196  0.05952408  1
  B  B28  1  0.56215345  0.31932221  0.47202473  1
  B  B29  1  0.93155486  0.37000613  0.75657980  1
  B  B30  1  0.92893591  0.81277525  0.28299189  1
  B  B31  1  0.07106409  0.31277525  0.21700811  1
  B  B32  1  0.07317593  0.15554804  0.55952408  1
  B  B33  1  0.42226913  0.35424049  0.61085096  1
  B  B34  1  0.42893591  0.31277525  0.21700811  1
  B  B35  1  0.06844514  0.87000613  0.74342020  1
  B  B36  1  0.07773087  0.14575951  0.11085096  1
  B  B37  1  0.56844514  0.12999387  0.25657980  1
  B  B38  1  0.56215345  0.18067779  0.97202473  1
  B  B39  1  0.43155486  0.62999387  0.24342020  1
  B  B40  1  0.57317593  0.65554804  0.94047592  1
  B  B41  1  0.92682407  0.65554804  0.94047592  1
  B  B42  1  0.43784655  0.81932221  0.02797527  1
  B  B43  1  0.06844514  0.62999387  0.24342020  1
  B  B44  1  0.57773087  0.85424049  0.88914904  1
  B  B45  1  0.92893591  0.68722475  0.78299189  1
  B  B46  1  0.42565787  0.98111524  0.34475615  1
  B  B47  1  0.93784655  0.31932221  0.47202473  1
  B  B48  1  0.42226913  0.14575951  0.11085096  1
  B  B49  1  0.92565787  0.01888476  0.65524385  1
  B  B50  1  0.92682407  0.84445196  0.44047592  1
  B  B51  1  0.57106409  0.81277525  0.28299189  1
  B  B52  1  0.92565787  0.48111524  0.15524385  1
  B  B53  1  0.07773087  0.35424049  0.61085096  1
  B  B54  1  0.07434213  0.51888476  0.84475615  1
  B  B55  1  0.92226913  0.85424049  0.88914904  1
  B  B56  1  0.07106409  0.18722475  0.71700811  1
  B  B57  1  0.56844514  0.37000613  0.75657980  1
  B  B58  1  0.57434213  0.01888476  0.65524385  1
  B  B59  1  0.92226913  0.64575951  0.38914904  1
  B  B60  1  0.07434213  0.98111524  0.34475615  1
  B  B61  1  0.57106409  0.68722475  0.78299189  1
  B  B62  1  0.93155486  0.12999387  0.25657980  1
  B  B63  1  0.43155486  0.87000613  0.74342020  1
  O  O64  1  0.05767489  0.56755768  0.16682978  1
  O  O65  1  0.57262609  0.73408383  0.86999370  1
  O  O66  1  0.75000000  0.84957594  0.25521668  1
  O  O67  1  0.55580627  0.10058290  0.71830889  1
  O  O68  1  0.48487728  0.29180693  0.98307133  1
  O  O69  1  0.25000000  0.69818459  0.55918830  1
  O  O70  1  0.25000000  0.86385949  0.77416099  1
  O  O71  1  0.57262609  0.76591617  0.36999370  1
  O  O72  1  0.01284064  0.26823606  0.77469813  1
  O  O73  1  0.45067731  0.56639948  0.92682625  1
  O  O74  1  0.51284064  0.76823606  0.72530187  1
  O  O75  1  0.06074948  0.87499710  0.94980880  1
  O  O76  1  0.75000000  0.96737188  0.66150592  1
  O  O77  1  0.55767489  0.06755768  0.33317022  1
  O  O78  1  0.98715936  0.76823606  0.72530187  1
  O  O79  1  0.03497017  0.08151836  0.18508675  1
  O  O80  1  0.75000000  0.36385949  0.72583901  1
  O  O81  1  0.93925052  0.12500290  0.05019120  1
  O  O82  1  0.46502983  0.08151836  0.18508675  1
  O  O83  1  0.55580627  0.39941710  0.21830889  1
  O  O84  1  0.43925052  0.62500290  0.44980880  1
  O  O85  1  0.75000000  0.61072976  0.42007323  1
  O  O86  1  0.53497017  0.58151836  0.31491325  1
  O  O87  1  0.01284064  0.23176394  0.27469813  1
  O  O88  1  0.75000000  0.53262812  0.16150592  1
  O  O89  1  0.46362752  0.12804188  0.90722730  1
  O  O90  1  0.94419373  0.39941710  0.21830889  1
  O  O91  1  0.01512272  0.20819307  0.48307133  1
  O  O92  1  0.98487728  0.70819307  0.01692867  1
  O  O93  1  0.07262609  0.23408383  0.63000630  1
  O  O94  1  0.25000000  0.03262812  0.33849408  1
  O  O95  1  0.42737391  0.23408383  0.63000630  1
  O  O96  1  0.98715936  0.73176394  0.22530187  1
  O  O97  1  0.44419373  0.60058290  0.78169111  1
  O  O98  1  0.25000000  0.38927024  0.57992677  1
  O  O99  1  0.54932269  0.06639948  0.57317375  1
  O  O100  1  0.96362752  0.87195812  0.09277270  1
  O  O101  1  0.56074948  0.37499710  0.55019120  1
  O  O102  1  0.25000000  0.63614051  0.27416099  1
  O  O103  1  0.46502983  0.41848164  0.68508675  1
  O  O104  1  0.42737391  0.26591617  0.13000630  1
  O  O105  1  0.54932269  0.43360052  0.07317375  1
  O  O106  1  0.25000000  0.10878945  0.54714776  1
  O  O107  1  0.51284064  0.73176394  0.22530187  1
  O  O108  1  0.03637248  0.12804188  0.90722730  1
  O  O109  1  0.55767489  0.43244232  0.83317022  1
  O  O110  1  0.04932269  0.93360052  0.42682625  1
  O  O111  1  0.04932269  0.56639948  0.92682625  1
  O  O112  1  0.94419373  0.10058290  0.71830889  1
  O  O113  1  0.53637248  0.62804188  0.59277270  1
  O  O114  1  0.75000000  0.65042406  0.75521668  1
  O  O115  1  0.05580627  0.60058290  0.78169111  1
  O  O116  1  0.96502983  0.91848164  0.81491325  1
  O  O117  1  0.53637248  0.87195812  0.09277270  1
  O  O118  1  0.25000000  0.80181541  0.05918830  1
  O  O119  1  0.93925052  0.37499710  0.55019120  1
  O  O120  1  0.96362752  0.62804188  0.59277270  1
  O  O121  1  0.25000000  0.34957594  0.24478332  1
  O  O122  1  0.05580627  0.89941710  0.28169111  1
  O  O123  1  0.48715936  0.26823606  0.77469813  1
  O  O124  1  0.95067731  0.06639948  0.57317375  1
  O  O125  1  0.25000000  0.11072976  0.07992677  1
  O  O126  1  0.96502983  0.58151836  0.31491325  1
  O  O127  1  0.25000000  0.46737188  0.83849408  1
  O  O128  1  0.07262609  0.26591617  0.13000630  1
  O  O129  1  0.75000000  0.88927024  0.92007323  1
  O  O130  1  0.51512272  0.70819307  0.01692867  1
  O  O131  1  0.01512272  0.29180693  0.98307133  1
  O  O132  1  0.75000000  0.19818459  0.94081170  1
  O  O133  1  0.25000000  0.15042406  0.74478332  1
  O  O134  1  0.05767489  0.93244232  0.66682978  1
  O  O135  1  0.94232511  0.43244232  0.83317022  1
  O  O136  1  0.06074948  0.62500290  0.44980880  1
  O  O137  1  0.75000000  0.30181541  0.44081170  1
  O  O138  1  0.94232511  0.06755768  0.33317022  1
  O  O139  1  0.48487728  0.20819307  0.48307133  1
  O  O140  1  0.44232511  0.93244232  0.66682978  1
  O  O141  1  0.98487728  0.79180693  0.51692867  1
  O  O142  1  0.51512272  0.79180693  0.51692867  1
  O  O143  1  0.75000000  0.60878945  0.95285224  1
  O  O144  1  0.43925052  0.87499710  0.94980880  1
  O  O145  1  0.92737391  0.76591617  0.36999370  1
  O  O146  1  0.44419373  0.89941710  0.28169111  1
  O  O147  1  0.03497017  0.41848164  0.68508675  1
  O  O148  1  0.03637248  0.37195812  0.40722730  1
  O  O149  1  0.53497017  0.91848164  0.81491325  1
  O  O150  1  0.45067731  0.93360052  0.42682625  1
  O  O151  1  0.75000000  0.89121055  0.45285224  1
  O  O152  1  0.56074948  0.12500290  0.05019120  1
  O  O153  1  0.92737391  0.73408383  0.86999370  1
  O  O154  1  0.75000000  0.13614051  0.22583901  1
  O  O155  1  0.44232511  0.56755768  0.16682978  1
  O  O156  1  0.25000000  0.39121055  0.04714776  1
  O  O157  1  0.95067731  0.43360052  0.07317375  1
  O  O158  1  0.48715936  0.23176394  0.27469813  1
  O  O159  1  0.46362752  0.37195812  0.40722730  1
