# generated using pymatgen
data_K3Y3(BO3)4
_symmetry_space_group_name_H-M   'P 1'
_cell_length_a   10.66447370
_cell_length_b   14.03317680
_cell_length_c   17.67154109
_cell_angle_alpha   90.00000000
_cell_angle_beta   90.00000000
_cell_angle_gamma   110.49243914
_symmetry_Int_Tables_number   1
_chemical_formula_structural   K3Y3(BO3)4
_chemical_formula_sum   'K24 Y24 B32 O96'
_cell_volume   2477.30168476
_cell_formula_units_Z   8
loop_
 _symmetry_equiv_pos_site_id
 _symmetry_equiv_pos_as_xyz
  1  'x, y, z'
loop_
 _atom_site_type_symbol
 _atom_site_label
 _atom_site_symmetry_multiplicity
 _atom_site_fract_x
 _atom_site_fract_y
 _atom_site_fract_z
 _atom_site_occupancy
  K  K0  1  0.08100822  0.90617066  0.17244061  1
  K  K1  1  0.09006258  0.40678535  0.82250820  1
  K  K2  1  0.29971223  0.39896498  0.53328208  1
  K  K3  1  0.60617862  0.45983082  0.28913490  1
  K  K4  1  0.39382138  0.04016918  0.78913490  1
  K  K5  1  0.91899178  0.59382934  0.67244061  1
  K  K6  1  0.91899178  0.09382934  0.82755939  1
  K  K7  1  0.29305363  0.89956320  0.46309892  1
  K  K8  1  0.39358462  0.04473671  0.28902689  1
  K  K9  1  0.60641538  0.95526329  0.71097311  1
  K  K10  1  0.60617862  0.95983082  0.21086510  1
  K  K11  1  0.90993742  0.59321465  0.17749180  1
  K  K12  1  0.29305363  0.39956320  0.03690108  1
  K  K13  1  0.39358462  0.54473671  0.21097311  1
  K  K14  1  0.60641538  0.45526329  0.78902689  1
  K  K15  1  0.70028777  0.10103502  0.03328208  1
  K  K16  1  0.09006258  0.90678535  0.67749180  1
  K  K17  1  0.70694637  0.10043680  0.53690108  1
  K  K18  1  0.70694637  0.60043680  0.96309892  1
  K  K19  1  0.90993742  0.09321465  0.32250820  1
  K  K20  1  0.29971223  0.89896498  0.96671792  1
  K  K21  1  0.39382138  0.54016918  0.71086510  1
  K  K22  1  0.70028777  0.60103502  0.46671792  1
  K  K23  1  0.08100822  0.40617066  0.32755939  1
  Y  Y24  1  0.29110395  0.75238379  0.15332809  1
  Y  Y25  1  0.70975807  0.75019177  0.14427690  1
  Y  Y26  1  0.16780405  0.61141035  0.48476783  1
  Y  Y27  1  0.70889605  0.74761621  0.65332809  1
  Y  Y28  1  0.29024193  0.24980823  0.85572310  1
  Y  Y29  1  0.52339189  0.76033995  0.37921050  1
  Y  Y30  1  0.47660811  0.73966005  0.87921050  1
  Y  Y31  1  0.00081467  0.74529441  0.84459632  1
  Y  Y32  1  0.16780405  0.11141035  0.01523217  1
  Y  Y33  1  0.70889605  0.24761621  0.84667191  1
  Y  Y34  1  0.99918533  0.25470559  0.15540368  1
  Y  Y35  1  0.52339189  0.26033995  0.12078950  1
  Y  Y36  1  0.15701928  0.11982440  0.51370616  1
  Y  Y37  1  0.83219595  0.88858965  0.98476783  1
  Y  Y38  1  0.29024193  0.74980823  0.64427690  1
  Y  Y39  1  0.15701928  0.61982440  0.98629384  1
  Y  Y40  1  0.99918533  0.75470559  0.34459632  1
  Y  Y41  1  0.29110395  0.25238379  0.34667191  1
  Y  Y42  1  0.00081467  0.24529441  0.65540368  1
  Y  Y43  1  0.84298072  0.38017560  0.01370616  1
  Y  Y44  1  0.84298072  0.88017560  0.48629384  1
  Y  Y45  1  0.83219595  0.38858965  0.51523217  1
  Y  Y46  1  0.70975807  0.25019177  0.35572310  1
  Y  Y47  1  0.47660811  0.23966005  0.62078950  1
  B  B48  1  0.23041190  0.21895741  0.19440094  1
  B  B49  1  0.49801156  0.75329242  0.04448929  1
  B  B50  1  0.37714840  0.51440400  0.38202583  1
  B  B51  1  0.38320743  0.01751433  0.61417549  1
  B  B52  1  0.00026536  0.75763850  0.53893006  1
  B  B53  1  0.99973464  0.74236150  0.03893006  1
  B  B54  1  0.76958810  0.28104259  0.69440094  1
  B  B55  1  0.11814602  0.50079899  0.12244619  1
  B  B56  1  0.23447049  0.22020456  0.70369972  1
  B  B57  1  0.00026536  0.25763850  0.96106994  1
  B  B58  1  0.50198844  0.74670758  0.54448929  1
  B  B59  1  0.76552951  0.77979544  0.29630028  1
  B  B60  1  0.61679257  0.98248567  0.38582451  1
  B  B61  1  0.38320743  0.51751433  0.88582451  1
  B  B62  1  0.76552951  0.27979544  0.20369972  1
  B  B63  1  0.99973464  0.24236150  0.46106994  1
  B  B64  1  0.61679257  0.48248567  0.11417549  1
  B  B65  1  0.86820774  0.51654880  0.38280751  1
  B  B66  1  0.13179226  0.48345120  0.61719249  1
  B  B67  1  0.11814602  0.00079899  0.37755381  1
  B  B68  1  0.88185398  0.49920101  0.87755381  1
  B  B69  1  0.86820774  0.01654880  0.11719249  1
  B  B70  1  0.62285160  0.48559600  0.61797417  1
  B  B71  1  0.76958810  0.78104259  0.80559906  1
  B  B72  1  0.88185398  0.99920101  0.62244619  1
  B  B73  1  0.62285160  0.98559600  0.88202583  1
  B  B74  1  0.37714840  0.01440400  0.11797417  1
  B  B75  1  0.13179226  0.98345120  0.88280751  1
  B  B76  1  0.50198844  0.24670758  0.95551071  1
  B  B77  1  0.23447049  0.72020456  0.79630028  1
  B  B78  1  0.49801156  0.25329242  0.45551071  1
  B  B79  1  0.23041190  0.71895741  0.30559906  1
  O  O80  1  0.64905813  0.78400334  0.78080071  1
  O  O81  1  0.34640246  0.91606050  0.63681079  1
  O  O82  1  0.95483555  0.04327285  0.05546652  1
  O  O83  1  0.85996696  0.77049820  0.75075872  1
  O  O84  1  0.19044874  0.71599591  0.38052350  1
  O  O85  1  0.49754247  0.09293378  0.12953097  1
  O  O86  1  0.72492639  0.97211464  0.92496039  1
  O  O87  1  0.01145494  0.49918498  0.07642051  1
  O  O88  1  0.64429625  0.08031171  0.84893052  1
  O  O89  1  0.64905813  0.28400334  0.71919929  1
  O  O90  1  0.76658636  0.91341127  0.61016267  1
  O  O91  1  0.13979819  0.72911824  0.74469798  1
  O  O92  1  0.49418833  0.41292193  0.13637029  1
  O  O93  1  0.77402291  0.41768854  0.38733675  1
  O  O94  1  0.00602007  0.79735131  0.46684673  1
  O  O95  1  0.49923200  0.74701162  0.62312618  1
  O  O96  1  0.14003304  0.72950180  0.25075872  1
  O  O97  1  0.99397993  0.70264869  0.96684673  1
  O  O98  1  0.64429625  0.58031171  0.65106948  1
  O  O99  1  0.10212677  0.72592490  0.56590982  1
  O  O100  1  0.65359754  0.08393950  0.36318921  1
  O  O101  1  0.22597709  0.58231146  0.61266325  1
  O  O102  1  0.77402291  0.91768854  0.11266325  1
  O  O103  1  0.50076800  0.75298838  0.12312618  1
  O  O104  1  0.86020181  0.27088176  0.25530202  1
  O  O105  1  0.70363340  0.94847469  0.42757444  1
  O  O106  1  0.50245753  0.40706622  0.62953097  1
  O  O107  1  0.50581167  0.08707807  0.63637029  1
  O  O108  1  0.29636660  0.05152531  0.57242556  1
  O  O109  1  0.13343851  0.41626764  0.67214566  1
  O  O110  1  0.13343851  0.91626764  0.82785434  1
  O  O111  1  0.98854506  0.50081502  0.92357949  1
  O  O112  1  0.86656149  0.08373236  0.17214566  1
  O  O113  1  0.19044874  0.21599591  0.11947650  1
  O  O114  1  0.49418833  0.91292193  0.36362971  1
  O  O115  1  0.29636660  0.55152531  0.92757444  1
  O  O116  1  0.98854506  0.00081502  0.57642051  1
  O  O117  1  0.78657398  0.27789278  0.12676947  1
  O  O118  1  0.85996696  0.27049820  0.74924128  1
  O  O119  1  0.78657398  0.77789278  0.37323053  1
  O  O120  1  0.35094187  0.71599666  0.28080071  1
  O  O121  1  0.61701854  0.24913586  0.99321888  1
  O  O122  1  0.21342602  0.72210722  0.87323053  1
  O  O123  1  0.35208810  0.71434663  0.76745399  1
  O  O124  1  0.10212677  0.22592490  0.93409018  1
  O  O125  1  0.23341364  0.08658873  0.38983733  1
  O  O126  1  0.80955126  0.78400409  0.88052350  1
  O  O127  1  0.23341364  0.58658873  0.11016267  1
  O  O128  1  0.88947265  0.75589093  0.58109004  1
  O  O129  1  0.61182781  0.75611348  0.00443653  1
  O  O130  1  0.50245753  0.90706622  0.87046903  1
  O  O131  1  0.70363340  0.44847469  0.07242556  1
  O  O132  1  0.64791190  0.28565337  0.23254601  1
  O  O133  1  0.99397993  0.20264869  0.53315327  1
  O  O134  1  0.11052735  0.74410907  0.08109004  1
  O  O135  1  0.86020181  0.77088176  0.24469798  1
  O  O136  1  0.88947265  0.25589093  0.91890996  1
  O  O137  1  0.35570375  0.41968829  0.34893052  1
  O  O138  1  0.49923200  0.24701162  0.87687382  1
  O  O139  1  0.11052735  0.24410907  0.41890996  1
  O  O140  1  0.13979819  0.22911824  0.75530202  1
  O  O141  1  0.01145494  0.99918498  0.42357949  1
  O  O142  1  0.80955126  0.28400409  0.61947650  1
  O  O143  1  0.95483555  0.54327285  0.44453348  1
  O  O144  1  0.50076800  0.25298838  0.37687382  1
  O  O145  1  0.72492639  0.47211464  0.57503961  1
  O  O146  1  0.11633322  0.92575885  0.32749690  1
  O  O147  1  0.38817219  0.24388652  0.99556347  1
  O  O148  1  0.35094187  0.21599666  0.21919929  1
  O  O149  1  0.76658636  0.41341127  0.88983733  1
  O  O150  1  0.88366678  0.57424115  0.82749690  1
  O  O151  1  0.88366678  0.07424115  0.67250310  1
  O  O152  1  0.50581167  0.58707807  0.86362971  1
  O  O153  1  0.89787323  0.77407510  0.06590982  1
  O  O154  1  0.27507361  0.52788536  0.42496039  1
  O  O155  1  0.61701854  0.74913586  0.50678112  1
  O  O156  1  0.14003304  0.22950180  0.24924128  1
  O  O157  1  0.49754247  0.59293378  0.37046903  1
  O  O158  1  0.86656149  0.58373236  0.32785434  1
  O  O159  1  0.38298146  0.25086414  0.49321888  1
  O  O160  1  0.65359754  0.58393950  0.13681079  1
  O  O161  1  0.00602007  0.29735131  0.03315327  1
  O  O162  1  0.64791190  0.78565337  0.26745399  1
  O  O163  1  0.35570375  0.91968829  0.15106948  1
  O  O164  1  0.27507361  0.02788536  0.07503961  1
  O  O165  1  0.11633322  0.42575885  0.17250310  1
  O  O166  1  0.34640246  0.41606050  0.86318921  1
  O  O167  1  0.38298146  0.75086414  0.00678112  1
  O  O168  1  0.35208810  0.21434663  0.73254601  1
  O  O169  1  0.61182781  0.25611348  0.49556347  1
  O  O170  1  0.38817219  0.74388652  0.50443653  1
  O  O171  1  0.04516445  0.45672715  0.55546652  1
  O  O172  1  0.21342602  0.22210722  0.62676947  1
  O  O173  1  0.22597709  0.08231146  0.88733675  1
  O  O174  1  0.89787323  0.27407510  0.43409018  1
  O  O175  1  0.04516445  0.95672715  0.94453348  1
