# generated using pymatgen
data_Ba2YReO6
_symmetry_space_group_name_H-M   'P 1'
_cell_length_a   5.99384610
_cell_length_b   6.00371901
_cell_length_c   8.46817762
_cell_angle_alpha   90.05822675
_cell_angle_beta   90.00000000
_cell_angle_gamma   90.00000000
_symmetry_Int_Tables_number   1
_chemical_formula_structural   Ba2YReO6
_chemical_formula_sum   'Ba4 Y2 Re2 O12'
_cell_volume   304.73032888
_cell_formula_units_Z   2
loop_
 _symmetry_equiv_pos_site_id
 _symmetry_equiv_pos_as_xyz
  1  'x, y, z'
loop_
 _atom_site_type_symbol
 _atom_site_label
 _atom_site_symmetry_multiplicity
 _atom_site_fract_x
 _atom_site_fract_y
 _atom_site_fract_z
 _atom_site_occupancy
  Ba  Ba0  1  0.99951261  0.99909282  0.75112683  1
  Ba  Ba1  1  0.00048739  0.00090718  0.24887317  1
  Ba  Ba2  1  0.50048739  0.49909282  0.25112683  1
  Ba  Ba3  1  0.49951261  0.50090718  0.74887317  1
  Y  Y4  1  0.00000000  0.50000000  0.00000000  1
  Y  Y5  1  0.50000000  0.00000000  0.50000000  1
  Re  Re6  1  0.50000000  0.00000000  0.00000000  1
  Re  Re7  1  0.00000000  0.50000000  0.50000000  1
  O  O8  1  0.00211921  0.49487752  0.26556560  1
  O  O9  1  0.26498075  0.76543913  0.00281253  1
  O  O10  1  0.99788079  0.50512248  0.73443440  1
  O  O11  1  0.50211921  0.00512248  0.23443440  1
  O  O12  1  0.49788079  0.99487752  0.76556560  1
  O  O13  1  0.76498075  0.73456087  0.49718747  1
  O  O14  1  0.26479278  0.23439559  0.99833155  1
  O  O15  1  0.23501925  0.26543913  0.50281253  1
  O  O16  1  0.73501925  0.23456087  0.99718747  1
  O  O17  1  0.73520722  0.76560441  0.00166845  1
  O  O18  1  0.23520722  0.73439559  0.49833155  1
  O  O19  1  0.76479278  0.26560441  0.50166845  1
