# generated using pymatgen
data_Cs2Th(PS3)3
_symmetry_space_group_name_H-M   'P 1'
_cell_length_a   12.55553808
_cell_length_b   12.61756531
_cell_length_c   12.77593892
_cell_angle_alpha   114.28809702
_cell_angle_beta   102.55124735
_cell_angle_gamma   99.32914381
_symmetry_Int_Tables_number   1
_chemical_formula_structural   Cs2Th(PS3)3
_chemical_formula_sum   'Cs8 Th4 P12 S36'
_cell_volume   1727.29850539
_cell_formula_units_Z   4
loop_
 _symmetry_equiv_pos_site_id
 _symmetry_equiv_pos_as_xyz
  1  'x, y, z'
loop_
 _atom_site_type_symbol
 _atom_site_label
 _atom_site_symmetry_multiplicity
 _atom_site_fract_x
 _atom_site_fract_y
 _atom_site_fract_z
 _atom_site_occupancy
  Cs  Cs0  1  0.16962563  0.22808532  0.55401143  1
  Cs  Cs1  1  0.89948250  0.43180136  0.73939193  1
  Cs  Cs2  1  0.87592850  0.14564525  0.10292643  1
  Cs  Cs3  1  0.64865590  0.07409157  0.72717594  1
  Cs  Cs4  1  0.83037437  0.77191468  0.44598857  1
  Cs  Cs5  1  0.10051750  0.56819864  0.26060807  1
  Cs  Cs6  1  0.35134410  0.92590843  0.27282406  1
  Cs  Cs7  1  0.12407150  0.85435475  0.89707357  1
  Th  Th8  1  0.39035426  0.71462353  0.68001820  1
  Th  Th9  1  0.60964574  0.28537647  0.31998180  1
  Th  Th10  1  0.64637967  0.67895312  0.99497746  1
  Th  Th11  1  0.35362033  0.32104688  0.00502254  1
  P  P12  1  0.22647822  0.86999034  0.55743182  1
  P  P13  1  0.35634044  0.36464931  0.35742525  1
  P  P14  1  0.64365956  0.63535069  0.64257475  1
  P  P15  1  0.78214145  0.45368775  0.01286383  1
  P  P16  1  0.77352178  0.13000966  0.44256818  1
  P  P17  1  0.21785855  0.54631225  0.98713617  1
  P  P18  1  0.68054453  0.41665828  0.12698548  1
  P  P19  1  0.31945547  0.58334172  0.87301452  1
  P  P20  1  0.69866242  0.96885996  0.25262627  1
  P  P21  1  0.76294343  0.79789659  0.81201346  1
  P  P22  1  0.30133758  0.03114004  0.74737373  1
  P  P23  1  0.23705657  0.20210341  0.18798654  1
  S  S24  1  0.88608374  0.35018353  0.97987484  1
  S  S25  1  0.55306960  0.71038321  0.55430577  1
  S  S26  1  0.53712005  0.56158453  0.71337872  1
  S  S27  1  0.39884471  0.18189499  0.75801092  1
  S  S28  1  0.39682436  0.95557926  0.83549524  1
  S  S29  1  0.66394283  0.43274481  0.86426443  1
  S  S30  1  0.78976340  0.44393870  0.28479869  1
  S  S31  1  0.42121317  0.47149814  0.86622668  1
  S  S32  1  0.15698611  0.73343804  0.59196063  1
  S  S33  1  0.35726045  0.13763132  0.11227312  1
  S  S34  1  0.84301389  0.26656196  0.40803937  1
  S  S35  1  0.64273955  0.86236868  0.88772688  1
  S  S36  1  0.60115529  0.81810501  0.24198908  1
  S  S37  1  0.84931157  0.63678004  0.12123600  1
  S  S38  1  0.11391626  0.64981647  0.02012516  1
  S  S39  1  0.33605717  0.56725519  0.13573557  1
  S  S40  1  0.15947397  0.27423130  0.08693335  1
  S  S41  1  0.87579286  0.09950196  0.56174616  1
  S  S42  1  0.17847406  0.08489137  0.81795526  1
  S  S43  1  0.13726078  0.08844945  0.22108012  1
  S  S44  1  0.12420714  0.90049804  0.43825384  1
  S  S45  1  0.86273922  0.91155055  0.77891988  1
  S  S46  1  0.46287995  0.43841547  0.28662128  1
  S  S47  1  0.82152594  0.91510863  0.18204474  1
  S  S48  1  0.62954470  0.16997824  0.47937584  1
  S  S49  1  0.44693040  0.28961679  0.44569423  1
  S  S50  1  0.57201560  0.24631259  0.05554543  1
  S  S51  1  0.15068843  0.36321996  0.87876400  1
  S  S52  1  0.84052603  0.72576870  0.91306665  1
  S  S53  1  0.73159106  0.53008263  0.55236437  1
  S  S54  1  0.21023660  0.55606130  0.71520131  1
  S  S55  1  0.42798440  0.75368741  0.94445457  1
  S  S56  1  0.60317564  0.04442074  0.16450476  1
  S  S57  1  0.37045530  0.83002176  0.52062416  1
  S  S58  1  0.26840894  0.46991737  0.44763563  1
  S  S59  1  0.57878683  0.52850186  0.13377332  1
