# generated using pymatgen
data_Te4Mo3W(SeS)2
_symmetry_space_group_name_H-M   'P 1'
_cell_length_a   3.39983102
_cell_length_b   3.39980646
_cell_length_c   38.76360619
_cell_angle_alpha   89.99954935
_cell_angle_beta   90.00000000
_cell_angle_gamma   120.00023899
_symmetry_Int_Tables_number   1
_chemical_formula_structural   Te4Mo3W(SeS)2
_chemical_formula_sum   'Te4 Mo3 W1 Se2 S2'
_cell_volume   388.02998340
_cell_formula_units_Z   1
loop_
 _symmetry_equiv_pos_site_id
 _symmetry_equiv_pos_as_xyz
  1  'x, y, z'
loop_
 _atom_site_type_symbol
 _atom_site_label
 _atom_site_symmetry_multiplicity
 _atom_site_fract_x
 _atom_site_fract_y
 _atom_site_fract_z
 _atom_site_occupancy
  Te  Te0  1  0.33335581  0.66671262  0.70589639  1
  Te  Te1  1  0.66665291  0.33330481  0.42099896  1
  Te  Te2  1  0.66663627  0.33327153  0.51811355  1
  Te  Te3  1  0.33335292  0.66670685  0.60932396  1
  Mo  Mo4  1  0.33330547  0.66661093  0.09393665  1
  Mo  Mo5  1  0.66669621  0.33339242  0.28182231  1
  Mo  Mo6  1  0.66668867  0.33337734  0.65764972  1
  W  W7  1  0.33331508  0.66663016  0.46956964  1
  Se  Se8  1  0.66663455  0.33326810  0.05134827  1
  Se  Se9  1  0.66664652  0.33329203  0.13650192  1
  S  S10  1  0.33335698  0.66671496  0.32053708  1
  S  S11  1  0.33335863  0.66671826  0.24304956  1
