# generated using pymatgen
data_La4B14O27
_symmetry_space_group_name_H-M   'P 1'
_cell_length_a   6.48210501
_cell_length_b   6.51472170
_cell_length_c   25.43773412
_cell_angle_alpha   84.23344087
_cell_angle_beta   82.67998164
_cell_angle_gamma   60.16548593
_symmetry_Int_Tables_number   1
_chemical_formula_structural   La4B14O27
_chemical_formula_sum   'La8 B28 O54'
_cell_volume   923.38941434
_cell_formula_units_Z   2
loop_
 _symmetry_equiv_pos_site_id
 _symmetry_equiv_pos_as_xyz
  1  'x, y, z'
loop_
 _atom_site_type_symbol
 _atom_site_label
 _atom_site_symmetry_multiplicity
 _atom_site_fract_x
 _atom_site_fract_y
 _atom_site_fract_z
 _atom_site_occupancy
  La  La0  1  0.85015309  0.74698665  0.05560692  1
  La  La1  1  0.08585566  0.34309413  0.31544722  1
  La  La2  1  0.34725334  0.24698665  0.55560692  1
  La  La3  1  0.91414434  0.65690587  0.68455278  1
  La  La4  1  0.25560299  0.84309413  0.81544722  1
  La  La5  1  0.14984691  0.25301335  0.94439308  1
  La  La6  1  0.74439701  0.15690587  0.18455278  1
  La  La7  1  0.65274666  0.75301335  0.44439308  1
  B  B8  1  0.17558466  0.38659771  0.79452317  1
  B  B9  1  0.36604952  0.73422020  0.05476931  1
  B  B10  1  0.97357369  0.79050103  0.54633496  1
  B  B11  1  0.83346077  0.34792207  0.85042440  1
  B  B12  1  0.63395048  0.26577980  0.94523069  1
  B  B13  1  0.45169941  0.33546068  0.42154230  1
  B  B14  1  0.64329446  0.88659771  0.29452317  1
  B  B15  1  0.20539348  0.26147999  0.17550898  1
  B  B16  1  0.31040968  0.70949897  0.95366504  1
  B  B17  1  0.40564657  0.67777576  0.31293243  1
  B  B18  1  0.82441534  0.61340229  0.20547683  1
  B  B19  1  0.59435343  0.32222424  0.68706757  1
  B  B20  1  0.03180724  0.15207793  0.64957560  1
  B  B21  1  0.02642631  0.20949897  0.45366504  1
  B  B22  1  0.60364524  0.17777576  0.81293243  1
  B  B23  1  0.16653923  0.65207793  0.14957560  1
  B  B24  1  0.35761755  0.76147999  0.67550898  1
  B  B25  1  0.35670554  0.11340229  0.70547683  1
  B  B26  1  0.84496096  0.23422020  0.55476931  1
  B  B27  1  0.54830059  0.66453932  0.57845770  1
  B  B28  1  0.20870239  0.16453932  0.07845770  1
  B  B29  1  0.39635476  0.82222424  0.18706757  1
  B  B30  1  0.68959032  0.29050103  0.04633496  1
  B  B31  1  0.15503904  0.76577980  0.44523069  1
  B  B32  1  0.79460652  0.73852001  0.82449102  1
  B  B33  1  0.79129761  0.83546068  0.92154230  1
  B  B34  1  0.96819276  0.84792207  0.35042440  1
  B  B35  1  0.64238245  0.23852001  0.32449102  1
  O  O36  1  0.60302103  0.07160907  0.92616771  1
  O  O37  1  0.38004997  0.52894775  0.69123035  1
  O  O38  1  0.51380436  0.75728777  0.62755862  1
  O  O39  1  0.79841535  0.75000000  0.25000000  1
  O  O40  1  0.02011468  0.18199140  0.59162109  1
  O  O41  1  0.19149856  0.96717274  0.45110568  1
  O  O42  1  0.81134255  0.17278667  0.82135689  1
  O  O43  1  0.42863645  0.85527701  0.71698384  1
  O  O44  1  0.60545618  0.61101608  0.19319735  1
  O  O45  1  0.79372717  0.31800860  0.90837891  1
  O  O46  1  0.89865074  0.74271223  0.87244138  1
  O  O47  1  0.39454382  0.38898392  0.80680265  1
  O  O48  1  0.03264974  0.64386924  0.59029554  1
  O  O49  1  0.39920219  0.57160907  0.42616771  1
  O  O50  1  0.20627283  0.68199140  0.09162109  1
  O  O51  1  0.20158465  0.25000000  0.75000000  1
  O  O52  1  0.80850144  0.03282726  0.54889432  1
  O  O53  1  0.39977194  0.02894775  0.19123035  1
  O  O54  1  0.92389395  0.31559773  0.50256030  1
  O  O55  1  0.10113178  0.91212743  0.66972440  1
  O  O56  1  0.21675534  0.21637516  0.65820217  1
  O  O57  1  0.57136355  0.14472299  0.28301616  1
  O  O58  1  0.96735026  0.35613076  0.40970446  1
  O  O59  1  0.19451389  0.67278667  0.32135689  1
  O  O60  1  0.68298362  0.58787257  0.83027560  1
  O  O61  1  0.10134926  0.25728777  0.12755862  1
  O  O62  1  0.61995003  0.47105225  0.30876965  1
  O  O63  1  0.60079781  0.42839093  0.57383229  1
  O  O64  1  0.97988532  0.81800860  0.40837891  1
  O  O65  1  0.39697897  0.92839093  0.07383229  1
  O  O66  1  0.74205198  0.18440227  0.99743970  1
  O  O67  1  0.07610605  0.68440227  0.49743970  1
  O  O68  1  0.25794802  0.81559773  0.00256030  1
  O  O69  1  0.31701638  0.41212743  0.16972440  1
  O  O70  1  0.99910269  0.35527701  0.21698384  1
  O  O71  1  0.18865745  0.82721333  0.17864311  1
  O  O72  1  0.39022303  0.46717274  0.95110568  1
  O  O73  1  0.40966961  0.88898392  0.30680265  1
  O  O74  1  0.80548611  0.32721333  0.67864311  1
  O  O75  1  0.73318548  0.14386924  0.09029554  1
  O  O76  1  0.60977697  0.53282726  0.04889432  1
  O  O77  1  0.78324466  0.78362484  0.34179783  1
  O  O78  1  0.48619564  0.24271223  0.37244138  1
  O  O79  1  0.00089731  0.64472299  0.78301616  1
  O  O80  1  0.12242706  0.30891314  0.03537996  1
  O  O81  1  0.53327985  0.80891314  0.53537996  1
  O  O82  1  0.26681452  0.85613076  0.90970446  1
  O  O83  1  0.59033039  0.11101608  0.69319735  1
  O  O84  1  0.46672015  0.19108686  0.46462004  1
  O  O85  1  0.89886822  0.08787257  0.33027560  1
  O  O86  1  0.90866733  0.71637516  0.15820217  1
  O  O87  1  0.09133267  0.28362484  0.84179783  1
  O  O88  1  0.60022806  0.97105225  0.80876965  1
  O  O89  1  0.87757294  0.69108686  0.96462004  1
