# generated using pymatgen
data_Th6FeBr15
_symmetry_space_group_name_H-M   'P 1'
_cell_length_a   10.07115721
_cell_length_b   10.07107605
_cell_length_c   10.07103038
_cell_angle_alpha   109.47037287
_cell_angle_beta   109.47236555
_cell_angle_gamma   109.47221634
_symmetry_Int_Tables_number   1
_chemical_formula_structural   Th6FeBr15
_chemical_formula_sum   'Th6 Fe1 Br15'
_cell_volume   786.32183685
_cell_formula_units_Z   1
loop_
 _symmetry_equiv_pos_site_id
 _symmetry_equiv_pos_as_xyz
  1  'x, y, z'
loop_
 _atom_site_type_symbol
 _atom_site_label
 _atom_site_symmetry_multiplicity
 _atom_site_fract_x
 _atom_site_fract_y
 _atom_site_fract_z
 _atom_site_occupancy
  Th  Th0  1  0.00000979  0.23811036  0.23810883  1
  Th  Th1  1  0.76189554  0.76189055  -0.00000205  1
  Th  Th2  1  0.99999664  0.76189940  0.76188715  1
  Th  Th3  1  0.23810175  -0.00000189  0.23810083  1
  Th  Th4  1  0.76189985  0.00000084  0.76189767  1
  Th  Th5  1  0.23810332  0.23810673  0.00000680  1
  Fe  Fe6  1  0.00000208  0.00000506  0.00000364  1
  Br  Br7  1  0.25239777  0.50479464  0.25239999  1
  Br  Br8  1  0.74760327  0.25239283  -0.00000052  1
  Br  Br9  1  0.25239802  0.00000233  0.74760709  1
  Br  Br10  1  0.74760419  0.49520747  0.74760442  1
  Br  Br11  1  0.50479016  0.25239302  0.25239485  1
  Br  Br12  1  0.00000058  0.74760283  0.25239406  1
  Br  Br13  1  0.25239547  0.74760493  0.00000002  1
  Br  Br14  1  0.49999773  0.49999925  -0.00000160  1
  Br  Br15  1  0.25239615  0.25239291  0.50478861  1
  Br  Br16  1  -0.00000154  0.25239268  0.74760351  1
  Br  Br17  1  0.74760026  0.74760367  0.49520772  1
  Br  Br18  1  0.74760319  0.00000018  0.25239356  1
  Br  Br19  1  0.49520680  0.74760356  0.74760467  1
  Br  Br20  1  0.49999818  0.00000026  0.49999887  1
  Br  Br21  1  0.00000078  0.49999839  0.50000186  1
