# generated using pymatgen
data_Te4Mo3W(SeS)2
_symmetry_space_group_name_H-M   'P 1'
_cell_length_a   3.40068394
_cell_length_b   3.40067968
_cell_length_c   38.83999112
_cell_angle_alpha   90.00059135
_cell_angle_beta   90.00000000
_cell_angle_gamma   120.00004147
_symmetry_Int_Tables_number   1
_chemical_formula_structural   Te4Mo3W(SeS)2
_chemical_formula_sum   'Te4 Mo3 W1 Se2 S2'
_cell_volume   388.99280512
_cell_formula_units_Z   1
loop_
 _symmetry_equiv_pos_site_id
 _symmetry_equiv_pos_as_xyz
  1  'x, y, z'
loop_
 _atom_site_type_symbol
 _atom_site_label
 _atom_site_symmetry_multiplicity
 _atom_site_fract_x
 _atom_site_fract_y
 _atom_site_fract_z
 _atom_site_occupancy
  Te  Te0  1  0.33336738  0.66673576  0.33015236  1
  Te  Te1  1  0.66665012  0.33329924  0.42152433  1
  Te  Te2  1  0.66664600  0.33329099  0.51798560  1
  Te  Te3  1  0.33335157  0.66670413  0.23316635  1
  Mo  Mo4  1  0.33330880  0.66661760  0.09393573  1
  Mo  Mo5  1  0.33331268  0.66662536  0.46976723  1
  Mo  Mo6  1  0.66668187  0.33336373  0.65756905  1
  W  W7  1  0.66668980  0.33337960  0.28163012  1
  Se  Se8  1  0.33335244  0.66670589  0.70001245  1
  Se  Se9  1  0.33334941  0.66669982  0.61509243  1
  S  S10  1  0.66664364  0.33328628  0.05528742  1
  S  S11  1  0.66664629  0.33329159  0.13262494  1
