# generated using pymatgen
data_KNaMn(Si2O5)2
_symmetry_space_group_name_H-M   'P 1'
_cell_length_a   7.06690172
_cell_length_b   8.31912181
_cell_length_c   10.11105400
_cell_angle_alpha   105.75106205
_cell_angle_beta   99.60749335
_cell_angle_gamma   114.36577304
_symmetry_Int_Tables_number   1
_chemical_formula_structural   KNaMn(Si2O5)2
_chemical_formula_sum   'K2 Na2 Mn2 Si8 O20'
_cell_volume   494.08324494
_cell_formula_units_Z   2
loop_
 _symmetry_equiv_pos_site_id
 _symmetry_equiv_pos_as_xyz
  1  'x, y, z'
loop_
 _atom_site_type_symbol
 _atom_site_label
 _atom_site_symmetry_multiplicity
 _atom_site_fract_x
 _atom_site_fract_y
 _atom_site_fract_z
 _atom_site_occupancy
  K  K0  1  0.15767860  0.79919806  0.98965081  1
  K  K1  1  0.84232140  0.20080194  0.01034919  1
  Na  Na2  1  0.83608670  0.86244511  0.58933505  1
  Na  Na3  1  0.16391330  0.13755489  0.41066495  1
  Mn  Mn4  1  0.65811551  0.10643801  0.40710694  1
  Mn  Mn5  1  0.34188449  0.89356199  0.59289306  1
  Si  Si6  1  0.29285455  0.17651311  0.86818899  1
  Si  Si7  1  0.46389291  0.30013658  0.21138432  1
  Si  Si8  1  0.06296653  0.36389556  0.73037269  1
  Si  Si9  1  0.93703347  0.63610444  0.26962731  1
  Si  Si10  1  0.53610709  0.69986342  0.78861568  1
  Si  Si11  1  0.70714545  0.82348689  0.13181101  1
  Si  Si12  1  0.37110493  0.63835167  0.26856769  1
  Si  Si13  1  0.62889507  0.36164833  0.73143231  1
  O  O14  1  0.11010378  0.57621197  0.20690640  1
  O  O15  1  0.87678784  0.73829293  0.16187602  1
  O  O16  1  0.53545119  0.32450164  0.86588896  1
  O  O17  1  0.62478542  0.55245929  0.71576742  1
  O  O18  1  0.57756833  0.85668428  0.71860691  1
  O  O19  1  0.49799554  0.17595778  0.58340717  1
  O  O20  1  0.37521458  0.44754071  0.28423258  1
  O  O21  1  0.32336157  0.18723737  0.03616374  1
  O  O22  1  0.96837109  0.22559359  0.56355487  1
  O  O23  1  0.88989622  0.42378803  0.79309360  1
  O  O24  1  0.72294044  0.42688317  0.22755743  1
  O  O25  1  0.12321216  0.26170707  0.83812398  1
  O  O26  1  0.67663843  0.81276263  0.96383626  1
  O  O27  1  0.50200446  0.82404222  0.41659283  1
  O  O28  1  0.80329013  0.03800094  0.24169001  1
  O  O29  1  0.19670987  0.96199906  0.75830999  1
  O  O30  1  0.46454881  0.67549836  0.13411104  1
  O  O31  1  0.03162891  0.77440641  0.43644513  1
  O  O32  1  0.27705956  0.57311683  0.77244257  1
  O  O33  1  0.42243167  0.14331572  0.28139309  1
