# generated using pymatgen
data_PNCl2
_symmetry_space_group_name_H-M   'P 1'
_cell_length_a   6.40334375
_cell_length_b   15.81695402
_cell_length_c   19.91841815
_cell_angle_alpha   90.00000000
_cell_angle_beta   90.00000000
_cell_angle_gamma   90.00000000
_symmetry_Int_Tables_number   1
_chemical_formula_structural   PNCl2
_chemical_formula_sum   'P20 N20 Cl40'
_cell_volume   2017.36514989
_cell_formula_units_Z   20
loop_
 _symmetry_equiv_pos_site_id
 _symmetry_equiv_pos_as_xyz
  1  'x, y, z'
loop_
 _atom_site_type_symbol
 _atom_site_label
 _atom_site_symmetry_multiplicity
 _atom_site_fract_x
 _atom_site_fract_y
 _atom_site_fract_z
 _atom_site_occupancy
  P  P0  1  0.66430128  0.14070656  0.16399782  1
  P  P1  1  0.49114610  0.12090513  0.63657129  1
  P  P2  1  0.15117682  0.41191297  0.50340819  1
  P  P3  1  0.64947490  0.99494169  0.74148041  1
  P  P4  1  0.99114610  0.37909487  0.36342871  1
  P  P5  1  0.33569872  0.64070656  0.33600218  1
  P  P6  1  0.14947490  0.50505831  0.25851959  1
  P  P7  1  0.16615430  0.41717277  0.98249442  1
  P  P8  1  0.83384570  0.91717277  0.51750558  1
  P  P9  1  0.65117682  0.08808703  0.49659181  1
  P  P10  1  0.85052510  0.00505831  0.24148041  1
  P  P11  1  0.35052510  0.49494169  0.75851959  1
  P  P12  1  0.34882318  0.58808703  0.00340819  1
  P  P13  1  0.83569872  0.85929344  0.66399782  1
  P  P14  1  0.00885390  0.87909487  0.13657129  1
  P  P15  1  0.50885390  0.62090513  0.86342871  1
  P  P16  1  0.16430128  0.35929344  0.83600218  1
  P  P17  1  0.66615430  0.08282723  0.01750558  1
  P  P18  1  0.84882318  0.91191297  0.99659181  1
  P  P19  1  0.33384570  0.58282723  0.48249442  1
  N  N20  1  0.18873186  0.40532455  0.90510202  1
  N  N21  1  0.51854209  0.11600489  0.55876478  1
  N  N22  1  0.24524821  0.59558991  0.27149012  1
  N  N23  1  0.75475179  0.09558991  0.22850988  1
  N  N24  1  0.98145791  0.88399511  0.05876478  1
  N  N25  1  0.74524821  0.90441009  0.72850988  1
  N  N26  1  0.78792935  0.00690271  0.98514334  1
  N  N27  1  0.25475179  0.40441009  0.77149012  1
  N  N28  1  0.21207065  0.50690271  0.51485666  1
  N  N29  1  0.28792935  0.49309729  0.01485666  1
  N  N30  1  0.92975743  0.95675343  0.17809679  1
  N  N31  1  0.57024257  0.04324657  0.67809679  1
  N  N32  1  0.01854209  0.38399511  0.44123522  1
  N  N33  1  0.42975743  0.54324657  0.82190321  1
  N  N34  1  0.71207065  0.99309729  0.48514334  1
  N  N35  1  0.48145791  0.61600489  0.94123522  1
  N  N36  1  0.31126814  0.59467545  0.40510202  1
  N  N37  1  0.81126814  0.90532455  0.59489798  1
  N  N38  1  0.68873186  0.09467545  0.09489798  1
  N  N39  1  0.07024257  0.45675343  0.32190321  1
  Cl  Cl40  1  0.70877236  0.74193155  0.65986119  1
  Cl  Cl41  1  0.64198312  0.66631649  0.31958367  1
  Cl  Cl42  1  0.26328961  0.31325526  0.03258576  1
  Cl  Cl43  1  0.11945203  0.27016326  0.32878517  1
  Cl  Cl44  1  0.35843972  0.07549865  0.99290483  1
  Cl  Cl45  1  0.51676686  0.62116958  0.08472901  1
  Cl  Cl46  1  0.64489654  0.93399583  0.29487567  1
  Cl  Cl47  1  0.18325875  0.13885550  0.65277217  1
  Cl  Cl48  1  0.20877236  0.75806845  0.34013881  1
  Cl  Cl49  1  0.85843972  0.42450135  0.00709517  1
  Cl  Cl50  1  0.14489654  0.56600417  0.70512433  1
  Cl  Cl51  1  0.35510346  0.43399583  0.20512433  1
  Cl  Cl52  1  0.41686457  0.97840690  0.80904450  1
  Cl  Cl53  1  0.58313543  0.47840690  0.69095550  1
  Cl  Cl54  1  0.85801688  0.33368351  0.81958367  1
  Cl  Cl55  1  0.79122764  0.25806845  0.15986119  1
  Cl  Cl56  1  0.38054797  0.72983674  0.82878517  1
  Cl  Cl57  1  0.23671039  0.68674474  0.53258576  1
  Cl  Cl58  1  0.08313543  0.02159310  0.30904450  1
  Cl  Cl59  1  0.31674125  0.86114450  0.15277217  1
  Cl  Cl60  1  0.88054797  0.77016326  0.17121483  1
  Cl  Cl61  1  0.90836840  0.16230029  0.48946365  1
  Cl  Cl62  1  0.61945203  0.22983674  0.67121483  1
  Cl  Cl63  1  0.81674125  0.63885550  0.84722783  1
  Cl  Cl64  1  0.64156028  0.57549865  0.50709517  1
  Cl  Cl65  1  0.09163160  0.66230029  0.01053635  1
  Cl  Cl66  1  0.91686457  0.52159310  0.19095550  1
  Cl  Cl67  1  0.01676686  0.87883042  0.91527099  1
  Cl  Cl68  1  0.29122764  0.24193155  0.84013881  1
  Cl  Cl69  1  0.14198312  0.83368351  0.68041633  1
  Cl  Cl70  1  0.35801688  0.16631649  0.18041633  1
  Cl  Cl71  1  0.73671039  0.81325526  0.46741424  1
  Cl  Cl72  1  0.76328961  0.18674474  0.96741424  1
  Cl  Cl73  1  0.48323314  0.12116958  0.41527099  1
  Cl  Cl74  1  0.59163160  0.83769971  0.98946365  1
  Cl  Cl75  1  0.85510346  0.06600417  0.79487567  1
  Cl  Cl76  1  0.14156028  0.92450135  0.49290483  1
  Cl  Cl77  1  0.98323314  0.37883042  0.58472901  1
  Cl  Cl78  1  0.68325875  0.36114450  0.34722783  1
  Cl  Cl79  1  0.40836840  0.33769971  0.51053635  1
