# generated using pymatgen
data_Sr2B8Ru7
_symmetry_space_group_name_H-M   'P 1'
_cell_length_a   6.46733680
_cell_length_b   6.46736544
_cell_length_c   10.21333462
_cell_angle_alpha   90.00036893
_cell_angle_beta   90.00014133
_cell_angle_gamma   89.99946588
_symmetry_Int_Tables_number   1
_chemical_formula_structural   Sr2B8Ru7
_chemical_formula_sum   'Sr4 B16 Ru14'
_cell_volume   427.18937340
_cell_formula_units_Z   2
loop_
 _symmetry_equiv_pos_site_id
 _symmetry_equiv_pos_as_xyz
  1  'x, y, z'
loop_
 _atom_site_type_symbol
 _atom_site_label
 _atom_site_symmetry_multiplicity
 _atom_site_fract_x
 _atom_site_fract_y
 _atom_site_fract_z
 _atom_site_occupancy
  Sr  Sr0  1  0.23182538  0.39052661  -0.00000069  1
  Sr  Sr1  1  0.60947046  0.23182560  0.50000185  1
  Sr  Sr2  1  0.39052844  0.76817804  0.50000032  1
  Sr  Sr3  1  0.76817230  0.60946402  0.99999844  1
  B  B4  1  0.99999977  0.49999891  0.58855948  1
  B  B5  1  -0.00000054  0.50000008  0.41144142  1
  B  B6  1  0.39778616  0.77593284  0.16901924  1
  B  B7  1  0.60221811  0.22406731  0.83098055  1
  B  B8  1  0.99999925  0.00000140  0.34071065  1
  B  B9  1  0.99999879  0.00000171  0.84071105  1
  B  B10  1  0.77593410  0.60221773  0.66901906  1
  B  B11  1  0.60221934  0.22406834  0.16901815  1
  B  B12  1  0.77593336  0.60221691  0.33098136  1
  B  B13  1  0.39778618  0.77593417  0.83098076  1
  B  B14  1  0.99999864  0.00000109  0.65928847  1
  B  B15  1  0.99999809  0.00000016  0.15928906  1
  B  B16  1  0.50000477  -0.00000054  0.91144084  1
  B  B17  1  0.22406823  0.39778284  0.66901789  1
  B  B18  1  0.22406925  0.39778372  0.33098180  1
  B  B19  1  0.50000701  0.00000113  0.08855820  1
  Ru  Ru20  1  0.70568108  0.89439310  0.75618162  1
  Ru  Ru21  1  0.90654142  0.78744376  0.50000145  1
  Ru  Ru22  1  0.89439462  0.29432951  0.25617637  1
  Ru  Ru23  1  0.70567860  0.89439302  0.24382198  1
  Ru  Ru24  1  0.09345757  0.21256082  0.50000028  1
  Ru  Ru25  1  0.10560617  0.70567178  0.74382336  1
  Ru  Ru26  1  0.78743451  0.09344926  0.00000335  1
  Ru  Ru27  1  0.21255481  0.90654118  0.00000043  1
  Ru  Ru28  1  0.29432059  0.10560707  0.24381922  1
  Ru  Ru29  1  0.29432080  0.10560401  0.75617628  1
  Ru  Ru30  1  0.89440026  0.29431965  0.74382059  1
  Ru  Ru31  1  0.49999521  0.50000298  0.25000034  1
  Ru  Ru32  1  0.10560010  0.70568055  0.25617540  1
  Ru  Ru33  1  0.49999719  0.50000125  0.75000143  1
