# generated using pymatgen
data_CaCo2Te3(ClO4)2
_symmetry_space_group_name_H-M   'P 1'
_cell_length_a   6.59413221
_cell_length_b   9.29151771
_cell_length_c   18.42889045
_cell_angle_alpha   90.00000000
_cell_angle_beta   93.68211648
_cell_angle_gamma   90.00000000
_symmetry_Int_Tables_number   1
_chemical_formula_structural   CaCo2Te3(ClO4)2
_chemical_formula_sum   'Ca4 Co8 Te12 Cl8 O32'
_cell_volume   1126.79798649
_cell_formula_units_Z   4
loop_
 _symmetry_equiv_pos_site_id
 _symmetry_equiv_pos_as_xyz
  1  'x, y, z'
loop_
 _atom_site_type_symbol
 _atom_site_label
 _atom_site_symmetry_multiplicity
 _atom_site_fract_x
 _atom_site_fract_y
 _atom_site_fract_z
 _atom_site_occupancy
  Ca  Ca0  1  0.75932857  0.11367253  0.26904132  1
  Ca  Ca1  1  0.25932857  0.38632747  0.76904132  1
  Ca  Ca2  1  0.24067143  0.88632747  0.73095868  1
  Ca  Ca3  1  0.74067143  0.61367253  0.23095868  1
  Co  Co4  1  0.61293384  0.24376870  0.67682143  1
  Co  Co5  1  0.38706616  0.75623130  0.32317857  1
  Co  Co6  1  0.12831193  0.45760996  0.32000034  1
  Co  Co7  1  0.37168807  0.95760996  0.17999966  1
  Co  Co8  1  0.11293384  0.25623130  0.17682143  1
  Co  Co9  1  0.87168807  0.54239004  0.67999966  1
  Co  Co10  1  0.62831193  0.04239004  0.82000034  1
  Co  Co11  1  0.88706616  0.74376870  0.82317857  1
  Te  Te12  1  0.56611454  0.29630724  0.10861375  1
  Te  Te13  1  0.11127979  0.08089726  0.88829599  1
  Te  Te14  1  0.76944701  0.39205010  0.86108280  1
  Te  Te15  1  0.26944701  0.10794990  0.36108280  1
  Te  Te16  1  0.61127979  0.41910274  0.38829599  1
  Te  Te17  1  0.23055299  0.60794990  0.13891720  1
  Te  Te18  1  0.38872021  0.58089726  0.61170401  1
  Te  Te19  1  0.73055299  0.89205010  0.63891720  1
  Te  Te20  1  0.88872021  0.91910274  0.11170401  1
  Te  Te21  1  0.93388546  0.79630724  0.39138625  1
  Te  Te22  1  0.43388546  0.70369276  0.89138625  1
  Te  Te23  1  0.06611454  0.20369276  0.60861375  1
  Cl  Cl24  1  0.85804204  0.67547563  0.95393237  1
  Cl  Cl25  1  0.35804204  0.82452437  0.45393237  1
  Cl  Cl26  1  0.14195796  0.32452437  0.04606763  1
  Cl  Cl27  1  0.69399080  0.10943180  0.95053577  1
  Cl  Cl28  1  0.64195796  0.17547563  0.54606763  1
  Cl  Cl29  1  0.80600920  0.60943180  0.54946423  1
  Cl  Cl30  1  0.19399080  0.39056820  0.45053577  1
  Cl  Cl31  1  0.30600920  0.89056820  0.04946423  1
  O  O32  1  0.02058873  0.01258354  0.64599256  1
  O  O33  1  0.62030805  0.26818815  0.79362654  1
  O  O34  1  0.58934911  0.80673395  0.82489173  1
  O  O35  1  0.12030805  0.23181185  0.29362654  1
  O  O36  1  0.07442742  0.02189967  0.17565983  1
  O  O37  1  0.54659249  0.22888806  0.35074841  1
  O  O38  1  0.39156899  0.97980639  0.29539256  1
  O  O39  1  0.47941127  0.51258354  0.85400744  1
  O  O40  1  0.19539773  0.73682477  0.83048466  1
  O  O41  1  0.31984192  0.05710383  0.82290745  1
  O  O42  1  0.95340751  0.72888806  0.14925159  1
  O  O43  1  0.60843101  0.02019361  0.70460744  1
  O  O44  1  0.87969195  0.76818815  0.70637346  1
  O  O45  1  0.41065089  0.19326605  0.17510827  1
  O  O46  1  0.04659249  0.27111194  0.85074841  1
  O  O47  1  0.08934911  0.69326605  0.32489173  1
  O  O48  1  0.92557258  0.97810033  0.82434017  1
  O  O49  1  0.30460227  0.23682477  0.66951534  1
  O  O50  1  0.42557258  0.52189967  0.32434017  1
  O  O51  1  0.81984192  0.44289617  0.32290745  1
  O  O52  1  0.91065089  0.30673395  0.67510827  1
  O  O53  1  0.18015808  0.55710383  0.67709255  1
  O  O54  1  0.37969195  0.73181185  0.20637346  1
  O  O55  1  0.80460227  0.26317523  0.16951534  1
  O  O56  1  0.10843101  0.47980639  0.20460744  1
  O  O57  1  0.45340751  0.77111194  0.64925159  1
  O  O58  1  0.97941127  0.98741646  0.35400744  1
  O  O59  1  0.68015808  0.94289617  0.17709255  1
  O  O60  1  0.57442742  0.47810033  0.67565983  1
  O  O61  1  0.89156899  0.52019361  0.79539256  1
  O  O62  1  0.52058873  0.48741646  0.14599256  1
  O  O63  1  0.69539773  0.76317523  0.33048466  1
