# generated using pymatgen
data_Cs3Mn3V4O16
_symmetry_space_group_name_H-M   'P 1'
_cell_length_a   5.28381538
_cell_length_b   7.62534985
_cell_length_c   11.63993948
_cell_angle_alpha   77.78581026
_cell_angle_beta   89.76748258
_cell_angle_gamma   82.54831604
_symmetry_Int_Tables_number   1
_chemical_formula_structural   Cs3Mn3V4O16
_chemical_formula_sum   'Cs3 Mn3 V4 O16'
_cell_volume   454.36457245
_cell_formula_units_Z   1
loop_
 _symmetry_equiv_pos_site_id
 _symmetry_equiv_pos_as_xyz
  1  'x, y, z'
loop_
 _atom_site_type_symbol
 _atom_site_label
 _atom_site_symmetry_multiplicity
 _atom_site_fract_x
 _atom_site_fract_y
 _atom_site_fract_z
 _atom_site_occupancy
  Cs  Cs0  1  0.11411125  0.25974552  0.48540369  1
  Cs  Cs1  1  0.00000000  0.00000000  0.00000000  1
  Cs  Cs2  1  0.88588875  0.74025448  0.51459631  1
  Mn  Mn3  1  0.99153942  0.55993104  0.86750249  1
  Mn  Mn4  1  0.00846058  0.44006896  0.13249751  1
  Mn  Mn5  1  0.50000000  0.50000000  0.00000000  1
  V  V6  1  0.52624975  0.67268855  0.23812354  1
  V  V7  1  0.47296837  0.86615296  0.76678896  1
  V  V8  1  0.47375025  0.32731145  0.76187646  1
  V  V9  1  0.52703163  0.13384704  0.23321104  1
  O  O10  1  0.34016286  0.60380727  0.13178309  1
  O  O11  1  0.21001663  0.23532569  0.23543781  1
  O  O12  1  0.65983714  0.39619273  0.86821691  1
  O  O13  1  0.61425445  0.36024653  0.63278764  1
  O  O14  1  0.69438586  0.27304887  0.12940687  1
  O  O15  1  0.38574555  0.63975347  0.36721236  1
  O  O16  1  0.16935639  0.45214611  0.74355140  1
  O  O17  1  0.65361458  0.10504987  0.36807923  1
  O  O18  1  0.30561414  0.72695113  0.87059313  1
  O  O19  1  0.54579197  0.91527564  0.18833749  1
  O  O20  1  0.80484531  0.61322136  0.00774669  1
  O  O21  1  0.34638542  0.89495013  0.63192077  1
  O  O22  1  0.78998337  0.76467431  0.76456219  1
  O  O23  1  0.45420803  0.08472436  0.81166251  1
  O  O24  1  0.19515469  0.38677864  0.99225331  1
  O  O25  1  0.83064361  0.54785389  0.25644860  1
