# generated using pymatgen
data_Nb4Te17I4
_symmetry_space_group_name_H-M   'P 1'
_cell_length_a   8.56816438
_cell_length_b   9.38845424
_cell_length_c   26.60456452
_cell_angle_alpha   83.06541277
_cell_angle_beta   80.73342746
_cell_angle_gamma   62.85049228
_symmetry_Int_Tables_number   1
_chemical_formula_structural   Nb4Te17I4
_chemical_formula_sum   'Nb8 Te34 I8'
_cell_volume   1876.74401013
_cell_formula_units_Z   2
loop_
 _symmetry_equiv_pos_site_id
 _symmetry_equiv_pos_as_xyz
  1  'x, y, z'
loop_
 _atom_site_type_symbol
 _atom_site_label
 _atom_site_symmetry_multiplicity
 _atom_site_fract_x
 _atom_site_fract_y
 _atom_site_fract_z
 _atom_site_occupancy
  Nb  Nb0  1  0.09363628  0.43875293  0.44249901  1
  Nb  Nb1  1  0.90636372  0.56124707  0.55750099  1
  Nb  Nb2  1  0.61966722  0.82636734  0.82826496  1
  Nb  Nb3  1  0.52511178  0.93875293  0.94249901  1
  Nb  Nb4  1  0.77429952  0.67363266  0.67173504  1
  Nb  Nb5  1  0.47488822  0.06124707  0.05750099  1
  Nb  Nb6  1  0.22570048  0.32636734  0.32826496  1
  Nb  Nb7  1  0.38033278  0.17363266  0.17173504  1
  Te  Te8  1  0.41988885  0.71610256  0.90746941  1
  Te  Te9  1  0.07490624  0.23423464  0.52974431  1
  Te  Te10  1  0.09580495  0.40351200  0.64575138  1
  Te  Te11  1  0.33888519  0.26576536  0.97025569  1
  Te  Te12  1  0.58011115  0.28389744  0.09253059  1
  Te  Te13  1  0.66662931  0.46916105  0.63245586  1
  Te  Te14  1  0.61291043  0.96750215  0.72466962  1
  Te  Te15  1  0.79428603  0.95479094  0.98998675  1
  Te  Te16  1  0.96059198  0.83216184  0.82141835  1
  Te  Te17  1  0.54466578  0.25000000  0.25000000  1
  Te  Te18  1  0.76093627  0.45479094  0.48998675  1
  Te  Te19  1  0.90488490  0.84297139  0.59963757  1
  Te  Te20  1  0.33337069  0.53083895  0.36754414  1
  Te  Te21  1  0.45653918  0.21610256  0.40746941  1
  Te  Te22  1  0.23906373  0.54520906  0.51001325  1
  Te  Te23  1  0.03940802  0.16783816  0.17858165  1
  Te  Te24  1  0.11417218  0.66783816  0.67858165  1
  Te  Te25  1  0.19491780  0.46750215  0.22466962  1
  Te  Te26  1  0.45533422  0.75000000  0.75000000  1
  Te  Te27  1  0.80508220  0.53249785  0.77533038  1
  Te  Te28  1  0.26824622  0.03083895  0.86754414  1
  Te  Te29  1  0.88582782  0.33216184  0.32141835  1
  Te  Te30  1  0.20571397  0.04520906  0.01001325  1
  Te  Te31  1  0.38708957  0.03249785  0.27533038  1
  Te  Te32  1  0.92509376  0.76576536  0.47025569  1
  Te  Te33  1  0.66111481  0.73423464  0.02974431  1
  Te  Te34  1  0.64506833  0.09648800  0.85424862  1
  Te  Te35  1  0.84749386  0.65702861  0.90036243  1
  Te  Te36  1  0.35493167  0.90351200  0.14575138  1
  Te  Te37  1  0.73175378  0.96916105  0.13245586  1
  Te  Te38  1  0.09511510  0.15702861  0.40036243  1
  Te  Te39  1  0.54346082  0.78389744  0.59253059  1
  Te  Te40  1  0.15250614  0.34297139  0.09963757  1
  Te  Te41  1  0.90419505  0.59648800  0.35424862  1
  I  I42  1  0.52752728  0.15445267  0.55565396  1
  I  I43  1  0.90475364  0.08908351  0.70517150  1
  I  I44  1  0.19900865  0.41091649  0.79482850  1
  I  I45  1  0.73763391  0.34554733  0.94434604  1
  I  I46  1  0.26236609  0.65445267  0.05565396  1
  I  I47  1  0.09524636  0.91091649  0.29482850  1
  I  I48  1  0.80099135  0.58908351  0.20517150  1
  I  I49  1  0.47247272  0.84554733  0.44434604  1
