# generated using pymatgen
data_FeSCl7
_symmetry_space_group_name_H-M   'P 1'
_cell_length_a   6.52797152
_cell_length_b   12.55943705
_cell_length_c   13.63464905
_cell_angle_alpha   90.00000000
_cell_angle_beta   101.76217513
_cell_angle_gamma   90.00000000
_symmetry_Int_Tables_number   1
_chemical_formula_structural   FeSCl7
_chemical_formula_sum   'Fe4 S4 Cl28'
_cell_volume   1094.39990346
_cell_formula_units_Z   4
loop_
 _symmetry_equiv_pos_site_id
 _symmetry_equiv_pos_as_xyz
  1  'x, y, z'
loop_
 _atom_site_type_symbol
 _atom_site_label
 _atom_site_symmetry_multiplicity
 _atom_site_fract_x
 _atom_site_fract_y
 _atom_site_fract_z
 _atom_site_occupancy
  Fe  Fe0  1  0.38944491  0.48215997  0.76767461  1
  Fe  Fe1  1  0.61055509  0.98215997  0.73232539  1
  Fe  Fe2  1  0.61055509  0.51784003  0.23232539  1
  Fe  Fe3  1  0.38944491  0.01784003  0.26767461  1
  S  S4  1  0.02858020  0.74680341  0.08200429  1
  S  S5  1  0.97141980  0.24680341  0.41799571  1
  S  S6  1  0.97141980  0.25319659  0.91799571  1
  S  S7  1  0.02858020  0.75319659  0.58200429  1
  Cl  Cl8  1  0.85253044  0.65093133  0.97932832  1
  Cl  Cl9  1  0.18354942  0.14677273  0.88739484  1
  Cl  Cl10  1  0.60929524  0.07703682  0.40319987  1
  Cl  Cl11  1  0.60929524  0.42296318  0.90319987  1
  Cl  Cl12  1  0.81645058  0.85322727  0.11260516  1
  Cl  Cl13  1  0.50450680  0.05317560  0.12922595  1
  Cl  Cl14  1  0.49549320  0.94682440  0.87077405  1
  Cl  Cl15  1  0.49549320  0.55317560  0.37077405  1
  Cl  Cl16  1  0.92165615  0.59251043  0.24282340  1
  Cl  Cl17  1  0.39070476  0.92296318  0.59680013  1
  Cl  Cl18  1  0.18568946  0.83391370  0.99627261  1
  Cl  Cl19  1  0.35946067  0.84289704  0.27756973  1
  Cl  Cl20  1  0.18354942  0.35322727  0.38739484  1
  Cl  Cl21  1  0.35946067  0.65710296  0.77756973  1
  Cl  Cl22  1  0.39070476  0.57703682  0.09680013  1
  Cl  Cl23  1  0.07834385  0.09251043  0.25717660  1
  Cl  Cl24  1  0.85253044  0.84906867  0.47932832  1
  Cl  Cl25  1  0.92165615  0.90748957  0.74282340  1
  Cl  Cl26  1  0.50450680  0.44682440  0.62922595  1
  Cl  Cl27  1  0.81431054  0.16608630  0.00372739  1
  Cl  Cl28  1  0.64053933  0.15710296  0.72243027  1
  Cl  Cl29  1  0.18568946  0.66608630  0.49627261  1
  Cl  Cl30  1  0.81645058  0.64677273  0.61260516  1
  Cl  Cl31  1  0.81431054  0.33391370  0.50372739  1
  Cl  Cl32  1  0.64053933  0.34289704  0.22243027  1
  Cl  Cl33  1  0.14746956  0.34906867  0.02067168  1
  Cl  Cl34  1  0.14746956  0.15093133  0.52067168  1
  Cl  Cl35  1  0.07834385  0.40748957  0.75717660  1
