# generated using pymatgen
data_KICl4
_symmetry_space_group_name_H-M   'P 1'
_cell_length_a   13.12034309
_cell_length_b   13.89979894
_cell_length_c   5.09325292
_cell_angle_alpha   89.99947257
_cell_angle_beta   98.00046407
_cell_angle_gamma   90.00129153
_symmetry_Int_Tables_number   1
_chemical_formula_structural   KICl4
_chemical_formula_sum   'K4 I4 Cl16'
_cell_volume   919.81658086
_cell_formula_units_Z   4
loop_
 _symmetry_equiv_pos_site_id
 _symmetry_equiv_pos_as_xyz
  1  'x, y, z'
loop_
 _atom_site_type_symbol
 _atom_site_label
 _atom_site_symmetry_multiplicity
 _atom_site_fract_x
 _atom_site_fract_y
 _atom_site_fract_z
 _atom_site_occupancy
  K  K0  1  0.08475773  0.15715556  0.22678167  1
  K  K1  1  0.41525257  0.65714061  0.27320196  1
  K  K2  1  0.91523993  0.84284310  0.77322124  1
  K  K3  1  0.58474795  0.34285878  0.72679853  1
  I  I4  1  0.20523394  0.43504072  0.50206023  1
  I  I5  1  0.29476469  0.93503960  0.99793779  1
  I  I6  1  0.79476882  0.56496158  0.49794191  1
  I  I7  1  0.70523579  0.06495984  0.00206888  1
  Cl  Cl8  1  0.03646040  0.38361959  0.26160700  1
  Cl  Cl9  1  0.46353610  0.88362085  0.23838756  1
  Cl  Cl10  1  0.96353838  0.61638026  0.73839321  1
  Cl  Cl11  1  0.53646176  0.11637855  0.76161450  1
  Cl  Cl12  1  0.22327586  0.27235689  0.73589266  1
  Cl  Cl13  1  0.27672194  0.77235795  0.76409804  1
  Cl  Cl14  1  0.77672683  0.72764449  0.26410943  1
  Cl  Cl15  1  0.72328063  0.22764263  0.23590267  1
  Cl  Cl16  1  0.18611229  0.59221442  0.25753583  1
  Cl  Cl17  1  0.31388715  0.09221439  0.24247353  1
  Cl  Cl18  1  0.81388785  0.40778730  0.74246267  1
  Cl  Cl19  1  0.68611119  0.90778442  0.75752915  1
  Cl  Cl20  1  0.38734849  0.48981648  0.74447523  1
  Cl  Cl21  1  0.11265024  0.98981632  0.75553404  1
  Cl  Cl22  1  0.61265089  0.51018423  0.25552768  1
  Cl  Cl23  1  0.88734857  0.01018445  0.24446559  1
