# generated using pymatgen
data_K2PtS15
_symmetry_space_group_name_H-M   'P 1'
_cell_length_a   9.27987143
_cell_length_b   9.27991095
_cell_length_c   12.83858715
_cell_angle_alpha   90.55615396
_cell_angle_beta   89.44391970
_cell_angle_gamma   114.18877626
_symmetry_Int_Tables_number   1
_chemical_formula_structural   K2PtS15
_chemical_formula_sum   'K4 Pt2 S30'
_cell_volume   1008.47290894
_cell_formula_units_Z   2
loop_
 _symmetry_equiv_pos_site_id
 _symmetry_equiv_pos_as_xyz
  1  'x, y, z'
loop_
 _atom_site_type_symbol
 _atom_site_label
 _atom_site_symmetry_multiplicity
 _atom_site_fract_x
 _atom_site_fract_y
 _atom_site_fract_z
 _atom_site_occupancy
  K  K0  1  0.34940266  0.76796569  0.85789734  1
  K  K1  1  0.23203606  0.65060216  0.35790032  1
  K  K2  1  0.72196328  0.94661274  0.60490146  1
  K  K3  1  0.05338003  0.27803651  0.10490180  1
  Pt  Pt4  1  0.22272744  0.20067191  0.75093534  1
  Pt  Pt5  1  0.79932855  0.77727381  0.25093509  1
  S  S6  1  0.59222292  0.55921482  0.71987708  1
  S  S7  1  0.44078224  0.40777695  0.21987737  1
  S  S8  1  0.64124897  0.59329513  0.88011231  1
  S  S9  1  0.40670509  0.35875059  0.38011173  1
  S  S10  1  0.86579723  0.34535561  0.62354272  1
  S  S11  1  0.65464332  0.13420220  0.12354246  1
  S  S12  1  0.06123755  0.34706568  0.54012485  1
  S  S13  1  0.65293540  0.93876331  0.04012444  1
  S  S14  1  0.09600630  0.15200014  0.58042777  1
  S  S15  1  0.84799944  0.90399290  0.08042755  1
  S  S16  1  0.35334770  0.47875061  0.70609482  1
  S  S17  1  0.52125245  0.64665405  0.20609561  1
  S  S18  1  0.56693735  0.35942501  0.92615487  1
  S  S19  1  0.64057455  0.43306287  0.42615450  1
  S  S20  1  0.32696254  0.25792599  0.92726594  1
  S  S21  1  0.74207343  0.67303716  0.42726752  1
  S  S22  1  0.98619561  0.21352154  0.82552636  1
  S  S23  1  0.78647975  0.01380348  0.32552493  1
  S  S24  1  0.95787233  0.40651281  0.77327981  1
  S  S25  1  0.59348767  0.04212834  0.27327856  1
  S  S26  1  0.44390036  0.14527011  0.69240939  1
  S  S27  1  0.85473008  0.55609877  0.19241059  1
  S  S28  1  0.02832041  0.79400431  0.66480892  1
  S  S29  1  0.20599488  0.97167904  0.16480839  1
  S  S30  1  0.37530587  0.01256811  0.56056989  1
  S  S31  1  0.98743114  0.62469337  0.06057000  1
  S  S32  1  0.08894480  0.92283701  0.79849979  1
  S  S33  1  0.07716339  0.91105706  0.29850037  1
  S  S34  1  0.23622815  0.77941662  0.60857376  1
  S  S35  1  0.22058205  0.76377257  0.10857436  1
