# generated using pymatgen
data_PSeCl9
_symmetry_space_group_name_H-M   'P 1'
_cell_length_a   12.24547536
_cell_length_b   12.28979751
_cell_length_c   12.28979814
_cell_angle_alpha   60.10109369
_cell_angle_beta   60.11921693
_cell_angle_gamma   60.11922023
_symmetry_Int_Tables_number   1
_chemical_formula_structural   PSeCl9
_chemical_formula_sum   'P4 Se4 Cl36'
_cell_volume   1311.17988382
_cell_formula_units_Z   4
loop_
 _symmetry_equiv_pos_site_id
 _symmetry_equiv_pos_as_xyz
  1  'x, y, z'
loop_
 _atom_site_type_symbol
 _atom_site_label
 _atom_site_symmetry_multiplicity
 _atom_site_fract_x
 _atom_site_fract_y
 _atom_site_fract_z
 _atom_site_occupancy
  P  P0  1  0.51792689  0.76171192  0.21902106  1
  P  P1  1  0.49865997  0.23828809  0.78097887  1
  P  P2  1  0.99865997  0.28097887  0.73828809  1
  P  P3  1  0.01792689  0.71902106  0.26171192  1
  Se  Se4  1  0.54978323  0.27937290  0.22062707  1
  Se  Se5  1  0.04978323  0.72062707  0.77937290  1
  Se  Se6  1  0.97925206  0.14422792  0.35577225  1
  Se  Se7  1  0.47925206  0.85577225  0.64422792  1
  Cl  Cl8  1  0.94332919  0.93413088  0.56586914  1
  Cl  Cl9  1  0.37533723  0.35997505  0.14002477  1
  Cl  Cl10  1  0.67323264  0.59921313  0.23771274  1
  Cl  Cl11  1  0.40408688  0.42277802  0.35661882  1
  Cl  Cl12  1  0.49136502  0.66812244  0.83187756  1
  Cl  Cl13  1  0.22521988  0.81848202  0.68151779  1
  Cl  Cl14  1  0.97811697  0.56622663  0.29409750  1
  Cl  Cl15  1  0.36518128  0.73915965  0.38160522  1
  Cl  Cl16  1  0.15756025  0.12054281  0.37945701  1
  Cl  Cl17  1  0.86518128  0.88160522  0.23915965  1
  Cl  Cl18  1  0.18348339  0.57722183  0.64338133  1
  Cl  Cl19  1  0.65756025  0.87945701  0.62054281  1
  Cl  Cl20  1  0.99136502  0.33187756  0.16812244  1
  Cl  Cl21  1  0.05847753  0.68447641  0.41415572  1
  Cl  Cl22  1  0.48594583  0.26084074  0.61839458  1
  Cl  Cl23  1  0.90408688  0.85661882  0.92277802  1
  Cl  Cl24  1  0.33455816  0.98577808  0.79189538  1
  Cl  Cl25  1  0.17323264  0.73771274  0.09921313  1
  Cl  Cl26  1  0.13794341  0.56070861  0.93929133  1
  Cl  Cl27  1  0.51015832  0.40078686  0.76228735  1
  Cl  Cl28  1  0.72521988  0.18151779  0.31848202  1
  Cl  Cl29  1  0.47811697  0.79409750  0.06622663  1
  Cl  Cl30  1  0.83844107  0.43377367  0.70590242  1
  Cl  Cl31  1  0.33844107  0.20590242  0.93377367  1
  Cl  Cl32  1  0.63794341  0.43929133  0.06070861  1
  Cl  Cl33  1  0.83455816  0.29189538  0.48577808  1
  Cl  Cl34  1  0.65710943  0.08584437  0.81552355  1
  Cl  Cl35  1  0.87533723  0.64002477  0.85997505  1
  Cl  Cl36  1  0.11223136  0.01422182  0.20810470  1
  Cl  Cl37  1  0.68348339  0.14338133  0.07722183  1
  Cl  Cl38  1  0.55847753  0.91415572  0.18447641  1
  Cl  Cl39  1  0.01015832  0.26228735  0.90078686  1
  Cl  Cl40  1  0.15710943  0.31552355  0.58584437  1
  Cl  Cl41  1  0.61223136  0.70810470  0.51422182  1
  Cl  Cl42  1  0.44332919  0.06586914  0.43413088  1
  Cl  Cl43  1  0.98594583  0.11839458  0.76084074  1
