# generated using pymatgen
data_UNi7(BO4)4
_symmetry_space_group_name_H-M   'P 1'
_cell_length_a   4.54052484
_cell_length_b   5.90361991
_cell_length_c   20.42837055
_cell_angle_alpha   90.00000000
_cell_angle_beta   90.00000000
_cell_angle_gamma   90.00000000
_symmetry_Int_Tables_number   1
_chemical_formula_structural   UNi7(BO4)4
_chemical_formula_sum   'U2 Ni14 B8 O32'
_cell_volume   547.59335779
_cell_formula_units_Z   2
loop_
 _symmetry_equiv_pos_site_id
 _symmetry_equiv_pos_as_xyz
  1  'x, y, z'
loop_
 _atom_site_type_symbol
 _atom_site_label
 _atom_site_symmetry_multiplicity
 _atom_site_fract_x
 _atom_site_fract_y
 _atom_site_fract_z
 _atom_site_occupancy
  U  U0  1  0.00000000  0.00000000  0.00000000  1
  U  U1  1  0.50000000  0.50000000  0.50000000  1
  Ni  Ni2  1  0.99732184  0.74839761  0.37053758  1
  Ni  Ni3  1  0.50267816  0.24839761  0.87053758  1
  Ni  Ni4  1  0.49732184  0.75160239  0.12946242  1
  Ni  Ni5  1  0.50038530  0.00000000  0.73613461  1
  Ni  Ni6  1  0.49961470  0.00000000  0.26386539  1
  Ni  Ni7  1  0.99961470  0.50000000  0.23613461  1
  Ni  Ni8  1  0.00267816  0.25160239  0.62946242  1
  Ni  Ni9  1  0.50000000  0.50000000  0.00000000  1
  Ni  Ni10  1  0.00038530  0.50000000  0.76386539  1
  Ni  Ni11  1  0.49732184  0.24839761  0.12946242  1
  Ni  Ni12  1  0.50267816  0.75160239  0.87053758  1
  Ni  Ni13  1  0.99732184  0.25160239  0.37053758  1
  Ni  Ni14  1  0.00267816  0.74839761  0.62946242  1
  Ni  Ni15  1  0.00000000  0.00000000  0.50000000  1
  B  B16  1  0.93294103  0.50000000  0.08762634  1
  B  B17  1  0.43294103  0.00000000  0.41237366  1
  B  B18  1  0.54166653  0.50000000  0.30680085  1
  B  B19  1  0.04166653  0.00000000  0.19319915  1
  B  B20  1  0.06705897  0.50000000  0.91237366  1
  B  B21  1  0.95833347  0.00000000  0.80680085  1
  B  B22  1  0.45833347  0.50000000  0.69319915  1
  B  B23  1  0.56705897  0.00000000  0.58762634  1
  O  O24  1  0.28126461  0.00000000  0.34849486  1
  O  O25  1  0.25151338  0.00000000  0.82475847  1
  O  O26  1  0.79767588  0.19880704  0.79502090  1
  O  O27  1  0.25267539  0.00000000  0.58583477  1
  O  O28  1  0.74848662  0.00000000  0.17524153  1
  O  O29  1  0.29767588  0.69880704  0.70497910  1
  O  O30  1  0.70991570  0.00000000  0.93036084  1
  O  O31  1  0.20232412  0.19880704  0.20497910  1
  O  O32  1  0.75151338  0.50000000  0.67524153  1
  O  O33  1  0.70474469  0.79437019  0.55075081  1
  O  O34  1  0.74732461  0.00000000  0.41416523  1
  O  O35  1  0.79008430  0.50000000  0.43036084  1
  O  O36  1  0.29525531  0.79437019  0.44924919  1
  O  O37  1  0.70474469  0.20562981  0.55075081  1
  O  O38  1  0.20991570  0.50000000  0.56963916  1
  O  O39  1  0.29008430  0.00000000  0.06963916  1
  O  O40  1  0.70232412  0.30119296  0.29502090  1
  O  O41  1  0.20474469  0.70562981  0.94924919  1
  O  O42  1  0.24848662  0.50000000  0.32475847  1
  O  O43  1  0.71873539  0.00000000  0.65150514  1
  O  O44  1  0.78126461  0.50000000  0.15150514  1
  O  O45  1  0.70232412  0.69880704  0.29502090  1
  O  O46  1  0.29767588  0.30119296  0.70497910  1
  O  O47  1  0.79767588  0.80119296  0.79502090  1
  O  O48  1  0.21873539  0.50000000  0.84849486  1
  O  O49  1  0.79525531  0.29437019  0.05075081  1
  O  O50  1  0.20474469  0.29437019  0.94924919  1
  O  O51  1  0.75267539  0.50000000  0.91416523  1
  O  O52  1  0.20232412  0.80119296  0.20497910  1
  O  O53  1  0.79525531  0.70562981  0.05075081  1
  O  O54  1  0.29525531  0.20562981  0.44924919  1
  O  O55  1  0.24732461  0.50000000  0.08583477  1
