# generated using pymatgen
data_PbSe2O5
_symmetry_space_group_name_H-M   'P 1'
_cell_length_a   4.59229131
_cell_length_b   9.68486640
_cell_length_c   11.91602700
_cell_angle_alpha   90.00000000
_cell_angle_beta   90.15496100
_cell_angle_gamma   90.00000000
_symmetry_Int_Tables_number   1
_chemical_formula_structural   PbSe2O5
_chemical_formula_sum   'Pb4 Se8 O20'
_cell_volume   529.97203522
_cell_formula_units_Z   4
loop_
 _symmetry_equiv_pos_site_id
 _symmetry_equiv_pos_as_xyz
  1  'x, y, z'
loop_
 _atom_site_type_symbol
 _atom_site_label
 _atom_site_symmetry_multiplicity
 _atom_site_fract_x
 _atom_site_fract_y
 _atom_site_fract_z
 _atom_site_occupancy
  Pb  Pb0  1  0.70238031  0.45833373  0.15285890  1
  Pb  Pb1  1  0.20238031  0.04166627  0.65285890  1
  Pb  Pb2  1  0.29761969  0.54166627  0.84714110  1
  Pb  Pb3  1  0.79761969  0.95833373  0.34714110  1
  Se  Se4  1  0.20493943  0.74969962  0.11348038  1
  Se  Se5  1  0.27425306  0.64494496  0.41893933  1
  Se  Se6  1  0.77425306  0.85505504  0.91893933  1
  Se  Se7  1  0.22574694  0.14494496  0.08106067  1
  Se  Se8  1  0.72574694  0.35505504  0.58106067  1
  Se  Se9  1  0.29506057  0.24969962  0.38651962  1
  Se  Se10  1  0.79506057  0.25030038  0.88651962  1
  Se  Se11  1  0.70493943  0.75030038  0.61348038  1
  O  O12  1  0.34164020  0.34355481  0.52423664  1
  O  O13  1  0.71089260  0.41070822  0.94253983  1
  O  O14  1  0.15835980  0.84355481  0.97576336  1
  O  O15  1  0.78910740  0.91070822  0.55746017  1
  O  O16  1  0.21089260  0.08929178  0.44253983  1
  O  O17  1  0.84164020  0.15644519  0.02423664  1
  O  O18  1  0.28910740  0.58929178  0.05746017  1
  O  O19  1  0.84212230  0.95800221  0.80715387  1
  O  O20  1  0.24792722  0.80703116  0.36393144  1
  O  O21  1  0.64482215  0.23080625  0.34569783  1
  O  O22  1  0.25207278  0.30703116  0.13606856  1
  O  O23  1  0.15787770  0.04199779  0.19284613  1
  O  O24  1  0.14482215  0.26919375  0.84569783  1
  O  O25  1  0.34212230  0.54199779  0.30715387  1
  O  O26  1  0.75207278  0.19296884  0.63606856  1
  O  O27  1  0.35517785  0.76919375  0.65430217  1
  O  O28  1  0.85517785  0.73080625  0.15430217  1
  O  O29  1  0.74792722  0.69296884  0.86393144  1
  O  O30  1  0.65835980  0.65644519  0.47576336  1
  O  O31  1  0.65787770  0.45800221  0.69284613  1
