# generated using pymatgen
data_Cs4Re6S13
_symmetry_space_group_name_H-M   'P 1'
_cell_length_a   10.04136265
_cell_length_b   10.04136278
_cell_length_c   13.91795647
_cell_angle_alpha   95.39726595
_cell_angle_beta   95.39726599
_cell_angle_gamma   119.43504342
_symmetry_Int_Tables_number   1
_chemical_formula_structural   Cs4Re6S13
_chemical_formula_sum   'Cs8 Re12 S26'
_cell_volume   1200.73121655
_cell_formula_units_Z   2
loop_
 _symmetry_equiv_pos_site_id
 _symmetry_equiv_pos_as_xyz
  1  'x, y, z'
loop_
 _atom_site_type_symbol
 _atom_site_label
 _atom_site_symmetry_multiplicity
 _atom_site_fract_x
 _atom_site_fract_y
 _atom_site_fract_z
 _atom_site_occupancy
  Cs  Cs0  1  0.65627999  0.90461577  0.58671521  1
  Cs  Cs1  1  0.34372001  0.09538423  0.41328479  1
  Cs  Cs2  1  0.09538423  0.34372001  0.91328479  1
  Cs  Cs3  1  0.90461577  0.65627999  0.08671521  1
  Cs  Cs4  1  0.31632162  0.27425333  0.71543979  1
  Cs  Cs5  1  0.27425333  0.31632162  0.21543979  1
  Cs  Cs6  1  0.72574667  0.68367838  0.78456021  1
  Cs  Cs7  1  0.68367838  0.72574667  0.28456021  1
  Re  Re8  1  0.68948837  0.00366143  0.02290283  1
  Re  Re9  1  0.99633857  0.31051163  0.47709717  1
  Re  Re10  1  0.43508508  0.84548828  0.89066520  1
  Re  Re11  1  0.15162655  0.58497580  0.42134280  1
  Re  Re12  1  0.84548828  0.43508508  0.39066520  1
  Re  Re13  1  0.15451172  0.56491492  0.60933480  1
  Re  Re14  1  0.56491492  0.15451172  0.10933480  1
  Re  Re15  1  0.41502420  0.84837345  0.07865720  1
  Re  Re16  1  0.58497580  0.15162655  0.92134280  1
  Re  Re17  1  0.00366143  0.68948837  0.52290283  1
  Re  Re18  1  0.84837345  0.41502420  0.57865720  1
  Re  Re19  1  0.31051163  0.99633857  0.97709717  1
  S  S20  1  0.64227869  0.27533002  0.67434692  1
  S  S21  1  0.63926287  0.36073713  0.25000000  1
  S  S22  1  0.97980633  0.04789267  0.43772267  1
  S  S23  1  0.53562532  0.72123166  0.99489259  1
  S  S24  1  0.30754737  0.99527557  0.15074928  1
  S  S25  1  0.27876834  0.46437468  0.50510741  1
  S  S26  1  0.27533002  0.64227869  0.17434692  1
  S  S27  1  0.69245263  0.00472443  0.84925072  1
  S  S28  1  0.99527557  0.30754737  0.65074928  1
  S  S29  1  0.72123166  0.53562532  0.49489259  1
  S  S30  1  0.04789267  0.97980633  0.93772267  1
  S  S31  1  0.71757500  0.19031729  0.44892674  1
  S  S32  1  0.28242500  0.80968271  0.55107326  1
  S  S33  1  0.35772131  0.72466998  0.32565308  1
  S  S34  1  0.00472443  0.69245263  0.34925072  1
  S  S35  1  0.02019367  0.95210733  0.56227733  1
  S  S36  1  0.72466998  0.35772131  0.82565308  1
  S  S37  1  0.65453955  0.00828705  0.19305341  1
  S  S38  1  0.00828705  0.65453955  0.69305341  1
  S  S39  1  0.46437468  0.27876834  0.00510741  1
  S  S40  1  0.36073713  0.63926287  0.75000000  1
  S  S41  1  0.34546045  0.99171295  0.80694659  1
  S  S42  1  0.99171295  0.34546045  0.30694659  1
  S  S43  1  0.80968271  0.28242500  0.05107326  1
  S  S44  1  0.95210733  0.02019367  0.06227733  1
  S  S45  1  0.19031729  0.71757500  0.94892674  1
