# generated using pymatgen
data_Nb2Co(P2O7)3
_symmetry_space_group_name_H-M   'P 1'
_cell_length_a   6.63345868
_cell_length_b   8.07858066
_cell_length_c   15.67135335
_cell_angle_alpha   90.00000000
_cell_angle_beta   90.56391021
_cell_angle_gamma   90.00000000
_symmetry_Int_Tables_number   1
_chemical_formula_structural   Nb2Co(P2O7)3
_chemical_formula_sum   'Nb4 Co2 P12 O42'
_cell_volume   839.77039908
_cell_formula_units_Z   2
loop_
 _symmetry_equiv_pos_site_id
 _symmetry_equiv_pos_as_xyz
  1  'x, y, z'
loop_
 _atom_site_type_symbol
 _atom_site_label
 _atom_site_symmetry_multiplicity
 _atom_site_fract_x
 _atom_site_fract_y
 _atom_site_fract_z
 _atom_site_occupancy
  Nb  Nb0  1  0.96395448  0.47863068  0.66673512  1
  Nb  Nb1  1  0.46395448  0.02136932  0.16673512  1
  Nb  Nb2  1  0.53604552  0.97863068  0.83326488  1
  Nb  Nb3  1  0.03604552  0.52136932  0.33326488  1
  Co  Co4  1  0.00000000  0.50000000  0.00000000  1
  Co  Co5  1  0.50000000  0.00000000  0.50000000  1
  P  P6  1  0.68693265  0.38431006  0.48330415  1
  P  P7  1  0.28333620  0.60703650  0.83442453  1
  P  P8  1  0.65989652  0.39666070  0.83912907  1
  P  P9  1  0.34010348  0.60333930  0.16087093  1
  P  P10  1  0.78333620  0.89296350  0.33442453  1
  P  P11  1  0.84010348  0.89666070  0.66087093  1
  P  P12  1  0.18693265  0.11568994  0.98330415  1
  P  P13  1  0.31306735  0.61568994  0.51669585  1
  P  P14  1  0.21666380  0.10703650  0.66557547  1
  P  P15  1  0.71666380  0.39296350  0.16557547  1
  P  P16  1  0.81306735  0.88431006  0.01669585  1
  P  P17  1  0.15989652  0.10333930  0.33912907  1
  O  O18  1  0.63276466  0.92624250  0.26012740  1
  O  O19  1  0.85127760  0.70645942  0.64724517  1
  O  O20  1  0.37797295  0.78217609  0.54578479  1
  O  O21  1  0.57386092  0.55338466  0.16939912  1
  O  O22  1  0.91765697  0.74371480  0.30891222  1
  O  O23  1  0.24458306  0.07349189  0.24765638  1
  O  O24  1  0.86723534  0.42624250  0.23987260  1
  O  O25  1  0.31188985  0.13021775  0.58110995  1
  O  O26  1  0.25541694  0.57349189  0.25234362  1
  O  O27  1  0.92613908  0.05338466  0.33060088  1
  O  O28  1  0.36723534  0.07375750  0.73987260  1
  O  O29  1  0.74458306  0.42650811  0.74765638  1
  O  O30  1  0.13276466  0.57375750  0.76012740  1
  O  O31  1  0.81459077  0.47584187  0.41585144  1
  O  O32  1  0.31459077  0.02415813  0.91585144  1
  O  O33  1  0.75541694  0.92650811  0.75234362  1
  O  O34  1  0.26623703  0.00793202  0.40651259  1
  O  O35  1  0.81188985  0.36978225  0.08110995  1
  O  O36  1  0.58234303  0.24371480  0.19108778  1
  O  O37  1  0.68811015  0.86978225  0.41889005  1
  O  O38  1  0.19644605  0.61008853  0.43009714  1
  O  O39  1  0.62202705  0.21782391  0.45421521  1
  O  O40  1  0.30355395  0.11008853  0.06990286  1
  O  O41  1  0.12202705  0.28217609  0.95421521  1
  O  O42  1  0.87797295  0.71782391  0.04578479  1
  O  O43  1  0.07386092  0.94661534  0.66939912  1
  O  O44  1  0.73376297  0.99206798  0.59348741  1
  O  O45  1  0.14872240  0.29354058  0.35275483  1
  O  O46  1  0.64872240  0.20645942  0.85275483  1
  O  O47  1  0.76623703  0.49206798  0.90651259  1
  O  O48  1  0.08234303  0.25628520  0.69108778  1
  O  O49  1  0.41765697  0.75628520  0.80891222  1
  O  O50  1  0.42613908  0.44661534  0.83060088  1
  O  O51  1  0.80355395  0.38991147  0.56990286  1
  O  O52  1  0.35127760  0.79354058  0.14724517  1
  O  O53  1  0.23376297  0.50793202  0.09348741  1
  O  O54  1  0.18811015  0.63021775  0.91889005  1
  O  O55  1  0.18540923  0.52415813  0.58414856  1
  O  O56  1  0.50000000  0.50000000  0.50000000  1
  O  O57  1  0.69644605  0.88991147  0.93009714  1
  O  O58  1  0.00000000  0.00000000  0.00000000  1
  O  O59  1  0.68540923  0.97584187  0.08414856  1
