# generated using pymatgen
data_KFe(SeO3)2
_symmetry_space_group_name_H-M   'P 1'
_cell_length_a   5.53441704
_cell_length_b   8.26908056
_cell_length_c   13.18260729
_cell_angle_alpha   90.00393156
_cell_angle_beta   89.99996054
_cell_angle_gamma   89.99994184
_symmetry_Int_Tables_number   1
_chemical_formula_structural   KFe(SeO3)2
_chemical_formula_sum   'K4 Fe4 Se8 O24'
_cell_volume   603.29596216
_cell_formula_units_Z   4
loop_
 _symmetry_equiv_pos_site_id
 _symmetry_equiv_pos_as_xyz
  1  'x, y, z'
loop_
 _atom_site_type_symbol
 _atom_site_label
 _atom_site_symmetry_multiplicity
 _atom_site_fract_x
 _atom_site_fract_y
 _atom_site_fract_z
 _atom_site_occupancy
  K  K0  1  0.25001360  0.50678441  0.87370413  1
  K  K1  1  0.24999790  0.99381227  0.37381661  1
  K  K2  1  0.75000018  0.49365831  0.12616890  1
  K  K3  1  0.75000983  0.00657739  0.62625761  1
  Fe  Fe4  1  0.24999332  0.80281434  0.10232830  1
  Fe  Fe5  1  0.75000775  0.30275679  0.39763671  1
  Fe  Fe6  1  0.24999729  0.69729792  0.60288005  1
  Fe  Fe7  1  0.74999107  0.19721737  0.89717385  1
  Se  Se8  1  0.74999971  0.01129819  0.20294996  1
  Se  Se9  1  0.24999691  0.98841503  0.79750398  1
  Se  Se10  1  0.24999925  0.51123162  0.29693525  1
  Se  Se11  1  0.74999877  0.79375205  0.93849723  1
  Se  Se12  1  0.74999984  0.70663986  0.43915203  1
  Se  Se13  1  0.24999730  0.20673428  0.06081757  1
  Se  Se14  1  0.75000042  0.48829977  0.70273201  1
  Se  Se15  1  0.24999938  0.29373854  0.56144659  1
  O  O16  1  0.50672463  0.62089570  0.70597185  1
  O  O17  1  0.00665827  0.37872300  0.29402895  1
  O  O18  1  0.25000061  0.00762380  0.02264688  1
  O  O19  1  0.49302811  0.21256181  0.49578433  1
  O  O20  1  0.25000270  0.57364522  0.17066850  1
  O  O21  1  0.00697345  0.21256281  0.49578267  1
  O  O22  1  0.99337945  0.87879413  0.20592046  1
  O  O23  1  0.25000045  0.49253852  0.52273421  1
  O  O24  1  0.99327388  0.62089327  0.70597156  1
  O  O25  1  0.50714420  0.78769107  0.50505272  1
  O  O26  1  0.75000031  0.50775256  0.47742519  1
  O  O27  1  0.99302219  0.71271883  0.00417428  1
  O  O28  1  0.00687548  0.12083751  0.79422769  1
  O  O29  1  0.24999767  0.92593965  0.67128872  1
  O  O30  1  0.50662164  0.87879357  0.20591897  1
  O  O31  1  0.49334003  0.37872239  0.29402951  1
  O  O32  1  0.99285340  0.78769171  0.50505299  1
  O  O33  1  0.49312436  0.12083884  0.79422787  1
  O  O34  1  0.50697644  0.71272014  0.00417250  1
  O  O35  1  0.75000126  0.99235028  0.97709352  1
  O  O36  1  0.00729452  0.28752558  0.99488660  1
  O  O37  1  0.49270279  0.28752674  0.99488595  1
  O  O38  1  0.75000047  0.42588208  0.82882098  1
  O  O39  1  0.75000114  0.07374267  0.32923231  1
