# generated using pymatgen
data_K11LiMn4O16
_symmetry_space_group_name_H-M   'P 1'
_cell_length_a   7.96781919
_cell_length_b   7.96781908
_cell_length_c   10.53444438
_cell_angle_alpha   112.22095409
_cell_angle_beta   112.22095377
_cell_angle_gamma   90.00000078
_symmetry_Int_Tables_number   1
_chemical_formula_structural   K11LiMn4O16
_chemical_formula_sum   'K11 Li1 Mn4 O16'
_cell_volume   565.10315404
_cell_formula_units_Z   1
loop_
 _symmetry_equiv_pos_site_id
 _symmetry_equiv_pos_as_xyz
  1  'x, y, z'
loop_
 _atom_site_type_symbol
 _atom_site_label
 _atom_site_symmetry_multiplicity
 _atom_site_fract_x
 _atom_site_fract_y
 _atom_site_fract_z
 _atom_site_occupancy
  K  K0  1  0.29147205  0.29147205  0.58294410  1
  K  K1  1  0.50000000  0.00000000  0.00000000  1
  K  K2  1  0.25000000  0.75000000  0.50000000  1
  K  K3  1  0.92771017  0.92771017  0.24438986  1
  K  K4  1  0.07228983  0.68332030  0.75561014  1
  K  K5  1  0.70852795  0.70852795  0.41705590  1
  K  K6  1  0.00000000  0.50000000  0.00000000  1
  K  K7  1  0.68332030  0.07228983  0.75561014  1
  K  K8  1  0.31667970  0.31667970  0.24438986  1
  K  K9  1  0.75000000  0.25000000  0.50000000  1
  K  K10  1  0.50000000  0.50000000  0.00000000  1
  Li  Li11  1  0.00000000  0.00000000  0.00000000  1
  Mn  Mn12  1  0.86699111  0.37998828  0.24697939  1
  Mn  Mn13  1  0.13300889  0.13300889  0.75302061  1
  Mn  Mn14  1  0.62001172  0.62001172  0.75302061  1
  Mn  Mn15  1  0.37998828  0.86699111  0.24697939  1
  O  O16  1  0.41107054  0.01493671  0.42600726  1
  O  O17  1  0.79746885  0.79746885  0.88649551  1
  O  O18  1  0.64510868  0.33477750  0.22737032  1
  O  O19  1  0.33477750  0.64510868  0.22737032  1
  O  O20  1  0.01493671  0.41107054  0.42600726  1
  O  O21  1  0.58226164  0.89259282  0.22737032  1
  O  O22  1  0.35489132  0.10740718  0.77262968  1
  O  O23  1  0.20253115  0.91097334  0.11350449  1
  O  O24  1  0.58892946  0.58892946  0.57399274  1
  O  O25  1  0.08902666  0.08902666  0.88649551  1
  O  O26  1  0.66522250  0.41773836  0.77262968  1
  O  O27  1  0.98506329  0.98506329  0.57399274  1
  O  O28  1  0.89259282  0.58226164  0.22737032  1
  O  O29  1  0.91097334  0.20253115  0.11350449  1
  O  O30  1  0.10740718  0.35489132  0.77262968  1
  O  O31  1  0.41773836  0.66522250  0.77262968  1
