# generated using pymatgen
data_Ta8NiSe8
_symmetry_space_group_name_H-M   'P 1'
_cell_length_a   3.47845370
_cell_length_b   17.03360868
_cell_length_c   22.77369291
_cell_angle_alpha   90.00000000
_cell_angle_beta   90.00000000
_cell_angle_gamma   90.00000000
_symmetry_Int_Tables_number   1
_chemical_formula_structural   Ta8NiSe8
_chemical_formula_sum   'Ta32 Ni4 Se32'
_cell_volume   1349.35540496
_cell_formula_units_Z   4
loop_
 _symmetry_equiv_pos_site_id
 _symmetry_equiv_pos_as_xyz
  1  'x, y, z'
loop_
 _atom_site_type_symbol
 _atom_site_label
 _atom_site_symmetry_multiplicity
 _atom_site_fract_x
 _atom_site_fract_y
 _atom_site_fract_z
 _atom_site_occupancy
  Ta  Ta0  1  0.75000000  0.04183506  0.95533584  1
  Ta  Ta1  1  0.25000000  0.54183506  0.54466416  1
  Ta  Ta2  1  0.75000000  0.20860028  0.33349151  1
  Ta  Ta3  1  0.25000000  0.05235843  0.74583586  1
  Ta  Ta4  1  0.25000000  0.44764157  0.24583586  1
  Ta  Ta5  1  0.75000000  0.45816494  0.45533584  1
  Ta  Ta6  1  0.75000000  0.19750667  0.55322503  1
  Ta  Ta7  1  0.25000000  0.15824735  0.87572074  1
  Ta  Ta8  1  0.25000000  0.95816494  0.04466416  1
  Ta  Ta9  1  0.75000000  0.81779092  0.55769081  1
  Ta  Ta10  1  0.75000000  0.84175265  0.12427926  1
  Ta  Ta11  1  0.25000000  0.70860028  0.16650849  1
  Ta  Ta12  1  0.75000000  0.94764157  0.25416414  1
  Ta  Ta13  1  0.25000000  0.69750667  0.94677497  1
  Ta  Ta14  1  0.25000000  0.18220908  0.44230919  1
  Ta  Ta15  1  0.25000000  0.06153864  0.31553021  1
  Ta  Ta16  1  0.75000000  0.68220908  0.05769081  1
  Ta  Ta17  1  0.75000000  0.66393309  0.48238803  1
  Ta  Ta18  1  0.25000000  0.43846136  0.81553021  1
  Ta  Ta19  1  0.75000000  0.93846136  0.68446979  1
  Ta  Ta20  1  0.75000000  0.56153864  0.18446979  1
  Ta  Ta21  1  0.75000000  0.65824735  0.62427926  1
  Ta  Ta22  1  0.75000000  0.55235843  0.75416414  1
  Ta  Ta23  1  0.25000000  0.79139972  0.66650849  1
  Ta  Ta24  1  0.25000000  0.33606691  0.51761197  1
  Ta  Ta25  1  0.25000000  0.34175265  0.37572074  1
  Ta  Ta26  1  0.25000000  0.80249333  0.44677497  1
  Ta  Ta27  1  0.75000000  0.29139972  0.83349151  1
  Ta  Ta28  1  0.25000000  0.31779092  0.94230919  1
  Ta  Ta29  1  0.25000000  0.16393309  0.01761197  1
  Ta  Ta30  1  0.75000000  0.30249333  0.05322503  1
  Ta  Ta31  1  0.75000000  0.83606691  0.98238803  1
  Ni  Ni32  1  0.25000000  0.70927170  0.55434954  1
  Ni  Ni33  1  0.75000000  0.29072830  0.44565046  1
  Ni  Ni34  1  0.25000000  0.79072830  0.05434954  1
  Ni  Ni35  1  0.75000000  0.20927170  0.94565046  1
  Se  Se36  1  0.75000000  0.09036865  0.66544315  1
  Se  Se37  1  0.75000000  0.71304190  0.73133982  1
  Se  Se38  1  0.75000000  0.39566744  0.73690282  1
  Se  Se39  1  0.25000000  0.93159638  0.92638495  1
  Se  Se40  1  0.25000000  0.95016302  0.16235837  1
  Se  Se41  1  0.25000000  0.59036865  0.83455685  1
  Se  Se42  1  0.25000000  0.90963135  0.33455685  1
  Se  Se43  1  0.75000000  0.40963135  0.16544315  1
  Se  Se44  1  0.25000000  0.41222921  0.03113353  1
  Se  Se45  1  0.25000000  0.54983698  0.66235837  1
  Se  Se46  1  0.25000000  0.57560450  0.09782114  1
  Se  Se47  1  0.75000000  0.78695810  0.23133982  1
  Se  Se48  1  0.25000000  0.60433256  0.26309718  1
  Se  Se49  1  0.25000000  0.28695810  0.26866018  1
  Se  Se50  1  0.25000000  0.89566744  0.76309718  1
  Se  Se51  1  0.75000000  0.91222921  0.46886647  1
  Se  Se52  1  0.75000000  0.58777079  0.96886647  1
  Se  Se53  1  0.75000000  0.10433256  0.23690282  1
  Se  Se54  1  0.75000000  0.45016302  0.33764163  1
  Se  Se55  1  0.25000000  0.23187793  0.12037594  1
  Se  Se56  1  0.25000000  0.26812207  0.62037594  1
  Se  Se57  1  0.75000000  0.04983698  0.83764163  1
  Se  Se58  1  0.25000000  0.92439550  0.59782114  1
  Se  Se59  1  0.25000000  0.56840362  0.42638495  1
  Se  Se60  1  0.25000000  0.21304190  0.76866018  1
  Se  Se61  1  0.75000000  0.43159638  0.57361505  1
  Se  Se62  1  0.75000000  0.42439550  0.90217886  1
  Se  Se63  1  0.25000000  0.08777079  0.53113353  1
  Se  Se64  1  0.75000000  0.06840362  0.07361505  1
  Se  Se65  1  0.75000000  0.73187793  0.37962406  1
  Se  Se66  1  0.75000000  0.76812207  0.87962406  1
  Se  Se67  1  0.75000000  0.07560450  0.40217886  1
