# generated using pymatgen
data_Re2(HgO2)5
_symmetry_space_group_name_H-M   'P 1'
_cell_length_a   8.88335092
_cell_length_b   12.31429147
_cell_length_c   12.40367433
_cell_angle_alpha   90.00000000
_cell_angle_beta   97.40589213
_cell_angle_gamma   90.00000000
_symmetry_Int_Tables_number   1
_chemical_formula_structural   Re2(HgO2)5
_chemical_formula_sum   'Re8 Hg20 O40'
_cell_volume   1345.54579536
_cell_formula_units_Z   4
loop_
 _symmetry_equiv_pos_site_id
 _symmetry_equiv_pos_as_xyz
  1  'x, y, z'
loop_
 _atom_site_type_symbol
 _atom_site_label
 _atom_site_symmetry_multiplicity
 _atom_site_fract_x
 _atom_site_fract_y
 _atom_site_fract_z
 _atom_site_occupancy
  Re  Re0  1  0.29559863  0.46282189  0.92769443  1
  Re  Re1  1  0.69762271  0.98301916  0.92945631  1
  Re  Re2  1  0.69762271  0.51698084  0.42945631  1
  Re  Re3  1  0.30237729  0.48301916  0.57054369  1
  Re  Re4  1  0.29559863  0.03717811  0.42769443  1
  Re  Re5  1  0.70440137  0.53717811  0.07230557  1
  Re  Re6  1  0.70440137  0.96282189  0.57230557  1
  Re  Re7  1  0.30237729  0.01698084  0.07054369  1
  Hg  Hg8  1  0.00439882  0.28508232  0.40213573  1
  Hg  Hg9  1  0.39720302  0.77007991  0.76014399  1
  Hg  Hg10  1  0.99560118  0.78508232  0.09786427  1
  Hg  Hg11  1  0.67118119  0.79984046  0.25433791  1
  Hg  Hg12  1  0.87905451  0.02226609  0.24730858  1
  Hg  Hg13  1  0.12094549  0.97773391  0.75269142  1
  Hg  Hg14  1  0.12094549  0.52226609  0.25269142  1
  Hg  Hg15  1  0.32881881  0.29984046  0.24566209  1
  Hg  Hg16  1  0.99560118  0.71491768  0.59786427  1
  Hg  Hg17  1  0.39720302  0.72992009  0.26014399  1
  Hg  Hg18  1  0.67118119  0.70015954  0.75433791  1
  Hg  Hg19  1  0.00439882  0.21491768  0.90213573  1
  Hg  Hg20  1  0.93923049  0.25608109  0.09779553  1
  Hg  Hg21  1  0.60279698  0.22992009  0.23985601  1
  Hg  Hg22  1  0.87905451  0.47773391  0.74730858  1
  Hg  Hg23  1  0.06076951  0.75608109  0.40220447  1
  Hg  Hg24  1  0.93923049  0.24391891  0.59779553  1
  Hg  Hg25  1  0.32881881  0.20015954  0.74566209  1
  Hg  Hg26  1  0.06076951  0.74391891  0.90220447  1
  Hg  Hg27  1  0.60279698  0.27007991  0.73985601  1
  O  O28  1  0.87511162  0.00144227  0.88316117  1
  O  O29  1  0.90447247  0.64518057  0.74634604  1
  O  O30  1  0.55303775  0.98495282  0.81836352  1
  O  O31  1  0.72617854  0.09805926  0.61863582  1
  O  O32  1  0.47928236  0.08766424  0.42610682  1
  O  O33  1  0.09552753  0.14518057  0.75365396  1
  O  O34  1  0.55303775  0.51504718  0.31836352  1
  O  O35  1  0.67247863  0.41033144  0.51950560  1
  O  O36  1  0.32752137  0.91033144  0.98049440  1
  O  O37  1  0.82683232  0.88178552  0.66251090  1
  O  O38  1  0.15941894  0.68775616  0.25150399  1
  O  O39  1  0.52071764  0.91233576  0.57389318  1
  O  O40  1  0.23680147  0.45013917  0.05691270  1
  O  O41  1  0.84058106  0.18775616  0.24849601  1
  O  O42  1  0.84058106  0.31224384  0.74849601  1
  O  O43  1  0.27382146  0.59805926  0.88136418  1
  O  O44  1  0.90447247  0.85481943  0.24634604  1
  O  O45  1  0.30362427  0.35830819  0.50201325  1
  O  O46  1  0.27382146  0.90194074  0.38136418  1
  O  O47  1  0.67247863  0.08966856  0.01950560  1
  O  O48  1  0.69637573  0.85830819  0.99798675  1
  O  O49  1  0.15941894  0.81224384  0.75150399  1
  O  O50  1  0.76319853  0.95013917  0.44308730  1
  O  O51  1  0.12488838  0.99855773  0.11683883  1
  O  O52  1  0.12488838  0.50144227  0.61683883  1
  O  O53  1  0.30362427  0.14169181  0.00201325  1
  O  O54  1  0.17316768  0.38178552  0.83748910  1
  O  O55  1  0.17316768  0.11821448  0.33748910  1
  O  O56  1  0.87511162  0.49855773  0.38316117  1
  O  O57  1  0.09552753  0.35481943  0.25365396  1
  O  O58  1  0.76319853  0.54986083  0.94308730  1
  O  O59  1  0.52071764  0.58766424  0.07389318  1
  O  O60  1  0.32752137  0.58966856  0.48049440  1
  O  O61  1  0.44696225  0.48495282  0.68163648  1
  O  O62  1  0.47928236  0.41233576  0.92610682  1
  O  O63  1  0.44696225  0.01504718  0.18163648  1
  O  O64  1  0.23680147  0.04986083  0.55691270  1
  O  O65  1  0.69637573  0.64169181  0.49798675  1
  O  O66  1  0.72617854  0.40194074  0.11863582  1
  O  O67  1  0.82683232  0.61821448  0.16251090  1
