# generated using pymatgen
data_Mg(GaS2)2
_symmetry_space_group_name_H-M   'P 1'
_cell_length_a   6.45587389
_cell_length_b   12.46741300
_cell_length_c   13.12447501
_cell_angle_alpha   115.48797046
_cell_angle_beta   99.15883683
_cell_angle_gamma   100.50422011
_symmetry_Int_Tables_number   1
_chemical_formula_structural   Mg(GaS2)2
_chemical_formula_sum   'Mg6 Ga12 S24'
_cell_volume   903.34633926
_cell_formula_units_Z   6
loop_
 _symmetry_equiv_pos_site_id
 _symmetry_equiv_pos_as_xyz
  1  'x, y, z'
loop_
 _atom_site_type_symbol
 _atom_site_label
 _atom_site_symmetry_multiplicity
 _atom_site_fract_x
 _atom_site_fract_y
 _atom_site_fract_z
 _atom_site_occupancy
  Mg  Mg0  1  0.53307403  0.78378260  0.56512602  1
  Mg  Mg1  1  0.29198142  0.04324924  0.08501337  1
  Mg  Mg2  1  0.70651942  0.95804192  0.91381241  1
  Mg  Mg3  1  0.46608147  0.21802094  0.43446671  1
  Mg  Mg4  1  0.87838795  0.12887290  0.25761227  1
  Mg  Mg5  1  0.12022826  0.87131800  0.74116296  1
  Ga  Ga6  1  0.70438501  0.32659354  0.08069352  1
  Ga  Ga7  1  0.53761303  0.16494556  0.75025016  1
  Ga  Ga8  1  0.87764236  0.75526510  0.08076289  1
  Ga  Ga9  1  0.46240547  0.83618773  0.24853947  1
  Ga  Ga10  1  0.71339293  0.58785276  0.75085833  1
  Ga  Ga11  1  0.86123910  0.51386135  0.40324442  1
  Ga  Ga12  1  0.12302143  0.24617092  0.91835846  1
  Ga  Ga13  1  0.14017806  0.48554469  0.59743251  1
  Ga  Ga14  1  0.29633861  0.67426792  0.91857323  1
  Ga  Ga15  1  0.28825103  0.41376492  0.24915940  1
  Ga  Ga16  1  0.04361233  0.88792967  0.40240881  1
  Ga  Ga17  1  0.95687376  0.11128787  0.59599907  1
  S  S18  1  0.25632847  0.23736169  0.26104706  1
  S  S19  1  0.07958802  0.08904422  0.43224966  1
  S  S20  1  0.01750171  0.50981268  0.76286388  1
  S  S21  1  0.34064219  0.81875970  0.39675038  1
  S  S22  1  0.18447196  0.67723169  0.08093463  1
  S  S23  1  0.75542479  0.74677990  0.23682135  1
  S  S24  1  0.85419375  0.34301116  0.43372296  1
  S  S25  1  0.81557252  0.32382354  0.91811394  1
  S  S26  1  0.14712116  0.65638415  0.56688150  1
  S  S27  1  0.49455807  0.97663311  0.73819375  1
  S  S28  1  0.65712683  0.17809925  0.60001657  1
  S  S29  1  0.44330793  0.42235806  0.60271708  1
  S  S30  1  0.98229926  0.49063989  0.23747930  1
  S  S31  1  0.74303513  0.76361032  0.73821349  1
  S  S32  1  0.66812442  0.15070184  0.08747283  1
  S  S33  1  0.33078325  0.84996523  0.91143536  1
  S  S34  1  0.91860542  0.93760244  0.08692638  1
  S  S35  1  0.92075996  0.91020456  0.56616530  1
  S  S36  1  0.08035755  0.06341344  0.91160193  1
  S  S37  1  0.50377017  0.02443580  0.26098759  1
  S  S38  1  0.55707899  0.57646014  0.40053620  1
  S  S39  1  0.39788951  0.40513351  0.08130824  1
  S  S40  1  0.60311070  0.59619598  0.91831656  1
  S  S41  1  0.24397755  0.25395505  0.76170007  1
