# generated using pymatgen
data_ReHg2O5
_symmetry_space_group_name_H-M   'P 1'
_cell_length_a   8.18220340
_cell_length_b   9.19331997
_cell_length_c   9.24803504
_cell_angle_alpha   113.95140647
_cell_angle_beta   101.59077826
_cell_angle_gamma   91.07809089
_symmetry_Int_Tables_number   1
_chemical_formula_structural   ReHg2O5
_chemical_formula_sum   'Re4 Hg8 O20'
_cell_volume   618.85784784
_cell_formula_units_Z   4
loop_
 _symmetry_equiv_pos_site_id
 _symmetry_equiv_pos_as_xyz
  1  'x, y, z'
loop_
 _atom_site_type_symbol
 _atom_site_label
 _atom_site_symmetry_multiplicity
 _atom_site_fract_x
 _atom_site_fract_y
 _atom_site_fract_z
 _atom_site_occupancy
  Re  Re0  1  0.89978382  0.74808762  0.46095306  1
  Re  Re1  1  0.72555847  0.34759311  0.99710287  1
  Re  Re2  1  0.27444153  0.65240689  0.00289713  1
  Re  Re3  1  0.10021618  0.25191238  0.53904694  1
  Hg  Hg4  1  0.36744372  0.60810244  0.42950575  1
  Hg  Hg5  1  0.69166765  0.67657610  0.80934529  1
  Hg  Hg6  1  0.63255628  0.39189756  0.57049425  1
  Hg  Hg7  1  0.33833753  0.96914961  0.80500697  1
  Hg  Hg8  1  0.30833235  0.32342390  0.19065471  1
  Hg  Hg9  1  0.66166247  0.03085039  0.19499303  1
  Hg  Hg10  1  0.00000000  0.00000000  0.00000000  1
  Hg  Hg11  1  0.50000000  0.00000000  0.50000000  1
  O  O12  1  0.21430219  0.11456070  0.59560334  1
  O  O13  1  0.46011326  0.85316914  0.61856852  1
  O  O14  1  0.06492036  0.68378412  0.94738789  1
  O  O15  1  0.24826607  0.07285174  0.01458240  1
  O  O16  1  0.02318108  0.16526285  0.32668210  1
  O  O17  1  0.97681892  0.83473715  0.67331790  1
  O  O18  1  0.34817147  0.75710929  0.21434693  1
  O  O19  1  0.75173393  0.92714826  0.98541760  1
  O  O20  1  0.93507964  0.31621588  0.05261211  1
  O  O21  1  0.71103946  0.55197437  0.05072073  1
  O  O22  1  0.06779999  0.70290106  0.36640765  1
  O  O23  1  0.28896054  0.44802563  0.94927927  1
  O  O24  1  0.78569781  0.88543930  0.40439666  1
  O  O25  1  0.77006417  0.57160091  0.40633200  1
  O  O26  1  0.22993583  0.42839909  0.59366800  1
  O  O27  1  0.65182853  0.24289071  0.78565307  1
  O  O28  1  0.53988674  0.14683086  0.38143148  1
  O  O29  1  0.60110332  0.27204783  0.09196191  1
  O  O30  1  0.93220001  0.29709894  0.63359235  1
  O  O31  1  0.39889668  0.72795217  0.90803809  1
