# generated using pymatgen
data_B2Pb2S5
_symmetry_space_group_name_H-M   'P 1'
_cell_length_a   9.74697622
_cell_length_b   9.74697622
_cell_length_c   15.76290708
_cell_angle_alpha   90.00000000
_cell_angle_beta   90.00000000
_cell_angle_gamma   90.00000000
_symmetry_Int_Tables_number   1
_chemical_formula_structural   B2Pb2S5
_chemical_formula_sum   'B16 Pb16 S40'
_cell_volume   1497.53205893
_cell_formula_units_Z   8
loop_
 _symmetry_equiv_pos_site_id
 _symmetry_equiv_pos_as_xyz
  1  'x, y, z'
loop_
 _atom_site_type_symbol
 _atom_site_label
 _atom_site_symmetry_multiplicity
 _atom_site_fract_x
 _atom_site_fract_y
 _atom_site_fract_z
 _atom_site_occupancy
  B  B0  1  0.92633028  0.77117980  0.43122770  1
  B  B1  1  0.57013636  0.59245960  0.81588716  1
  B  B2  1  0.77117980  0.92633028  0.56877230  1
  B  B3  1  0.72882020  0.42633028  0.68122770  1
  B  B4  1  0.90754040  0.07013636  0.06588716  1
  B  B5  1  0.57366972  0.27117980  0.81877230  1
  B  B6  1  0.09245960  0.92986364  0.56588716  1
  B  B7  1  0.40754040  0.42986364  0.68411284  1
  B  B8  1  0.59245960  0.57013636  0.18411284  1
  B  B9  1  0.07366972  0.22882020  0.93122770  1
  B  B10  1  0.27117980  0.57366972  0.18122770  1
  B  B11  1  0.22882020  0.07366972  0.06877230  1
  B  B12  1  0.92986364  0.09245960  0.43411284  1
  B  B13  1  0.42633028  0.72882020  0.31877230  1
  B  B14  1  0.42986364  0.40754040  0.31588716  1
  B  B15  1  0.07013636  0.90754040  0.93411284  1
  Pb  Pb16  1  0.73018239  0.45059356  0.42900746  1
  Pb  Pb17  1  0.55824494  0.85689528  0.08764008  1
  Pb  Pb18  1  0.04940644  0.23018239  0.67900746  1
  Pb  Pb19  1  0.94175506  0.35689528  0.16235992  1
  Pb  Pb20  1  0.54940644  0.26981761  0.07099254  1
  Pb  Pb21  1  0.05824494  0.64310472  0.66235992  1
  Pb  Pb22  1  0.85689528  0.55824494  0.91235992  1
  Pb  Pb23  1  0.44175506  0.14310472  0.58764008  1
  Pb  Pb24  1  0.64310472  0.05824494  0.33764008  1
  Pb  Pb25  1  0.76981761  0.95059356  0.82099254  1
  Pb  Pb26  1  0.14310472  0.44175506  0.41235992  1
  Pb  Pb27  1  0.26981761  0.54940644  0.92900746  1
  Pb  Pb28  1  0.23018239  0.04940644  0.32099254  1
  Pb  Pb29  1  0.35689528  0.94175506  0.83764008  1
  Pb  Pb30  1  0.95059356  0.76981761  0.17900746  1
  Pb  Pb31  1  0.45059356  0.73018239  0.57099254  1
  S  S32  1  0.93178150  0.93288960  0.36001332  1
  S  S33  1  0.73438312  0.59459391  0.74789122  1
  S  S34  1  0.57628072  0.75021872  0.88781681  1
  S  S35  1  0.23540719  0.23540719  0.00000000  1
  S  S36  1  0.23438312  0.90540609  0.00210878  1
  S  S37  1  0.25021872  0.92371928  0.63781681  1
  S  S38  1  0.90540609  0.23438312  0.99789122  1
  S  S39  1  0.56821850  0.43288960  0.88998668  1
  S  S40  1  0.42902280  0.88322675  0.39508352  1
  S  S41  1  0.06821850  0.06711040  0.86001332  1
  S  S42  1  0.09459391  0.76561688  0.49789122  1
  S  S43  1  0.93288960  0.93178150  0.63998668  1
  S  S44  1  0.42371928  0.24978128  0.38781681  1
  S  S45  1  0.07628072  0.74978128  0.86218319  1
  S  S46  1  0.61677325  0.92902280  0.64508352  1
  S  S47  1  0.09608700  0.09608700  0.50000000  1
  S  S48  1  0.40540609  0.26561688  0.75210878  1
  S  S49  1  0.43288960  0.56821850  0.11001332  1
  S  S50  1  0.26561688  0.40540609  0.24789122  1
  S  S51  1  0.76561688  0.09459391  0.50210878  1
  S  S52  1  0.74978128  0.07628072  0.13781681  1
  S  S53  1  0.40391300  0.59608700  0.75000000  1
  S  S54  1  0.38322675  0.07097720  0.14508352  1
  S  S55  1  0.26459281  0.73540719  0.25000000  1
  S  S56  1  0.59608700  0.40391300  0.25000000  1
  S  S57  1  0.59459391  0.73438312  0.25210878  1
  S  S58  1  0.43178150  0.56711040  0.38998668  1
  S  S59  1  0.24978128  0.42371928  0.61218319  1
  S  S60  1  0.90391300  0.90391300  0.00000000  1
  S  S61  1  0.92902280  0.61677325  0.35491648  1
  S  S62  1  0.73540719  0.26459281  0.75000000  1
  S  S63  1  0.06711040  0.06821850  0.13998668  1
  S  S64  1  0.56711040  0.43178150  0.61001332  1
  S  S65  1  0.11677325  0.57097720  0.10491648  1
  S  S66  1  0.76459281  0.76459281  0.50000000  1
  S  S67  1  0.75021872  0.57628072  0.11218319  1
  S  S68  1  0.07097720  0.38322675  0.85491648  1
  S  S69  1  0.57097720  0.11677325  0.89508352  1
  S  S70  1  0.92371928  0.25021872  0.36218319  1
  S  S71  1  0.88322675  0.42902280  0.60491648  1
