# generated using pymatgen
data_ReN(OF2)3
_symmetry_space_group_name_H-M   'P 1'
_cell_length_a   10.21027675
_cell_length_b   10.60908564
_cell_length_c   12.26840965
_cell_angle_alpha   115.67192737
_cell_angle_beta   90.00000000
_cell_angle_gamma   90.00000000
_symmetry_Int_Tables_number   1
_chemical_formula_structural   ReN(OF2)3
_chemical_formula_sum   'Re8 N8 O24 F48'
_cell_volume   1197.75500846
_cell_formula_units_Z   8
loop_
 _symmetry_equiv_pos_site_id
 _symmetry_equiv_pos_as_xyz
  1  'x, y, z'
loop_
 _atom_site_type_symbol
 _atom_site_label
 _atom_site_symmetry_multiplicity
 _atom_site_fract_x
 _atom_site_fract_y
 _atom_site_fract_z
 _atom_site_occupancy
  Re  Re0  1  0.26947478  0.58585463  0.15482623  1
  Re  Re1  1  0.23052522  0.08585463  0.15482623  1
  Re  Re2  1  0.26590603  0.33403397  0.65404742  1
  Re  Re3  1  0.23409397  0.83403397  0.65404742  1
  Re  Re4  1  0.73409397  0.66596603  0.34595258  1
  Re  Re5  1  0.76590603  0.16596603  0.34595258  1
  Re  Re6  1  0.76947478  0.91414537  0.84517377  1
  Re  Re7  1  0.73052522  0.41414537  0.84517377  1
  N  N8  1  0.52344922  0.23582830  0.03728559  1
  N  N9  1  0.97655078  0.73582830  0.03728559  1
  N  N10  1  0.02344922  0.26417170  0.96271441  1
  N  N11  1  0.00000000  0.50000000  0.50000000  1
  N  N12  1  0.00000000  0.00000000  0.50000000  1
  N  N13  1  0.50000000  0.00000000  0.50000000  1
  N  N14  1  0.47655078  0.76417170  0.96271441  1
  N  N15  1  0.50000000  0.50000000  0.50000000  1
  O  O16  1  0.97369363  0.52932090  0.59822385  1
  O  O17  1  0.27062639  0.07057635  0.28378991  1
  O  O18  1  0.41786626  0.46099932  0.43038822  1
  O  O19  1  0.52630637  0.02932090  0.59822385  1
  O  O20  1  0.72937361  0.92942365  0.71621009  1
  O  O21  1  0.96531538  0.29036346  0.04898125  1
  O  O22  1  0.58108414  0.26228857  0.12392851  1
  O  O23  1  0.91891586  0.76228857  0.12392851  1
  O  O24  1  0.08108414  0.23771143  0.87607149  1
  O  O25  1  0.32253541  0.31519891  0.77712464  1
  O  O26  1  0.58213374  0.53900068  0.56961178  1
  O  O27  1  0.67746459  0.68480109  0.22287536  1
  O  O28  1  0.17746459  0.81519891  0.77712464  1
  O  O29  1  0.47369363  0.97067910  0.40177615  1
  O  O30  1  0.46531538  0.20963654  0.95101875  1
  O  O31  1  0.53468462  0.79036346  0.04898125  1
  O  O32  1  0.03468462  0.70963654  0.95101875  1
  O  O33  1  0.22937361  0.57057635  0.28378991  1
  O  O34  1  0.08213374  0.96099932  0.43038822  1
  O  O35  1  0.77062639  0.42942365  0.71621009  1
  O  O36  1  0.02630637  0.47067910  0.40177615  1
  O  O37  1  0.41891586  0.73771143  0.87607149  1
  O  O38  1  0.82253541  0.18480109  0.22287536  1
  O  O39  1  0.91786626  0.03900068  0.56961178  1
  F  F40  1  0.81038476  0.89499734  0.99382021  1
  F  F41  1  0.24549326  0.88705517  0.04988391  1
  F  F42  1  0.14109977  0.00579015  0.68772094  1
  F  F43  1  0.35890023  0.50579015  0.68772094  1
  F  F44  1  0.60654597  0.26469754  0.77058776  1
  F  F45  1  0.82533989  0.23905386  0.79392807  1
  F  F46  1  0.43413000  0.28821945  0.56913380  1
  F  F47  1  0.27240095  0.13390057  0.55095850  1
  F  F48  1  0.77240095  0.36609943  0.44904150  1
  F  F49  1  0.94132518  0.99792738  0.86093766  1
  F  F50  1  0.15147522  0.48797193  0.74794369  1
  F  F51  1  0.31038476  0.60500266  0.00617979  1
  F  F52  1  0.85890023  0.99420985  0.31227906  1
  F  F53  1  0.09355078  0.25699004  0.65593681  1
  F  F54  1  0.34852478  0.98797193  0.74794369  1
  F  F55  1  0.65147522  0.01202807  0.25205631  1
  F  F56  1  0.29836196  0.85054726  0.50930821  1
  F  F57  1  0.25450674  0.38705517  0.04988391  1
  F  F58  1  0.05867482  0.00207262  0.13906234  1
  F  F59  1  0.75450674  0.11294483  0.95011609  1
  F  F60  1  0.68961524  0.39499734  0.99382021  1
  F  F61  1  0.09110243  0.54444464  0.08925309  1
  F  F62  1  0.40644922  0.75699004  0.65593681  1
  F  F63  1  0.74549326  0.61294483  0.95011609  1
  F  F64  1  0.32533989  0.26094614  0.20607193  1
  F  F65  1  0.18961524  0.10500266  0.00617979  1
  F  F66  1  0.89345403  0.76469754  0.77058776  1
  F  F67  1  0.17466011  0.76094614  0.20607193  1
  F  F68  1  0.90889757  0.45555536  0.91074691  1
  F  F69  1  0.40889757  0.04444464  0.08925309  1
  F  F70  1  0.90644922  0.74300996  0.34406319  1
  F  F71  1  0.84852478  0.51202807  0.25205631  1
  F  F72  1  0.56587000  0.71178055  0.43086620  1
  F  F73  1  0.59355078  0.24300996  0.34406319  1
  F  F74  1  0.72759905  0.86609943  0.44904150  1
  F  F75  1  0.06587000  0.78821945  0.56913380  1
  F  F76  1  0.22759905  0.63390057  0.55095850  1
  F  F77  1  0.59110243  0.95555536  0.91074691  1
  F  F78  1  0.67466011  0.73905386  0.79392807  1
  F  F79  1  0.39345403  0.73530246  0.22941224  1
  F  F80  1  0.44132518  0.50207262  0.13906234  1
  F  F81  1  0.93413000  0.21178055  0.43086620  1
  F  F82  1  0.64109977  0.49420985  0.31227906  1
  F  F83  1  0.55867482  0.49792738  0.86093766  1
  F  F84  1  0.20163804  0.35054726  0.50930821  1
  F  F85  1  0.10654597  0.23530246  0.22941224  1
  F  F86  1  0.79836196  0.64945274  0.49069179  1
  F  F87  1  0.70163804  0.14945274  0.49069179  1
