# generated using pymatgen
data_Cs7Cd3Br13
_symmetry_space_group_name_H-M   'P 1'
_cell_length_a   11.40934443
_cell_length_b   14.26692688
_cell_length_c   14.26692286
_cell_angle_alpha   80.80039545
_cell_angle_beta   66.42214598
_cell_angle_gamma   66.42205933
_symmetry_Int_Tables_number   1
_chemical_formula_structural   Cs7Cd3Br13
_chemical_formula_sum   'Cs14 Cd6 Br26'
_cell_volume   1950.75433601
_cell_formula_units_Z   2
loop_
 _symmetry_equiv_pos_site_id
 _symmetry_equiv_pos_as_xyz
  1  'x, y, z'
loop_
 _atom_site_type_symbol
 _atom_site_label
 _atom_site_symmetry_multiplicity
 _atom_site_fract_x
 _atom_site_fract_y
 _atom_site_fract_z
 _atom_site_occupancy
  Cs  Cs0  1  0.24999931  0.19998993  0.80001039  1
  Cs  Cs1  1  0.21045668  0.49999960  0.07907751  1
  Cs  Cs2  1  0.94997095  0.80001375  0.80001084  1
  Cs  Cs3  1  0.74999983  0.80001029  0.19998963  1
  Cs  Cs4  1  0.28954230  0.92092235  0.50000077  1
  Cs  Cs5  1  0.05002902  0.19998665  0.19998922  1
  Cs  Cs6  1  0.55002986  0.19998769  0.19998531  1
  Cs  Cs7  1  0.75000019  0.19999296  0.80000714  1
  Cs  Cs8  1  0.71045759  0.07907761  0.49999961  1
  Cs  Cs9  1  0.44996949  0.80001203  0.80001478  1
  Cs  Cs10  1  0.25000045  0.50000005  0.49999963  1
  Cs  Cs11  1  0.24999941  0.80000747  0.19999270  1
  Cs  Cs12  1  0.78954216  0.50000118  0.92092236  1
  Cs  Cs13  1  0.75000000  0.50000008  0.49999974  1
  Cd  Cd14  1  0.87288909  0.75435532  0.50000746  1
  Cd  Cd15  1  0.62711085  0.49999222  0.24564465  1
  Cd  Cd16  1  0.12711125  0.24564479  0.49999239  1
  Cd  Cd17  1  0.50000027  -0.00000014  -0.00000014  1
  Cd  Cd18  1  0.37288937  0.50000745  0.75435516  1
  Cd  Cd19  1  0.00000012  -0.00000001  0.00000003  1
  Br  Br20  1  0.34383064  0.66799662  0.64465096  1
  Br  Br21  1  0.89022822  0.00188550  0.21766514  1
  Br  Br22  1  0.52251290  0.49996042  0.85244361  1
  Br  Br23  1  0.97748727  0.14755647  0.50003943  1
  Br  Br24  1  0.48842028  0.66803616  0.35533519  1
  Br  Br25  1  0.65616988  0.33200317  0.35534881  1
  Br  Br26  1  0.62518597  0.85245141  0.49992539  1
  Br  Br27  1  0.10796427  0.78226447  0.00184623  1
  Br  Br28  1  0.15617026  0.35534878  0.33200350  1
  Br  Br29  1  0.39203668  0.99815381  0.21773527  1
  Br  Br30  1  0.60977208  0.78233468  0.99811449  1
  Br  Br31  1  0.60796393  0.00184614  0.78226458  1
  Br  Br32  1  0.47748676  0.50003973  0.14755690  1
  Br  Br33  1  0.37481370  0.14754839  0.50007538  1
  Br  Br34  1  0.01157903  0.64466436  0.33196410  1
  Br  Br35  1  0.51157837  0.33196370  0.64466490  1
  Br  Br36  1  0.98842129  0.35533541  0.66803603  1
  Br  Br37  1  0.24999975  -0.00000155  0.00000216  1
  Br  Br38  1  0.75000033  0.00000190  0.99999806  1
  Br  Br39  1  0.02251317  0.85244329  0.49996054  1
  Br  Br40  1  0.12518617  0.49992487  0.85245196  1
  Br  Br41  1  0.10977219  0.99811427  0.78233461  1
  Br  Br42  1  0.89203636  0.21773552  0.99815323  1
  Br  Br43  1  0.39022904  0.21766518  0.00188490  1
  Br  Br44  1  0.84382915  0.64465136  0.66799688  1
  Br  Br45  1  0.87481414  0.50007466  0.14754858  1
