# generated using pymatgen
data_ScNb6Cl13O3
_symmetry_space_group_name_H-M   'P 1'
_cell_length_a   9.23212006
_cell_length_b   9.23212018
_cell_length_c   27.39275166
_cell_angle_alpha   99.70142644
_cell_angle_beta   99.70142657
_cell_angle_gamma   89.99999729
_symmetry_Int_Tables_number   1
_chemical_formula_structural   ScNb6Cl13O3
_chemical_formula_sum   'Sc4 Nb24 Cl52 O12'
_cell_volume   2267.47161090
_cell_formula_units_Z   4
loop_
 _symmetry_equiv_pos_site_id
 _symmetry_equiv_pos_as_xyz
  1  'x, y, z'
loop_
 _atom_site_type_symbol
 _atom_site_label
 _atom_site_symmetry_multiplicity
 _atom_site_fract_x
 _atom_site_fract_y
 _atom_site_fract_z
 _atom_site_occupancy
  Sc  Sc0  1  0.59415632  0.59415632  0.18831265  1
  Sc  Sc1  1  0.40584368  0.40584368  0.81168735  1
  Sc  Sc2  1  0.34415632  0.84415632  0.68831265  1
  Sc  Sc3  1  0.15584368  0.65584368  0.31168735  1
  Nb  Nb4  1  0.32406933  0.04750138  0.93209468  1
  Nb  Nb5  1  0.21387986  0.24866605  0.68148110  1
  Nb  Nb6  1  0.18281505  0.46387986  0.18148110  1
  Nb  Nb7  1  0.42981949  0.12095012  0.62675751  1
  Nb  Nb8  1  0.28239876  0.00133395  0.81851890  1
  Nb  Nb9  1  0.55306198  0.12904988  0.87324249  1
  Nb  Nb10  1  0.79750138  0.85802535  0.43209468  1
  Nb  Nb11  1  0.25580738  0.67981949  0.12675751  1
  Nb  Nb12  1  0.11540670  0.39197465  0.06790532  1
  Nb  Nb13  1  0.60802535  0.88459330  0.93209468  1
  Nb  Nb14  1  0.56718495  0.53239876  0.31851890  1
  Nb  Nb15  1  0.42593067  0.36540670  0.56790532  1
  Nb  Nb16  1  0.75133395  0.78612014  0.31851890  1
  Nb  Nb17  1  0.32018051  0.74419262  0.87324249  1
  Nb  Nb18  1  0.87095012  0.44693802  0.12675751  1
  Nb  Nb19  1  0.14197465  0.20249862  0.56790532  1
  Nb  Nb20  1  0.46760124  0.43281505  0.68148110  1
  Nb  Nb21  1  0.95249862  0.67593067  0.06790532  1
  Nb  Nb22  1  0.19693802  0.50580738  0.62675751  1
  Nb  Nb23  1  0.53612014  0.81718495  0.81851890  1
  Nb  Nb24  1  0.49419262  0.80306198  0.37324249  1
  Nb  Nb25  1  0.63459330  0.57406933  0.43209468  1
  Nb  Nb26  1  0.99866605  0.71760124  0.18148110  1
  Nb  Nb27  1  0.87904988  0.57018051  0.37324249  1
  Cl  Cl28  1  0.89744737  0.22989224  0.06276634  1
  Cl  Cl29  1  0.49161307  0.65379473  0.94092770  1
  Cl  Cl30  1  0.19734480  0.47878152  0.85740551  1
  Cl  Cl31  1  0.21591765  0.89088324  0.19247952  1
  Cl  Cl32  1  0.99392517  0.12127069  0.62517411  1
  Cl  Cl33  1  0.50259060  0.00259060  0.00518119  1
  Cl  Cl34  1  0.11875106  0.12872931  0.87482589  1
  Cl  Cl35  1  0.34620527  0.50838693  0.05907230  1
  Cl  Cl36  1  0.66006070  0.37862398  0.85740551  1
  Cl  Cl37  1  0.16712591  0.83468103  0.93723366  1
  Cl  Cl38  1  0.75607483  0.74609658  0.87482589  1
  Cl  Cl39  1  0.17235331  0.17235331  1.00000000  1
  Cl  Cl40  1  0.87872931  0.00607483  0.37482589  1
  Cl  Cl41  1  0.58287409  0.14744737  0.56276634  1
  Cl  Cl42  1  0.22878152  0.91006070  0.35740551  1
  Cl  Cl43  1  0.10598961  0.12500000  0.75000000  1
  Cl  Cl44  1  0.49609658  0.36875106  0.37482589  1
  Cl  Cl45  1  0.16531897  0.83287409  0.06276634  1
  Cl  Cl46  1  0.12862398  0.44734480  0.35740551  1
  Cl  Cl47  1  0.30068537  0.59620527  0.55907230  1
  Cl  Cl48  1  0.99740940  0.49740940  0.99481881  1
  Cl  Cl49  1  0.44931463  0.28713297  0.94092770  1
  Cl  Cl50  1  0.63124894  0.50390342  0.62517411  1
  Cl  Cl51  1  0.97656186  0.30159628  0.19247952  1
  Cl  Cl52  1  0.05159628  0.46591765  0.69247952  1
  Cl  Cl53  1  0.77343814  0.35911676  0.30752048  1
  Cl  Cl54  1  0.69840372  0.02343814  0.80752048  1
  Cl  Cl55  1  0.25390342  0.24392517  0.12517411  1
  Cl  Cl56  1  0.55265520  0.87137602  0.64259449  1
  Cl  Cl57  1  0.85255263  0.41712591  0.43723366  1
  Cl  Cl58  1  0.75259060  0.75259060  0.50518119  1
  Cl  Cl59  1  0.92235331  0.07764669  0.50000000  1
  Cl  Cl60  1  0.37500000  0.35598961  0.25000000  1
  Cl  Cl61  1  0.71286703  0.55068537  0.05907230  1
  Cl  Cl62  1  0.58468103  0.02010776  0.43723366  1
  Cl  Cl63  1  0.03713297  0.74161307  0.44092770  1
  Cl  Cl64  1  0.10911676  0.78408235  0.80752048  1
  Cl  Cl65  1  0.87127069  0.88124894  0.12517411  1
  Cl  Cl66  1  0.64088324  0.22656186  0.69247952  1
  Cl  Cl67  1  0.64401039  0.62500000  0.75000000  1
  Cl  Cl68  1  0.52121848  0.80265520  0.14259449  1
  Cl  Cl69  1  0.25838693  0.96286703  0.55907230  1
  Cl  Cl70  1  0.40379473  0.69931463  0.44092770  1
  Cl  Cl71  1  0.62137602  0.33993930  0.14259449  1
  Cl  Cl72  1  0.57764669  0.42235331  0.50000000  1
  Cl  Cl73  1  0.53408235  0.94840372  0.30752048  1
  Cl  Cl74  1  0.08993930  0.77121848  0.64259449  1
  Cl  Cl75  1  0.82764669  0.82764669  0.00000000  1
  Cl  Cl76  1  0.77010776  0.10255263  0.93723366  1
  Cl  Cl77  1  0.87500000  0.89401039  0.25000000  1
  Cl  Cl78  1  0.97989224  0.41531897  0.56276634  1
  Cl  Cl79  1  0.24740940  0.24740940  0.49481881  1
  O  O80  1  0.42769001  0.63194983  0.82156795  1
  O  O81  1  0.32230999  0.06038188  0.67843205  1
  O  O82  1  0.36805017  0.57230999  0.17843205  1
  O  O83  1  0.63178878  0.63178878  0.26357756  1
  O  O84  1  0.81038188  0.60612206  0.17843205  1
  O  O85  1  0.36821122  0.36821122  0.73642244  1
  O  O86  1  0.11821122  0.61821122  0.23642244  1
  O  O87  1  0.93961812  0.67769001  0.32156795  1
  O  O88  1  0.35612206  0.61805017  0.67843205  1
  O  O89  1  0.38178878  0.88178878  0.76357756  1
  O  O90  1  0.38194983  0.64387794  0.32156795  1
  O  O91  1  0.39387794  0.18961812  0.82156795  1
