# generated using pymatgen
data_Ta3In2Cl9
_symmetry_space_group_name_H-M   'P 1'
_cell_length_a   9.58955779
_cell_length_b   9.58955760
_cell_length_c   9.79530444
_cell_angle_alpha   105.31494654
_cell_angle_beta   105.31494620
_cell_angle_gamma   110.30037360
_symmetry_Int_Tables_number   1
_chemical_formula_structural   Ta3In2Cl9
_chemical_formula_sum   'Ta6 In4 Cl18'
_cell_volume   749.15958493
_cell_formula_units_Z   2
loop_
 _symmetry_equiv_pos_site_id
 _symmetry_equiv_pos_as_xyz
  1  'x, y, z'
loop_
 _atom_site_type_symbol
 _atom_site_label
 _atom_site_symmetry_multiplicity
 _atom_site_fract_x
 _atom_site_fract_y
 _atom_site_fract_z
 _atom_site_occupancy
  Ta  Ta0  1  0.03850404  0.22242437  0.13910429  1
  Ta  Ta1  1  0.89810243  0.89810243  0.13164623  1
  Ta  Ta2  1  0.10189757  0.10189757  0.86835377  1
  Ta  Ta3  1  0.77757563  0.96149596  0.86089571  1
  Ta  Ta4  1  0.22242437  0.03850404  0.13910429  1
  Ta  Ta5  1  0.96149596  0.77757563  0.86089571  1
  In  In6  1  0.45391060  0.75776716  0.33683776  1
  In  In7  1  0.75776716  0.45391060  0.33683776  1
  In  In8  1  0.24223284  0.54608940  0.66316224  1
  In  In9  1  0.54608940  0.24223284  0.66316224  1
  Cl  Cl10  1  0.91284122  0.49071408  0.67819090  1
  Cl  Cl11  1  0.31482441  0.31482441  0.33160714  1
  Cl  Cl12  1  0.76592602  0.76592602  0.29637009  1
  Cl  Cl13  1  0.14505418  0.92472568  0.32125125  1
  Cl  Cl14  1  0.16540645  0.38612713  0.00932201  1
  Cl  Cl15  1  0.85494582  0.07527432  0.67874875  1
  Cl  Cl16  1  0.49071408  0.91284122  0.67819090  1
  Cl  Cl17  1  0.78024248  0.21975752  1.00000000  1
  Cl  Cl18  1  0.38612713  0.16540645  0.00932201  1
  Cl  Cl19  1  0.83459355  0.61387287  0.99067799  1
  Cl  Cl20  1  0.21975752  0.78024248  0.00000000  1
  Cl  Cl21  1  0.08715878  0.50928592  0.32180910  1
  Cl  Cl22  1  0.50928592  0.08715878  0.32180910  1
  Cl  Cl23  1  0.23407398  0.23407398  0.70362991  1
  Cl  Cl24  1  0.68517559  0.68517559  0.66839286  1
  Cl  Cl25  1  0.07527432  0.85494582  0.67874875  1
  Cl  Cl26  1  0.92472568  0.14505418  0.32125125  1
  Cl  Cl27  1  0.61387287  0.83459355  0.99067799  1
