# generated using pymatgen
data_Ca5(PPd)6
_symmetry_space_group_name_H-M   'P 1'
_cell_length_a   4.12589131
_cell_length_b   8.26166880
_cell_length_c   19.22560034
_cell_angle_alpha   89.99999923
_cell_angle_beta   89.99997390
_cell_angle_gamma   90.00007370
_symmetry_Int_Tables_number   1
_chemical_formula_structural   Ca5(PPd)6
_chemical_formula_sum   'Ca10 P12 Pd12'
_cell_volume   655.33818448
_cell_formula_units_Z   2
loop_
 _symmetry_equiv_pos_site_id
 _symmetry_equiv_pos_as_xyz
  1  'x, y, z'
loop_
 _atom_site_type_symbol
 _atom_site_label
 _atom_site_symmetry_multiplicity
 _atom_site_fract_x
 _atom_site_fract_y
 _atom_site_fract_z
 _atom_site_occupancy
  Ca  Ca0  1  0.49999997  0.99207935  0.18227848  1
  Ca  Ca1  1  0.99999949  0.00066875  0.62992332  1
  Ca  Ca2  1  0.49999957  0.49208737  0.81772264  1
  Ca  Ca3  1  0.50000017  0.50792043  0.18227892  1
  Ca  Ca4  1  0.00000038  0.99932517  0.37007474  1
  Ca  Ca5  1  0.50000034  0.00791299  0.81772270  1
  Ca  Ca6  1  0.00000126  -0.00000272  0.00000131  1
  Ca  Ca7  1  0.00000001  0.49933069  0.62992345  1
  Ca  Ca8  1  0.99999956  0.50067514  0.37007470  1
  Ca  Ca9  1  0.00000001  0.50000255  0.00000136  1
  P  P10  1  0.49999885  0.74999995  0.05828046  1
  P  P11  1  0.00000054  0.75000009  0.75822306  1
  P  P12  1  0.00000032  0.25000026  0.24177358  1
  P  P13  1  0.50000053  0.74999962  0.57517210  1
  P  P14  1  0.99999991  0.24999989  0.75376202  1
  P  P15  1  0.49999925  0.25000011  0.42482201  1
  P  P16  1  0.49999988  0.25000022  0.57232751  1
  P  P17  1  0.49999940  0.74999959  0.42766955  1
  P  P18  1  0.00000048  0.74999959  0.24623218  1
  P  P19  1  0.00000018  0.75000012  0.87307639  1
  P  P20  1  0.00000028  0.25000014  0.12692760  1
  P  P21  1  0.50000081  0.24999987  0.94172623  1
  Pd  Pd22  1  0.99999867  0.75000074  0.12113255  1
  Pd  Pd23  1  0.49999891  0.25000012  0.69376833  1
  Pd  Pd24  1  0.50000031  0.24999928  0.06699300  1
  Pd  Pd25  1  0.99999932  0.25000012  0.87886170  1
  Pd  Pd26  1  0.49999952  0.24999997  0.30193009  1
  Pd  Pd27  1  0.00000059  0.24999988  0.49928008  1
  Pd  Pd28  1  0.50000080  0.75000034  0.30623455  1
  Pd  Pd29  1  0.49999955  0.75000012  0.69807244  1
  Pd  Pd30  1  0.00000086  0.75000013  0.50072764  1
  Pd  Pd31  1  0.49999996  0.00000007  0.50000258  1
  Pd  Pd32  1  0.50000016  0.50000001  0.50000295  1
  Pd  Pd33  1  0.50000016  0.75000006  0.93299980  1
