# generated using pymatgen
data_Te2MoWSeS
_symmetry_space_group_name_H-M   'P 1'
_cell_length_a   3.39789512
_cell_length_b   3.39792152
_cell_length_c   38.81379127
_cell_angle_alpha   89.99949311
_cell_angle_beta   90.00000000
_cell_angle_gamma   119.99974297
_symmetry_Int_Tables_number   1
_chemical_formula_structural   Te2MoWSeS
_chemical_formula_sum   'Te4 Mo2 W2 Se2 S2'
_cell_volume   388.09776038
_cell_formula_units_Z   2
loop_
 _symmetry_equiv_pos_site_id
 _symmetry_equiv_pos_as_xyz
  1  'x, y, z'
loop_
 _atom_site_type_symbol
 _atom_site_label
 _atom_site_symmetry_multiplicity
 _atom_site_fract_x
 _atom_site_fract_y
 _atom_site_fract_z
 _atom_site_occupancy
  Te  Te0  1  0.33335142  0.66670384  0.70584128  1
  Te  Te1  1  0.66665032  0.33329965  0.42107396  1
  Te  Te2  1  0.66664073  0.33328046  0.51808683  1
  Te  Te3  1  0.33336152  0.66672404  0.60936158  1
  Mo  Mo4  1  0.33331347  0.66662694  0.09395277  1
  Mo  Mo5  1  0.66668816  0.33337633  0.65763660  1
  W  W6  1  0.33330697  0.66661394  0.46958492  1
  W  W7  1  0.66668576  0.33337151  0.28177761  1
  Se  Se8  1  0.33334866  0.66669831  0.32448973  1
  Se  Se9  1  0.33335512  0.66671124  0.23905250  1
  S  S10  1  0.66664921  0.33329741  0.05521429  1
  S  S11  1  0.66664866  0.33329632  0.13267596  1
