# generated using pymatgen
data_Ga4Hg11(AsBr4)4
_symmetry_space_group_name_H-M   'P 1'
_cell_length_a   7.85356379
_cell_length_b   7.92999940
_cell_length_c   23.32367073
_cell_angle_alpha   97.49861796
_cell_angle_beta   90.00000000
_cell_angle_gamma   119.68166034
_symmetry_Int_Tables_number   1
_chemical_formula_structural   Ga4Hg11(AsBr4)4
_chemical_formula_sum   'Ga4 Hg11 As4 Br16'
_cell_volume   1247.65913603
_cell_formula_units_Z   1
loop_
 _symmetry_equiv_pos_site_id
 _symmetry_equiv_pos_as_xyz
  1  'x, y, z'
loop_
 _atom_site_type_symbol
 _atom_site_label
 _atom_site_symmetry_multiplicity
 _atom_site_fract_x
 _atom_site_fract_y
 _atom_site_fract_z
 _atom_site_occupancy
  Ga  Ga0  1  0.36129224  0.72258447  0.10959772  1
  Ga  Ga1  1  0.63870776  0.27741553  0.89040228  1
  Ga  Ga2  1  0.24080330  0.48160659  0.61401173  1
  Ga  Ga3  1  0.75919670  0.51839341  0.38598827  1
  Hg  Hg4  1  0.96835246  0.93670492  0.88360584  1
  Hg  Hg5  1  0.23352374  0.46704748  0.28301349  1
  Hg  Hg6  1  0.52918503  0.05837006  0.55733539  1
  Hg  Hg7  1  0.76499423  0.03199600  0.72077783  1
  Hg  Hg8  1  0.23500577  0.96800400  0.27922217  1
  Hg  Hg9  1  0.73299823  0.96800400  0.27922217  1
  Hg  Hg10  1  0.26700177  0.03199600  0.72077783  1
  Hg  Hg11  1  0.47081497  0.94162994  0.44266461  1
  Hg  Hg12  1  0.03164754  0.06329508  0.11639416  1
  Hg  Hg13  1  0.00000000  0.00000000  0.00000000  1
  Hg  Hg14  1  0.76647626  0.53295252  0.71698651  1
  As  As15  1  0.05713836  0.11427672  0.23139660  1
  As  As16  1  0.94286164  0.88572328  0.76860340  1
  As  As17  1  0.41358808  0.82717616  0.33006359  1
  As  As18  1  0.58641192  0.17282384  0.66993641  1
  Br  Br19  1  0.95075453  0.41721849  0.85083204  1
  Br  Br20  1  0.92860549  0.85721097  0.42071546  1
  Br  Br21  1  0.46890851  0.93781703  0.85106019  1
  Br  Br22  1  0.06998239  0.63585655  0.58493595  1
  Br  Br23  1  0.26246558  0.52493115  0.71667533  1
  Br  Br24  1  0.66296105  0.32592210  0.99091750  1
  Br  Br25  1  0.04924547  0.58278151  0.14916796  1
  Br  Br26  1  0.53353605  0.58278151  0.14916796  1
  Br  Br27  1  0.53109149  0.06218297  0.14893981  1
  Br  Br28  1  0.93001761  0.36414345  0.41506405  1
  Br  Br29  1  0.33703895  0.67407790  0.00908250  1
  Br  Br30  1  0.56587415  0.63585655  0.58493595  1
  Br  Br31  1  0.73753442  0.47506885  0.28332467  1
  Br  Br32  1  0.43412585  0.36414345  0.41506405  1
  Br  Br33  1  0.07139451  0.14278903  0.57928454  1
  Br  Br34  1  0.46646395  0.41721849  0.85083204  1
