# generated using pymatgen
data_Rb5Re3S7
_symmetry_space_group_name_H-M   'P 1'
_cell_length_a   10.88183898
_cell_length_b   10.82816324
_cell_length_c   10.74227198
_cell_angle_alpha   59.74001840
_cell_angle_beta   59.86047627
_cell_angle_gamma   59.93829933
_symmetry_Int_Tables_number   1
_chemical_formula_structural   Rb5Re3S7
_chemical_formula_sum   'Rb10 Re6 S14'
_cell_volume   891.90318640
_cell_formula_units_Z   2
loop_
 _symmetry_equiv_pos_site_id
 _symmetry_equiv_pos_as_xyz
  1  'x, y, z'
loop_
 _atom_site_type_symbol
 _atom_site_label
 _atom_site_symmetry_multiplicity
 _atom_site_fract_x
 _atom_site_fract_y
 _atom_site_fract_z
 _atom_site_occupancy
  Rb  Rb0  1  0.99534244  0.99167904  0.00147523  1
  Rb  Rb1  1  0.00396693  0.58012967  0.00143320  1
  Rb  Rb2  1  -0.00002283  0.99967503  0.57733173  1
  Rb  Rb3  1  0.14094476  0.13962638  0.14851294  1
  Rb  Rb4  1  0.00834432  0.57224024  0.41626422  1
  Rb  Rb5  1  0.57924483  0.00061131  0.99929454  1
  Rb  Rb6  1  0.52178351  0.42436850  0.02741970  1
  Rb  Rb7  1  0.57093938  0.00475020  0.42339291  1
  Rb  Rb8  1  0.42390539  0.85877647  0.85509287  1
  Rb  Rb9  1  0.89270983  0.42775657  0.83546123  1
  Re  Re10  1  0.37830707  0.37551401  0.62444938  1
  Re  Re11  1  0.37833212  0.62406499  0.37472723  1
  Re  Re12  1  0.62334945  0.37792148  0.37498928  1
  Re  Re13  1  0.37739008  0.62313148  0.62425314  1
  Re  Re14  1  0.62238019  0.37699959  0.62493421  1
  Re  Re15  1  0.62254381  0.62403607  0.37614155  1
  S  S16  1  0.22346412  0.21116649  0.78769597  1
  S  S17  1  0.22203369  0.78455528  0.21317334  1
  S  S18  1  0.16276900  0.61236156  0.61295040  1
  S  S19  1  0.38696805  0.38653508  0.38892666  1
  S  S20  1  0.61306983  0.16042957  0.61359444  1
  S  S21  1  0.78420785  0.22481685  0.20756567  1
  S  S22  1  0.38519783  0.38483823  0.84274625  1
  S  S23  1  0.61392216  0.61495746  0.15635358  1
  S  S24  1  0.22138360  0.78019019  0.78407171  1
  S  S25  1  0.38800173  0.83973086  0.38548157  1
  S  S26  1  0.61195858  0.61317750  0.61499326  1
  S  S27  1  0.83732767  0.38721098  0.38685968  1
  S  S28  1  0.77955603  0.22361396  0.78687762  1
  S  S29  1  0.78197858  0.78443496  0.21643650  1
