# generated using pymatgen
data_CsY10(C2I9)2
_symmetry_space_group_name_H-M   'P 1'
_cell_length_a   11.32906302
_cell_length_b   11.38462158
_cell_length_c   11.50267187
_cell_angle_alpha   66.73527612
_cell_angle_beta   87.18823774
_cell_angle_gamma   60.67031959
_symmetry_Int_Tables_number   1
_chemical_formula_structural   CsY10(C2I9)2
_chemical_formula_sum   'Cs1 Y10 C4 I18'
_cell_volume   1168.76514982
_cell_formula_units_Z   1
loop_
 _symmetry_equiv_pos_site_id
 _symmetry_equiv_pos_as_xyz
  1  'x, y, z'
loop_
 _atom_site_type_symbol
 _atom_site_label
 _atom_site_symmetry_multiplicity
 _atom_site_fract_x
 _atom_site_fract_y
 _atom_site_fract_z
 _atom_site_occupancy
  Cs  Cs0  1  0.50000000  0.00000000  0.50000000  1
  Y  Y1  1  0.32468106  0.72358153  0.28977949  1
  Y  Y2  1  0.72246389  0.35314898  0.98469130  1
  Y  Y3  1  0.90740357  0.39307009  0.70799654  1
  Y  Y4  1  0.03503005  0.03771998  0.67627469  1
  Y  Y5  1  0.09259643  0.60692991  0.29200346  1
  Y  Y6  1  0.89378025  0.94414938  0.99929074  1
  Y  Y7  1  0.96496995  0.96228002  0.32372531  1
  Y  Y8  1  0.67531894  0.27641847  0.71022051  1
  Y  Y9  1  0.27753611  0.64685102  0.01530870  1
  Y  Y10  1  0.10621975  0.05585062  0.00070926  1
  C  C11  1  0.84827645  0.22029092  0.87869868  1
  C  C12  1  0.15172355  0.77970908  0.12130132  1
  C  C13  1  0.07714485  0.85469981  0.19712896  1
  C  C14  1  0.92285515  0.14530019  0.80287104  1
  I  I15  1  0.55319557  0.52914831  0.16847731  1
  I  I16  1  0.61219610  0.03943674  0.84132929  1
  I  I17  1  0.22503111  0.85575230  0.50105516  1
  I  I18  1  0.16597764  0.31222571  0.84651088  1
  I  I19  1  0.44680443  0.47085169  0.83152269  1
  I  I20  1  0.77496889  0.14424770  0.49894484  1
  I  I21  1  0.68105535  0.09549156  0.17050708  1
  I  I22  1  0.31894465  0.90450844  0.82949292  1
  I  I23  1  0.02271874  0.75461067  0.82941232  1
  I  I24  1  0.06718685  0.29940950  0.49700407  1
  I  I25  1  0.97728126  0.24538933  0.17058768  1
  I  I26  1  0.93281315  0.70059050  0.50299593  1
  I  I27  1  0.73802340  0.62529796  0.81727852  1
  I  I28  1  0.26197660  0.37470204  0.18272148  1
  I  I29  1  0.35834619  0.43246234  0.50113879  1
  I  I30  1  0.83402236  0.68777429  0.15348912  1
  I  I31  1  0.38780390  0.96056326  0.15867071  1
  I  I32  1  0.64165381  0.56753766  0.49886121  1
