# generated using pymatgen
data_CsSbOF4
_symmetry_space_group_name_H-M   'P 1'
_cell_length_a   9.12856425
_cell_length_b   9.12856396
_cell_length_c   21.07829718
_cell_angle_alpha   90.00000000
_cell_angle_beta   90.00000000
_cell_angle_gamma   105.71341392
_symmetry_Int_Tables_number   1
_chemical_formula_structural   CsSbOF4
_chemical_formula_sum   'Cs12 Sb12 O12 F48'
_cell_volume   1690.82678292
_cell_formula_units_Z   12
loop_
 _symmetry_equiv_pos_site_id
 _symmetry_equiv_pos_as_xyz
  1  'x, y, z'
loop_
 _atom_site_type_symbol
 _atom_site_label
 _atom_site_symmetry_multiplicity
 _atom_site_fract_x
 _atom_site_fract_y
 _atom_site_fract_z
 _atom_site_occupancy
  Cs  Cs0  1  0.66932014  0.66932014  0.39173949  1
  Cs  Cs1  1  0.30692393  0.80692393  0.25000000  1
  Cs  Cs2  1  0.30288460  0.69711540  0.00000000  1
  Cs  Cs3  1  0.19307607  0.69307607  0.75000000  1
  Cs  Cs4  1  0.80692393  0.30692393  0.25000000  1
  Cs  Cs5  1  0.19711540  0.80288460  0.50000000  1
  Cs  Cs6  1  0.83067986  0.83067986  0.89173949  1
  Cs  Cs7  1  0.33067986  0.33067986  0.60826051  1
  Cs  Cs8  1  0.69711540  0.30288460  0.00000000  1
  Cs  Cs9  1  0.69307607  0.19307607  0.75000000  1
  Cs  Cs10  1  0.16932014  0.16932014  0.10826051  1
  Cs  Cs11  1  0.80288460  0.19711540  0.50000000  1
  Sb  Sb12  1  0.56959925  0.81635242  0.61602473  1
  Sb  Sb13  1  0.46899171  0.46899171  0.85174482  1
  Sb  Sb14  1  0.43040075  0.18364758  0.38397527  1
  Sb  Sb15  1  0.31635242  0.06959925  0.88397527  1
  Sb  Sb16  1  0.53100829  0.53100829  0.14825518  1
  Sb  Sb17  1  0.18364758  0.43040075  0.38397527  1
  Sb  Sb18  1  0.81635242  0.56959925  0.61602473  1
  Sb  Sb19  1  0.93040075  0.68364758  0.11602473  1
  Sb  Sb20  1  0.68364758  0.93040075  0.11602473  1
  Sb  Sb21  1  0.96899171  0.96899171  0.64825518  1
  Sb  Sb22  1  0.03100829  0.03100829  0.35174482  1
  Sb  Sb23  1  0.06959925  0.31635242  0.88397527  1
  O  O24  1  0.96967356  0.76606845  0.61855833  1
  O  O25  1  0.63064278  0.63064278  0.63456175  1
  O  O26  1  0.46967356  0.26606845  0.88144167  1
  O  O27  1  0.36935722  0.36935722  0.36543825  1
  O  O28  1  0.86935722  0.86935722  0.13456175  1
  O  O29  1  0.76606845  0.96967356  0.61855833  1
  O  O30  1  0.23393155  0.03032644  0.38144167  1
  O  O31  1  0.26606845  0.46967356  0.88144167  1
  O  O32  1  0.53032644  0.73393155  0.11855833  1
  O  O33  1  0.13064278  0.13064278  0.86543825  1
  O  O34  1  0.73393155  0.53032644  0.11855833  1
  O  O35  1  0.03032644  0.23393155  0.38144167  1
  F  F36  1  0.00516903  0.82238253  0.32538566  1
  F  F37  1  0.70965492  0.91877187  0.02444643  1
  F  F38  1  0.09887608  0.09887608  0.26647700  1
  F  F39  1  0.01601498  0.51605154  0.09507785  1
  F  F40  1  0.64042991  0.31332841  0.38667979  1
  F  F41  1  0.51601498  0.01605154  0.40492215  1
  F  F42  1  0.01605154  0.51601498  0.40492215  1
  F  F43  1  0.53150816  0.85004546  0.70454369  1
  F  F44  1  0.94580379  0.94580379  0.43318631  1
  F  F45  1  0.51605154  0.01601498  0.09507785  1
  F  F46  1  0.79034508  0.58122813  0.52444643  1
  F  F47  1  0.48394846  0.98398502  0.90492215  1
  F  F48  1  0.32238253  0.50516903  0.17461434  1
  F  F49  1  0.59887608  0.59887608  0.23352300  1
  F  F50  1  0.55419621  0.55419621  0.93318631  1
  F  F51  1  0.85004546  0.53150816  0.70454369  1
  F  F52  1  0.03150816  0.35004546  0.79545631  1
  F  F53  1  0.44580379  0.44580379  0.06681369  1
  F  F54  1  0.64995454  0.96849184  0.20454369  1
  F  F55  1  0.99483097  0.17761747  0.67461434  1
  F  F56  1  0.91877187  0.70965492  0.02444643  1
  F  F57  1  0.85957009  0.18667159  0.88667979  1
  F  F58  1  0.81332841  0.14042991  0.11332021  1
  F  F59  1  0.58122813  0.79034508  0.52444643  1
  F  F60  1  0.48398502  0.98394846  0.59507785  1
  F  F61  1  0.17761747  0.99483097  0.67461434  1
  F  F62  1  0.31332841  0.64042991  0.38667979  1
  F  F63  1  0.67761747  0.49483097  0.82538566  1
  F  F64  1  0.40112392  0.40112392  0.76647700  1
  F  F65  1  0.29034508  0.08122813  0.97555357  1
  F  F66  1  0.96849184  0.64995454  0.20454369  1
  F  F67  1  0.14995454  0.46849184  0.29545631  1
  F  F68  1  0.68667159  0.35957009  0.61332021  1
  F  F69  1  0.46849184  0.14995454  0.29545631  1
  F  F70  1  0.14042991  0.81332841  0.11332021  1
  F  F71  1  0.08122813  0.29034508  0.97555357  1
  F  F72  1  0.41877187  0.20965492  0.47555357  1
  F  F73  1  0.82238253  0.00516903  0.32538566  1
  F  F74  1  0.18667159  0.85957009  0.88667979  1
  F  F75  1  0.98398502  0.48394846  0.90492215  1
  F  F76  1  0.98394846  0.48398502  0.59507785  1
  F  F77  1  0.20965492  0.41877187  0.47555357  1
  F  F78  1  0.90112392  0.90112392  0.73352300  1
  F  F79  1  0.50516903  0.32238253  0.17461434  1
  F  F80  1  0.35004546  0.03150816  0.79545631  1
  F  F81  1  0.49483097  0.67761747  0.82538566  1
  F  F82  1  0.05419621  0.05419621  0.56681369  1
  F  F83  1  0.35957009  0.68667159  0.61332021  1
