# generated using pymatgen
data_KRb5Zn4Sn5S17
_symmetry_space_group_name_H-M   'P 1'
_cell_length_a   10.07400823
_cell_length_b   11.18445627
_cell_length_c   11.19081523
_cell_angle_alpha   78.24625340
_cell_angle_beta   62.97289594
_cell_angle_gamma   63.12329709
_symmetry_Int_Tables_number   1
_chemical_formula_structural   KRb5Zn4Sn5S17
_chemical_formula_sum   'K1 Rb5 Zn4 Sn5 S17'
_cell_volume   1001.86645463
_cell_formula_units_Z   1
loop_
 _symmetry_equiv_pos_site_id
 _symmetry_equiv_pos_as_xyz
  1  'x, y, z'
loop_
 _atom_site_type_symbol
 _atom_site_label
 _atom_site_symmetry_multiplicity
 _atom_site_fract_x
 _atom_site_fract_y
 _atom_site_fract_z
 _atom_site_occupancy
  K  K0  1  0.74947009  0.50096290  0.50046122  1
  Rb  Rb1  1  0.00730933  0.50945395  0.98374342  1
  Rb  Rb2  1  0.00705308  0.98376826  0.50212214  1
  Rb  Rb3  1  0.49365164  0.01297466  0.50014954  1
  Rb  Rb4  1  0.48808994  0.50468404  0.01419811  1
  Rb  Rb5  1  0.94407784  0.13558490  0.04085511  1
  Zn  Zn6  1  0.11757401  0.63831383  0.36140582  1
  Zn  Zn7  1  0.11739726  0.36219231  0.63654212  1
  Zn  Zn8  1  0.24388985  0.63915228  0.63871974  1
  Zn  Zn9  1  0.51836204  0.36345854  0.36426621  1
  Sn  Sn10  1  0.50331138  0.99674646  0.99818605  1
  Sn  Sn11  1  0.25064852  0.27878200  0.27798967  1
  Sn  Sn12  1  0.46940013  0.27862676  0.72359242  1
  Sn  Sn13  1  0.46920222  0.72248106  0.27791233  1
  Sn  Sn14  1  0.81062440  0.72070276  0.72166671  1
  S  S15  1  0.22216655  0.14311582  0.14443918  1
  S  S16  1  0.10991394  0.22467441  0.50651599  1
  S  S17  1  0.10921535  0.50688984  0.22521067  1
  S  S18  1  0.24403068  0.22085240  0.77812890  1
  S  S19  1  0.24522527  0.77850561  0.22016754  1
  S  S20  1  0.24859391  0.50114627  0.50072210  1
  S  S21  1  0.53426362  0.22156233  0.22185473  1
  S  S22  1  0.38390482  0.50750073  0.77419880  1
  S  S23  1  0.38569763  0.77291747  0.50672186  1
  S  S24  1  0.66435915  0.22567192  0.49350556  1
  S  S25  1  0.66659915  0.49146231  0.22528135  1
  S  S26  1  0.63410469  0.85518001  0.14541942  1
  S  S27  1  0.63415671  0.14499951  0.85579296  1
  S  S28  1  0.51197021  0.85384165  0.85395375  1
  S  S29  1  0.84168918  0.77240561  0.49348780  1
  S  S30  1  0.84197473  0.49151029  0.77497866  1
  S  S31  1  0.97537267  0.77987911  0.77981012  1
