# generated using pymatgen
data_Ba7Al64O103
_symmetry_space_group_name_H-M   'P 1'
_cell_length_a   9.80636250
_cell_length_b   9.80636243
_cell_length_c   23.17700922
_cell_angle_alpha   90.00000000
_cell_angle_beta   90.00000000
_cell_angle_gamma   120.00000024
_symmetry_Int_Tables_number   1
_chemical_formula_structural   Ba7Al64O103
_chemical_formula_sum   'Ba7 Al64 O103'
_cell_volume   1930.20709406
_cell_formula_units_Z   1
loop_
 _symmetry_equiv_pos_site_id
 _symmetry_equiv_pos_as_xyz
  1  'x, y, z'
loop_
 _atom_site_type_symbol
 _atom_site_label
 _atom_site_symmetry_multiplicity
 _atom_site_fract_x
 _atom_site_fract_y
 _atom_site_fract_z
 _atom_site_occupancy
  Ba  Ba0  1  1.00000000  0.33077263  0.50000000  1
  Ba  Ba1  1  0.33333300  0.66666700  0.00000000  1
  Ba  Ba2  1  0.00000000  0.00000000  0.77683518  1
  Ba  Ba3  1  0.66922737  0.66922737  0.50000000  1
  Ba  Ba4  1  0.33077263  0.00000000  0.50000000  1
  Ba  Ba5  1  0.66666700  0.33333300  0.00000000  1
  Ba  Ba6  1  0.00000000  0.00000000  0.22316482  1
  Al  Al7  1  0.66666700  0.33333300  0.57517818  1
  Al  Al8  1  0.49070244  0.32068850  0.84786413  1
  Al  Al9  1  0.00000000  0.00000000  0.57585042  1
  Al  Al10  1  0.83867396  0.66991170  0.64296832  1
  Al  Al11  1  0.00000000  0.81088615  0.06960273  1
  Al  Al12  1  0.00000000  0.00000000  0.42414958  1
  Al  Al13  1  0.66666700  0.33333300  0.72266781  1
  Al  Al14  1  0.16132604  0.83123775  0.35703168  1
  Al  Al15  1  0.16876225  0.33008830  0.35703168  1
  Al  Al16  1  0.50929756  0.82998605  0.84786413  1
  Al  Al17  1  1.00000000  0.66778313  0.25414325  1
  Al  Al18  1  0.32068850  0.49070244  0.84786413  1
  Al  Al19  1  0.34200342  0.00000000  0.76858890  1
  Al  Al20  1  0.67931150  0.17001395  0.15213587  1
  Al  Al21  1  0.49647113  0.00000000  0.64200818  1
  Al  Al22  1  0.50929756  0.82998605  0.15213587  1
  Al  Al23  1  0.17001395  0.67931150  0.84786413  1
  Al  Al24  1  0.66778313  0.00000000  0.74585675  1
  Al  Al25  1  0.49647113  0.00000000  0.35799182  1
  Al  Al26  1  0.66666700  0.33333300  0.42482182  1
  Al  Al27  1  0.65799658  0.65799658  0.23141110  1
  Al  Al28  1  0.33221687  0.33221687  0.74585675  1
  Al  Al29  1  0.83123775  0.16132604  0.64296832  1
  Al  Al30  1  0.66666700  0.33333300  0.27733219  1
  Al  Al31  1  0.00000000  0.34200342  0.76858890  1
  Al  Al32  1  0.66991170  0.83867396  0.64296832  1
  Al  Al33  1  0.82998605  0.50929756  0.84786413  1
  Al  Al34  1  0.50352887  0.50352887  0.35799182  1
  Al  Al35  1  0.18911385  0.18911385  0.06960273  1
  Al  Al36  1  0.00000000  0.49647113  0.35799182  1
  Al  Al37  1  0.33008830  0.16876225  0.64296832  1
  Al  Al38  1  0.33333300  0.66666700  0.27733219  1
  Al  Al39  1  0.33008830  0.16876225  0.35703168  1
  Al  Al40  1  0.00000000  0.81088615  0.93039727  1
  Al  Al41  1  0.83123775  0.16132604  0.35703168  1
  Al  Al42  1  0.17001395  0.67931150  0.15213587  1
  Al  Al43  1  0.65799658  0.65799658  0.76858890  1
  Al  Al44  1  0.66991170  0.83867396  0.35703168  1
  Al  Al45  1  0.34200342  0.00000000  0.23141110  1
  Al  Al46  1  0.67931150  0.17001395  0.84786413  1
  Al  Al47  1  0.49070244  0.32068850  0.15213587  1
  Al  Al48  1  0.16132604  0.83123775  0.64296832  1
  Al  Al49  1  0.33333300  0.66666700  0.42482182  1
  Al  Al50  1  0.35967291  0.00000000  0.92602757  1
  Al  Al51  1  0.64032709  0.64032709  0.92602757  1
  Al  Al52  1  0.00000000  0.35967291  0.07397243  1
  Al  Al53  1  1.00000000  0.66778313  0.74585675  1
  Al  Al54  1  0.81088615  0.00000000  0.93039727  1
  Al  Al55  1  0.33333300  0.66666700  0.72266781  1
  Al  Al56  1  0.16876225  0.33008830  0.64296832  1
  Al  Al57  1  0.66778313  0.00000000  0.25414325  1
  Al  Al58  1  0.35967291  0.00000000  0.07397243  1
  Al  Al59  1  0.83867396  0.66991170  0.35703168  1
  Al  Al60  1  0.50352887  0.50352887  0.64200818  1
  Al  Al61  1  0.33221687  0.33221687  0.25414325  1
  Al  Al62  1  0.00000000  0.34200342  0.23141110  1
  Al  Al63  1  0.64032709  0.64032709  0.07397243  1
  Al  Al64  1  0.00000000  0.35967291  0.92602757  1
  Al  Al65  1  0.32068850  0.49070244  0.15213587  1
  Al  Al66  1  0.82998605  0.50929756  0.15213587  1
  Al  Al67  1  0.18911385  0.18911385  0.93039727  1
  Al  Al68  1  0.00000000  0.49647113  0.64200818  1
  Al  Al69  1  0.81088615  0.00000000  0.06960273  1
  Al  Al70  1  0.33333300  0.66666700  0.57517818  1
  O  O71  1  0.50730727  0.67083765  0.39932170  1
  O  O72  1  0.00000000  0.33232628  0.68966707  1
  O  O73  1  0.82906034  0.33728181  0.89179417  1
  O  O74  1  0.00000000  0.51553363  0.20303926  1
  O  O75  1  0.66598429  0.00000000  0.11345629  1
  O  O76  1  0.34323097  0.49929660  0.69605928  1
  O  O77  1  1.00000000  0.66598429  0.88654371  1
  O  O78  1  0.65676903  0.15606563  0.30394072  1
  O  O79  1  0.40011141  0.00000000  0.00000000  1
  O  O80  1  0.59988859  0.59988859  0.00000000  1
  O  O81  1  0.16976488  0.82504860  0.20838896  1
  O  O82  1  0.17093966  0.50822147  0.89179417  1
  O  O83  1  0.32916235  0.83646962  0.39932170  1
  O  O84  1  0.49269273  0.16353038  0.60067830  1
  O  O85  1  0.65528372  0.83023512  0.79161104  1
  O  O86  1  0.67083765  0.50730727  0.60067830  1
  O  O87  1  0.66598429  0.00000000  0.88654371  1
  O  O88  1  0.48446637  0.48446637  0.20303926  1
  O  O89  1  0.82860868  0.82860868  0.60048853  1
  O  O90  1  0.33232628  0.00000000  0.68966707  1
  O  O91  1  0.34471628  0.17495140  0.20838896  1
  O  O92  1  0.66767372  0.66767372  0.31033293  1
  O  O93  1  0.83023512  0.65528372  0.79161104  1
  O  O94  1  0.16976488  0.82504860  0.79161104  1
  O  O95  1  0.33333300  0.66666700  0.80199000  1
  O  O96  1  0.34471628  0.17495140  0.79161104  1
  O  O97  1  0.00000000  0.75576998  0.00000000  1
  O  O98  1  0.80716352  0.00000000  0.30639042  1
  O  O99  1  0.84393437  0.50070340  0.30394072  1
  O  O100  1  1.00000000  0.40011141  0.00000000  1
  O  O101  1  0.80716352  0.00000000  0.69360958  1
  O  O102  1  0.33728181  0.82906034  0.10820583  1
  O  O103  1  0.34323097  0.49929660  0.30394072  1
  O  O104  1  1.00000000  0.66598429  0.11345629  1
  O  O105  1  0.15606563  0.65676903  0.30394072  1
  O  O106  1  0.66271819  0.49177853  0.10820583  1
  O  O107  1  0.48446637  0.48446637  0.79696074  1
  O  O108  1  0.49929660  0.34323097  0.69605928  1
  O  O109  1  0.83023512  0.65528372  0.20838896  1
  O  O110  1  0.33919547  0.33919547  0.60382874  1
  O  O111  1  0.33401571  0.33401571  0.11345629  1
  O  O112  1  0.00000000  0.33232628  0.31033293  1
  O  O113  1  0.33728181  0.82906034  0.89179417  1
  O  O114  1  0.49177853  0.66271819  0.10820583  1
  O  O115  1  0.66666700  0.33333300  0.19801000  1
  O  O116  1  0.17265709  0.00000000  0.91552576  1
  O  O117  1  0.66666700  0.33333300  0.50000000  1
  O  O118  1  0.00000000  0.17265709  0.08447424  1
  O  O119  1  0.00000000  0.17265709  0.91552576  1
  O  O120  1  1.00000000  0.17139132  0.60048853  1
  O  O121  1  0.83646962  0.32916235  0.60067830  1
  O  O122  1  0.17139132  0.00000000  0.60048853  1
  O  O123  1  0.00000000  0.51553363  0.79696074  1
  O  O124  1  0.33333300  0.66666700  0.50000000  1
  O  O125  1  0.82504860  0.16976488  0.79161104  1
  O  O126  1  0.17093966  0.50822147  0.10820583  1
  O  O127  1  0.19283648  0.19283648  0.69360958  1
  O  O128  1  0.82734291  0.82734291  0.91552576  1
  O  O129  1  1.00000000  0.17139132  0.39951147  1
  O  O130  1  0.33232628  0.00000000  0.31033293  1
  O  O131  1  0.33401571  0.33401571  0.88654371  1
  O  O132  1  0.84393437  0.50070340  0.69605928  1
  O  O133  1  0.17495140  0.34471628  0.20838896  1
  O  O134  1  0.66080453  0.00000000  0.60382874  1
  O  O135  1  0.75576998  0.00000000  0.00000000  1
  O  O136  1  0.66767372  0.66767372  0.68966707  1
  O  O137  1  0.33919547  0.33919547  0.39617126  1
  O  O138  1  0.19283648  0.19283648  0.30639042  1
  O  O139  1  0.17495140  0.34471628  0.79161104  1
  O  O140  1  0.33333300  0.66666700  0.19801000  1
  O  O141  1  0.82906034  0.33728181  0.10820583  1
  O  O142  1  0.50730727  0.67083765  0.60067830  1
  O  O143  1  0.82860868  0.82860868  0.39951147  1
  O  O144  1  0.16353038  0.49269273  0.39932170  1
  O  O145  1  0.66666700  0.33333300  0.80199000  1
  O  O146  1  0.82504860  0.16976488  0.20838896  1
  O  O147  1  0.65676903  0.15606563  0.69605928  1
  O  O148  1  0.51553363  0.00000000  0.79696074  1
  O  O149  1  0.00000000  0.66080453  0.39617126  1
  O  O150  1  0.49929660  0.34323097  0.30394072  1
  O  O151  1  0.17139132  0.00000000  0.39951147  1
  O  O152  1  0.17265709  0.00000000  0.08447424  1
  O  O153  1  0.82734291  0.82734291  0.08447424  1
  O  O154  1  1.00000000  0.80716352  0.30639042  1
  O  O155  1  1.00000000  0.80716352  0.69360958  1
  O  O156  1  0.66080453  0.00000000  0.39617126  1
  O  O157  1  0.50070340  0.84393437  0.69605928  1
  O  O158  1  0.49269273  0.16353038  0.39932170  1
  O  O159  1  0.50822147  0.17093966  0.89179417  1
  O  O160  1  0.83646962  0.32916235  0.39932170  1
  O  O161  1  0.50822147  0.17093966  0.10820583  1
  O  O162  1  0.51553363  0.00000000  0.20303926  1
  O  O163  1  0.32916235  0.83646962  0.60067830  1
  O  O164  1  0.24423002  0.24423002  0.00000000  1
  O  O165  1  0.67083765  0.50730727  0.39932170  1
  O  O166  1  0.00000000  0.00000000  0.50000000  1
  O  O167  1  0.66271819  0.49177853  0.89179417  1
  O  O168  1  0.16353038  0.49269273  0.60067830  1
  O  O169  1  0.50070340  0.84393437  0.30394072  1
  O  O170  1  0.15606563  0.65676903  0.69605928  1
  O  O171  1  0.65528372  0.83023512  0.20838896  1
  O  O172  1  0.49177853  0.66271819  0.89179417  1
  O  O173  1  0.00000000  0.66080453  0.60382874  1
