# generated using pymatgen
data_SrZr12B2I5Cl23
_symmetry_space_group_name_H-M   'P 1'
_cell_length_a   13.53942815
_cell_length_b   13.62075416
_cell_length_c   13.55608457
_cell_angle_alpha   90.00000000
_cell_angle_beta   90.31456078
_cell_angle_gamma   90.00000000
_symmetry_Int_Tables_number   1
_chemical_formula_structural   SrZr12B2I5Cl23
_chemical_formula_sum   'Sr2 Zr24 B4 I10 Cl46'
_cell_volume   2499.93778479
_cell_formula_units_Z   2
loop_
 _symmetry_equiv_pos_site_id
 _symmetry_equiv_pos_as_xyz
  1  'x, y, z'
loop_
 _atom_site_type_symbol
 _atom_site_label
 _atom_site_symmetry_multiplicity
 _atom_site_fract_x
 _atom_site_fract_y
 _atom_site_fract_z
 _atom_site_occupancy
  Sr  Sr0  1  0.77371563  0.72195458  0.28134923  1
  Sr  Sr1  1  0.77371563  0.77804542  0.78134923  1
  Zr  Zr2  1  0.05139574  0.64935474  0.43884183  1
  Zr  Zr3  1  0.05139574  0.85064526  0.93884183  1
  Zr  Zr4  1  0.06764766  0.54032367  0.65179523  1
  Zr  Zr5  1  0.06764766  0.95967633  0.15179523  1
  Zr  Zr6  1  0.15524548  0.43396446  0.45458470  1
  Zr  Zr7  1  0.15524548  0.06603554  0.95458470  1
  Zr  Zr8  1  0.34551050  0.93946258  0.45469540  1
  Zr  Zr9  1  0.34551050  0.56053742  0.95469540  1
  Zr  Zr10  1  0.43598396  0.04810866  0.65299353  1
  Zr  Zr11  1  0.43598396  0.45189134  0.15299353  1
  Zr  Zr12  1  0.45162569  0.15457939  0.43738344  1
  Zr  Zr13  1  0.45162569  0.34542061  0.93738344  1
  Zr  Zr14  1  0.53906083  0.64779453  0.06437276  1
  Zr  Zr15  1  0.53906083  0.85220547  0.56437276  1
  Zr  Zr16  1  0.55866225  0.54024924  0.84919962  1
  Zr  Zr17  1  0.55866225  0.95975076  0.34919962  1
  Zr  Zr18  1  0.64978195  0.43282555  0.04437263  1
  Zr  Zr19  1  0.64978195  0.06717445  0.54437263  1
  Zr  Zr20  1  0.85114283  0.55726940  0.54393007  1
  Zr  Zr21  1  0.85114283  0.94273060  0.04393007  1
  Zr  Zr22  1  0.93907177  0.05428942  0.84759582  1
  Zr  Zr23  1  0.93907177  0.44571058  0.34759582  1
  Zr  Zr24  1  0.95656669  0.15392201  0.06399018  1
  Zr  Zr25  1  0.95656669  0.34607799  0.56399018  1
  B  B26  1  0.00375682  0.00355436  0.99872958  1
  B  B27  1  0.00375682  0.49644564  0.49872958  1
  B  B28  1  0.49678213  0.00425613  0.50099585  1
  B  B29  1  0.49678213  0.49574387  0.00099585  1
  I  I30  1  0.12950530  0.86870133  0.37236468  1
  I  I31  1  0.12950530  0.63129867  0.87236468  1
  I  I32  1  0.37074979  0.37010182  0.37047516  1
  I  I33  1  0.37074979  0.12989818  0.87047516  1
  I  I34  1  0.63482952  0.63367589  0.63432609  1
  I  I35  1  0.63482952  0.86632411  0.13432609  1
  I  I36  1  0.86930431  0.36613240  0.13194124  1
  I  I37  1  0.86930431  0.13386760  0.63194124  1
  I  I38  1  0.98728188  0.62017876  0.23221538  1
  I  I39  1  0.98728188  0.87982124  0.73221538  1
  Cl  Cl40  1  0.02059416  0.11813338  0.23815323  1
  Cl  Cl41  1  0.02059416  0.38186662  0.73815323  1
  Cl  Cl42  1  0.09948258  0.37583196  0.28523100  1
  Cl  Cl43  1  0.09948258  0.12416804  0.78523100  1
  Cl  Cl44  1  0.12554339  0.70925603  0.59822038  1
  Cl  Cl45  1  0.12554339  0.79074397  0.09822038  1
  Cl  Cl46  1  0.11873647  0.23786880  0.02131232  1
  Cl  Cl47  1  0.11873647  0.26213120  0.52131232  1
  Cl  Cl48  1  0.21913237  0.90424630  0.88272519  1
  Cl  Cl49  1  0.21913237  0.59575370  0.38272519  1
  Cl  Cl50  1  0.23974089  0.02267666  0.11767355  1
  Cl  Cl51  1  0.23974089  0.47732334  0.61767355  1
  Cl  Cl52  1  0.26301044  0.52035598  0.11881727  1
  Cl  Cl53  1  0.26301044  0.97964402  0.61881727  1
  Cl  Cl54  1  0.28197721  0.09855232  0.37970359  1
  Cl  Cl55  1  0.28197721  0.40144768  0.87970359  1
  Cl  Cl56  1  0.38103999  0.76537853  0.51963202  1
  Cl  Cl57  1  0.38103999  0.73462147  0.01963202  1
  Cl  Cl58  1  0.38016227  0.28284483  0.09884794  1
  Cl  Cl59  1  0.38016227  0.21715517  0.59884794  1
  Cl  Cl60  1  0.40166672  0.61914586  0.78464180  1
  Cl  Cl61  1  0.40166672  0.88085414  0.28464180  1
  Cl  Cl62  1  0.48175038  0.61547390  0.23857522  1
  Cl  Cl63  1  0.48175038  0.88452610  0.73857522  1
  Cl  Cl64  1  0.51909799  0.11953184  0.26406699  1
  Cl  Cl65  1  0.51909799  0.38046816  0.76406699  1
  Cl  Cl66  1  0.59965130  0.11834410  0.71637749  1
  Cl  Cl67  1  0.59965130  0.38165590  0.21637749  1
  Cl  Cl68  1  0.61192910  0.71808098  0.90272417  1
  Cl  Cl69  1  0.61192910  0.78191902  0.40272417  1
  Cl  Cl70  1  0.61658506  0.26219945  0.97857265  1
  Cl  Cl71  1  0.61658506  0.23780055  0.47857265  1
  Cl  Cl72  1  0.71838141  0.59949188  0.11386532  1
  Cl  Cl73  1  0.71838141  0.90050812  0.61386532  1
  Cl  Cl74  1  0.73595335  0.01674150  0.38355090  1
  Cl  Cl75  1  0.73595335  0.48325850  0.88355090  1
  Cl  Cl76  1  0.76187643  0.52130337  0.37861276  1
  Cl  Cl77  1  0.76187643  0.97869663  0.87861276  1
  Cl  Cl78  1  0.78452838  0.40192972  0.61760679  1
  Cl  Cl79  1  0.78452838  0.09807028  0.11760679  1
  Cl  Cl80  1  0.88190585  0.76411573  0.97786366  1
  Cl  Cl81  1  0.88190585  0.73588427  0.47786366  1
  Cl  Cl82  1  0.87911913  0.21845613  0.90432920  1
  Cl  Cl83  1  0.87911913  0.28154387  0.40432920  1
  Cl  Cl84  1  0.90181439  0.88638230  0.21814412  1
  Cl  Cl85  1  0.90181439  0.61361770  0.71814412  1
