# generated using pymatgen
data_NbTl2PO6
_symmetry_space_group_name_H-M   'P 1'
_cell_length_a   15.98630147
_cell_length_b   15.98630168
_cell_length_c   15.98630172
_cell_angle_alpha   32.22689831
_cell_angle_beta   32.22689713
_cell_angle_gamma   32.22689616
_symmetry_Int_Tables_number   1
_chemical_formula_structural   NbTl2PO6
_chemical_formula_sum   'Nb6 Tl12 P6 O36'
_cell_volume   1032.65201616
_cell_formula_units_Z   6
loop_
 _symmetry_equiv_pos_site_id
 _symmetry_equiv_pos_as_xyz
  1  'x, y, z'
loop_
 _atom_site_type_symbol
 _atom_site_label
 _atom_site_symmetry_multiplicity
 _atom_site_fract_x
 _atom_site_fract_y
 _atom_site_fract_z
 _atom_site_occupancy
  Nb  Nb0  1  0.50804690  0.99585182  0.75575219  1
  Nb  Nb1  1  0.00414818  0.24424781  0.49195310  1
  Nb  Nb2  1  0.49195310  0.00414818  0.24424781  1
  Nb  Nb3  1  0.75575219  0.50804690  0.99585182  1
  Nb  Nb4  1  0.24424781  0.49195310  0.00414818  1
  Nb  Nb5  1  0.99585182  0.75575219  0.50804690  1
  Tl  Tl6  1  0.68951715  0.33127182  0.89312308  1
  Tl  Tl7  1  0.80926972  0.58732174  0.18482216  1
  Tl  Tl8  1  0.81517784  0.19073028  0.41267826  1
  Tl  Tl9  1  0.41267826  0.81517784  0.19073028  1
  Tl  Tl10  1  0.33127182  0.89312308  0.68951715  1
  Tl  Tl11  1  0.18482216  0.80926972  0.58732174  1
  Tl  Tl12  1  0.89312308  0.68951715  0.33127182  1
  Tl  Tl13  1  0.58732174  0.18482216  0.80926972  1
  Tl  Tl14  1  0.31048285  0.66872818  0.10687692  1
  Tl  Tl15  1  0.10687692  0.31048285  0.66872818  1
  Tl  Tl16  1  0.66872818  0.10687692  0.31048285  1
  Tl  Tl17  1  0.19073028  0.41267826  0.81517784  1
  P  P18  1  0.58247510  0.58247510  0.58247510  1
  P  P19  1  0.69404799  0.69404799  0.69404799  1
  P  P20  1  0.91692447  0.91692447  0.91692447  1
  P  P21  1  0.41752490  0.41752490  0.41752490  1
  P  P22  1  0.08307553  0.08307553  0.08307553  1
  P  P23  1  0.30595201  0.30595201  0.30595201  1
  O  O24  1  0.24217131  0.05360025  0.43054336  1
  O  O25  1  0.34013725  0.34013725  0.34013725  1
  O  O26  1  0.94639975  0.56945664  0.75782869  1
  O  O27  1  0.87562939  0.69752859  0.54266951  1
  O  O28  1  0.45093731  0.45093731  0.45093731  1
  O  O29  1  0.54266951  0.87562939  0.69752859  1
  O  O30  1  0.79366531  0.47526013  0.10280515  1
  O  O31  1  0.56781959  0.77109805  0.44982035  1
  O  O32  1  0.52473987  0.89719485  0.20633469  1
  O  O33  1  0.11675186  0.11675186  0.11675186  1
  O  O34  1  0.43054336  0.24217131  0.05360025  1
  O  O35  1  0.08071011  0.75675290  0.95286801  1
  O  O36  1  0.10280515  0.79366531  0.47526013  1
  O  O37  1  0.77109805  0.44982035  0.56781959  1
  O  O38  1  0.88324814  0.88324814  0.88324814  1
  O  O39  1  0.22890195  0.55017965  0.43218041  1
  O  O40  1  0.91928989  0.24324710  0.04713199  1
  O  O41  1  0.69752859  0.54266951  0.87562939  1
  O  O42  1  0.44982035  0.56781959  0.77109805  1
  O  O43  1  0.55017965  0.43218041  0.22890195  1
  O  O44  1  0.24324710  0.04713199  0.91928989  1
  O  O45  1  0.65986275  0.65986275  0.65986275  1
  O  O46  1  0.56945664  0.75782869  0.94639975  1
  O  O47  1  0.95286801  0.08071011  0.75675290  1
  O  O48  1  0.45733049  0.12437061  0.30247141  1
  O  O49  1  0.75782869  0.94639975  0.56945664  1
  O  O50  1  0.43218041  0.22890195  0.55017965  1
  O  O51  1  0.30247141  0.45733049  0.12437061  1
  O  O52  1  0.05360025  0.43054336  0.24217131  1
  O  O53  1  0.89719485  0.20633469  0.52473987  1
  O  O54  1  0.12437061  0.30247141  0.45733049  1
  O  O55  1  0.20633469  0.52473987  0.89719485  1
  O  O56  1  0.75675290  0.95286801  0.08071011  1
  O  O57  1  0.54906269  0.54906269  0.54906269  1
  O  O58  1  0.47526013  0.10280515  0.79366531  1
  O  O59  1  0.04713199  0.91928989  0.24324710  1
