# generated using pymatgen
data_TaTeCl9
_symmetry_space_group_name_H-M   'P 1'
_cell_length_a   6.68056037
_cell_length_b   11.80802558
_cell_length_c   20.08940832
_cell_angle_alpha   106.26412287
_cell_angle_beta   90.00000000
_cell_angle_gamma   106.43229862
_symmetry_Int_Tables_number   1
_chemical_formula_structural   TaTeCl9
_chemical_formula_sum   'Ta4 Te4 Cl36'
_cell_volume   1453.76743917
_cell_formula_units_Z   4
loop_
 _symmetry_equiv_pos_site_id
 _symmetry_equiv_pos_as_xyz
  1  'x, y, z'
loop_
 _atom_site_type_symbol
 _atom_site_label
 _atom_site_symmetry_multiplicity
 _atom_site_fract_x
 _atom_site_fract_y
 _atom_site_fract_z
 _atom_site_occupancy
  Ta  Ta0  1  0.15192937  0.70953587  0.62573868  1
  Ta  Ta1  1  0.44239350  0.29046413  0.87426132  1
  Ta  Ta2  1  0.84807063  0.29046413  0.37426132  1
  Ta  Ta3  1  0.55760650  0.70953587  0.12573868  1
  Te  Te4  1  0.11523015  0.83626343  0.83985537  1
  Te  Te5  1  0.88476985  0.16373657  0.16014463  1
  Te  Te6  1  0.27896672  0.16373657  0.66014463  1
  Te  Te7  1  0.72103328  0.83626343  0.33985537  1
  Cl  Cl8  1  0.13270309  0.35439661  0.17387023  1
  Cl  Cl9  1  0.95059931  0.05369230  0.59690864  1
  Cl  Cl10  1  0.87895025  0.82696158  0.20549876  1
  Cl  Cl11  1  0.63410548  0.53194388  0.12802539  1
  Cl  Cl12  1  0.26061423  0.27462802  0.96959337  1
  Cl  Cl13  1  0.49506834  0.09134417  0.86026336  1
  Cl  Cl14  1  0.30335482  0.82343135  0.93613465  1
  Cl  Cl15  1  0.89783840  0.53194388  0.62802539  1
  Cl  Cl16  1  0.50493166  0.90865583  0.13973664  1
  Cl  Cl17  1  0.47992346  0.17656865  0.56386535  1
  Cl  Cl18  1  0.22169351  0.35439661  0.67387023  1
  Cl  Cl19  1  0.10216160  0.46805612  0.37197461  1
  Cl  Cl20  1  0.98598622  0.72537198  0.53040663  1
  Cl  Cl21  1  0.86729691  0.64560339  0.82612977  1
  Cl  Cl22  1  0.36589452  0.46805612  0.87197461  1
  Cl  Cl23  1  0.23428017  0.60955603  0.06609561  1
  Cl  Cl24  1  0.52007654  0.82343135  0.43613465  1
  Cl  Cl25  1  0.89690701  0.94630770  0.90309136  1
  Cl  Cl26  1  0.37919083  0.70915676  0.23542179  1
  Cl  Cl27  1  0.32996593  0.70915676  0.73542179  1
  Cl  Cl28  1  0.04940069  0.94630770  0.40309136  1
  Cl  Cl29  1  0.40372417  0.90865583  0.63973664  1
  Cl  Cl30  1  0.67003407  0.29084324  0.26457821  1
  Cl  Cl31  1  0.01401378  0.27462802  0.46959337  1
  Cl  Cl32  1  0.10309299  0.05369230  0.09690864  1
  Cl  Cl33  1  0.73938577  0.72537198  0.03040663  1
  Cl  Cl34  1  0.12104975  0.17303842  0.79450124  1
  Cl  Cl35  1  0.05198867  0.17303842  0.29450124  1
  Cl  Cl36  1  0.59627583  0.09134417  0.36026336  1
  Cl  Cl37  1  0.37527586  0.60955603  0.56609561  1
  Cl  Cl38  1  0.62080917  0.29084324  0.76457821  1
  Cl  Cl39  1  0.62472414  0.39044397  0.43390439  1
  Cl  Cl40  1  0.94801133  0.82696158  0.70549876  1
  Cl  Cl41  1  0.69664518  0.17656865  0.06386535  1
  Cl  Cl42  1  0.76571983  0.39044397  0.93390439  1
  Cl  Cl43  1  0.77830649  0.64560339  0.32612977  1
