# generated using pymatgen
data_Cs3Bi2I9
_symmetry_space_group_name_H-M   'P 1'
_cell_length_a   8.66993148
_cell_length_b   8.64923288
_cell_length_c   22.00995974
_cell_angle_alpha   90.55279168
_cell_angle_beta   91.10362917
_cell_angle_gamma   59.92349848
_symmetry_Int_Tables_number   1
_chemical_formula_structural   Cs3Bi2I9
_chemical_formula_sum   'Cs6 Bi4 I18'
_cell_volume   1427.99687981
_cell_formula_units_Z   2
loop_
 _symmetry_equiv_pos_site_id
 _symmetry_equiv_pos_as_xyz
  1  'x, y, z'
loop_
 _atom_site_type_symbol
 _atom_site_label
 _atom_site_symmetry_multiplicity
 _atom_site_fract_x
 _atom_site_fract_y
 _atom_site_fract_z
 _atom_site_occupancy
  Cs  Cs0  1  0.99723265  0.00554970  0.24999059  1
  Cs  Cs1  1  0.66927256  0.66428835  0.57744529  1
  Cs  Cs2  1  0.00276647  0.99445071  0.75000906  1
  Cs  Cs3  1  0.33352515  0.33573564  0.07744822  1
  Cs  Cs4  1  0.33072930  0.33570862  0.42255528  1
  Cs  Cs5  1  0.66647546  0.66426435  0.92255147  1
  Bi  Bi6  1  0.67643692  0.66952424  0.15575634  1
  Bi  Bi7  1  0.32356273  0.33047159  0.84424173  1
  Bi  Bi8  1  0.34596793  0.33048548  0.65575985  1
  Bi  Bi9  1  0.65403162  0.66951493  0.34424064  1
  I  I10  1  0.18616575  0.16601875  0.57504794  1
  I  I11  1  0.81383294  0.83398936  0.42495390  1
  I  I12  1  0.00061222  0.50332127  0.25681571  1
  I  I13  1  0.14601426  0.66758257  0.91712413  1
  I  I14  1  0.81365606  0.33246562  0.41709235  1
  I  I15  1  0.35219942  0.83398859  0.07504637  1
  I  I16  1  0.85398905  0.33241843  0.08287555  1
  I  I17  1  0.84867995  0.84119562  0.08934163  1
  I  I18  1  0.99938802  0.49667890  0.74318470  1
  I  I19  1  0.49617345  0.50324784  0.24315575  1
  I  I20  1  0.18634376  0.66753465  0.58290765  1
  I  I21  1  0.50382758  0.49675125  0.75684433  1
  I  I22  1  0.49723732  0.00559721  0.24999285  1
  I  I23  1  0.31014992  0.84115733  0.41065527  1
  I  I24  1  0.68985131  0.15884274  0.58934534  1
  I  I25  1  0.15130982  0.15880562  0.91065670  1
  I  I26  1  0.50276494  0.99440140  0.75000706  1
  I  I27  1  0.64780343  0.16600924  0.92495431  1
