# generated using pymatgen
data_Te4Mo3W(SeS)2
_symmetry_space_group_name_H-M   'P 1'
_cell_length_a   3.39906523
_cell_length_b   3.39913018
_cell_length_c   38.70797784
_cell_angle_alpha   89.99990025
_cell_angle_beta   90.00002759
_cell_angle_gamma   120.00011039
_symmetry_Int_Tables_number   1
_chemical_formula_structural   Te4Mo3W(SeS)2
_chemical_formula_sum   'Te4 Mo3 W1 Se2 S2'
_cell_volume   387.30930290
_cell_formula_units_Z   1
loop_
 _symmetry_equiv_pos_site_id
 _symmetry_equiv_pos_as_xyz
  1  'x, y, z'
loop_
 _atom_site_type_symbol
 _atom_site_label
 _atom_site_symmetry_multiplicity
 _atom_site_fract_x
 _atom_site_fract_y
 _atom_site_fract_z
 _atom_site_occupancy
  Te  Te0  1  0.33335176  0.66670348  0.33042503  1
  Te  Te1  1  0.33335139  0.66670261  0.70589550  1
  Te  Te2  1  0.33335232  0.66670476  0.23312307  1
  Te  Te3  1  0.33335567  0.66671169  0.60916722  1
  Mo  Mo4  1  0.33330830  0.66662222  0.09393499  1
  Mo  Mo5  1  0.33330799  0.66661446  0.46967002  1
  Mo  Mo6  1  0.66668695  0.33337713  0.65754878  1
  W  W7  1  0.66668792  0.33337902  0.28179189  1
  Se  Se8  1  0.66664676  0.33329463  0.42706368  1
  Se  Se9  1  0.66664385  0.33328876  0.51225510  1
  S  S10  1  0.66665407  0.33330171  0.05511692  1
  S  S11  1  0.66665302  0.33329953  0.13275581  1
