# generated using pymatgen
data_KBa6Zn4(GaO3)7
_symmetry_space_group_name_H-M   'P 1'
_cell_length_a   10.97135325
_cell_length_b   10.98856496
_cell_length_c   11.96538225
_cell_angle_alpha   90.18800578
_cell_angle_beta   89.81418361
_cell_angle_gamma   120.00270037
_symmetry_Int_Tables_number   1
_chemical_formula_structural   KBa6Zn4(GaO3)7
_chemical_formula_sum   'K2 Ba12 Zn8 Ga14 O42'
_cell_volume   1249.23311394
_cell_formula_units_Z   2
loop_
 _symmetry_equiv_pos_site_id
 _symmetry_equiv_pos_as_xyz
  1  'x, y, z'
loop_
 _atom_site_type_symbol
 _atom_site_label
 _atom_site_symmetry_multiplicity
 _atom_site_fract_x
 _atom_site_fract_y
 _atom_site_fract_z
 _atom_site_occupancy
  K  K0  1  0.33323177  0.66716218  0.40165148  1
  K  K1  1  0.66812340  0.33446140  0.90285645  1
  Ba  Ba2  1  0.12502087  0.85626293  0.96376127  1
  Ba  Ba3  1  0.19554850  0.79805332  0.63365009  1
  Ba  Ba4  1  0.19683018  0.39661295  0.63544213  1
  Ba  Ba5  1  0.14280704  0.26830902  0.96402622  1
  Ba  Ba6  1  0.26669498  0.13965020  0.45782586  1
  Ba  Ba7  1  0.60275752  0.80201720  0.63462603  1
  Ba  Ba8  1  0.39426203  0.19737101  0.13726007  1
  Ba  Ba9  1  0.73361774  0.87560869  0.96150461  1
  Ba  Ba10  1  0.80432480  0.60486438  0.13545226  1
  Ba  Ba11  1  0.87924707  0.73404203  0.45944322  1
  Ba  Ba12  1  0.80304789  0.19823723  0.13367322  1
  Ba  Ba13  1  0.85864053  0.12439057  0.46250499  1
  Zn  Zn14  1  0.16554106  0.82527968  0.28064191  1
  Zn  Zn15  1  0.00415874  0.47641298  0.88746316  1
  Zn  Zn16  1  0.47071649  0.99576334  0.88847619  1
  Zn  Zn17  1  0.17422709  0.34085469  0.27772933  1
  Zn  Zn18  1  0.52516809  0.53068411  0.88792369  1
  Zn  Zn19  1  0.53042633  0.52621011  0.38765726  1
  Zn  Zn20  1  0.47122627  0.00140674  0.38960143  1
  Zn  Zn21  1  0.87042677  0.43027681  0.62873940  1
  Ga  Ga22  1  0.12948309  0.55870771  0.13244602  1
  Ga  Ga23  1  0.43006818  0.86896629  0.13115236  1
  Ga  Ga24  1  0.33290756  0.66670173  0.81321212  1
  Ga  Ga25  1  0.99929662  0.99702544  0.20315912  1
  Ga  Ga26  1  0.43685998  0.56868164  0.13423938  1
  Ga  Ga27  1  0.65689133  0.83420839  0.27737522  1
  Ga  Ga28  1  0.34373051  0.17717592  0.77776092  1
  Ga  Ga29  1  0.56866289  0.43554056  0.63115543  1
  Ga  Ga30  1  0.56236881  0.13268865  0.63158735  1
  Ga  Ga31  1  0.66752302  0.33589248  0.31277839  1
  Ga  Ga32  1  0.83411841  0.65484096  0.77813824  1
  Ga  Ga33  1  0.82373983  0.16677705  0.77652071  1
  Ga  Ga34  1  0.99844633  0.47117414  0.38810688  1
  Ga  Ga35  1  0.99929688  0.00015140  0.70355751  1
  O  O36  1  0.99307843  0.83595424  0.75897069  1
  O  O37  1  0.01931560  0.58340490  0.02809300  1
  O  O38  1  0.08723801  0.60899478  0.27386859  1
  O  O39  1  0.26439393  0.89191386  0.42314092  1
  O  O40  1  0.28746367  0.91069735  0.14597888  1
  O  O41  1  0.30590271  0.81695527  0.84517788  1
  O  O42  1  0.08634508  0.37339284  0.14366982  1
  O  O43  1  0.10212394  0.37985321  0.41907049  1
  O  O44  1  0.18378186  0.48883574  0.84540874  1
  O  O45  1  0.33247156  0.66623168  0.11446919  1
  O  O46  1  0.33403619  0.66688296  0.65016962  1
  O  O47  1  0.56484681  0.98124172  0.02617790  1
  O  O48  1  0.52871040  0.90411848  0.26983395  1
  O  O49  1  0.16475887  0.15886687  0.75936646  1
  O  O50  1  0.16003256  0.15494676  0.25981368  1
  O  O51  1  0.38325569  0.47665580  0.27190959  1
  O  O52  1  0.51110210  0.69519692  0.84450598  1
  O  O53  1  0.42030975  0.43903555  0.02714930  1
  O  O54  1  0.43730259  0.42112085  0.52758090  1
  O  O55  1  0.63157863  0.74362270  0.41368020  1
  O  O56  1  0.62369891  0.71830772  0.15083723  1
  O  O57  1  0.46977473  0.37557554  0.77075087  1
  O  O58  1  0.37193203  0.11287235  0.91318870  1
  O  O59  1  0.37454519  0.09037079  0.65353882  1
  O  O60  1  0.83920789  0.00280937  0.76137709  1
  O  O61  1  0.49320007  0.18440809  0.34547554  1
  O  O62  1  0.71533175  0.62203998  0.65321399  1
  O  O63  1  0.73977267  0.63050072  0.91362518  1
  O  O64  1  0.69733207  0.51306692  0.34628338  1
  O  O65  1  0.65880066  0.32907705  0.61218182  1
  O  O66  1  0.99819531  0.00017696  0.04745548  1
  O  O67  1  0.66831994  0.33313498  0.15104495  1
  O  O68  1  0.58365312  0.01970663  0.52758568  1
  O  O69  1  0.62410573  0.09521520  0.77020798  1
  O  O70  1  0.98954561  0.83223356  0.25702202  1
  O  O71  1  0.90968222  0.53511646  0.77414973  1
  O  O72  1  0.82439476  0.31665644  0.34644593  1
  O  O73  1  0.99035977  0.56720084  0.51414207  1
  O  O74  1  0.88693455  0.25869091  0.91324832  1
  O  O75  1  0.91082111  0.27481334  0.65153754  1
  O  O76  1  0.83345152  0.99660988  0.25756397  1
  O  O77  1  0.99945342  0.00102983  0.54918806  1
