# generated using pymatgen
data_InTeI7
_symmetry_space_group_name_H-M   'P 1'
_cell_length_a   7.49368880
_cell_length_b   15.43256784
_cell_length_c   30.52014416
_cell_angle_alpha   90.00000000
_cell_angle_beta   90.00000000
_cell_angle_gamma   90.00000000
_symmetry_Int_Tables_number   1
_chemical_formula_structural   InTeI7
_chemical_formula_sum   'In8 Te8 I56'
_cell_volume   3529.55886259
_cell_formula_units_Z   8
loop_
 _symmetry_equiv_pos_site_id
 _symmetry_equiv_pos_as_xyz
  1  'x, y, z'
loop_
 _atom_site_type_symbol
 _atom_site_label
 _atom_site_symmetry_multiplicity
 _atom_site_fract_x
 _atom_site_fract_y
 _atom_site_fract_z
 _atom_site_occupancy
  In  In0  1  0.62589304  0.76147087  0.38286723  1
  In  In1  1  0.29545291  0.66451229  0.64270140  1
  In  In2  1  0.79545291  0.83548771  0.14270140  1
  In  In3  1  0.70454709  0.33548771  0.14270140  1
  In  In4  1  0.12589304  0.73852913  0.88286723  1
  In  In5  1  0.37410696  0.23852913  0.88286723  1
  In  In6  1  0.87410696  0.26147087  0.38286723  1
  In  In7  1  0.20454709  0.16451229  0.64270140  1
  Te  Te8  1  0.61318908  0.40356022  0.73385158  1
  Te  Te9  1  0.55863185  0.62343099  0.96607712  1
  Te  Te10  1  0.11318908  0.09643978  0.23385158  1
  Te  Te11  1  0.88681092  0.90356022  0.73385158  1
  Te  Te12  1  0.38681092  0.59643978  0.23385158  1
  Te  Te13  1  0.94136815  0.12343099  0.96607712  1
  Te  Te14  1  0.44136815  0.37656901  0.46607712  1
  Te  Te15  1  0.05863185  0.87656901  0.46607712  1
  I  I16  1  0.82383924  0.91333980  0.22475092  1
  I  I17  1  0.78538564  0.24662241  0.74055456  1
  I  I18  1  0.82466636  0.47528831  0.66771097  1
  I  I19  1  0.89593379  0.20403600  0.59773699  1
  I  I20  1  0.27260218  0.01068901  0.30373371  1
  I  I21  1  0.28696094  0.80845870  0.95704888  1
  I  I22  1  0.59913442  0.94347850  0.08788300  1
  I  I23  1  0.36316030  0.32823792  0.65207854  1
  I  I24  1  0.10406621  0.79596400  0.09773699  1
  I  I25  1  0.32466636  0.02471169  0.16771097  1
  I  I26  1  0.86316030  0.17176208  0.15207854  1
  I  I27  1  0.28538564  0.25337759  0.24055456  1
  I  I28  1  0.25249669  0.76401285  0.38249112  1
  I  I29  1  0.84139053  0.94514501  0.53087428  1
  I  I30  1  0.40086558  0.05652150  0.58788300  1
  I  I31  1  0.76477616  0.97145723  0.94543516  1
  I  I32  1  0.78696094  0.69154130  0.45704888  1
  I  I33  1  0.72739782  0.98931099  0.80373371  1
  I  I34  1  0.17533364  0.52471169  0.16771097  1
  I  I35  1  0.68998657  0.20092517  0.02082234  1
  I  I36  1  0.76636519  0.17125745  0.30930841  1
  I  I37  1  0.23363481  0.82874255  0.80930841  1
  I  I38  1  0.22739782  0.51068901  0.30373371  1
  I  I39  1  0.32383924  0.58666020  0.72475092  1
  I  I40  1  0.25078872  0.06920237  0.88009380  1
  I  I41  1  0.73363481  0.67125745  0.30930841  1
  I  I42  1  0.34139053  0.55485499  0.03087428  1
  I  I43  1  0.26636519  0.32874255  0.80930841  1
  I  I44  1  0.71461436  0.74662241  0.74055456  1
  I  I45  1  0.63683970  0.67176208  0.15207854  1
  I  I46  1  0.24750331  0.26401285  0.38249112  1
  I  I47  1  0.26477616  0.52854277  0.44543516  1
  I  I48  1  0.15860947  0.05485499  0.03087428  1
  I  I49  1  0.65860947  0.44514501  0.53087428  1
  I  I50  1  0.81001343  0.70092517  0.02082234  1
  I  I51  1  0.77260218  0.48931099  0.80373371  1
  I  I52  1  0.75249669  0.73598715  0.88249112  1
  I  I53  1  0.13683970  0.82823792  0.65207854  1
  I  I54  1  0.17616076  0.08666020  0.72475092  1
  I  I55  1  0.23522384  0.02854277  0.44543516  1
  I  I56  1  0.60406621  0.70403600  0.59773699  1
  I  I57  1  0.39593379  0.29596400  0.09773699  1
  I  I58  1  0.67616076  0.41333980  0.22475092  1
  I  I59  1  0.18998657  0.29907483  0.52082234  1
  I  I60  1  0.90086558  0.44347850  0.08788300  1
  I  I61  1  0.09913442  0.55652150  0.58788300  1
  I  I62  1  0.73522384  0.47145723  0.94543516  1
  I  I63  1  0.21461436  0.75337759  0.24055456  1
  I  I64  1  0.31001343  0.79907483  0.52082234  1
  I  I65  1  0.67533364  0.97528831  0.66771097  1
  I  I66  1  0.75078872  0.43079763  0.38009380  1
  I  I67  1  0.21303906  0.30845870  0.95704888  1
  I  I68  1  0.24921128  0.56920237  0.88009380  1
  I  I69  1  0.74921128  0.93079763  0.38009380  1
  I  I70  1  0.71303906  0.19154130  0.45704888  1
  I  I71  1  0.74750331  0.23598715  0.88249112  1
