# generated using pymatgen
data_Na5Mg5In3(SO4)12
_symmetry_space_group_name_H-M   'P 1'
_cell_length_a   9.03909225
_cell_length_b   9.03521160
_cell_length_c   36.19348196
_cell_angle_alpha   58.09073770
_cell_angle_beta   58.05876747
_cell_angle_gamma   58.03069177
_symmetry_Int_Tables_number   1
_chemical_formula_structural   Na5Mg5In3(SO4)12
_chemical_formula_sum   'Na10 Mg10 In6 S24 O96'
_cell_volume   1997.17246798
_cell_formula_units_Z   2
loop_
 _symmetry_equiv_pos_site_id
 _symmetry_equiv_pos_as_xyz
  1  'x, y, z'
loop_
 _atom_site_type_symbol
 _atom_site_label
 _atom_site_symmetry_multiplicity
 _atom_site_fract_x
 _atom_site_fract_y
 _atom_site_fract_z
 _atom_site_occupancy
  Na  Na0  1  0.99940541  0.99859039  0.00047277  1
  Na  Na1  1  0.99972310  0.99944875  0.25028156  1
  Na  Na2  1  0.49930856  0.49937459  0.12543717  1
  Na  Na3  1  0.00029096  0.99788607  0.50071040  1
  Na  Na4  1  0.49927962  0.49920365  0.37546301  1
  Na  Na5  1  0.00767871  0.00623500  0.74793120  1
  Na  Na6  1  0.49924186  0.51413599  0.61983997  1
  Na  Na7  1  0.57175807  0.23079184  0.72153306  1
  Na  Na8  1  0.47955674  0.50070517  0.87798359  1
  Na  Na9  1  0.88367890  0.57055077  0.80776055  1
  Mg  Mg10  1  0.35225256  0.35208987  0.08841223  1
  Mg  Mg11  1  0.35238718  0.35255698  0.33835236  1
  Mg  Mg12  1  0.64692486  0.64719308  0.16197044  1
  Mg  Mg13  1  0.34981542  0.35168090  0.58958778  1
  Mg  Mg14  1  0.64663778  0.64717461  0.41198755  1
  Mg  Mg15  1  0.14696552  0.13906306  0.78788069  1
  Mg  Mg16  1  0.35667807  0.35239256  0.83764889  1
  Mg  Mg17  1  0.64930316  0.65328169  0.66188661  1
  Mg  Mg18  1  0.85554099  0.84804671  0.70978593  1
  Mg  Mg19  1  0.64706861  0.64670250  0.91237748  1
  In  In20  1  0.14845544  0.14835183  0.03738145  1
  In  In21  1  0.14834733  0.14834870  0.28741177  1
  In  In22  1  0.14763380  0.14811299  0.53768825  1
  In  In23  1  0.85111423  0.85105412  0.21298153  1
  In  In24  1  0.85123699  0.85104612  0.46298077  1
  In  In25  1  0.85140511  0.84916058  0.96287531  1
  S  S26  1  0.04567390  0.74530083  0.11254042  1
  S  S27  1  0.44988282  0.04605184  0.18630981  1
  S  S28  1  0.74512060  0.44850528  0.01170131  1
  S  S29  1  0.25482624  0.54976776  0.23854130  1
  S  S30  1  0.55054414  0.95385098  0.06359096  1
  S  S31  1  0.04563216  0.74535089  0.36249990  1
  S  S32  1  0.95381036  0.25476573  0.13758810  1
  S  S33  1  0.44993358  0.04602993  0.43632726  1
  S  S34  1  0.74528029  0.44964741  0.26145449  1
  S  S35  1  0.25473189  0.54895536  0.48880899  1
  S  S36  1  0.55021112  0.95415614  0.31369753  1
  S  S37  1  0.04569135  0.74610244  0.61299045  1
  S  S38  1  0.95382172  0.25472981  0.38763244  1
  S  S39  1  0.45145514  0.04654910  0.68771909  1
  S  S40  1  0.74503971  0.44968985  0.51139518  1
  S  S41  1  0.24924207  0.54911663  0.73931657  1
  S  S42  1  0.55003494  0.95440306  0.56389373  1
  S  S43  1  0.04549200  0.74650067  0.86166212  1
  S  S44  1  0.94950233  0.25120051  0.63900818  1
  S  S45  1  0.44969538  0.04583257  0.93648484  1
  S  S46  1  0.75078764  0.45065337  0.76161232  1
  S  S47  1  0.25526840  0.54950695  0.98859288  1
  S  S48  1  0.54730574  0.95275553  0.81321179  1
  S  S49  1  0.96132128  0.24871023  0.88656773  1
  O  O50  1  0.98188669  0.20886441  0.09975906  1
  O  O51  1  0.20917663  0.39845321  0.99549411  1
  O  O52  1  0.39922728  0.98213032  0.05206768  1
  O  O53  1  0.11077883  0.29302680  0.12821753  1
  O  O54  1  0.29362207  0.51219839  0.02772490  1
  O  O55  1  0.06266022  0.91102594  0.06841573  1
  O  O56  1  0.51341828  0.11097508  0.07305210  1
  O  O57  1  0.22256409  0.58820537  0.10678285  1
  O  O58  1  0.27362739  0.06310096  0.22775351  1
  O  O59  1  0.42684290  0.22270177  0.14709524  1
  O  O60  1  0.98188096  0.20864641  0.34983256  1
  O  O61  1  0.58809172  0.42510742  0.05575769  1
  O  O62  1  0.20850830  0.39857128  0.24560687  1
  O  O63  1  0.08894875  0.72654955  0.23426479  1
  O  O64  1  0.39941369  0.98237243  0.30199541  1
  O  O65  1  0.11079184  0.29303353  0.37824046  1
  O  O66  1  0.91117455  0.27209694  0.01590050  1
  O  O67  1  0.41178528  0.57265517  0.19438175  1
  O  O68  1  0.29331505  0.51266260  0.27765105  1
  O  O69  1  0.57364256  0.77733981  0.10281960  1
  O  O70  1  0.06270702  0.91106644  0.31833257  1
  O  O71  1  0.72711419  0.93661927  0.02210319  1
  O  O72  1  0.51255702  0.11113397  0.32328520  1
  O  O73  1  0.22256354  0.58830613  0.35673869  1
  O  O74  1  0.77711378  0.41192816  0.14335212  1
  O  O75  1  0.48702343  0.88930607  0.17666971  1
  O  O76  1  0.27384884  0.06318700  0.47774329  1
  O  O77  1  0.93709106  0.08895541  0.18160407  1
  O  O78  1  0.42721860  0.22270501  0.39707096  1
  O  O79  1  0.97861063  0.21466785  0.59952051  1
  O  O80  1  0.70713220  0.48679042  0.22227675  1
  O  O81  1  0.58823330  0.42679799  0.30554412  1
  O  O82  1  0.20846548  0.39779237  0.49579564  1
  O  O83  1  0.08879473  0.72581955  0.48445023  1
  O  O84  1  0.88906610  0.70681969  0.12179582  1
  O  O85  1  0.60157492  0.01766774  0.19770202  1
  O  O86  1  0.39951921  0.98183718  0.55218751  1
  O  O87  1  0.10548492  0.28889594  0.63067676  1
  O  O88  1  0.91134330  0.27310130  0.26568384  1
  O  O89  1  0.79143649  0.60098558  0.25439392  1
  O  O90  1  0.41163050  0.57183862  0.44459489  1
  O  O91  1  0.29305078  0.51139080  0.52800409  1
  O  O92  1  0.01703351  0.79221442  0.15022344  1
  O  O93  1  0.57323016  0.77758523  0.35289556  1
  O  O94  1  0.06509388  0.91144085  0.56832529  1
  O  O95  1  0.72692508  0.93721023  0.27225432  1
  O  O96  1  0.51157351  0.11160689  0.57350717  1
  O  O97  1  0.22395961  0.58881989  0.60716083  1
  O  O98  1  0.77714190  0.41192386  0.39335533  1
  O  O99  1  0.48712999  0.88932139  0.42665471  1
  O  O100  1  0.27733393  0.06803393  0.72846546  1
  O  O101  1  0.93695698  0.08894143  0.43168999  1
  O  O102  1  0.43130924  0.22216837  0.64741428  1
  O  O103  1  0.99791959  0.20807756  0.84731193  1
  O  O104  1  0.70683473  0.48724652  0.47220357  1
  O  O105  1  0.58778308  0.42697149  0.55542918  1
  O  O106  1  0.21087853  0.38641735  0.75038211  1
  O  O107  1  0.08343301  0.72098495  0.73371032  1
  O  O108  1  0.88902555  0.70686971  0.37177248  1
  O  O109  1  0.60172143  0.01742729  0.44775512  1
  O  O110  1  0.39022800  0.99679076  0.80209629  1
  O  O111  1  0.11353645  0.28947507  0.87926409  1
  O  O112  1  0.91110729  0.27337403  0.51560562  1
  O  O113  1  0.79090896  0.60112421  0.50449151  1
  O  O114  1  0.41311188  0.56338639  0.69555573  1
  O  O115  1  0.28646104  0.52237523  0.77793315  1
  O  O116  1  0.01706801  0.79229210  0.40017174  1
  O  O117  1  0.57276337  0.77788489  0.60327544  1
  O  O118  1  0.06464821  0.91065249  0.81889573  1
  O  O119  1  0.72674996  0.93692432  0.52249999  1
  O  O120  1  0.52180378  0.10563064  0.82286861  1
  O  O121  1  0.22118103  0.58603286  0.85720747  1
  O  O122  1  0.76995299  0.40918885  0.64567704  1
  O  O123  1  0.48868035  0.88875785  0.67803275  1
  O  O124  1  0.27325490  0.06276805  0.97791616  1
  O  O125  1  0.92416323  0.08704724  0.68241865  1
  O  O126  1  0.42701210  0.22269016  0.89734794  1
  O  O127  1  0.70946956  0.48351039  0.72293044  1
  O  O128  1  0.58993002  0.43237731  0.80575935  1
  O  O129  1  0.08966785  0.72635149  0.98419917  1
  O  O130  1  0.89347801  0.70505135  0.62029096  1
  O  O131  1  0.60791038  0.01488587  0.69814073  1
  O  O132  1  0.91403712  0.27706779  0.76715094  1
  O  O133  1  0.79274002  0.60914760  0.75239063  1
  O  O134  1  0.41294404  0.57173708  0.94447190  1
  O  O135  1  0.00971615  0.79306972  0.65091470  1
  O  O136  1  0.57291466  0.77161540  0.85219437  1
  O  O137  1  0.72296568  0.92971846  0.77162074  1
  O  O138  1  0.78410733  0.41226679  0.89039345  1
  O  O139  1  0.48678067  0.88943282  0.92669323  1
  O  O140  1  0.93628740  0.08777151  0.93111540  1
  O  O141  1  0.70726441  0.48580519  0.97244355  1
  O  O142  1  0.88957201  0.70546149  0.87038599  1
  O  O143  1  0.60065623  0.01665596  0.94824366  1
  O  O144  1  0.79040494  0.59980916  0.00495479  1
  O  O145  1  0.01230736  0.78596682  0.90132803  1
