# generated using pymatgen
data_Bi(Mo2Cl5)3
_symmetry_space_group_name_H-M   'P 1'
_cell_length_a   9.34113617
_cell_length_b   9.34113662
_cell_length_c   26.49434585
_cell_angle_alpha   91.19807590
_cell_angle_beta   91.19807596
_cell_angle_gamma   91.46450332
_symmetry_Int_Tables_number   1
_chemical_formula_structural   Bi(Mo2Cl5)3
_chemical_formula_sum   'Bi4 Mo24 Cl60'
_cell_volume   2310.02037714
_cell_formula_units_Z   4
loop_
 _symmetry_equiv_pos_site_id
 _symmetry_equiv_pos_as_xyz
  1  'x, y, z'
loop_
 _atom_site_type_symbol
 _atom_site_label
 _atom_site_symmetry_multiplicity
 _atom_site_fract_x
 _atom_site_fract_y
 _atom_site_fract_z
 _atom_site_occupancy
  Bi  Bi0  1  0.24252539  0.33125116  0.39167053  1
  Bi  Bi1  1  0.33125116  0.24252539  0.89167053  1
  Bi  Bi2  1  0.75747461  0.66874884  0.60832947  1
  Bi  Bi3  1  0.66874884  0.75747461  0.10832947  1
  Mo  Mo4  1  0.20322712  0.32806124  0.06392063  1
  Mo  Mo5  1  0.77165023  0.81776153  0.30109417  1
  Mo  Mo6  1  0.70042779  0.55824308  0.85012893  1
  Mo  Mo7  1  0.36087852  0.17622539  0.12582582  1
  Mo  Mo8  1  0.11352101  0.08547226  0.61211190  1
  Mo  Mo9  1  0.37782774  0.02295055  0.63707088  1
  Mo  Mo10  1  0.22834977  0.18223847  0.69890583  1
  Mo  Mo11  1  0.97704945  0.62217226  0.86292912  1
  Mo  Mo12  1  0.17622539  0.36087852  0.62582582  1
  Mo  Mo13  1  0.79677288  0.67193876  0.93607937  1
  Mo  Mo14  1  0.08547226  0.11352101  0.11211190  1
  Mo  Mo15  1  0.81776153  0.77165023  0.80109417  1
  Mo  Mo16  1  0.29957221  0.44175692  0.14987107  1
  Mo  Mo17  1  0.32806124  0.20322712  0.56392063  1
  Mo  Mo18  1  0.62217226  0.97704945  0.36292912  1
  Mo  Mo19  1  0.55824308  0.70042779  0.35012893  1
  Mo  Mo20  1  0.44175692  0.29957221  0.64987107  1
  Mo  Mo21  1  0.02295055  0.37782774  0.13707088  1
  Mo  Mo22  1  0.67193876  0.79677288  0.43607937  1
  Mo  Mo23  1  0.88647899  0.91452774  0.38788810  1
  Mo  Mo24  1  0.82377461  0.63912148  0.37417418  1
  Mo  Mo25  1  0.18223847  0.22834977  0.19890583  1
  Mo  Mo26  1  0.63912148  0.82377461  0.87417418  1
  Mo  Mo27  1  0.91452774  0.88647899  0.88788810  1
  Cl  Cl28  1  0.83008200  0.07474315  0.31717612  1
  Cl  Cl29  1  0.05809196  0.10106967  0.91936990  1
  Cl  Cl30  1  0.14335606  0.57529443  0.09168360  1
  Cl  Cl31  1  0.48913177  0.78635784  0.64937107  1
  Cl  Cl32  1  0.26444696  0.94374185  0.55491881  1
  Cl  Cl33  1  0.97979590  0.23863419  0.67160451  1
  Cl  Cl34  1  0.78635784  0.48913177  0.14937107  1
  Cl  Cl35  1  0.38260632  0.46111554  0.57979291  1
  Cl  Cl36  1  0.48227626  0.12295373  0.71755354  1
  Cl  Cl37  1  0.16187100  0.17251412  0.78770736  1
  Cl  Cl38  1  0.82748588  0.83812900  0.71229264  1
  Cl  Cl39  1  0.95108666  0.40326724  0.37674173  1
  Cl  Cl40  1  0.76136581  0.02020410  0.82839549  1
  Cl  Cl41  1  0.33890207  0.54793821  0.32529595  1
  Cl  Cl42  1  0.51086823  0.21364216  0.35062893  1
  Cl  Cl43  1  0.73761251  0.92355039  0.95566466  1
  Cl  Cl44  1  0.42470557  0.85664394  0.40831640  1
  Cl  Cl45  1  0.04891334  0.59673276  0.62325827  1
  Cl  Cl46  1  0.51772374  0.87704627  0.28244646  1
  Cl  Cl47  1  0.76081012  0.46533392  0.54435268  1
  Cl  Cl48  1  0.53888446  0.61739368  0.92020709  1
  Cl  Cl49  1  0.40326724  0.95108666  0.87674173  1
  Cl  Cl50  1  0.05625815  0.73555304  0.94508119  1
  Cl  Cl51  1  0.21364216  0.51086823  0.85062893  1
  Cl  Cl52  1  0.59211661  0.78495035  0.52516679  1
  Cl  Cl53  1  0.02020410  0.76136581  0.32839549  1
  Cl  Cl54  1  0.57529443  0.14335606  0.59168360  1
  Cl  Cl55  1  0.85664394  0.42470557  0.90831640  1
  Cl  Cl56  1  0.70865872  0.55795272  0.29254922  1
  Cl  Cl57  1  0.87704627  0.51772374  0.78244646  1
  Cl  Cl58  1  0.29134128  0.44204728  0.70745078  1
  Cl  Cl59  1  0.94374185  0.26444696  0.05491881  1
  Cl  Cl60  1  0.92355039  0.73761251  0.45566466  1
  Cl  Cl61  1  0.07474315  0.83008200  0.81717612  1
  Cl  Cl62  1  0.54793821  0.33890207  0.82529595  1
  Cl  Cl63  1  0.40788339  0.21504965  0.47483321  1
  Cl  Cl64  1  0.66109793  0.45206179  0.67470405  1
  Cl  Cl65  1  0.78495035  0.59211661  0.02516679  1
  Cl  Cl66  1  0.16991800  0.92525685  0.68282388  1
  Cl  Cl67  1  0.17251412  0.16187100  0.28770736  1
  Cl  Cl68  1  0.61739368  0.53888446  0.42020709  1
  Cl  Cl69  1  0.44204728  0.29134128  0.20745078  1
  Cl  Cl70  1  0.23918988  0.53466608  0.45564732  1
  Cl  Cl71  1  0.89893033  0.94190804  0.58063010  1
  Cl  Cl72  1  0.83812900  0.82748588  0.21229264  1
  Cl  Cl73  1  0.45206179  0.66109793  0.17470405  1
  Cl  Cl74  1  0.21504965  0.40788339  0.97483321  1
  Cl  Cl75  1  0.73555304  0.05625815  0.44508119  1
  Cl  Cl76  1  0.10106967  0.05809196  0.41936990  1
  Cl  Cl77  1  0.94190804  0.89893033  0.08063010  1
  Cl  Cl78  1  0.46533392  0.76081012  0.04435268  1
  Cl  Cl79  1  0.23863419  0.97979590  0.17160451  1
  Cl  Cl80  1  0.59673276  0.04891334  0.12325827  1
  Cl  Cl81  1  0.92525685  0.16991800  0.18282388  1
  Cl  Cl82  1  0.46111554  0.38260632  0.07979291  1
  Cl  Cl83  1  0.55795272  0.70865872  0.79254922  1
  Cl  Cl84  1  0.53466608  0.23918988  0.95564732  1
  Cl  Cl85  1  0.07644961  0.26238749  0.54433534  1
  Cl  Cl86  1  0.12295373  0.48227626  0.21755354  1
  Cl  Cl87  1  0.26238749  0.07644961  0.04433534  1
