# generated using pymatgen
data_NbP2S2Cl5
_symmetry_space_group_name_H-M   'P 1'
_cell_length_a   6.56110392
_cell_length_b   13.55571403
_cell_length_c   27.31133211
_cell_angle_alpha   90.00000000
_cell_angle_beta   93.67796974
_cell_angle_gamma   90.00000000
_symmetry_Int_Tables_number   1
_chemical_formula_structural   NbP2S2Cl5
_chemical_formula_sum   'Nb8 P16 S16 Cl40'
_cell_volume   2424.07908275
_cell_formula_units_Z   8
loop_
 _symmetry_equiv_pos_site_id
 _symmetry_equiv_pos_as_xyz
  1  'x, y, z'
loop_
 _atom_site_type_symbol
 _atom_site_label
 _atom_site_symmetry_multiplicity
 _atom_site_fract_x
 _atom_site_fract_y
 _atom_site_fract_z
 _atom_site_occupancy
  Nb  Nb0  1  0.77251116  0.29159158  0.52525366  1
  Nb  Nb1  1  0.68179172  0.61294373  0.70080401  1
  Nb  Nb2  1  0.22748884  0.70840842  0.47474634  1
  Nb  Nb3  1  0.81820828  0.11294373  0.79919599  1
  Nb  Nb4  1  0.72748884  0.79159158  0.97474634  1
  Nb  Nb5  1  0.27251116  0.20840842  0.02525366  1
  Nb  Nb6  1  0.31820828  0.38705627  0.29919599  1
  Nb  Nb7  1  0.18179172  0.88705627  0.20080401  1
  P  P8  1  0.08200338  0.92305379  0.61889886  1
  P  P9  1  0.42797810  0.34241248  0.09887511  1
  P  P10  1  0.05190614  0.91166184  0.29682171  1
  P  P11  1  0.70285872  0.06960098  0.64124170  1
  P  P12  1  0.94809386  0.08833816  0.70317829  1
  P  P13  1  0.07202190  0.84241248  0.40112489  1
  P  P14  1  0.79714128  0.56960098  0.85875830  1
  P  P15  1  0.20285872  0.43039902  0.14124170  1
  P  P16  1  0.29714128  0.93039902  0.35875830  1
  P  P17  1  0.58200338  0.57694621  0.11889886  1
  P  P18  1  0.91799662  0.07694621  0.38110114  1
  P  P19  1  0.41799662  0.42305379  0.88110114  1
  P  P20  1  0.55190614  0.58833816  0.79682171  1
  P  P21  1  0.57202190  0.65758752  0.90112489  1
  P  P22  1  0.92797810  0.15758752  0.59887511  1
  P  P23  1  0.44809386  0.41166184  0.20317829  1
  S  S24  1  0.15138783  0.96987800  0.69319416  1
  S  S25  1  0.12930634  0.04909205  0.57359729  1
  S  S26  1  0.44887958  0.71837333  0.83289888  1
  S  S27  1  0.75387057  0.92616292  0.61795415  1
  S  S28  1  0.24612943  0.07383708  0.38204585  1
  S  S29  1  0.25387057  0.57383708  0.11795415  1
  S  S30  1  0.84861217  0.03012200  0.30680584  1
  S  S31  1  0.37069366  0.54909205  0.92640271  1
  S  S32  1  0.65138783  0.53012200  0.19319416  1
  S  S33  1  0.55112042  0.28162667  0.16710112  1
  S  S34  1  0.87069366  0.95090795  0.42640271  1
  S  S35  1  0.74612943  0.42616292  0.88204585  1
  S  S36  1  0.05112042  0.21837333  0.66710112  1
  S  S37  1  0.94887958  0.78162667  0.33289888  1
  S  S38  1  0.34861217  0.46987800  0.80680584  1
  S  S39  1  0.62930634  0.45090795  0.07359729  1
  Cl  Cl40  1  0.38331632  0.86041461  0.49757481  1
  Cl  Cl41  1  0.14165474  0.52950612  0.27184158  1
  Cl  Cl42  1  0.52023996  0.90492527  0.93001730  1
  Cl  Cl43  1  0.11668368  0.36041461  0.00242519  1
  Cl  Cl44  1  0.06271446  0.24001625  0.48632812  1
  Cl  Cl45  1  0.94957479  0.75453491  0.20019994  1
  Cl  Cl46  1  0.41591312  0.78961609  0.24894768  1
  Cl  Cl47  1  0.61668368  0.13958539  0.50242519  1
  Cl  Cl48  1  0.55042521  0.25453491  0.29980006  1
  Cl  Cl49  1  0.12835108  0.10933281  0.96506738  1
  Cl  Cl50  1  0.59479057  0.48851618  0.32420687  1
  Cl  Cl51  1  0.85834526  0.47049388  0.72815842  1
  Cl  Cl52  1  0.62835108  0.39066719  0.46506738  1
  Cl  Cl53  1  0.64165474  0.97049388  0.77184158  1
  Cl  Cl54  1  0.40520943  0.51148382  0.67579313  1
  Cl  Cl55  1  0.02738115  0.18973528  0.08360173  1
  Cl  Cl56  1  0.52738115  0.31026472  0.58360173  1
  Cl  Cl57  1  0.90520943  0.98851618  0.17579313  1
  Cl  Cl58  1  0.87164892  0.89066719  0.03493262  1
  Cl  Cl59  1  0.93728554  0.75998375  0.51367188  1
  Cl  Cl60  1  0.08408688  0.28961609  0.25105232  1
  Cl  Cl61  1  0.44957479  0.74546509  0.70019994  1
  Cl  Cl62  1  0.58408688  0.21038391  0.75105232  1
  Cl  Cl63  1  0.35834526  0.02950612  0.22815842  1
  Cl  Cl64  1  0.91591312  0.71038391  0.74894768  1
  Cl  Cl65  1  0.47261885  0.68973528  0.41639827  1
  Cl  Cl66  1  0.43728554  0.74001625  0.01367188  1
  Cl  Cl67  1  0.97976004  0.40492527  0.56998270  1
  Cl  Cl68  1  0.37164892  0.60933281  0.53493262  1
  Cl  Cl69  1  0.47976004  0.09507473  0.06998270  1
  Cl  Cl70  1  0.82822460  0.63819447  0.62829809  1
  Cl  Cl71  1  0.05042521  0.24546509  0.79980006  1
  Cl  Cl72  1  0.88331632  0.63958539  0.99757481  1
  Cl  Cl73  1  0.17177540  0.36180553  0.37170191  1
  Cl  Cl74  1  0.09479057  0.01148382  0.82420687  1
  Cl  Cl75  1  0.67177540  0.13819447  0.87170191  1
  Cl  Cl76  1  0.97261885  0.81026472  0.91639827  1
  Cl  Cl77  1  0.56271446  0.25998375  0.98632812  1
  Cl  Cl78  1  0.32822460  0.86180553  0.12829809  1
  Cl  Cl79  1  0.02023996  0.59507473  0.43001730  1
