# generated using pymatgen
data_Er7C2I12N
_symmetry_space_group_name_H-M   'P 1'
_cell_length_a   9.85320217
_cell_length_b   10.49820169
_cell_length_c   16.86332949
_cell_angle_alpha   101.41634635
_cell_angle_beta   93.01119830
_cell_angle_gamma   112.90933959
_symmetry_Int_Tables_number   1
_chemical_formula_structural   Er7C2I12N
_chemical_formula_sum   'Er14 C4 I24 N2'
_cell_volume   1558.67138309
_cell_formula_units_Z   2
loop_
 _symmetry_equiv_pos_site_id
 _symmetry_equiv_pos_as_xyz
  1  'x, y, z'
loop_
 _atom_site_type_symbol
 _atom_site_label
 _atom_site_symmetry_multiplicity
 _atom_site_fract_x
 _atom_site_fract_y
 _atom_site_fract_z
 _atom_site_occupancy
  Er  Er0  1  0.45338924  0.74806130  0.80923454  1
  Er  Er1  1  0.47960423  0.56692322  0.32073792  1
  Er  Er2  1  0.66188804  0.54330706  0.88531276  1
  Er  Er3  1  0.06451399  0.43110418  0.26363121  1
  Er  Er4  1  0.93548601  0.56889582  0.73636879  1
  Er  Er5  1  0.28240978  0.24303737  0.34980327  1
  Er  Er6  1  0.52039577  0.43307678  0.67926208  1
  Er  Er7  1  0.63989933  0.45221887  0.48085927  1
  Er  Er8  1  0.86580659  0.88220212  0.85522455  1
  Er  Er9  1  0.36010067  0.54778113  0.51914073  1
  Er  Er10  1  0.33811196  0.45669294  0.11468724  1
  Er  Er11  1  0.71759022  0.75696263  0.65019673  1
  Er  Er12  1  0.13419341  0.11779788  0.14477545  1
  Er  Er13  1  0.54661076  0.25193870  0.19076546  1
  C  C14  1  0.75624589  0.63783985  0.76598856  1
  C  C15  1  0.63509823  0.67978771  0.78394187  1
  C  C16  1  0.36490177  0.32021229  0.21605813  1
  C  C17  1  0.24375411  0.36216015  0.23401144  1
  I  I18  1  0.04815579  0.94315738  0.26845443  1
  I  I19  1  0.12519105  0.19884049  0.98172596  1
  I  I20  1  0.56240694  0.74903467  0.19675869  1
  I  I21  1  0.72850108  0.29035955  0.60999079  1
  I  I22  1  0.60850389  0.39907250  0.04978187  1
  I  I23  1  0.21140256  0.46777133  0.68773438  1
  I  I24  1  0.29590724  0.17824342  0.53013430  1
  I  I25  1  0.02861012  0.31951812  0.42439648  1
  I  I26  1  0.45698010  0.85698270  0.65007973  1
  I  I27  1  0.97138988  0.68048188  0.57560352  1
  I  I28  1  0.70409276  0.82175658  0.46986570  1
  I  I29  1  0.54301990  0.14301730  0.34992027  1
  I  I30  1  0.90631595  0.42897566  0.87446093  1
  I  I31  1  0.27149892  0.70964045  0.39000921  1
  I  I32  1  0.78859744  0.53222867  0.31226562  1
  I  I33  1  0.66001170  0.02712127  0.91159324  1
  I  I34  1  0.09368405  0.57102434  0.12553907  1
  I  I35  1  0.39149611  0.60092750  0.95021813  1
  I  I36  1  0.87480895  0.80115951  0.01827404  1
  I  I37  1  0.17422000  0.84700586  0.83616173  1
  I  I38  1  0.33998830  0.97287873  0.08840676  1
  I  I39  1  0.95184421  0.05684262  0.73154557  1
  I  I40  1  0.43759306  0.25096533  0.80324131  1
  I  I41  1  0.82578000  0.15299414  0.16383827  1
  N  N42  1  0.44113012  0.45170405  0.41579851  1
  N  N43  1  0.55886988  0.54829595  0.58420149  1
