# generated using pymatgen
data_Nd10Si10BrN17O9
_symmetry_space_group_name_H-M   'P 1'
_cell_length_a   10.55859081
_cell_length_b   11.24937917
_cell_length_c   11.65061005
_cell_angle_alpha   89.96906540
_cell_angle_beta   90.02656360
_cell_angle_gamma   90.06864470
_symmetry_Int_Tables_number   1
_chemical_formula_structural   Nd10Si10BrN17O9
_chemical_formula_sum   'Nd20 Si20 Br2 N34 O18'
_cell_volume   1383.83005777
_cell_formula_units_Z   2
loop_
 _symmetry_equiv_pos_site_id
 _symmetry_equiv_pos_as_xyz
  1  'x, y, z'
loop_
 _atom_site_type_symbol
 _atom_site_label
 _atom_site_symmetry_multiplicity
 _atom_site_fract_x
 _atom_site_fract_y
 _atom_site_fract_z
 _atom_site_occupancy
  Nd  Nd0  1  0.99179224  0.99912001  0.83062433  1
  Nd  Nd1  1  0.10849889  0.63054281  -0.00002139  1
  Nd  Nd2  1  0.13218436  0.88373607  0.50031960  1
  Nd  Nd3  1  0.13733949  0.39713980  0.75648748  1
  Nd  Nd4  1  0.13907351  0.39649357  0.24357648  1
  Nd  Nd5  1  0.35989148  0.90224115  0.24104657  1
  Nd  Nd6  1  0.36288312  0.89784102  0.75838683  1
  Nd  Nd7  1  0.36802072  0.38150620  0.49855379  1
  Nd  Nd8  1  0.37880601  0.12898097  0.00400395  1
  Nd  Nd9  1  0.50003129  0.50024129  0.17301306  1
  Nd  Nd10  1  0.50197788  0.50250631  0.82696208  1
  Nd  Nd11  1  0.63948049  0.87072115  0.99624982  1
  Nd  Nd12  1  0.62560514  0.61992299  0.50162447  1
  Nd  Nd13  1  0.64255103  0.10421208  0.23494325  1
  Nd  Nd14  1  0.64449703  0.10023415  0.76559864  1
  Nd  Nd15  1  0.85735317  0.60046466  0.77048403  1
  Nd  Nd16  1  0.85869571  0.59964819  0.22909698  1
  Nd  Nd17  1  0.87576589  0.12085190  0.49996832  1
  Nd  Nd18  1  0.87552253  0.37202550  0.00001125  1
  Nd  Nd19  1  0.99147671  0.99900629  0.16937339  1
  Si  Si20  1  0.11634719  0.74498001  0.24673887  1
  Si  Si21  1  0.11644421  0.74493937  0.75354359  1
  Si  Si22  1  0.15092513  0.14276608  0.36391171  1
  Si  Si23  1  0.15083352  0.14272813  0.63662831  1
  Si  Si24  1  0.21485698  0.88888390  0.00003877  1
  Si  Si25  1  0.28595959  0.39041239  0.99986441  1
  Si  Si26  1  0.34868536  0.64367289  0.63510407  1
  Si  Si27  1  0.34810888  0.64498180  0.36469837  1
  Si  Si28  1  0.38534628  0.23851149  0.24455122  1
  Si  Si29  1  0.38429802  0.24406611  0.75475106  1
  Si  Si30  1  0.61557291  0.75586776  0.24547254  1
  Si  Si31  1  0.61480875  0.76162115  0.75534157  1
  Si  Si32  1  0.65169080  0.35461742  0.63504291  1
  Si  Si33  1  0.65110311  0.35584090  0.36515949  1
  Si  Si34  1  0.71815790  0.61036447  0.00006146  1
  Si  Si35  1  0.78674641  0.10733476  0.99995147  1
  Si  Si36  1  0.84866648  0.85393563  0.36528653  1
  Si  Si37  1  0.84851602  0.85395273  0.63436911  1
  Si  Si38  1  0.88480648  0.26207244  0.24461317  1
  Si  Si39  1  0.88469819  0.26203838  0.75520963  1
  Br  Br40  1  0.04506750  0.47035175  0.50013991  1
  Br  Br41  1  0.45831834  0.96985719  0.49994510  1
  N  N42  1  0.02254130  0.18952833  0.28395933  1
  N  N43  1  0.02307402  0.19020415  0.71638090  1
  N  N44  1  0.10211792  0.10990056  0.50037780  1
  N  N45  1  0.16930134  0.81644218  0.12180432  1
  N  N46  1  0.16952424  0.81548015  0.87883863  1
  N  N47  1  0.22927717  0.74774431  0.64761584  1
  N  N48  1  0.22789861  0.74815244  0.35349241  1
  N  N49  1  0.27147316  0.24672105  0.64825867  1
  N  N50  1  0.27074278  0.24718222  0.35174138  1
  N  N51  1  0.32966472  0.31890379  0.12244876  1
  N  N52  1  0.33027528  0.31623381  0.87850087  1
  N  N53  1  0.39775327  0.60932869  0.49961983  1
  N  N54  1  0.41977266  0.09905476  0.19796446  1
  N  N55  1  0.47503717  0.69381372  0.28369854  1
  N  N56  1  0.47645130  0.69120237  0.71477970  1
  N  N57  1  0.52377558  0.30925284  0.28326780  1
  N  N58  1  0.52501681  0.30653615  0.71794128  1
  N  N59  1  0.58223931  0.90121168  0.80237589  1
  N  N60  1  0.59886518  0.38885215  0.50034923  1
  N  N61  1  0.66446186  0.68085917  0.12209537  1
  N  N62  1  0.66529945  0.67841156  0.87690877  1
  N  N63  1  0.72910068  0.74985371  0.64777365  1
  N  N64  1  0.72818750  0.75058424  0.35225069  1
  N  N65  1  0.77075225  0.25005608  0.64659240  1
  N  N66  1  0.76946745  0.25036095  0.35234840  1
  N  N67  1  0.82740498  0.18254476  0.12326515  1
  N  N68  1  0.82799787  0.18161107  0.87622303  1
  N  N69  1  0.84573079  0.96498676  0.00026688  1
  N  N70  1  0.88067401  0.59421962  0.00110289  1
  N  N71  1  0.90131185  0.88776376  0.49965248  1
  N  N72  1  0.92027231  0.40170293  0.20010977  1
  N  N73  1  0.91944079  0.40179904  0.79991665  1
  N  N74  1  0.97486026  0.80599475  0.28273285  1
  N  N75  1  0.97551888  0.80646076  0.71688171  1
  O  O76  1  0.08770149  0.60579076  0.20277469  1
  O  O77  1  0.08714073  0.60571993  0.79720215  1
  O  O78  1  0.12845496  0.41367001  0.99858081  1
  O  O79  1  0.15588132  0.02769076  0.99956044  1
  O  O80  1  0.18230854  0.00707915  0.68924076  1
  O  O81  1  0.17997372  0.00557971  0.31311043  1
  O  O82  1  0.31960274  0.50959030  0.30959984  1
  O  O83  1  0.31951288  0.50805260  0.68971118  1
  O  O84  1  0.34838813  0.52773958  0.99892318  1
  O  O85  1  0.37226004  0.91124786  0.00045571  1
  O  O86  1  0.41598301  0.10539781  0.79859617  1
  O  O87  1  0.58553484  0.89460369  0.20095577  1
  O  O88  1  0.62344015  0.09508943  0.99945754  1
  O  O89  1  0.65065178  0.47279606  0.00097353  1
  O  O90  1  0.68067146  0.49191972  0.68703176  1
  O  O91  1  0.68090544  0.49335399  0.31366646  1
  O  O92  1  0.81616735  0.99011776  0.31312787  1
  O  O93  1  0.81873390  0.99161353  0.68476915  1
