# generated using pymatgen
data_CsRe6Se8I3
_symmetry_space_group_name_H-M   'P 1'
_cell_length_a   6.67504528
_cell_length_b   16.08258567
_cell_length_c   20.04158002
_cell_angle_alpha   89.99962079
_cell_angle_beta   89.99979231
_cell_angle_gamma   96.85763640
_symmetry_Int_Tables_number   1
_chemical_formula_structural   CsRe6Se8I3
_chemical_formula_sum   'Cs4 Re24 Se32 I12'
_cell_volume   2136.11137310
_cell_formula_units_Z   4
loop_
 _symmetry_equiv_pos_site_id
 _symmetry_equiv_pos_as_xyz
  1  'x, y, z'
loop_
 _atom_site_type_symbol
 _atom_site_label
 _atom_site_symmetry_multiplicity
 _atom_site_fract_x
 _atom_site_fract_y
 _atom_site_fract_z
 _atom_site_occupancy
  Cs  Cs0  1  0.21829794  0.75207326  0.98073217  1
  Cs  Cs1  1  0.71829909  0.25207119  0.51926866  1
  Cs  Cs2  1  0.78170396  0.24792815  0.01926561  1
  Cs  Cs3  1  0.28169604  0.74792895  0.48073392  1
  Re  Re4  1  0.28235966  0.95826019  0.26203622  1
  Re  Re5  1  0.44951483  0.45336912  0.16420492  1
  Re  Re6  1  0.05048171  0.04663226  0.66420297  1
  Re  Re7  1  0.55048351  0.54663528  0.83579187  1
  Re  Re8  1  0.71763743  0.04173666  0.73796198  1
  Re  Re9  1  0.78474741  0.03919925  0.24198474  1
  Re  Re10  1  0.21764723  0.54174165  0.76203176  1
  Re  Re11  1  0.06996233  0.10165799  0.79137360  1
  Re  Re12  1  0.88252382  0.95602548  0.83190759  1
  Re  Re13  1  0.11747261  0.04397198  0.16809513  1
  Re  Re14  1  0.86303587  0.90084632  0.70490729  1
  Re  Re15  1  0.63695882  0.59915124  0.20490918  1
  Re  Re16  1  0.43003234  0.39833759  0.29137702  1
  Re  Re17  1  0.56996341  0.60165967  0.70862582  1
  Re  Re18  1  0.38253112  0.45602929  0.66809114  1
  Re  Re19  1  0.78236160  0.45825933  0.23796460  1
  Re  Re20  1  0.28475679  0.53919856  0.25801796  1
  Re  Re21  1  0.13696334  0.09915273  0.29509440  1
  Re  Re22  1  0.71524454  0.46080295  0.74198402  1
  Re  Re23  1  0.93003551  0.89834252  0.20862437  1
  Re  Re24  1  0.21524685  0.96080238  0.75801605  1
  Re  Re25  1  0.61746179  0.54397367  0.33191171  1
  Re  Re26  1  0.36304644  0.40085071  0.79508842  1
  Re  Re27  1  0.94951917  0.95336945  0.33579524  1
  Se  Se28  1  0.44794371  0.10775632  0.22147057  1
  Se  Se29  1  0.59270715  0.32006792  0.19936254  1
  Se  Se30  1  0.25470268  0.90651764  0.14190800  1
  Se  Se31  1  0.11933772  0.38967895  0.21753790  1
  Se  Se32  1  0.81302440  0.09088625  0.36213313  1
  Se  Se33  1  0.29204834  0.01048270  0.38174265  1
  Se  Se34  1  0.77462285  0.98719376  0.12234685  1
  Se  Se35  1  0.31302821  0.59088548  0.13786749  1
  Se  Se36  1  0.94794659  0.60775897  0.27853077  1
  Se  Se37  1  0.61933096  0.88967823  0.28246179  1
  Se  Se38  1  0.05205687  0.39224347  0.72146989  1
  Se  Se39  1  0.24529106  0.59348452  0.64190746  1
  Se  Se40  1  0.97413796  0.17718644  0.20301328  1
  Se  Se41  1  0.70795102  0.98951573  0.61825646  1
  Se  Se42  1  0.90728513  0.17992720  0.69936080  1
  Se  Se43  1  0.68698486  0.40911574  0.86213249  1
  Se  Se44  1  0.88066435  0.61032142  0.78245967  1
  Se  Se45  1  0.02585611  0.82281200  0.79698812  1
  Se  Se46  1  0.72537150  0.51280872  0.62234614  1
  Se  Se47  1  0.27463161  0.48719377  0.37765632  1
  Se  Se48  1  0.47414660  0.67718378  0.29699058  1
  Se  Se49  1  0.52585097  0.32281591  0.70301212  1
  Se  Se50  1  0.55205689  0.89224357  0.77852801  1
  Se  Se51  1  0.09271478  0.82006945  0.30063725  1
  Se  Se52  1  0.18698068  0.90911300  0.63786683  1
  Se  Se53  1  0.40729184  0.67993182  0.80063706  1
  Se  Se54  1  0.75470909  0.40651512  0.35809518  1
  Se  Se55  1  0.38066482  0.11031704  0.71753884  1
  Se  Se56  1  0.74528520  0.09348243  0.85809132  1
  Se  Se57  1  0.20795218  0.48951830  0.88174390  1
  Se  Se58  1  0.22537188  0.01280725  0.87765336  1
  Se  Se59  1  0.79205152  0.51048307  0.11825617  1
  I  I60  1  0.28051990  0.25034177  0.36511630  1
  I  I61  1  0.25965839  0.38885723  0.54427947  1
  I  I62  1  0.75965833  0.88885492  0.95572320  1
  I  I63  1  0.24034481  0.11114466  0.04427806  1
  I  I64  1  0.71948380  0.74966007  0.63488451  1
  I  I65  1  0.74034063  0.61114130  0.45572206  1
  I  I66  1  0.67537047  0.61507528  0.95925239  1
  I  I67  1  0.17537572  0.11507324  0.54074483  1
  I  I68  1  0.32462401  0.38492516  0.04074462  1
  I  I69  1  0.21949488  0.24966261  0.86511399  1
  I  I70  1  0.82463049  0.88492344  0.45925601  1
  I  I71  1  0.78051385  0.75033649  0.13488325  1
