# generated using pymatgen
data_Na27Ca3Al5(P2O7)12
_symmetry_space_group_name_H-M   'P 1'
_cell_length_a   15.16375247
_cell_length_b   15.16853413
_cell_length_c   15.16655550
_cell_angle_alpha   115.87141013
_cell_angle_beta   115.86012789
_cell_angle_gamma   115.85696840
_symmetry_Int_Tables_number   1
_chemical_formula_structural   Na27Ca3Al5(P2O7)12
_chemical_formula_sum   'Na27 Ca3 Al5 P24 O84'
_cell_volume   1789.45610069
_cell_formula_units_Z   1
loop_
 _symmetry_equiv_pos_site_id
 _symmetry_equiv_pos_as_xyz
  1  'x, y, z'
loop_
 _atom_site_type_symbol
 _atom_site_label
 _atom_site_symmetry_multiplicity
 _atom_site_fract_x
 _atom_site_fract_y
 _atom_site_fract_z
 _atom_site_occupancy
  Na  Na0  1  0.07438618  0.64771633  0.83245317  1
  Na  Na1  1  0.11687806  0.82755325  0.54074850  1
  Na  Na2  1  0.17544021  0.46425953  0.88612566  1
  Na  Na3  1  0.34765808  0.89326099  0.84540385  1
  Na  Na4  1  0.17177163  0.93042543  0.35456624  1
  Na  Na5  1  0.10554605  0.15521924  0.65226410  1
  Na  Na6  1  0.15618890  0.65058279  0.10328276  1
  Na  Na7  1  0.37018005  0.56426629  0.63493362  1
  Na  Na8  1  0.67683888  0.94925951  0.90451336  1
  Na  Na9  1  0.05094470  0.09605122  0.32348421  1
  Na  Na10  1  0.35027434  0.16788931  0.92664690  1
  Na  Na11  1  0.36565921  0.62943333  0.43509515  1
  Na  Na12  1  0.09711999  0.32414152  0.04996217  1
  Na  Na13  1  0.45648929  0.87819655  0.16902857  1
  Na  Na14  1  0.43467662  0.36528928  0.62874042  1
  Na  Na15  1  0.56301660  0.63407491  0.36929886  1
  Na  Na16  1  0.90664331  0.67852454  0.95056543  1
  Na  Na17  1  0.63442595  0.37006066  0.56351543  1
  Na  Na18  1  0.64271511  0.82767146  0.06895931  1
  Na  Na19  1  0.95174117  0.90569237  0.67805942  1
  Na  Na20  1  0.32217135  0.04842864  0.09471612  1
  Na  Na21  1  0.62965188  0.43591634  0.36619387  1
  Na  Na22  1  0.84830554  0.35056234  0.89470871  1
  Na  Na23  1  0.89668991  0.84753334  0.35227843  1
  Na  Na24  1  0.83135716  0.07248348  0.64706714  1
  Na  Na25  1  0.64770712  0.10204670  0.15308466  1
  Na  Na26  1  0.93154448  0.35492572  0.17231762  1
  Ca  Ca27  1  0.53640366  0.11368268  0.82463848  1
  Ca  Ca28  1  0.83359066  0.54706632  0.12457068  1
  Ca  Ca29  1  0.87959175  0.17039125  0.45976009  1
  Al  Al30  1  0.50074868  0.99917619  0.49761580  1
  Al  Al31  1  0.49767944  0.49953648  0.99957410  1
  Al  Al32  1  0.00092313  0.00027587  0.00011280  1
  Al  Al33  1  0.49997602  0.49932247  0.49927630  1
  Al  Al34  1  0.00241259  0.50315657  0.50398852  1
  P  P35  1  0.06345709  0.77554631  0.69780041  1
  P  P36  1  0.30339898  0.67759460  0.83459864  1
  P  P37  1  0.22416079  0.30177611  0.93624438  1
  P  P38  1  0.25968539  0.70656971  0.55359530  1
  P  P39  1  0.16595051  0.69665256  0.32265393  1
  P  P40  1  0.29275718  0.44651557  0.73976524  1
  P  P41  1  0.30168080  0.93624018  0.22433141  1
  P  P42  1  0.13958702  0.30493131  0.28029235  1
  P  P43  1  0.32264203  0.16624384  0.69640717  1
  P  P44  1  0.44513132  0.73974168  0.29224329  1
  P  P45  1  0.69511363  0.71975973  0.86034682  1
  P  P46  1  0.71970650  0.86028977  0.69509572  1
  P  P47  1  0.28087344  0.13929119  0.30518676  1
  P  P48  1  0.30519763  0.28087320  0.13931461  1
  P  P49  1  0.55254688  0.25925885  0.70611227  1
  P  P50  1  0.67676099  0.83359544  0.30312769  1
  P  P51  1  0.86064878  0.69488188  0.71914960  1
  P  P52  1  0.69747704  0.06244532  0.77437983  1
  P  P53  1  0.70624402  0.55339260  0.25894902  1
  P  P54  1  0.83334929  0.30352071  0.67702350  1
  P  P55  1  0.74055904  0.29330232  0.44673663  1
  P  P56  1  0.77411964  0.69759204  0.06240078  1
  P  P57  1  0.69674725  0.32334198  0.16703118  1
  P  P58  1  0.93718195  0.22547430  0.30204581  1
  O  O59  1  0.11180970  0.89789358  0.71370988  1
  O  O60  1  0.17805262  0.83863220  0.84771241  1
  O  O61  1  0.02246287  0.65581184  0.56855323  1
  O  O62  1  0.23890976  0.63023545  0.87852431  1
  O  O63  1  0.10142558  0.28533804  0.88776833  1
  O  O64  1  0.19841623  0.64410999  0.70428765  1
  O  O65  1  0.11446068  0.75555769  0.36385016  1
  O  O66  1  0.09483524  0.56104222  0.45319187  1
  O  O67  1  0.32023371  0.85718116  0.66517965  1
  O  O68  1  0.46619705  0.84632982  0.96985640  1
  O  O69  1  0.14244065  0.33399261  0.67917375  1
  O  O70  1  0.15205004  0.82213049  0.16193646  1
  O  O71  1  0.02458925  0.53308425  0.15223837  1
  O  O72  1  0.34388359  0.43068925  0.97715754  1
  O  O73  1  0.31894004  0.57533699  0.76338181  1
  O  O74  1  0.16170998  0.15228161  0.82209329  1
  O  O75  1  0.23613737  0.68149018  0.42435102  1
  O  O76  1  0.37585194  0.71626787  0.62790822  1
  O  O77  1  0.29471528  0.80201927  0.35606885  1
  O  O78  1  0.10063980  0.32058083  0.36838418  1
  O  O79  1  0.43876425  0.54578337  0.90426528  1
  O  O80  1  0.28402698  0.37187760  0.62433382  1
  O  O81  1  0.28568204  0.88844445  0.10206312  1
  O  O82  1  0.10273850  0.35335212  0.21661688  1
  O  O83  1  0.43076623  0.97754918  0.34436964  1
  O  O84  1  0.35656983  0.29516982  0.80282443  1
  O  O85  1  0.15403933  0.02859092  0.53406731  1
  O  O86  1  0.64675878  0.78340869  0.89722733  1
  O  O87  1  0.04655686  0.13762792  0.16422606  1
  O  O88  1  0.63156683  0.89952524  0.67986375  1
  O  O89  1  0.31531572  0.42581754  0.41955745  1
  O  O90  1  0.54767874  0.90530379  0.44097795  1
  O  O91  1  0.33632580  0.68350208  0.14590766  1
  O  O92  1  0.37348756  0.62546716  0.28564435  1
  O  O93  1  0.37231536  0.12187716  0.76070453  1
  O  O94  1  0.67958071  0.63155278  0.89936309  1
  O  O95  1  0.21674701  0.10321778  0.35362490  1
  O  O96  1  0.57422455  0.58044890  0.68468015  1
  O  O97  1  0.42539965  0.23764199  0.68196183  1
  O  O98  1  0.58038342  0.68474068  0.57462202  1
  O  O99  1  0.83543708  0.95311037  0.86238493  1
  O  O100  1  0.13807955  0.16464090  0.04731855  1
  O  O101  1  0.86243163  0.83579367  0.95341580  1
  O  O102  1  0.16433800  0.04707795  0.13810461  1
  O  O103  1  0.41928994  0.31536208  0.42592159  1
  O  O104  1  0.57631379  0.76433437  0.31919891  1
  O  O105  1  0.42557864  0.41941258  0.31534596  1
  O  O106  1  0.78315106  0.89681228  0.64647309  1
  O  O107  1  0.32128283  0.36872718  0.10133806  1
  O  O108  1  0.63722015  0.88585470  0.24471203  1
  O  O109  1  0.62987853  0.37671801  0.71829412  1
  O  O110  1  0.66242185  0.31650663  0.85626011  1
  O  O111  1  0.45368821  0.09471884  0.56262963  1
  O  O112  1  0.68460380  0.57445775  0.58060344  1
  O  O113  1  0.36878974  0.10148469  0.32162008  1
  O  O114  1  0.95258204  0.86188341  0.83535207  1
  O  O115  1  0.35397515  0.21709463  0.10367793  1
  O  O116  1  0.84775062  0.97385404  0.46596529  1
  O  O117  1  0.64477888  0.70531148  0.19813789  1
  O  O118  1  0.56804321  0.02456729  0.65854854  1
  O  O119  1  0.89631216  0.64619790  0.78298993  1
  O  O120  1  0.71143215  0.11222590  0.89700569  1
  O  O121  1  0.71704477  0.62862509  0.37576475  1
  O  O122  1  0.56055683  0.45203906  0.09369797  1
  O  O123  1  0.89858208  0.67878077  0.63115354  1
  O  O124  1  0.70475977  0.19726153  0.64415607  1
  O  O125  1  0.62432037  0.28317380  0.37119060  1
  O  O126  1  0.76275521  0.31850885  0.57506725  1
  O  O127  1  0.83906017  0.84788228  0.17804554  1
  O  O128  1  0.68168085  0.42451317  0.23669847  1
  O  O129  1  0.65822847  0.56818810  0.02435918  1
  O  O130  1  0.96976955  0.46495475  0.84590544  1
  O  O131  1  0.84770212  0.17810667  0.83926466  1
  O  O132  1  0.85271086  0.65989811  0.31217243  1
  O  O133  1  0.53444971  0.15275293  0.02477842  1
  O  O134  1  0.68767615  0.14738256  0.33970110  1
  O  O135  1  0.90550267  0.43930005  0.54713311  1
  O  O136  1  0.87832724  0.23944309  0.62876376  1
  O  O137  1  0.80275303  0.35566970  0.29416848  1
  O  O138  1  0.89661054  0.71141121  0.11184333  1
  O  O139  1  0.75559492  0.36596122  0.11506733  1
  O  O140  1  0.97545080  0.34185323  0.43122347  1
  O  O141  1  0.82211275  0.16132087  0.15204595  1
  O  O142  1  0.88795769  0.10301770  0.28788918  1
