# generated using pymatgen
data_Cu3P15I2
_symmetry_space_group_name_H-M   'P 1'
_cell_length_a   9.71003607
_cell_length_b   9.94106187
_cell_length_c   19.56633716
_cell_angle_alpha   90.00000000
_cell_angle_beta   90.00000000
_cell_angle_gamma   108.75543913
_symmetry_Int_Tables_number   1
_chemical_formula_structural   Cu3P15I2
_chemical_formula_sum   'Cu12 P60 I8'
_cell_volume   1788.41000459
_cell_formula_units_Z   4
loop_
 _symmetry_equiv_pos_site_id
 _symmetry_equiv_pos_as_xyz
  1  'x, y, z'
loop_
 _atom_site_type_symbol
 _atom_site_label
 _atom_site_symmetry_multiplicity
 _atom_site_fract_x
 _atom_site_fract_y
 _atom_site_fract_z
 _atom_site_occupancy
  Cu  Cu0  1  0.67593443  0.67464978  0.05667885  1
  Cu  Cu1  1  0.44251216  0.07306100  0.78856629  1
  Cu  Cu2  1  0.22987100  0.82244841  0.55902876  1
  Cu  Cu3  1  0.82406557  0.82535022  0.55667885  1
  Cu  Cu4  1  0.77012900  0.17755159  0.44097124  1
  Cu  Cu5  1  0.32406557  0.32535022  0.94332115  1
  Cu  Cu6  1  0.94251216  0.57306100  0.71143371  1
  Cu  Cu7  1  0.27012900  0.67755159  0.05902876  1
  Cu  Cu8  1  0.17593443  0.17464978  0.44332115  1
  Cu  Cu9  1  0.72987100  0.32244841  0.94097124  1
  Cu  Cu10  1  0.05748784  0.42693900  0.28856629  1
  Cu  Cu11  1  0.55748784  0.92693900  0.21143371  1
  P  P12  1  0.78436987  0.55788888  0.90658311  1
  P  P13  1  0.11082065  0.71984043  0.98181944  1
  P  P14  1  0.37133960  0.22855539  0.51693771  1
  P  P15  1  0.95832268  0.62712152  0.82696275  1
  P  P16  1  0.54167732  0.87287848  0.32696275  1
  P  P17  1  0.89780137  0.91633012  0.91396973  1
  P  P18  1  0.80764262  0.64395587  0.35625830  1
  P  P19  1  0.20078090  0.91703017  0.92063038  1
  P  P20  1  0.42999389  0.56632917  0.92348776  1
  P  P21  1  0.45832268  0.12712152  0.67303725  1
  P  P22  1  0.51092744  0.27262373  0.99604507  1
  P  P23  1  0.79921910  0.08296983  0.07936962  1
  P  P24  1  0.87933668  0.37973373  0.63762233  1
  P  P25  1  0.88584821  0.88467355  0.35033287  1
  P  P26  1  0.48907256  0.72737627  0.00395493  1
  P  P27  1  0.40547672  0.94368679  0.39991588  1
  P  P28  1  0.28436987  0.05788888  0.59341689  1
  P  P29  1  0.71563013  0.94211112  0.40658311  1
  P  P30  1  0.59452328  0.05631321  0.60008412  1
  P  P31  1  0.62866040  0.77144461  0.48306229  1
  P  P32  1  0.37933668  0.87973373  0.86237767  1
  P  P33  1  0.44015426  0.08536106  0.06229417  1
  P  P34  1  0.11415179  0.11532645  0.64966713  1
  P  P35  1  0.07000611  0.93367083  0.42348776  1
  P  P36  1  0.69235738  0.85604413  0.85625830  1
  P  P37  1  0.55984574  0.91463894  0.93770583  1
  P  P38  1  0.45922918  0.62850235  0.33479978  1
  P  P39  1  0.54077082  0.37149765  0.66520022  1
  P  P40  1  0.04077082  0.87149765  0.83479978  1
  P  P41  1  0.70078090  0.41703017  0.57936962  1
  P  P42  1  0.39780137  0.41633012  0.58603027  1
  P  P43  1  0.12866040  0.27144461  0.01693771  1
  P  P44  1  0.90547672  0.44368679  0.10008412  1
  P  P45  1  0.10219863  0.08366988  0.08603027  1
  P  P46  1  0.61415179  0.61532645  0.85033287  1
  P  P47  1  0.29921910  0.58296983  0.42063038  1
  P  P48  1  0.80267186  0.13815941  0.65455216  1
  P  P49  1  0.92999389  0.06632917  0.57651224  1
  P  P50  1  0.62066332  0.12026627  0.13762233  1
  P  P51  1  0.69732814  0.36184059  0.15455216  1
  P  P52  1  0.87133960  0.72855539  0.98306229  1
  P  P53  1  0.04167732  0.37287848  0.17303725  1
  P  P54  1  0.09452328  0.55631321  0.89991588  1
  P  P55  1  0.57000611  0.43367083  0.07651224  1
  P  P56  1  0.60219863  0.58366988  0.41396973  1
  P  P57  1  0.38917935  0.78015957  0.48181944  1
  P  P58  1  0.95922918  0.12850235  0.16520022  1
  P  P59  1  0.21563013  0.44211112  0.09341689  1
  P  P60  1  0.30267186  0.63815941  0.84544784  1
  P  P61  1  0.30764262  0.14395587  0.14374170  1
  P  P62  1  0.38584821  0.38467355  0.14966713  1
  P  P63  1  0.01092744  0.77262373  0.50395493  1
  P  P64  1  0.88917935  0.28015957  0.01818056  1
  P  P65  1  0.98907256  0.22737627  0.49604507  1
  P  P66  1  0.12066332  0.62026627  0.36237767  1
  P  P67  1  0.19732814  0.86184059  0.34544784  1
  P  P68  1  0.05984574  0.41463894  0.56229417  1
  P  P69  1  0.94015426  0.58536106  0.43770583  1
  P  P70  1  0.61082065  0.21984043  0.51818056  1
  P  P71  1  0.19235738  0.35604413  0.64374170  1
  I  I72  1  0.77483294  0.73509313  0.68235172  1
  I  I73  1  0.22516706  0.26490687  0.31764828  1
  I  I74  1  0.71957012  0.22071604  0.81812222  1
  I  I75  1  0.78042988  0.27928396  0.31812222  1
  I  I76  1  0.72516706  0.76490687  0.18235172  1
  I  I77  1  0.27483294  0.23509313  0.81764828  1
  I  I78  1  0.28042988  0.77928396  0.18187778  1
  I  I79  1  0.21957012  0.72071604  0.68187778  1
