# generated using pymatgen
data_Sb2Cl5F4
_symmetry_space_group_name_H-M   'P 1'
_cell_length_a   11.40842240
_cell_length_b   11.40842258
_cell_length_c   18.83881745
_cell_angle_alpha   84.06865230
_cell_angle_beta   84.06865220
_cell_angle_gamma   68.37915702
_symmetry_Int_Tables_number   1
_chemical_formula_structural   Sb2Cl5F4
_chemical_formula_sum   'Sb16 Cl40 F32'
_cell_volume   2261.54463827
_cell_formula_units_Z   8
loop_
 _symmetry_equiv_pos_site_id
 _symmetry_equiv_pos_as_xyz
  1  'x, y, z'
loop_
 _atom_site_type_symbol
 _atom_site_label
 _atom_site_symmetry_multiplicity
 _atom_site_fract_x
 _atom_site_fract_y
 _atom_site_fract_z
 _atom_site_occupancy
  Sb  Sb0  1  0.25586982  0.78378170  0.06654900  1
  Sb  Sb1  1  0.10147123  0.67833673  0.76981364  1
  Sb  Sb2  1  0.42834197  0.48304477  0.65799884  1
  Sb  Sb3  1  0.74413018  0.21621830  0.93345100  1
  Sb  Sb4  1  0.36342779  0.29314771  0.98302899  1
  Sb  Sb5  1  0.21621830  0.74413018  0.43345100  1
  Sb  Sb6  1  0.63657221  0.70685229  0.01697101  1
  Sb  Sb7  1  0.78378170  0.25586982  0.56654900  1
  Sb  Sb8  1  0.48304477  0.42834197  0.15799884  1
  Sb  Sb9  1  0.70685229  0.63657221  0.51697101  1
  Sb  Sb10  1  0.29314771  0.36342779  0.48302899  1
  Sb  Sb11  1  0.67833673  0.10147123  0.26981364  1
  Sb  Sb12  1  0.32166327  0.89852877  0.73018636  1
  Sb  Sb13  1  0.51695523  0.57165803  0.84200116  1
  Sb  Sb14  1  0.89852877  0.32166327  0.23018636  1
  Sb  Sb15  1  0.57165803  0.51695523  0.34200116  1
  Cl  Cl16  1  0.59078751  0.84696843  0.48627638  1
  Cl  Cl17  1  0.92666170  0.26234553  0.90319879  1
  Cl  Cl18  1  0.49914710  0.95649396  0.71265123  1
  Cl  Cl19  1  0.15303157  0.40921249  0.01372362  1
  Cl  Cl20  1  0.18125692  0.33726248  0.39256358  1
  Cl  Cl21  1  0.87809625  0.25742895  0.67020812  1
  Cl  Cl22  1  0.08396406  0.17310120  0.27494055  1
  Cl  Cl23  1  0.60352673  0.87136424  0.92756202  1
  Cl  Cl24  1  0.95649396  0.49914710  0.21265123  1
  Cl  Cl25  1  0.33726248  0.18125692  0.89256358  1
  Cl  Cl26  1  0.40921249  0.15303157  0.51372362  1
  Cl  Cl27  1  0.26009861  0.94384042  0.61292499  1
  Cl  Cl28  1  0.26234553  0.92666170  0.40319879  1
  Cl  Cl29  1  0.91603594  0.82689880  0.72505945  1
  Cl  Cl30  1  0.74257105  0.12190375  0.82979188  1
  Cl  Cl31  1  0.81874308  0.66273752  0.60743642  1
  Cl  Cl32  1  0.07333830  0.73765447  0.09680121  1
  Cl  Cl33  1  0.94384042  0.26009861  0.11292499  1
  Cl  Cl34  1  0.25742895  0.87809625  0.17020812  1
  Cl  Cl35  1  0.82689880  0.91603594  0.22505945  1
  Cl  Cl36  1  0.39647327  0.12863576  0.07243798  1
  Cl  Cl37  1  0.12190375  0.74257105  0.32979188  1
  Cl  Cl38  1  0.82199273  0.03283845  0.00692232  1
  Cl  Cl39  1  0.73765447  0.07333830  0.59680121  1
  Cl  Cl40  1  0.61490971  0.69280992  0.29152323  1
  Cl  Cl41  1  0.73990139  0.05615958  0.38707501  1
  Cl  Cl42  1  0.17310120  0.08396406  0.77494055  1
  Cl  Cl43  1  0.96716155  0.17800727  0.49307768  1
  Cl  Cl44  1  0.12863576  0.39647327  0.57243798  1
  Cl  Cl45  1  0.50085290  0.04350604  0.28734877  1
  Cl  Cl46  1  0.05615958  0.73990139  0.88707501  1
  Cl  Cl47  1  0.84696843  0.59078751  0.98627638  1
  Cl  Cl48  1  0.30719008  0.38509029  0.20847677  1
  Cl  Cl49  1  0.66273752  0.81874308  0.10743642  1
  Cl  Cl50  1  0.87136424  0.60352673  0.42756202  1
  Cl  Cl51  1  0.04350604  0.50085290  0.78734877  1
  Cl  Cl52  1  0.03283845  0.82199273  0.50692232  1
  Cl  Cl53  1  0.17800727  0.96716155  0.99307768  1
  Cl  Cl54  1  0.38509029  0.30719008  0.70847677  1
  Cl  Cl55  1  0.69280992  0.61490971  0.79152323  1
  F  F56  1  0.61201752  0.35813982  0.62382177  1
  F  F57  1  0.69269220  0.32302708  0.01080056  1
  F  F58  1  0.36074354  0.82718270  0.82785456  1
  F  F59  1  0.82618688  0.17381312  0.25000000  1
  F  F60  1  0.17381312  0.82618688  0.75000000  1
  F  F61  1  0.53015452  0.46984548  0.75000000  1
  F  F62  1  0.17281730  0.63925646  0.67214544  1
  F  F63  1  0.57982787  0.27764252  0.28917111  1
  F  F64  1  0.61561881  0.57675571  0.45121359  1
  F  F65  1  0.32302708  0.69269220  0.51080056  1
  F  F66  1  0.82718270  0.36074354  0.32785456  1
  F  F67  1  0.57850797  0.61640367  0.58718051  1
  F  F68  1  0.63925646  0.17281730  0.17214544  1
  F  F69  1  0.42017213  0.72235748  0.71082889  1
  F  F70  1  0.72235748  0.42017213  0.21082889  1
  F  F71  1  0.38798248  0.64186018  0.37617823  1
  F  F72  1  0.67697292  0.30730780  0.48919944  1
  F  F73  1  0.38359633  0.42149203  0.91281949  1
  F  F74  1  0.27764252  0.57982787  0.78917111  1
  F  F75  1  0.35813982  0.61201752  0.12382177  1
  F  F76  1  0.61640367  0.57850797  0.08718051  1
  F  F77  1  0.38438119  0.42324429  0.54878641  1
  F  F78  1  0.42324429  0.38438119  0.04878641  1
  F  F79  1  0.46984548  0.53015452  0.25000000  1
  F  F80  1  0.43781783  0.79055676  0.04380291  1
  F  F81  1  0.64186018  0.38798248  0.87617823  1
  F  F82  1  0.79055676  0.43781783  0.54380291  1
  F  F83  1  0.30730780  0.67697292  0.98919944  1
  F  F84  1  0.57675571  0.61561881  0.95121359  1
  F  F85  1  0.56218217  0.20944324  0.95619709  1
  F  F86  1  0.20944324  0.56218217  0.45619709  1
  F  F87  1  0.42149203  0.38359633  0.41281949  1
