# generated using pymatgen
data_Cd3(PO4)2
_symmetry_space_group_name_H-M   'P 1'
_cell_length_a   9.34134088
_cell_length_b   10.52495319
_cell_length_c   22.06929169
_cell_angle_alpha   90.00000000
_cell_angle_beta   99.55027718
_cell_angle_gamma   90.00000000
_symmetry_Int_Tables_number   1
_chemical_formula_structural   Cd3(PO4)2
_chemical_formula_sum   'Cd36 P24 O96'
_cell_volume   2139.71797958
_cell_formula_units_Z   12
loop_
 _symmetry_equiv_pos_site_id
 _symmetry_equiv_pos_as_xyz
  1  'x, y, z'
loop_
 _atom_site_type_symbol
 _atom_site_label
 _atom_site_symmetry_multiplicity
 _atom_site_fract_x
 _atom_site_fract_y
 _atom_site_fract_z
 _atom_site_occupancy
  Cd  Cd0  1  0.75452815  0.70996760  0.63524457  1
  Cd  Cd1  1  0.90322720  0.29493252  0.70477685  1
  Cd  Cd2  1  0.89670205  0.39397193  0.41564922  1
  Cd  Cd3  1  0.94718849  0.78805269  0.45668411  1
  Cd  Cd4  1  0.40322720  0.20506748  0.20477685  1
  Cd  Cd5  1  0.55977960  0.59566252  0.43960204  1
  Cd  Cd6  1  0.60487315  0.10390356  0.39276809  1
  Cd  Cd7  1  0.05281151  0.21194731  0.54331589  1
  Cd  Cd8  1  0.27902610  0.89587790  0.42279342  1
  Cd  Cd9  1  0.44718849  0.71194731  0.95668411  1
  Cd  Cd10  1  0.24547185  0.29003240  0.36475543  1
  Cd  Cd11  1  0.09677280  0.70506748  0.29522315  1
  Cd  Cd12  1  0.95052249  0.89665749  0.75253023  1
  Cd  Cd13  1  0.89512685  0.60390356  0.10723191  1
  Cd  Cd14  1  0.25452815  0.79003240  0.13524457  1
  Cd  Cd15  1  0.54947751  0.39665749  0.74746977  1
  Cd  Cd16  1  0.04947751  0.10334251  0.24746977  1
  Cd  Cd17  1  0.21173436  0.58997562  0.78222627  1
  Cd  Cd18  1  0.74547185  0.20996760  0.86475543  1
  Cd  Cd19  1  0.55281151  0.28805269  0.04331589  1
  Cd  Cd20  1  0.72097390  0.10412210  0.57720658  1
  Cd  Cd21  1  0.59677280  0.79493252  0.79522315  1
  Cd  Cd22  1  0.28826564  0.08997562  0.71777373  1
  Cd  Cd23  1  0.78826564  0.41002438  0.21777373  1
  Cd  Cd24  1  0.77902610  0.60412210  0.92279342  1
  Cd  Cd25  1  0.22097390  0.39587790  0.07720658  1
  Cd  Cd26  1  0.10329795  0.60602807  0.58435078  1
  Cd  Cd27  1  0.94022040  0.09566252  0.06039796  1
  Cd  Cd28  1  0.45052249  0.60334251  0.25253023  1
  Cd  Cd29  1  0.05977960  0.90433748  0.93960204  1
  Cd  Cd30  1  0.44022040  0.40433748  0.56039796  1
  Cd  Cd31  1  0.60329795  0.89397193  0.08435078  1
  Cd  Cd32  1  0.39512685  0.89609644  0.60723191  1
  Cd  Cd33  1  0.10487315  0.39609644  0.89276809  1
  Cd  Cd34  1  0.71173436  0.91002438  0.28222627  1
  Cd  Cd35  1  0.39670205  0.10602807  0.91564922  1
  P  P36  1  0.69832833  0.14151794  0.16884364  1
  P  P37  1  0.54754474  0.36463135  0.32894006  1
  P  P38  1  0.80167167  0.64151794  0.33115636  1
  P  P39  1  0.80122873  0.43613955  0.56012674  1
  P  P40  1  0.19832833  0.35848206  0.66884364  1
  P  P41  1  0.85160805  0.57249999  0.77960910  1
  P  P42  1  0.53379809  0.57953021  0.10533706  1
  P  P43  1  0.30122873  0.06386045  0.06012674  1
  P  P44  1  0.62795167  0.85448221  0.50083771  1
  P  P45  1  0.37204833  0.14551779  0.49916229  1
  P  P46  1  0.12795167  0.64551779  0.00083771  1
  P  P47  1  0.96620191  0.07953021  0.39466294  1
  P  P48  1  0.46620191  0.42046979  0.89466294  1
  P  P49  1  0.03379809  0.92046979  0.60533706  1
  P  P50  1  0.64839195  0.07249999  0.72039090  1
  P  P51  1  0.45245526  0.63536865  0.67105994  1
  P  P52  1  0.95245526  0.86463135  0.17105994  1
  P  P53  1  0.04754474  0.13536865  0.82894006  1
  P  P54  1  0.14839195  0.42750001  0.22039090  1
  P  P55  1  0.19877127  0.56386045  0.43987326  1
  P  P56  1  0.87204833  0.35448221  0.99916229  1
  P  P57  1  0.30167167  0.85848206  0.83115636  1
  P  P58  1  0.69877127  0.93613955  0.93987326  1
  P  P59  1  0.35160805  0.92750001  0.27960910  1
  O  O60  1  0.67887453  0.30479847  0.37221445  1
  O  O61  1  0.44865137  0.46504082  0.07140313  1
  O  O62  1  0.43570155  0.25437416  0.31077826  1
  O  O63  1  0.28344963  0.04487950  0.24214716  1
  O  O64  1  0.56429845  0.74562584  0.68922174  1
  O  O65  1  0.62402415  0.18277775  0.76430308  1
  O  O66  1  0.38850639  0.14086601  0.42933619  1
  O  O67  1  0.66113666  0.70024865  0.29321703  1
  O  O68  1  0.06074353  0.81783053  0.55777279  1
  O  O69  1  0.90877015  0.91776067  0.23112315  1
  O  O70  1  0.55134863  0.53495918  0.92859687  1
  O  O71  1  0.33886334  0.29975135  0.70678297  1
  O  O72  1  0.27879101  0.17360381  0.10439466  1
  O  O73  1  0.78344963  0.45512050  0.74214716  1
  O  O74  1  0.59122985  0.41776067  0.26887685  1
  O  O75  1  0.12402415  0.31722225  0.26430308  1
  O  O76  1  0.33572291  0.00940268  0.51809817  1
  O  O77  1  0.25292643  0.24454860  0.50580444  1
  O  O78  1  0.81523745  0.03549373  0.36048130  1
  O  O79  1  0.94108564  0.86176184  0.65076249  1
  O  O80  1  0.88850639  0.35913399  0.92933619  1
  O  O81  1  0.56074353  0.68216947  0.05777279  1
  O  O82  1  0.96791781  0.03081594  0.86040671  1
  O  O83  1  0.03208219  0.96918406  0.13959329  1
  O  O84  1  0.11149361  0.64086601  0.07066381  1
  O  O85  1  0.16427709  0.50940268  0.98190183  1
  O  O86  1  0.05891436  0.13823816  0.34923751  1
  O  O87  1  0.38245548  0.94987943  0.79354974  1
  O  O88  1  0.53208219  0.53081594  0.63959329  1
  O  O89  1  0.99968568  0.54106301  0.82087395  1
  O  O90  1  0.26656435  0.92369748  0.89042124  1
  O  O91  1  0.51183702  0.19965790  0.54054479  1
  O  O92  1  0.49968568  0.95893699  0.32087395  1
  O  O93  1  0.61754452  0.05012057  0.20645026  1
  O  O94  1  0.23343565  0.42369748  0.60957876  1
  O  O95  1  0.76656435  0.57630252  0.39042124  1
  O  O96  1  0.01183702  0.30034210  0.04054479  1
  O  O97  1  0.40877015  0.58223933  0.73112315  1
  O  O98  1  0.22120899  0.67360381  0.39560534  1
  O  O99  1  0.31523745  0.46450627  0.86048130  1
  O  O100  1  0.73823621  0.61385570  0.82052604  1
  O  O101  1  0.58891240  0.88991803  0.98138536  1
  O  O102  1  0.08891240  0.61008197  0.48138536  1
  O  O103  1  0.48816298  0.80034210  0.45945521  1
  O  O104  1  0.44108564  0.63823816  0.15076249  1
  O  O105  1  0.93925647  0.18216947  0.44222721  1
  O  O106  1  0.84758455  0.97422465  0.97795949  1
  O  O107  1  0.05134863  0.96504082  0.42859687  1
  O  O108  1  0.91108760  0.38991803  0.51861464  1
  O  O109  1  0.65241545  0.47422465  0.52204051  1
  O  O110  1  0.09382844  0.24310720  0.64963065  1
  O  O111  1  0.18476255  0.96450627  0.63951870  1
  O  O112  1  0.11754452  0.44987943  0.70645026  1
  O  O113  1  0.34758455  0.52577535  0.47795949  1
  O  O114  1  0.24707357  0.74454860  0.99419556  1
  O  O115  1  0.68476255  0.53549373  0.13951870  1
  O  O116  1  0.77879101  0.32639619  0.60439466  1
  O  O117  1  0.26176379  0.38614430  0.17947396  1
  O  O118  1  0.90617156  0.75689280  0.35036935  1
  O  O119  1  0.83886334  0.20024865  0.20678297  1
  O  O120  1  0.98816298  0.69965790  0.95945521  1
  O  O121  1  0.16113666  0.79975135  0.79321703  1
  O  O122  1  0.62672436  0.05539765  0.90387377  1
  O  O123  1  0.61149361  0.85913399  0.57066381  1
  O  O124  1  0.12672436  0.44460235  0.40387377  1
  O  O125  1  0.87597585  0.68277775  0.73569692  1
  O  O126  1  0.66427709  0.99059732  0.48190183  1
  O  O127  1  0.21655037  0.54487950  0.25785284  1
  O  O128  1  0.87327564  0.55539765  0.59612623  1
  O  O129  1  0.41108760  0.11008197  0.01861464  1
  O  O130  1  0.59382844  0.25689280  0.14963065  1
  O  O131  1  0.71655037  0.95512050  0.75785284  1
  O  O132  1  0.37327564  0.94460235  0.09612623  1
  O  O133  1  0.88245548  0.55012057  0.29354974  1
  O  O134  1  0.83572291  0.49059732  0.01809817  1
  O  O135  1  0.32112547  0.69520153  0.62778555  1
  O  O136  1  0.46791781  0.46918406  0.36040671  1
  O  O137  1  0.82112547  0.80479847  0.12778555  1
  O  O138  1  0.06429845  0.75437416  0.18922174  1
  O  O139  1  0.40617156  0.74310720  0.85036935  1
  O  O140  1  0.23823621  0.88614430  0.32052604  1
  O  O141  1  0.55891436  0.36176184  0.84923751  1
  O  O142  1  0.94865137  0.03495918  0.57140313  1
  O  O143  1  0.09122985  0.08223933  0.76887685  1
  O  O144  1  0.75292643  0.25545140  0.00580444  1
  O  O145  1  0.76176379  0.11385570  0.67947396  1
  O  O146  1  0.73343565  0.07630252  0.10957876  1
  O  O147  1  0.50031432  0.04106301  0.67912605  1
  O  O148  1  0.17887453  0.19520153  0.87221445  1
  O  O149  1  0.43925647  0.31783053  0.94222721  1
  O  O150  1  0.15241545  0.02577535  0.02204051  1
  O  O151  1  0.93570155  0.24562584  0.81077826  1
  O  O152  1  0.72120899  0.82639619  0.89560534  1
  O  O153  1  0.00031432  0.45893699  0.17912605  1
  O  O154  1  0.37597585  0.81722225  0.23569692  1
  O  O155  1  0.74707357  0.75545140  0.49419556  1
