# generated using pymatgen
data_K8Ti5P2(O4F11)2
_symmetry_space_group_name_H-M   'P 1'
_cell_length_a   10.43544278
_cell_length_b   10.98433840
_cell_length_c   25.06839273
_cell_angle_alpha   90.00000000
_cell_angle_beta   98.33724264
_cell_angle_gamma   90.00000000
_symmetry_Int_Tables_number   1
_chemical_formula_structural   K8Ti5P2(O4F11)2
_chemical_formula_sum   'K32 Ti20 P8 O32 F88'
_cell_volume   2843.13260825
_cell_formula_units_Z   4
loop_
 _symmetry_equiv_pos_site_id
 _symmetry_equiv_pos_as_xyz
  1  'x, y, z'
loop_
 _atom_site_type_symbol
 _atom_site_label
 _atom_site_symmetry_multiplicity
 _atom_site_fract_x
 _atom_site_fract_y
 _atom_site_fract_z
 _atom_site_occupancy
  K  K0  1  0.29606446  0.41130178  0.30263315  1
  K  K1  1  0.84420860  0.55564611  0.30250771  1
  K  K2  1  0.20393554  0.91130178  0.19736685  1
  K  K3  1  0.29900839  0.24233387  0.14683847  1
  K  K4  1  0.45882493  0.22069064  0.72249278  1
  K  K5  1  0.21361678  0.57860133  0.50583213  1
  K  K6  1  0.71361678  0.92139867  0.00583213  1
  K  K7  1  0.72055073  0.19126689  0.35155770  1
  K  K8  1  0.34420860  0.94435389  0.80250771  1
  K  K9  1  0.61210183  0.29837591  0.05609623  1
  K  K10  1  0.43039628  0.25380210  0.44984091  1
  K  K11  1  0.95882493  0.27930936  0.22249278  1
  K  K12  1  0.06960372  0.75380210  0.05015909  1
  K  K13  1  0.15579140  0.44435389  0.69749229  1
  K  K14  1  0.22055073  0.30873311  0.85155770  1
  K  K15  1  0.77944927  0.69126689  0.14844230  1
  K  K16  1  0.88789817  0.79837591  0.44390377  1
  K  K17  1  0.11210183  0.20162409  0.55609623  1
  K  K18  1  0.20099161  0.74233387  0.35316153  1
  K  K19  1  0.28638322  0.07860133  0.99416787  1
  K  K20  1  0.38789817  0.70162409  0.94390377  1
  K  K21  1  0.70393554  0.58869822  0.69736685  1
  K  K22  1  0.04117507  0.72069064  0.77750722  1
  K  K23  1  0.78638322  0.42139867  0.49416787  1
  K  K24  1  0.70099161  0.75766613  0.85316153  1
  K  K25  1  0.93039628  0.24619790  0.94984091  1
  K  K26  1  0.54117507  0.77930936  0.27750722  1
  K  K27  1  0.79900839  0.25766613  0.64683847  1
  K  K28  1  0.79606446  0.08869822  0.80263315  1
  K  K29  1  0.27944927  0.80873311  0.64844230  1
  K  K30  1  0.65579140  0.05564611  0.19749229  1
  K  K31  1  0.56960372  0.74619790  0.55015909  1
  Ti  Ti32  1  0.25532700  0.92939125  0.49634652  1
  Ti  Ti33  1  0.75532700  0.57060875  0.99634652  1
  Ti  Ti34  1  0.11717176  0.57948969  0.18332705  1
  Ti  Ti35  1  0.04501692  0.88182002  0.90491905  1
  Ti  Ti36  1  0.45498308  0.38182002  0.59508095  1
  Ti  Ti37  1  0.59568623  0.42114519  0.19566322  1
  Ti  Ti38  1  0.45396842  0.87892070  0.10188297  1
  Ti  Ti39  1  0.95498308  0.11817998  0.09508095  1
  Ti  Ti40  1  0.09568623  0.07885481  0.69566322  1
  Ti  Ti41  1  0.95396842  0.62107930  0.60188297  1
  Ti  Ti42  1  0.24467300  0.42939125  0.00365348  1
  Ti  Ti43  1  0.90431377  0.92114519  0.30433678  1
  Ti  Ti44  1  0.88282824  0.42051031  0.81667295  1
  Ti  Ti45  1  0.04603158  0.37892070  0.39811703  1
  Ti  Ti46  1  0.40431377  0.57885481  0.80433678  1
  Ti  Ti47  1  0.54603158  0.12107930  0.89811703  1
  Ti  Ti48  1  0.74467300  0.07060875  0.50365348  1
  Ti  Ti49  1  0.54501692  0.61817998  0.40491905  1
  Ti  Ti50  1  0.38282824  0.07948969  0.31667295  1
  Ti  Ti51  1  0.61717176  0.92051031  0.68332705  1
  P  P52  1  0.37570903  0.58776942  0.11363317  1
  P  P53  1  0.51460237  0.91589989  0.42499009  1
  P  P54  1  0.98539763  0.41589989  0.07500991  1
  P  P55  1  0.48539763  0.08410011  0.57500991  1
  P  P56  1  0.62429097  0.41223058  0.88636683  1
  P  P57  1  0.01460237  0.58410011  0.92499009  1
  P  P58  1  0.12429097  0.08776942  0.38636683  1
  P  P59  1  0.87570903  0.91223058  0.61363317  1
  O  O60  1  0.59041895  0.10196722  0.53849493  1
  O  O61  1  0.85400438  0.44186400  0.03989136  1
  O  O62  1  0.72828730  0.38401225  0.84978699  1
  O  O63  1  0.46227362  0.48126530  0.13704267  1
  O  O64  1  0.04000940  0.20248126  0.39035476  1
  O  O65  1  0.03772638  0.98126530  0.36295733  1
  O  O66  1  0.40958105  0.89803278  0.46150507  1
  O  O67  1  0.54000940  0.29751874  0.89035476  1
  O  O68  1  0.45999060  0.70248126  0.10964524  1
  O  O69  1  0.53772638  0.51873470  0.86295733  1
  O  O70  1  0.52653961  0.79846120  0.39228305  1
  O  O71  1  0.47346039  0.20153880  0.60771695  1
  O  O72  1  0.14599562  0.55813600  0.96010864  1
  O  O73  1  0.02653961  0.70153880  0.89228305  1
  O  O74  1  0.95999060  0.79751874  0.60964524  1
  O  O75  1  0.35400438  0.05813600  0.53989136  1
  O  O76  1  0.64599562  0.94186400  0.46010864  1
  O  O77  1  0.22828730  0.11598775  0.34978699  1
  O  O78  1  0.02261695  0.52433946  0.11348559  1
  O  O79  1  0.77171270  0.88401225  0.65021301  1
  O  O80  1  0.97346039  0.29846120  0.10771695  1
  O  O81  1  0.27171270  0.61598775  0.15021301  1
  O  O82  1  0.30728702  0.55538092  0.05672813  1
  O  O83  1  0.47738305  0.02433946  0.38651441  1
  O  O84  1  0.09041895  0.39803278  0.03849493  1
  O  O85  1  0.69271298  0.44461908  0.94327187  1
  O  O86  1  0.90958105  0.60196722  0.96150507  1
  O  O87  1  0.19271298  0.05538092  0.44327187  1
  O  O88  1  0.97738305  0.47566054  0.88651441  1
  O  O89  1  0.96227362  0.01873470  0.63704267  1
  O  O90  1  0.80728702  0.94461908  0.55672813  1
  O  O91  1  0.52261695  0.97566054  0.61348559  1
  F  F92  1  0.20362832  0.63789063  0.24949564  1
  F  F93  1  0.77882313  0.85277638  0.24927858  1
  F  F94  1  0.04864564  0.73425051  0.16205642  1
  F  F95  1  0.91264963  0.89596861  0.84450799  1
  F  F96  1  0.83981849  0.19353252  0.54610176  1
  F  F97  1  0.27559245  0.56383285  0.84908019  1
  F  F98  1  0.68191212  0.19549975  0.45391583  1
  F  F99  1  0.91931299  0.87618233  0.95146609  1
  F  F100  1  0.54640378  0.12868352  0.97348531  1
  F  F101  1  0.32950248  0.37477210  0.64247332  1
  F  F102  1  0.27111116  0.87959615  0.09274786  1
  F  F103  1  0.61881567  0.54383134  0.03395303  1
  F  F104  1  0.32394088  0.35248633  0.53561612  1
  F  F105  1  0.88118433  0.04383134  0.46604697  1
  F  F106  1  0.66018151  0.69353252  0.95389824  1
  F  F107  1  0.86346663  0.08206653  0.27837336  1
  F  F108  1  0.22440755  0.06383285  0.65091981  1
  F  F109  1  0.27882313  0.64722362  0.74927858  1
  F  F110  1  0.95689221  0.60797493  0.67867100  1
  F  F111  1  0.67049752  0.62522790  0.35752668  1
  F  F112  1  0.94151207  0.76426162  0.33487150  1
  F  F113  1  0.41264963  0.60403139  0.34450799  1
  F  F114  1  0.05848793  0.23573838  0.66512850  1
  F  F115  1  0.36239007  0.11320509  0.88748644  1
  F  F116  1  0.58068701  0.37618233  0.54853391  1
  F  F117  1  0.70362832  0.86210937  0.74949564  1
  F  F118  1  0.95359622  0.62868352  0.52651469  1
  F  F119  1  0.29637168  0.13789063  0.25050436  1
  F  F120  1  0.44151207  0.73573838  0.83487150  1
  F  F121  1  0.17605912  0.85248633  0.96438388  1
  F  F122  1  0.55179053  0.94802127  0.90195747  1
  F  F123  1  0.13653337  0.91793347  0.72162664  1
  F  F124  1  0.38118433  0.45616866  0.96604697  1
  F  F125  1  0.58735037  0.39596861  0.65549201  1
  F  F126  1  0.67102708  0.08412112  0.69987268  1
  F  F127  1  0.54310779  0.10797493  0.82132900  1
  F  F128  1  0.22888884  0.37959615  0.40725214  1
  F  F129  1  0.82950248  0.12522790  0.14247332  1
  F  F130  1  0.36346663  0.41793347  0.77837336  1
  F  F131  1  0.82394088  0.14751367  0.03561612  1
  F  F132  1  0.53325448  0.59777368  0.76091147  1
  F  F133  1  0.94820947  0.44802127  0.59804253  1
  F  F134  1  0.45689221  0.89202507  0.17867100  1
  F  F135  1  0.16018151  0.80646748  0.45389824  1
  F  F136  1  0.81808788  0.69549975  0.04608417  1
  F  F137  1  0.82897292  0.58412112  0.80012732  1
  F  F138  1  0.32897292  0.91587888  0.30012732  1
  F  F139  1  0.54864564  0.76574949  0.66205642  1
  F  F140  1  0.08068701  0.12381767  0.04853391  1
  F  F141  1  0.04640378  0.37131648  0.47348531  1
  F  F142  1  0.45135436  0.23425051  0.33794358  1
  F  F143  1  0.06384916  0.05003837  0.91305413  1
  F  F144  1  0.72888884  0.12040385  0.90725214  1
  F  F145  1  0.31808788  0.80450025  0.54608417  1
  F  F146  1  0.96674552  0.09777368  0.73908853  1
  F  F147  1  0.11881567  0.95616866  0.53395303  1
  F  F148  1  0.77559245  0.93616715  0.34908019  1
  F  F149  1  0.63653337  0.58206653  0.22162664  1
  F  F150  1  0.67605912  0.64751367  0.46438388  1
  F  F151  1  0.03172192  0.45259706  0.78376913  1
  F  F152  1  0.44820947  0.05197873  0.09804253  1
  F  F153  1  0.05179053  0.55197873  0.40195747  1
  F  F154  1  0.55848793  0.26426162  0.16512850  1
  F  F155  1  0.13760993  0.61320509  0.61251356  1
  F  F156  1  0.46674552  0.40222632  0.23908853  1
  F  F157  1  0.33981849  0.30646748  0.04610176  1
  F  F158  1  0.17049752  0.87477210  0.85752668  1
  F  F159  1  0.86239007  0.38679491  0.38748644  1
  F  F160  1  0.22117687  0.14722362  0.75072142  1
  F  F161  1  0.95135436  0.26574949  0.83794358  1
  F  F162  1  0.56384916  0.44996163  0.41305413  1
  F  F163  1  0.93615084  0.94996163  0.08694587  1
  F  F164  1  0.46827808  0.95259706  0.71623087  1
  F  F165  1  0.45359622  0.87131648  0.02651469  1
  F  F166  1  0.18191212  0.30450025  0.95391583  1
  F  F167  1  0.77111116  0.62040385  0.59274786  1
  F  F168  1  0.08735037  0.10403139  0.15549201  1
  F  F169  1  0.72117687  0.35277638  0.25072142  1
  F  F170  1  0.43615084  0.55003837  0.58694587  1
  F  F171  1  0.72440755  0.43616715  0.15091981  1
  F  F172  1  0.53172192  0.04740294  0.28376913  1
  F  F173  1  0.96827808  0.54740294  0.21623087  1
  F  F174  1  0.79637168  0.36210937  0.75050436  1
  F  F175  1  0.03325448  0.90222632  0.26091147  1
  F  F176  1  0.41931299  0.62381767  0.45146609  1
  F  F177  1  0.04310779  0.39202507  0.32132900  1
  F  F178  1  0.63760993  0.88679491  0.11251356  1
  F  F179  1  0.17102708  0.41587888  0.19987268  1
