# generated using pymatgen
data_Rb6Ta4S25
_symmetry_space_group_name_H-M   'P 1'
_cell_length_a   8.37332047
_cell_length_b   13.16524339
_cell_length_c   19.34203932
_cell_angle_alpha   99.05451299
_cell_angle_beta   102.56354122
_cell_angle_gamma   90.05577460
_symmetry_Int_Tables_number   1
_chemical_formula_structural   Rb6Ta4S25
_chemical_formula_sum   'Rb12 Ta8 S50'
_cell_volume   2053.84529508
_cell_formula_units_Z   2
loop_
 _symmetry_equiv_pos_site_id
 _symmetry_equiv_pos_as_xyz
  1  'x, y, z'
loop_
 _atom_site_type_symbol
 _atom_site_label
 _atom_site_symmetry_multiplicity
 _atom_site_fract_x
 _atom_site_fract_y
 _atom_site_fract_z
 _atom_site_occupancy
  Rb  Rb0  1  0.36096560  0.26500393  0.42165821  1
  Rb  Rb1  1  0.28010368  0.39505403  0.93160854  1
  Rb  Rb2  1  0.34599234  0.10482935  0.06770629  1
  Rb  Rb3  1  0.90202100  0.36495385  0.24844531  1
  Rb  Rb4  1  0.64584900  0.73668289  0.57822034  1
  Rb  Rb5  1  0.65306596  0.13639551  0.75006269  1
  Rb  Rb6  1  0.34829157  0.86517514  0.24971136  1
  Rb  Rb7  1  0.65317749  0.89533339  0.93041442  1
  Rb  Rb8  1  0.93569365  0.23720780  0.57769675  1
  Rb  Rb9  1  0.09803978  0.63539997  0.75087867  1
  Rb  Rb10  1  0.72363189  0.60560294  0.06973375  1
  Rb  Rb11  1  0.06343441  0.76588160  0.42197754  1
  Ta  Ta12  1  0.60778461  0.55829663  0.82398480  1
  Ta  Ta13  1  0.12882553  0.91280662  0.64424583  1
  Ta  Ta14  1  0.48516287  0.58860602  0.35590540  1
  Ta  Ta15  1  0.87240032  0.08862080  0.35538605  1
  Ta  Ta16  1  0.51549136  0.41303196  0.64454874  1
  Ta  Ta17  1  0.78375874  0.94284323  0.17614786  1
  Ta  Ta18  1  0.39295712  0.44281225  0.17625965  1
  Ta  Ta19  1  0.21576937  0.05720857  0.82372534  1
  S  S20  1  0.22450053  0.45707490  0.61806607  1
  S  S21  1  0.88328740  0.56526359  0.90956392  1
  S  S22  1  0.48477785  0.75526402  0.40159873  1
  S  S23  1  0.22904383  0.12609171  0.71485412  1
  S  S24  1  0.21716395  0.56324987  0.27077112  1
  S  S25  1  0.38532508  0.62443072  0.15520275  1
  S  S26  1  0.07123454  0.20195727  0.77412762  1
  S  S27  1  0.91788562  0.25549338  0.40078690  1
  S  S28  1  0.97296940  0.93641713  0.09040638  1
  S  S29  1  0.78364691  0.43814057  0.72939375  1
  S  S30  1  0.77193392  0.48629917  0.62974264  1
  S  S31  1  0.77213818  0.87363869  0.28513688  1
  S  S32  1  0.85733287  0.98635534  0.62882419  1
  S  S33  1  0.33936201  0.90453129  0.76205646  1
  S  S34  1  0.94449042  0.93786133  0.72860099  1
  S  S35  1  0.60771591  0.04422561  0.38178370  1
  S  S36  1  0.02490386  0.06309893  0.90874509  1
  S  S37  1  0.51429158  0.37449533  0.28561131  1
  S  S38  1  0.06218081  0.78703456  0.08825651  1
  S  S39  1  0.22851215  0.87554789  0.84449913  1
  S  S40  1  0.76910568  0.12423639  0.15495108  1
  S  S41  1  0.66044784  0.09529574  0.23797525  1
  S  S42  1  0.64208490  0.50817575  0.45459883  1
  S  S43  1  0.93952139  0.21349586  0.91182845  1
  S  S44  1  0.45759793  0.63054218  0.90110690  1
  S  S45  1  0.61580528  0.37705062  0.84543345  1
  S  S46  1  0.70301755  0.70247659  0.77367010  1
  S  S47  1  0.02723003  0.28545703  0.08800213  1
  S  S48  1  0.29796622  0.29737576  0.22548729  1
  S  S49  1  0.35783906  0.49252095  0.54556955  1
  S  S50  1  0.05483379  0.06356709  0.27058138  1
  S  S51  1  0.77556784  0.54356808  0.38197074  1
  S  S52  1  0.48554639  0.62588305  0.71450480  1
  S  S53  1  0.55451281  0.87148876  0.09921672  1
  S  S54  1  0.44265217  0.12983620  0.90117006  1
  S  S55  1  0.22801859  0.51589369  0.37080180  1
  S  S56  1  0.42268490  0.40519089  0.76243777  1
  S  S57  1  0.83735073  0.24937565  0.99973898  1
  S  S58  1  0.11719368  0.43535219  0.09027243  1
  S  S59  1  0.18847365  0.99279558  0.54577351  1
  S  S60  1  0.54406094  0.37247511  0.09933250  1
  S  S61  1  0.16264637  0.75178387  0.99985117  1
  S  S62  1  0.57816342  0.59596269  0.23823840  1
  S  S63  1  0.97167846  0.71551409  0.91205032  1
  S  S64  1  0.81470445  0.00911540  0.45447477  1
  S  S65  1  0.14448760  0.01665411  0.37066221  1
  S  S66  1  0.92943095  0.79805143  0.22537860  1
  S  S67  1  0.08129090  0.74653933  0.59859784  1
  S  S68  1  0.39438387  0.95672401  0.61851793  1
  S  S69  1  0.51625651  0.24632514  0.59908925  1
