# generated using pymatgen
data_Ba4LaGe3SbSe13
_symmetry_space_group_name_H-M   'P 1'
_cell_length_a   12.69268772
_cell_length_b   13.20747851
_cell_length_c   16.61177726
_cell_angle_alpha   103.61390652
_cell_angle_beta   90.00000000
_cell_angle_gamma   90.00000000
_symmetry_Int_Tables_number   1
_chemical_formula_structural   Ba4LaGe3SbSe13
_chemical_formula_sum   'Ba16 La4 Ge12 Sb4 Se52'
_cell_volume   2706.53053716
_cell_formula_units_Z   4
loop_
 _symmetry_equiv_pos_site_id
 _symmetry_equiv_pos_as_xyz
  1  'x, y, z'
loop_
 _atom_site_type_symbol
 _atom_site_label
 _atom_site_symmetry_multiplicity
 _atom_site_fract_x
 _atom_site_fract_y
 _atom_site_fract_z
 _atom_site_occupancy
  Ba  Ba0  1  0.68415642  0.84443872  0.63583527  1
  Ba  Ba1  1  0.32315399  0.54520639  0.94771847  1
  Ba  Ba2  1  0.17684601  0.04520639  0.94771847  1
  Ba  Ba3  1  0.66949503  0.77104632  0.25673001  1
  Ba  Ba4  1  0.82315399  0.95479361  0.05228153  1
  Ba  Ba5  1  0.18415642  0.65556128  0.36416473  1
  Ba  Ba6  1  0.83050497  0.27104632  0.25673001  1
  Ba  Ba7  1  0.17295837  0.35286494  0.15204440  1
  Ba  Ba8  1  0.32704163  0.85286494  0.15204440  1
  Ba  Ba9  1  0.67295837  0.14713506  0.84795560  1
  Ba  Ba10  1  0.67684601  0.45479361  0.05228153  1
  Ba  Ba11  1  0.81584358  0.34443872  0.63583527  1
  Ba  Ba12  1  0.31584358  0.15556128  0.36416473  1
  Ba  Ba13  1  0.33050497  0.22895368  0.74326999  1
  Ba  Ba14  1  0.16949503  0.72895368  0.74326999  1
  Ba  Ba15  1  0.82704163  0.64713506  0.84795560  1
  La  La16  1  0.47799540  0.54715306  0.64337174  1
  La  La17  1  0.02200460  0.04715306  0.64337174  1
  La  La18  1  0.52200460  0.45284694  0.35662826  1
  La  La19  1  0.97799540  0.95284694  0.35662826  1
  Ge  Ge20  1  0.61712066  0.07648751  0.32994453  1
  Ge  Ge21  1  0.76725913  0.06140140  0.51501206  1
  Ge  Ge22  1  0.40971411  0.57811203  0.18105925  1
  Ge  Ge23  1  0.11712066  0.42351249  0.67005547  1
  Ge  Ge24  1  0.26725913  0.43859860  0.48498794  1
  Ge  Ge25  1  0.90971411  0.92188797  0.81894075  1
  Ge  Ge26  1  0.59028589  0.42188797  0.81894075  1
  Ge  Ge27  1  0.09028589  0.07811203  0.18105925  1
  Ge  Ge28  1  0.73274087  0.56140140  0.51501206  1
  Ge  Ge29  1  0.23274087  0.93859860  0.48498794  1
  Ge  Ge30  1  0.38287934  0.92351249  0.67005547  1
  Ge  Ge31  1  0.88287934  0.57648751  0.32994453  1
  Sb  Sb32  1  0.01791441  0.36447677  0.91922850  1
  Sb  Sb33  1  0.48208559  0.86447677  0.91922850  1
  Sb  Sb34  1  0.51791441  0.13552323  0.08077150  1
  Sb  Sb35  1  0.98208559  0.63552323  0.08077150  1
  Se  Se36  1  0.48618884  0.95031769  0.31954288  1
  Se  Se37  1  0.50899560  0.65855329  0.09061782  1
  Se  Se38  1  0.05627133  0.16395419  0.31994430  1
  Se  Se39  1  0.94514869  0.43953249  0.08363895  1
  Se  Se40  1  0.38022382  0.84551558  0.52114742  1
  Se  Se41  1  0.94372867  0.83604581  0.68005570  1
  Se  Se42  1  0.78215596  0.01559424  0.26189433  1
  Se  Se43  1  0.21546201  0.90739579  0.33672273  1
  Se  Se44  1  0.95674879  0.10078271  0.83764270  1
  Se  Se45  1  0.44514869  0.06046751  0.91636105  1
  Se  Se46  1  0.11977618  0.34551558  0.52114742  1
  Se  Se47  1  0.55627133  0.33604581  0.68005570  1
  Se  Se48  1  0.20978809  0.30762408  0.94648135  1
  Se  Se49  1  0.28453799  0.40739579  0.33672273  1
  Se  Se50  1  0.05805336  0.28430109  0.73074622  1
  Se  Se51  1  0.70978809  0.19237592  0.05351865  1
  Se  Se52  1  0.55805336  0.21569891  0.26925378  1
  Se  Se53  1  0.71784404  0.51559424  0.26189433  1
  Se  Se54  1  0.49100440  0.34144671  0.90938218  1
  Se  Se55  1  0.01381116  0.45031769  0.31954288  1
  Se  Se56  1  0.29021191  0.80762408  0.94648135  1
  Se  Se57  1  0.98618884  0.54968231  0.68045712  1
  Se  Se58  1  0.61977618  0.15448442  0.47885258  1
  Se  Se59  1  0.77279899  0.39736011  0.85080413  1
  Se  Se60  1  0.28215596  0.48440576  0.73810567  1
  Se  Se61  1  0.79021191  0.69237592  0.05351865  1
  Se  Se62  1  0.78453799  0.09260421  0.66327727  1
  Se  Se63  1  0.56878054  0.64255122  0.49676262  1
  Se  Se64  1  0.00899560  0.84144671  0.90938218  1
  Se  Se65  1  0.93121946  0.14255122  0.49676262  1
  Se  Se66  1  0.72720101  0.89736011  0.85080413  1
  Se  Se67  1  0.44372867  0.66395419  0.31994430  1
  Se  Se68  1  0.45674879  0.39921729  0.16235730  1
  Se  Se69  1  0.55485131  0.93953249  0.08363895  1
  Se  Se70  1  0.77830505  0.88381331  0.45157072  1
  Se  Se71  1  0.21784404  0.98440576  0.73810567  1
  Se  Se72  1  0.72169495  0.38381331  0.45157072  1
  Se  Se73  1  0.04325121  0.89921729  0.16235730  1
  Se  Se74  1  0.43121946  0.35744878  0.50323738  1
  Se  Se75  1  0.71546201  0.59260421  0.66327727  1
  Se  Se76  1  0.99100440  0.15855329  0.09061782  1
  Se  Se77  1  0.27830505  0.61618669  0.54842928  1
  Se  Se78  1  0.06878054  0.85744878  0.50323738  1
  Se  Se79  1  0.05485131  0.56046751  0.91636105  1
  Se  Se80  1  0.94194664  0.71569891  0.26925378  1
  Se  Se81  1  0.51381116  0.04968231  0.68045712  1
  Se  Se82  1  0.54325121  0.60078271  0.83764270  1
  Se  Se83  1  0.22169495  0.11618669  0.54842928  1
  Se  Se84  1  0.22720101  0.60263989  0.14919587  1
  Se  Se85  1  0.44194664  0.78430109  0.73074622  1
  Se  Se86  1  0.27279899  0.10263989  0.14919587  1
  Se  Se87  1  0.88022382  0.65448442  0.47885258  1
