# generated using pymatgen
data_Pr2(SeO3)3
_symmetry_space_group_name_H-M   'P 1'
_cell_length_a   7.15428457
_cell_length_b   17.09215188
_cell_length_c   22.00450525
_cell_angle_alpha   102.03012432
_cell_angle_beta   90.00000000
_cell_angle_gamma   90.00000000
_symmetry_Int_Tables_number   1
_chemical_formula_structural   Pr2(SeO3)3
_chemical_formula_sum   'Pr24 Se36 O108'
_cell_volume   2631.66351086
_cell_formula_units_Z   12
loop_
 _symmetry_equiv_pos_site_id
 _symmetry_equiv_pos_as_xyz
  1  'x, y, z'
loop_
 _atom_site_type_symbol
 _atom_site_label
 _atom_site_symmetry_multiplicity
 _atom_site_fract_x
 _atom_site_fract_y
 _atom_site_fract_z
 _atom_site_occupancy
  Pr  Pr0  1  0.66714560  0.60104170  0.05245695  1
  Pr  Pr1  1  0.67188301  0.17710401  0.26189319  1
  Pr  Pr2  1  0.64821944  0.86352395  0.91247119  1
  Pr  Pr3  1  0.67941563  0.26457057  0.71325522  1
  Pr  Pr4  1  0.14175972  0.53977915  0.13713016  1
  Pr  Pr5  1  0.35824028  0.03977915  0.63713016  1
  Pr  Pr6  1  0.14821944  0.63647605  0.58752881  1
  Pr  Pr7  1  0.35178056  0.13647605  0.08752881  1
  Pr  Pr8  1  0.33285440  0.39895830  0.94754305  1
  Pr  Pr9  1  0.17188301  0.32289599  0.23810681  1
  Pr  Pr10  1  0.85117685  0.03276363  0.08908594  1
  Pr  Pr11  1  0.35117685  0.46723637  0.41091406  1
  Pr  Pr12  1  0.82058437  0.76457057  0.21325522  1
  Pr  Pr13  1  0.64175972  0.96022085  0.36286984  1
  Pr  Pr14  1  0.14882315  0.96723637  0.91091406  1
  Pr  Pr15  1  0.85178056  0.36352395  0.41247119  1
  Pr  Pr16  1  0.83285440  0.10104170  0.55245695  1
  Pr  Pr17  1  0.85824028  0.46022085  0.86286984  1
  Pr  Pr18  1  0.82811699  0.67710401  0.76189319  1
  Pr  Pr19  1  0.32811699  0.82289599  0.73810681  1
  Pr  Pr20  1  0.16714560  0.89895830  0.44754305  1
  Pr  Pr21  1  0.32058437  0.73542943  0.28674478  1
  Pr  Pr22  1  0.17941563  0.23542943  0.78674478  1
  Pr  Pr23  1  0.64882315  0.53276363  0.58908594  1
  Se  Se24  1  0.38312299  0.69570242  0.45075924  1
  Se  Se25  1  0.90854730  0.46152420  0.70922288  1
  Se  Se26  1  0.09145270  0.53847580  0.29077712  1
  Se  Se27  1  0.14544176  0.93124553  0.30053298  1
  Se  Se28  1  0.40854730  0.03847580  0.79077712  1
  Se  Se29  1  0.80602987  0.73958250  0.36223632  1
  Se  Se30  1  0.67806541  0.89702919  0.51568191  1
  Se  Se31  1  0.85455824  0.06875447  0.69946702  1
  Se  Se32  1  0.42090453  0.36515739  0.11323206  1
  Se  Se33  1  0.16753910  0.76655563  0.89600754  1
  Se  Se34  1  0.33246090  0.26655563  0.39600754  1
  Se  Se35  1  0.17529534  0.10874388  0.23070823  1
  Se  Se36  1  0.64544176  0.56875447  0.19946702  1
  Se  Se37  1  0.18113123  0.43392687  0.55367924  1
  Se  Se38  1  0.19397013  0.26041750  0.63776368  1
  Se  Se39  1  0.17806541  0.60297081  0.98431809  1
  Se  Se40  1  0.88312299  0.80429758  0.04924076  1
  Se  Se41  1  0.83246090  0.23344437  0.10399246  1
  Se  Se42  1  0.69397013  0.23958250  0.86223632  1
  Se  Se43  1  0.67529534  0.39125612  0.26929177  1
  Se  Se44  1  0.31886877  0.93392687  0.05367924  1
  Se  Se45  1  0.81886877  0.56607313  0.44632076  1
  Se  Se46  1  0.11687701  0.19570242  0.95075924  1
  Se  Se47  1  0.35455824  0.43124553  0.80053298  1
  Se  Se48  1  0.66753910  0.73344437  0.60399246  1
  Se  Se49  1  0.07909547  0.86515739  0.61323206  1
  Se  Se50  1  0.32193459  0.10297081  0.48431809  1
  Se  Se51  1  0.59145270  0.96152420  0.20922288  1
  Se  Se52  1  0.82470466  0.89125612  0.76929177  1
  Se  Se53  1  0.92090453  0.13484261  0.38676794  1
  Se  Se54  1  0.30602987  0.76041750  0.13776368  1
  Se  Se55  1  0.57909547  0.63484261  0.88676794  1
  Se  Se56  1  0.61687701  0.30429758  0.54924076  1
  Se  Se57  1  0.68113123  0.06607313  0.94632076  1
  Se  Se58  1  0.82193459  0.39702919  0.01568191  1
  Se  Se59  1  0.32470466  0.60874388  0.73070823  1
  O  O60  1  0.47676677  0.01264484  0.27430880  1
  O  O61  1  0.48479994  0.56589815  0.13954306  1
  O  O62  1  0.83530771  0.30257105  0.82645819  1
  O  O63  1  0.41042238  0.60388695  0.40141426  1
  O  O64  1  0.17391468  0.38915813  0.83840628  1
  O  O65  1  0.14148883  0.66470252  0.70800399  1
  O  O66  1  0.36004156  0.88520328  0.97847249  1
  O  O67  1  0.01148802  0.59808761  0.04024094  1
  O  O68  1  0.66967887  0.49271062  0.46720940  1
  O  O69  1  0.48912604  0.68484248  0.74003591  1
  O  O70  1  0.82999492  0.22277430  0.37239885  1
  O  O71  1  0.79839825  0.74589677  0.10008711  1
  O  O72  1  0.33032113  0.50728938  0.53279060  1
  O  O73  1  0.48851198  0.09808761  0.54024094  1
  O  O74  1  0.22543117  0.45989873  0.30667038  1
  O  O75  1  0.50917918  0.33781320  0.41714792  1
  O  O76  1  0.18810155  0.68144903  0.49151137  1
  O  O77  1  0.57970830  0.80359580  0.66221261  1
  O  O78  1  0.81189845  0.31855097  0.50848863  1
  O  O79  1  0.02261898  0.28049036  0.69578320  1
  O  O80  1  0.47738102  0.78049036  0.19578320  1
  O  O81  1  0.24534688  0.59130193  0.25327739  1
  O  O82  1  0.98479994  0.93410185  0.36045694  1
  O  O83  1  0.89615126  0.15679914  0.75251447  1
  O  O84  1  0.97676677  0.48735516  0.22569120  1
  O  O85  1  0.20160175  0.25410323  0.89991289  1
  O  O86  1  0.36514437  0.55231156  0.65703354  1
  O  O87  1  0.70160175  0.24589677  0.60008711  1
  O  O88  1  0.17000508  0.77722570  0.62760115  1
  O  O89  1  0.88554350  0.46434527  0.08180290  1
  O  O90  1  0.92029170  0.30359580  0.16221261  1
  O  O91  1  0.01087396  0.18484248  0.24003591  1
  O  O92  1  0.27456883  0.95989873  0.80667038  1
  O  O93  1  0.42029170  0.19640420  0.33778739  1
  O  O94  1  0.65208367  0.45679328  0.99026459  1
  O  O95  1  0.77456883  0.54010127  0.69332962  1
  O  O96  1  0.98912604  0.81515752  0.75996409  1
  O  O97  1  0.68855579  0.17411977  0.14232320  1
  O  O98  1  0.49359491  0.00393367  0.92240247  1
  O  O99  1  0.99359491  0.49606633  0.57759753  1
  O  O100  1  0.97738102  0.71950964  0.30421680  1
  O  O101  1  0.15208367  0.04320672  0.50973541  1
  O  O102  1  0.35851117  0.16470252  0.20800399  1
  O  O103  1  0.64148883  0.83529748  0.79199601  1
  O  O104  1  0.32608532  0.88915813  0.33840628  1
  O  O105  1  0.25465312  0.09130193  0.75327739  1
  O  O106  1  0.31189845  0.18144903  0.99151137  1
  O  O107  1  0.86004156  0.61479672  0.52152751  1
  O  O108  1  0.67391468  0.11084187  0.66159372  1
  O  O109  1  0.98851198  0.40191239  0.95975906  1
  O  O110  1  0.68810155  0.81855097  0.00848863  1
  O  O111  1  0.11445650  0.53565473  0.91819710  1
  O  O112  1  0.01520006  0.06589815  0.63954306  1
  O  O113  1  0.13485563  0.05231156  0.15703354  1
  O  O114  1  0.71479039  0.60959055  0.94465187  1
  O  O115  1  0.90523455  0.80286916  0.42282633  1
  O  O116  1  0.34791633  0.54320672  0.00973541  1
  O  O117  1  0.31144421  0.82588023  0.85767680  1
  O  O118  1  0.39615126  0.34320086  0.74748553  1
  O  O119  1  0.29839825  0.75410323  0.39991289  1
  O  O120  1  0.81939421  0.07329742  0.32351200  1
  O  O121  1  0.21479039  0.89040945  0.55534813  1
  O  O122  1  0.00917918  0.16218680  0.08285208  1
  O  O123  1  0.51087396  0.31515752  0.25996409  1
  O  O124  1  0.51520006  0.43410185  0.86045694  1
  O  O125  1  0.52323323  0.98735516  0.72569120  1
  O  O126  1  0.67000508  0.72277430  0.87239885  1
  O  O127  1  0.33530771  0.19742895  0.67354181  1
  O  O128  1  0.61445650  0.96434527  0.58180290  1
  O  O129  1  0.16469229  0.69742895  0.17354181  1
  O  O130  1  0.40523455  0.69713084  0.07717367  1
  O  O131  1  0.82608532  0.61084187  0.16159372  1
  O  O132  1  0.58957762  0.39611305  0.59858574  1
  O  O133  1  0.16967887  0.00728938  0.03279060  1
  O  O134  1  0.50640509  0.99606633  0.07759753  1
  O  O135  1  0.09476545  0.19713084  0.57717367  1
  O  O136  1  0.07970830  0.69640420  0.83778739  1
  O  O137  1  0.38554350  0.03565473  0.41819710  1
  O  O138  1  0.18060579  0.92670258  0.67648800  1
  O  O139  1  0.10384874  0.84320086  0.24748553  1
  O  O140  1  0.99082082  0.83781320  0.91714792  1
  O  O141  1  0.02323323  0.51264484  0.77430880  1
  O  O142  1  0.60384874  0.65679914  0.25251447  1
  O  O143  1  0.75465312  0.40869807  0.74672261  1
  O  O144  1  0.78520961  0.10959055  0.44465187  1
  O  O145  1  0.63485563  0.44768844  0.34296646  1
  O  O146  1  0.18855579  0.32588023  0.35767680  1
  O  O147  1  0.32999492  0.27722570  0.12760115  1
  O  O148  1  0.59476545  0.30286916  0.92282633  1
  O  O149  1  0.00640509  0.50393367  0.42240247  1
  O  O150  1  0.81144421  0.67411977  0.64232320  1
  O  O151  1  0.72543117  0.04010127  0.19332962  1
  O  O152  1  0.74534688  0.90869807  0.24672261  1
  O  O153  1  0.28520961  0.39040945  0.05534813  1
  O  O154  1  0.13995844  0.38520328  0.47847249  1
  O  O155  1  0.52261898  0.21950964  0.80421680  1
  O  O156  1  0.68060579  0.57329742  0.82351200  1
  O  O157  1  0.85851117  0.33529748  0.29199601  1
  O  O158  1  0.91042238  0.89611305  0.09858574  1
  O  O159  1  0.84791633  0.95679328  0.49026459  1
  O  O160  1  0.66469229  0.80257105  0.32645819  1
  O  O161  1  0.08957762  0.10388695  0.90141426  1
  O  O162  1  0.63995844  0.11479672  0.02152751  1
  O  O163  1  0.49082082  0.66218680  0.58285208  1
  O  O164  1  0.31939421  0.42670258  0.17648800  1
  O  O165  1  0.51148802  0.90191239  0.45975906  1
  O  O166  1  0.86514437  0.94768844  0.84296646  1
  O  O167  1  0.83032113  0.99271062  0.96720940  1
