# generated using pymatgen
data_K3Nb2S11
_symmetry_space_group_name_H-M   'P 1'
_cell_length_a   8.08301655
_cell_length_b   12.58254468
_cell_length_c   18.55856918
_cell_angle_alpha   100.31769906
_cell_angle_beta   102.49694683
_cell_angle_gamma   90.11179820
_symmetry_Int_Tables_number   1
_chemical_formula_structural   K3Nb2S11
_chemical_formula_sum   'K12 Nb8 S44'
_cell_volume   1811.35119507
_cell_formula_units_Z   4
loop_
 _symmetry_equiv_pos_site_id
 _symmetry_equiv_pos_as_xyz
  1  'x, y, z'
loop_
 _atom_site_type_symbol
 _atom_site_label
 _atom_site_symmetry_multiplicity
 _atom_site_fract_x
 _atom_site_fract_y
 _atom_site_fract_z
 _atom_site_occupancy
  K  K0  1  0.39121057  0.32791116  0.23603299  1
  K  K1  1  0.60671022  0.67024169  0.76608987  1
  K  K2  1  0.16126384  0.17138974  0.76644320  1
  K  K3  1  0.86089633  0.25587111  0.41839087  1
  K  K4  1  0.44617352  0.24224819  0.58329465  1
  K  K5  1  0.14950884  0.90657435  0.93532950  1
  K  K6  1  0.13860559  0.74364830  0.58121916  1
  K  K7  1  0.84745027  0.09434521  0.06497765  1
  K  K8  1  0.55592231  0.75637905  0.41930934  1
  K  K9  1  0.78068076  0.41016276  0.93381673  1
  K  K10  1  0.21484833  0.59113950  0.06507973  1
  K  K11  1  0.83870634  0.82992714  0.23360617  1
  Nb  Nb12  1  0.71729672  0.07300482  0.83599229  1
  Nb  Nb13  1  0.60615740  0.91745097  0.64470237  1
  Nb  Nb14  1  0.88121913  0.42606137  0.16455641  1
  Nb  Nb15  1  0.11879759  0.57387630  0.83587590  1
  Nb  Nb16  1  0.03911761  0.41744116  0.64482467  1
  Nb  Nb17  1  0.39238333  0.08225382  0.35572251  1
  Nb  Nb18  1  0.28163669  0.92664998  0.16450433  1
  Nb  Nb19  1  0.96072968  0.58165861  0.35556319  1
  S  S20  1  0.07612460  0.05230900  0.32807678  1
  S  S21  1  0.64233251  0.92746236  0.89948532  1
  S  S22  1  0.68562475  0.55175130  0.26533043  1
  S  S23  1  0.94390821  0.64566486  0.90980664  1
  S  S24  1  0.92255381  0.94713053  0.67266245  1
  S  S25  1  0.37462682  0.00497864  0.46913371  1
  S  S26  1  0.57799597  0.05137995  0.26510530  1
  S  S27  1  0.66975341  0.00040031  0.36718922  1
  S  S28  1  0.47631638  0.92814641  0.07836959  1
  S  S29  1  0.16566178  0.09243675  0.23894256  1
  S  S30  1  0.75014993  0.44704259  0.67226560  1
  S  S31  1  0.27817838  0.85633015  0.27889298  1
  S  S32  1  0.42746964  0.77324951  0.21069309  1
  S  S33  1  0.96321555  0.75861369  0.40491448  1
  S  S34  1  0.52134605  0.07179607  0.92172285  1
  S  S35  1  0.99699227  0.35601313  0.27914900  1
  S  S36  1  0.07118126  0.59221235  0.23906209  1
  S  S37  1  0.25348962  0.42696675  0.89811443  1
  S  S38  1  0.57183168  0.22648754  0.78932731  1
  S  S39  1  0.22055187  0.72785322  0.79040215  1
  S  S40  1  0.31458001  0.44832246  0.73546995  1
  S  S41  1  0.24925871  0.55257026  0.32815476  1
  S  S42  1  0.92868833  0.40782898  0.76159743  1
  S  S43  1  0.62345221  0.99597301  0.53151945  1
  S  S44  1  0.00351774  0.64457358  0.72150398  1
  S  S45  1  0.03272262  0.85447097  0.09009981  1
  S  S46  1  0.35555189  0.07236929  0.10098863  1
  S  S47  1  0.77999681  0.27256351  0.21049814  1
  S  S48  1  0.60125883  0.42653135  0.07777899  1
  S  S49  1  0.74338688  0.57166697  0.10112898  1
  S  S50  1  0.96538087  0.14475606  0.90997812  1
  S  S51  1  0.09227980  0.50468939  0.46879127  1
  S  S52  1  0.42052507  0.94727111  0.73521620  1
  S  S53  1  0.32841479  0.99845835  0.63340000  1
  S  S54  1  0.72125732  0.14257781  0.72138298  1
  S  S55  1  0.69404448  0.50035767  0.36699017  1
  S  S56  1  0.05607969  0.35472005  0.09045495  1
  S  S57  1  0.03739344  0.24204058  0.59600015  1
  S  S58  1  0.90749722  0.49496039  0.53194471  1
  S  S59  1  0.39907531  0.57086883  0.92231683  1
  S  S60  1  0.83236192  0.90680482  0.76151570  1
  S  S61  1  0.30600007  0.49915078  0.63342940  1
  S  S62  1  0.44046157  0.25758682  0.40554174  1
  S  S63  1  0.55947887  0.74195464  0.59471513  1
