# generated using pymatgen
data_Rb4Pb9
_symmetry_space_group_name_H-M   'P 1'
_cell_length_a   10.20297550
_cell_length_b   13.70880233
_cell_length_c   16.64658044
_cell_angle_alpha   90.00000000
_cell_angle_beta   103.23887687
_cell_angle_gamma   90.00000000
_symmetry_Int_Tables_number   1
_chemical_formula_structural   Rb4Pb9
_chemical_formula_sum   'Rb16 Pb36'
_cell_volume   2266.48747681
_cell_formula_units_Z   4
loop_
 _symmetry_equiv_pos_site_id
 _symmetry_equiv_pos_as_xyz
  1  'x, y, z'
loop_
 _atom_site_type_symbol
 _atom_site_label
 _atom_site_symmetry_multiplicity
 _atom_site_fract_x
 _atom_site_fract_y
 _atom_site_fract_z
 _atom_site_occupancy
  Rb  Rb0  1  0.11683654  0.25000000  0.20576161  1
  Rb  Rb1  1  0.61746868  0.07639079  0.78700091  1
  Rb  Rb2  1  0.38253132  0.92360921  0.21299909  1
  Rb  Rb3  1  0.94965173  0.50312991  0.62972811  1
  Rb  Rb4  1  0.05034827  0.00312991  0.37027189  1
  Rb  Rb5  1  0.94965173  0.99687009  0.62972811  1
  Rb  Rb6  1  0.61746868  0.42360921  0.78700091  1
  Rb  Rb7  1  0.74101909  0.75000000  0.43264332  1
  Rb  Rb8  1  0.32544405  0.59847439  0.90911317  1
  Rb  Rb9  1  0.25898091  0.25000000  0.56735668  1
  Rb  Rb10  1  0.38253132  0.57639079  0.21299909  1
  Rb  Rb11  1  0.32544405  0.90152561  0.90911317  1
  Rb  Rb12  1  0.67455595  0.40152561  0.09088683  1
  Rb  Rb13  1  0.05034827  0.49687009  0.37027189  1
  Rb  Rb14  1  0.88316346  0.75000000  0.79423839  1
  Rb  Rb15  1  0.67455595  0.09847439  0.09088683  1
  Pb  Pb16  1  0.77314406  0.86512657  0.21477708  1
  Pb  Pb17  1  0.50523337  0.25000000  0.24724705  1
  Pb  Pb18  1  0.76035071  0.86532405  0.97712151  1
  Pb  Pb19  1  0.57177932  0.75000000  0.07409064  1
  Pb  Pb20  1  0.23964929  0.13467595  0.02287849  1
  Pb  Pb21  1  0.94122788  0.25000000  0.75839534  1
  Pb  Pb22  1  0.00152484  0.06044136  0.87801436  1
  Pb  Pb23  1  0.81973350  0.25000000  0.30940567  1
  Pb  Pb24  1  0.38936682  0.63201233  0.45358134  1
  Pb  Pb25  1  0.68693190  0.06785063  0.37654708  1
  Pb  Pb26  1  0.76035071  0.63467595  0.97712151  1
  Pb  Pb27  1  0.42822068  0.25000000  0.92590936  1
  Pb  Pb28  1  0.99847516  0.56044136  0.12198564  1
  Pb  Pb29  1  0.61063318  0.13201233  0.54641866  1
  Pb  Pb30  1  0.22685594  0.13487343  0.78522292  1
  Pb  Pb31  1  0.99847516  0.93955864  0.12198564  1
  Pb  Pb32  1  0.23964929  0.36532405  0.02287849  1
  Pb  Pb33  1  0.00152484  0.43955864  0.87801436  1
  Pb  Pb34  1  0.60977137  0.63067480  0.61965110  1
  Pb  Pb35  1  0.05877212  0.75000000  0.24160466  1
  Pb  Pb36  1  0.77314406  0.63487343  0.21477708  1
  Pb  Pb37  1  0.39022863  0.13067480  0.38034890  1
  Pb  Pb38  1  0.38936682  0.86798767  0.45358134  1
  Pb  Pb39  1  0.31306810  0.93214937  0.62345292  1
  Pb  Pb40  1  0.61063318  0.36798767  0.54641866  1
  Pb  Pb41  1  0.94401381  0.25000000  0.96894787  1
  Pb  Pb42  1  0.18026650  0.75000000  0.69059433  1
  Pb  Pb43  1  0.49476663  0.75000000  0.75275295  1
  Pb  Pb44  1  0.14474572  0.75000000  0.49785826  1
  Pb  Pb45  1  0.85525428  0.25000000  0.50214174  1
  Pb  Pb46  1  0.60977137  0.86932520  0.61965110  1
  Pb  Pb47  1  0.22685594  0.36512657  0.78522292  1
  Pb  Pb48  1  0.39022863  0.36932520  0.38034890  1
  Pb  Pb49  1  0.31306810  0.56785063  0.62345292  1
  Pb  Pb50  1  0.05598619  0.75000000  0.03105213  1
  Pb  Pb51  1  0.68693190  0.43214937  0.37654708  1
