# generated using pymatgen
data_Te2MoWSeS
_symmetry_space_group_name_H-M   'P 1'
_cell_length_a   3.39903447
_cell_length_b   3.39898520
_cell_length_c   38.74635103
_cell_angle_alpha   90.00045242
_cell_angle_beta   90.00004509
_cell_angle_gamma   120.00027531
_symmetry_Int_Tables_number   1
_chemical_formula_structural   Te2MoWSeS
_chemical_formula_sum   'Te4 Mo2 W2 Se2 S2'
_cell_volume   387.67257361
_cell_formula_units_Z   2
loop_
 _symmetry_equiv_pos_site_id
 _symmetry_equiv_pos_as_xyz
  1  'x, y, z'
loop_
 _atom_site_type_symbol
 _atom_site_label
 _atom_site_symmetry_multiplicity
 _atom_site_fract_x
 _atom_site_fract_y
 _atom_site_fract_z
 _atom_site_occupancy
  Te  Te0  1  0.33336223  0.66672490  0.33006059  1
  Te  Te1  1  0.33335605  0.66671252  0.70613892  1
  Te  Te2  1  0.33335185  0.66670421  0.23344710  1
  Te  Te3  1  0.33334934  0.66669915  0.60894667  1
  Mo  Mo4  1  0.33331037  0.66661973  0.09398042  1
  Mo  Mo5  1  0.66669263  0.33338632  0.28180846  1
  W  W6  1  0.33331259  0.66662409  0.46963601  1
  W  W7  1  0.66668819  0.33337782  0.65754013  1
  Se  Se8  1  0.66663429  0.33326848  0.42694253  1
  Se  Se9  1  0.66665108  0.33330176  0.51237004  1
  S  S10  1  0.66664409  0.33328731  0.05514811  1
  S  S11  1  0.66664729  0.33329371  0.13272902  1
