# generated using pymatgen
data_K3Ta2S11
_symmetry_space_group_name_H-M   'P 1'
_cell_length_a   8.06614965
_cell_length_b   12.54632047
_cell_length_c   18.48083420
_cell_angle_alpha   100.21175296
_cell_angle_beta   102.56927995
_cell_angle_gamma   90.06186192
_symmetry_Int_Tables_number   1
_chemical_formula_structural   K3Ta2S11
_chemical_formula_sum   'K12 Ta8 S44'
_cell_volume   1794.99758271
_cell_formula_units_Z   4
loop_
 _symmetry_equiv_pos_site_id
 _symmetry_equiv_pos_as_xyz
  1  'x, y, z'
loop_
 _atom_site_type_symbol
 _atom_site_label
 _atom_site_symmetry_multiplicity
 _atom_site_fract_x
 _atom_site_fract_y
 _atom_site_fract_z
 _atom_site_occupancy
  K  K0  1  0.29116558  0.90485684  0.93502277  1
  K  K1  1  0.11120941  0.17035836  0.76508399  1
  K  K2  1  0.05949946  0.25611738  0.42016543  1
  K  K3  1  0.35176738  0.59116219  0.06562470  1
  K  K4  1  0.71663265  0.09332399  0.06498438  1
  K  K5  1  0.34157257  0.32737949  0.23522397  1
  K  K6  1  0.65149567  0.40591703  0.93510307  1
  K  K7  1  0.89275000  0.82850253  0.23374140  1
  K  K8  1  0.63907584  0.24186537  0.58124057  1
  K  K9  1  0.94539701  0.74487317  0.57956024  1
  K  K10  1  0.65695246  0.66813851  0.76429900  1
  K  K11  1  0.36266332  0.75783912  0.41893274  1
  Ta  Ta12  1  0.38328080  0.92748778  0.16612475  1
  Ta  Ta13  1  0.10668518  0.42012513  0.64482600  1
  Ta  Ta14  1  0.46172141  0.07876673  0.35552321  1
  Ta  Ta15  1  0.62214584  0.07167298  0.83402437  1
  Ta  Ta16  1  0.53943162  0.91919417  0.64481896  1
  Ta  Ta17  1  0.78536017  0.42711504  0.16572738  1
  Ta  Ta18  1  0.21640100  0.57134902  0.83445993  1
  Ta  Ta19  1  0.89325410  0.57989274  0.35492383  1
  S  S20  1  0.46453883  0.64496390  0.90943933  1
  S  S21  1  0.83070209  0.50237491  0.63309209  1
  S  S22  1  0.17145419  0.49972473  0.36689651  1
  S  S23  1  0.05627262  0.24372550  0.59552450  1
  S  S24  1  0.02609747  0.56874135  0.92189198  1
  S  S25  1  0.97772003  0.42957262  0.07885025  1
  S  S26  1  0.53710165  0.74301227  0.59497743  1
  S  S27  1  0.57395832  0.09214954  0.24006484  1
  S  S28  1  0.10661855  0.92987170  0.07810142  1
  S  S29  1  0.07168981  0.72543580  0.78925370  1
  S  S30  1  0.19445746  0.99863766  0.36624868  1
  S  S31  1  0.22051500  0.64187969  0.71962108  1
  S  S32  1  0.40483654  0.99576064  0.53197847  1
  S  S33  1  0.81491946  0.94798460  0.73546087  1
  S  S34  1  0.53721645  0.35373823  0.09053092  1
  S  S35  1  0.46388244  0.25540812  0.40495707  1
  S  S36  1  0.25113506  0.94710475  0.67264757  1
  S  S37  1  0.85461114  0.57444809  0.10221082  1
  S  S38  1  0.66681607  0.59181085  0.23840430  1
  S  S39  1  0.55815254  0.85496043  0.09182784  1
  S  S40  1  0.14873670  0.42408954  0.89826848  1
  S  S41  1  0.59202963  0.00256286  0.46870877  1
  S  S42  1  0.78003698  0.35769351  0.28047696  1
  S  S43  1  0.89892747  0.07123875  0.92185647  1
  S  S44  1  0.33337764  0.40616715  0.76145308  1
  S  S45  1  0.07738387  0.55112100  0.26409068  1
  S  S46  1  0.18795824  0.05088661  0.26396131  1
  S  S47  1  0.93045900  0.27399488  0.21154727  1
  S  S48  1  0.50086537  0.85598933  0.28060033  1
  S  S49  1  0.42324729  0.44617105  0.67139980  1
  S  S50  1  0.92194793  0.44922942  0.73533724  1
  S  S51  1  0.75456833  0.92558068  0.89820446  1
  S  S52  1  0.44755805  0.14456600  0.90820348  1
  S  S53  1  0.75161285  0.05025925  0.32968726  1
  S  S54  1  0.94028697  0.75684564  0.40349542  1
  S  S55  1  0.28150421  0.77329766  0.21069526  1
  S  S56  1  0.43170517  0.90616973  0.76169397  1
  S  S57  1  0.12596040  0.49568149  0.53134664  1
  S  S58  1  0.50246227  0.14208270  0.71959412  1
  S  S59  1  0.57771045  0.55174513  0.32847591  1
  S  S60  1  0.87562195  0.50509144  0.46873174  1
  S  S61  1  0.72161980  0.22575767  0.78882239  1
  S  S62  1  0.25230853  0.07492838  0.10273891  1
  S  S63  1  0.80583172  0.99960420  0.63272268  1
