# generated using pymatgen
data_Na4TiP2O9
_symmetry_space_group_name_H-M   'P 1'
_cell_length_a   7.63412110
_cell_length_b   13.40880639
_cell_length_c   20.76236037
_cell_angle_alpha   94.94254224
_cell_angle_beta   90.00000000
_cell_angle_gamma   90.00000000
_symmetry_Int_Tables_number   1
_chemical_formula_structural   Na4TiP2O9
_chemical_formula_sum   'Na40 Ti10 P20 O90'
_cell_volume   2117.42481735
_cell_formula_units_Z   10
loop_
 _symmetry_equiv_pos_site_id
 _symmetry_equiv_pos_as_xyz
  1  'x, y, z'
loop_
 _atom_site_type_symbol
 _atom_site_label
 _atom_site_symmetry_multiplicity
 _atom_site_fract_x
 _atom_site_fract_y
 _atom_site_fract_z
 _atom_site_occupancy
  Na  Na0  1  0.01606913  0.89700454  0.79855056  1
  Na  Na1  1  0.57982935  0.50000000  0.75000000  1
  Na  Na2  1  0.05003222  0.70367665  0.36244602  1
  Na  Na3  1  0.72673663  0.90430710  0.16834737  1
  Na  Na4  1  0.97896368  0.29894082  0.83965089  1
  Na  Na5  1  0.46051189  0.69907494  0.15269188  1
  Na  Na6  1  0.53948811  0.30092506  0.84730812  1
  Na  Na7  1  0.74417398  0.50736771  0.36196857  1
  Na  Na8  1  0.52660673  0.09541109  0.94807869  1
  Na  Na9  1  0.94996778  0.29632335  0.63755398  1
  Na  Na10  1  0.05003222  0.29632335  0.13755398  1
  Na  Na11  1  0.78728902  0.71158432  0.51956619  1
  Na  Na12  1  0.21271098  0.28841568  0.48043381  1
  Na  Na13  1  0.02103632  0.29894082  0.33965089  1
  Na  Na14  1  0.79999397  0.90030557  0.94448000  1
  Na  Na15  1  0.27326337  0.09569290  0.83165263  1
  Na  Na16  1  0.47339327  0.90458891  0.05192131  1
  Na  Na17  1  0.27326337  0.90430710  0.66834737  1
  Na  Na18  1  0.94996778  0.70367665  0.86244602  1
  Na  Na19  1  0.02103632  0.70105918  0.16034911  1
  Na  Na20  1  0.01606913  0.10299546  0.70144944  1
  Na  Na21  1  0.00000000  0.50000000  0.00000000  1
  Na  Na22  1  0.46051189  0.30092506  0.34730812  1
  Na  Na23  1  0.21271098  0.71158432  0.01956619  1
  Na  Na24  1  0.79999397  0.09969443  0.55552000  1
  Na  Na25  1  0.98393087  0.89700454  0.29855056  1
  Na  Na26  1  0.42017065  0.50000000  0.25000000  1
  Na  Na27  1  0.25582602  0.50736771  0.86196857  1
  Na  Na28  1  0.53948811  0.69907494  0.65269188  1
  Na  Na29  1  0.00000000  0.50000000  0.50000000  1
  Na  Na30  1  0.98393087  0.10299546  0.20144944  1
  Na  Na31  1  0.20000603  0.90030557  0.44448000  1
  Na  Na32  1  0.78728902  0.28841568  0.98043381  1
  Na  Na33  1  0.52660673  0.90458891  0.55192131  1
  Na  Na34  1  0.97896368  0.70105918  0.66034911  1
  Na  Na35  1  0.74417398  0.49263229  0.13803143  1
  Na  Na36  1  0.25582602  0.49263229  0.63803143  1
  Na  Na37  1  0.47339327  0.09541109  0.44807869  1
  Na  Na38  1  0.72673663  0.09569290  0.33165263  1
  Na  Na39  1  0.20000603  0.09969443  0.05552000  1
  Ti  Ti40  1  0.46030280  0.10280149  0.20041558  1
  Ti  Ti41  1  0.47669001  0.29933645  0.09950688  1
  Ti  Ti42  1  0.52330999  0.29933645  0.59950688  1
  Ti  Ti43  1  0.53969720  0.89719851  0.79958442  1
  Ti  Ti44  1  0.50000000  0.50000000  0.00000000  1
  Ti  Ti45  1  0.53969720  0.10280149  0.70041558  1
  Ti  Ti46  1  0.46030280  0.89719851  0.29958442  1
  Ti  Ti47  1  0.47669001  0.70066355  0.40049312  1
  Ti  Ti48  1  0.52330999  0.70066355  0.90049312  1
  Ti  Ti49  1  0.50000000  0.50000000  0.50000000  1
  P  P50  1  0.73973211  0.10340980  0.07391191  1
  P  P51  1  0.79222763  0.90209285  0.66812780  1
  P  P52  1  0.21633270  0.49662391  0.12336631  1
  P  P53  1  0.73973211  0.89659020  0.42608809  1
  P  P54  1  0.20777237  0.90209285  0.16812780  1
  P  P55  1  0.74275885  0.69999000  0.04068198  1
  P  P56  1  0.28481889  0.29947342  0.73517750  1
  P  P57  1  0.25724115  0.69999000  0.54068198  1
  P  P58  1  0.20777237  0.09790715  0.33187220  1
  P  P59  1  0.71518111  0.29947342  0.23517750  1
  P  P60  1  0.21633270  0.50337609  0.37663369  1
  P  P61  1  0.78366730  0.49662391  0.62336631  1
  P  P62  1  0.79222763  0.09790715  0.83187220  1
  P  P63  1  0.78366730  0.50337609  0.87663369  1
  P  P64  1  0.71518111  0.70052658  0.26482250  1
  P  P65  1  0.26026789  0.10340980  0.57391191  1
  P  P66  1  0.25724115  0.30001000  0.95931802  1
  P  P67  1  0.74275885  0.30001000  0.45931802  1
  P  P68  1  0.26026789  0.89659020  0.92608809  1
  P  P69  1  0.28481889  0.70052658  0.76482250  1
  O  O70  1  0.92778101  0.14000039  0.08717703  1
  O  O71  1  0.41651788  0.60200145  0.94876147  1
  O  O72  1  0.71612539  0.01550635  0.02214187  1
  O  O73  1  0.92778101  0.85999961  0.41282297  1
  O  O74  1  0.33463450  0.38693062  0.78434226  1
  O  O75  1  0.31479635  0.99458858  0.14744002  1
  O  O76  1  0.23894654  0.41499980  0.32544856  1
  O  O77  1  0.07221899  0.14000039  0.58717703  1
  O  O78  1  0.36736875  0.60445806  0.55515688  1
  O  O79  1  0.24627917  0.18676219  0.38184287  1
  O  O80  1  0.06330948  0.67481105  0.54845963  1
  O  O81  1  0.32738401  0.59361170  0.35437250  1
  O  O82  1  0.66532052  0.67377853  0.33472714  1
  O  O83  1  0.70904779  0.27405411  0.53103656  1
  O  O84  1  0.27115771  0.12587457  0.26331717  1
  O  O85  1  0.41651788  0.39799855  0.55123853  1
  O  O86  1  0.06330948  0.32518895  0.95154037  1
  O  O87  1  0.58348212  0.60200145  0.44876147  1
  O  O88  1  0.44521766  0.00000000  0.75000000  1
  O  O89  1  0.28387461  0.98449365  0.97785813  1
  O  O90  1  0.01390353  0.07124667  0.32298411  1
  O  O91  1  0.68520365  0.00541142  0.85255998  1
  O  O92  1  0.67433886  0.78630837  0.08737292  1
  O  O93  1  0.93669052  0.32518895  0.45154037  1
  O  O94  1  0.62663608  0.19203755  0.05005140  1
  O  O95  1  0.90938308  0.27060289  0.23577290  1
  O  O96  1  0.75372083  0.81323781  0.61815713  1
  O  O97  1  0.39652249  0.20592115  0.75199555  1
  O  O98  1  0.55478234  0.00000000  0.25000000  1
  O  O99  1  0.58348212  0.39799855  0.05123853  1
  O  O100  1  0.32566114  0.21369163  0.91262708  1
  O  O101  1  0.98609647  0.07124667  0.82298411  1
  O  O102  1  0.27115771  0.87412543  0.23668283  1
  O  O103  1  0.39652249  0.79407885  0.74800445  1
  O  O104  1  0.24627917  0.81323781  0.11815713  1
  O  O105  1  0.31479635  0.00541142  0.35255998  1
  O  O106  1  0.36869284  0.80206880  0.35442295  1
  O  O107  1  0.33467948  0.32622147  0.66527286  1
  O  O108  1  0.07221899  0.85999961  0.91282297  1
  O  O109  1  0.02696554  0.53842318  0.38847706  1
  O  O110  1  0.29095221  0.27405411  0.03103656  1
  O  O111  1  0.09061692  0.27060289  0.73577290  1
  O  O112  1  0.72884229  0.87412543  0.73668283  1
  O  O113  1  0.63263125  0.39554194  0.44484312  1
  O  O114  1  0.33784039  0.07100408  0.63925932  1
  O  O115  1  0.97303446  0.46157682  0.61152294  1
  O  O116  1  0.23894654  0.58500020  0.17455144  1
  O  O117  1  0.72884229  0.12587457  0.76331717  1
  O  O118  1  0.67433886  0.21369163  0.41262708  1
  O  O119  1  0.63130716  0.80206880  0.85442295  1
  O  O120  1  0.28928952  0.52735764  0.05669845  1
  O  O121  1  0.66215961  0.07100408  0.13925932  1
  O  O122  1  0.33463450  0.61306938  0.71565774  1
  O  O123  1  0.67261599  0.40638830  0.64562750  1
  O  O124  1  0.93669052  0.67481105  0.04845963  1
  O  O125  1  0.01390353  0.92875333  0.17701589  1
  O  O126  1  0.70904779  0.72594589  0.96896344  1
  O  O127  1  0.33784039  0.92899592  0.86074068  1
  O  O128  1  0.97303446  0.53842318  0.88847706  1
  O  O129  1  0.36869284  0.19793120  0.14557705  1
  O  O130  1  0.75372083  0.18676219  0.88184287  1
  O  O131  1  0.71612539  0.98449365  0.47785813  1
  O  O132  1  0.09061692  0.72939711  0.76422710  1
  O  O133  1  0.71071048  0.52735764  0.55669845  1
  O  O134  1  0.37336392  0.80796245  0.94994860  1
  O  O135  1  0.32738401  0.40638830  0.14562750  1
  O  O136  1  0.36736875  0.39554194  0.94484312  1
  O  O137  1  0.02696554  0.46157682  0.11152294  1
  O  O138  1  0.63130716  0.19793120  0.64557705  1
  O  O139  1  0.29095221  0.72594589  0.46896344  1
  O  O140  1  0.76105346  0.58500020  0.67455144  1
  O  O141  1  0.68520365  0.99458858  0.64744002  1
  O  O142  1  0.32566114  0.78630837  0.58737292  1
  O  O143  1  0.66536550  0.38693062  0.28434226  1
  O  O144  1  0.33467948  0.67377853  0.83472714  1
  O  O145  1  0.71071048  0.47264236  0.94330155  1
  O  O146  1  0.66536550  0.61306938  0.21565774  1
  O  O147  1  0.90938308  0.72939711  0.26422710  1
  O  O148  1  0.66532052  0.32622147  0.16527286  1
  O  O149  1  0.76105346  0.41499980  0.82544856  1
  O  O150  1  0.62663608  0.80796245  0.44994860  1
  O  O151  1  0.63263125  0.60445806  0.05515688  1
  O  O152  1  0.37336392  0.19203755  0.55005140  1
  O  O153  1  0.28387461  0.01550635  0.52214187  1
  O  O154  1  0.28928952  0.47264236  0.44330155  1
  O  O155  1  0.60347751  0.79407885  0.24800445  1
  O  O156  1  0.66215961  0.92899592  0.36074068  1
  O  O157  1  0.98609647  0.92875333  0.67701589  1
  O  O158  1  0.67261599  0.59361170  0.85437250  1
  O  O159  1  0.60347751  0.20592115  0.25199555  1
