# generated using pymatgen
data_K5RbZn4Sn5S17
_symmetry_space_group_name_H-M   'P 1'
_cell_length_a   9.88388774
_cell_length_b   11.04091662
_cell_length_c   11.05051366
_cell_angle_alpha   78.52473620
_cell_angle_beta   63.39656163
_cell_angle_gamma   63.47515962
_symmetry_Int_Tables_number   1
_chemical_formula_structural   K5RbZn4Sn5S17
_chemical_formula_sum   'K5 Rb1 Zn4 Sn5 S17'
_cell_volume   964.74308540
_cell_formula_units_Z   1
loop_
 _symmetry_equiv_pos_site_id
 _symmetry_equiv_pos_as_xyz
  1  'x, y, z'
loop_
 _atom_site_type_symbol
 _atom_site_label
 _atom_site_symmetry_multiplicity
 _atom_site_fract_x
 _atom_site_fract_y
 _atom_site_fract_z
 _atom_site_occupancy
  K  K0  1  0.01420129  0.49495448  0.98157870  1
  K  K1  1  0.00821112  0.98310838  0.49982451  1
  K  K2  1  0.49060842  0.49063575  0.02041530  1
  K  K3  1  0.49073092  0.02048265  0.49826856  1
  K  K4  1  0.75044083  0.49910936  0.49970584  1
  Rb  Rb5  1  0.55872869  0.86536351  0.96347873  1
  Zn  Zn6  1  0.25481422  0.35902783  0.35955864  1
  Zn  Zn7  1  0.38555103  0.35995938  0.63989854  1
  Zn  Zn8  1  0.38557134  0.63899032  0.36197164  1
  Zn  Zn9  1  0.97800581  0.63756897  0.63675455  1
  Sn  Sn10  1  0.99648613  0.00342329  0.00190246  1
  Sn  Sn11  1  0.02781719  0.27663054  0.72261794  1
  Sn  Sn12  1  0.02720209  0.72164381  0.27594240  1
  Sn  Sn13  1  0.25281935  0.72153539  0.72232100  1
  Sn  Sn14  1  0.69305196  0.27837479  0.27746873  1
  S  S15  1  0.11537291  0.49135256  0.22066842  1
  S  S16  1  0.11351232  0.22208590  0.49231958  1
  S  S17  1  0.25132996  0.49882257  0.49929127  1
  S  S18  1  0.25512752  0.78129026  0.22102437  1
  S  S19  1  0.25484498  0.21996540  0.78206408  1
  S  S20  1  0.52534518  0.21827360  0.21800041  1
  S  S21  1  0.39267661  0.49230743  0.77966799  1
  S  S22  1  0.39193091  0.78007874  0.49285544  1
  S  S23  1  0.66320677  0.22262986  0.50733483  1
  S  S24  1  0.66280980  0.50942037  0.22017187  1
  S  S25  1  0.28187703  0.85845852  0.85668377  1
  S  S26  1  0.99411456  0.14584307  0.14571635  1
  S  S27  1  0.85983154  0.14411924  0.85536870  1
  S  S28  1  0.85976493  0.85598799  0.14334332  1
  S  S29  1  0.82798544  0.50888228  0.77934803  1
  S  S30  1  0.82999752  0.77914958  0.50687747  1
  S  S31  1  0.96553166  0.77992417  0.77895657  1
