# generated using pymatgen
data_Te4Mo3W(SeS)2
_symmetry_space_group_name_H-M   'P 1'
_cell_length_a   3.39829250
_cell_length_b   3.39848837
_cell_length_c   40.19722304
_cell_angle_alpha   89.99859275
_cell_angle_beta   90.00000000
_cell_angle_gamma   119.99809351
_symmetry_Int_Tables_number   1
_chemical_formula_structural   Te4Mo3W(SeS)2
_chemical_formula_sum   'Te4 Mo3 W1 Se2 S2'
_cell_volume   402.05139265
_cell_formula_units_Z   1
loop_
 _symmetry_equiv_pos_site_id
 _symmetry_equiv_pos_as_xyz
  1  'x, y, z'
loop_
 _atom_site_type_symbol
 _atom_site_label
 _atom_site_symmetry_multiplicity
 _atom_site_fract_x
 _atom_site_fract_y
 _atom_site_fract_z
 _atom_site_occupancy
  Te  Te0  1  0.33330222  0.66660545  0.32719473  1
  Te  Te1  1  0.66668305  0.33336511  0.42365847  1
  Te  Te2  1  0.66666106  0.33332112  0.51740945  1
  Te  Te3  1  0.33330184  0.66660469  0.23388340  1
  Mo  Mo4  1  0.33326255  0.66652510  0.09390705  1
  Mo  Mo5  1  0.66665699  0.33331397  0.28052267  1
  Mo  Mo6  1  0.66671046  0.33342093  0.65795065  1
  W  W7  1  0.33331773  0.66663546  0.47054501  1
  Se  Se8  1  0.33336018  0.66672135  0.69899919  1
  Se  Se9  1  0.33338643  0.66677386  0.61684736  1
  S  S10  1  0.66668437  0.33336774  0.05650972  1
  S  S11  1  0.66667311  0.33334523  0.13132029  1
