# generated using pymatgen
data_Ba2La3Si3O12F
_symmetry_space_group_name_H-M   'P 1'
_cell_length_a   10.01028061
_cell_length_b   10.06285290
_cell_length_c   14.90735235
_cell_angle_alpha   90.06722278
_cell_angle_beta   90.01106194
_cell_angle_gamma   120.15457795
_symmetry_Int_Tables_number   1
_chemical_formula_structural   Ba2La3Si3O12F
_chemical_formula_sum   'Ba8 La12 Si12 O48 F4'
_cell_volume   1298.43277027
_cell_formula_units_Z   4
loop_
 _symmetry_equiv_pos_site_id
 _symmetry_equiv_pos_as_xyz
  1  'x, y, z'
loop_
 _atom_site_type_symbol
 _atom_site_label
 _atom_site_symmetry_multiplicity
 _atom_site_fract_x
 _atom_site_fract_y
 _atom_site_fract_z
 _atom_site_occupancy
  Ba  Ba0  1  0.23822598  0.98269028  0.12505983  1
  Ba  Ba1  1  0.33599933  0.66777556  0.50171967  1
  Ba  Ba2  1  0.33312878  0.66614516  0.74822929  1
  Ba  Ba3  1  0.74704080  0.76343914  0.12564583  1
  Ba  Ba4  1  0.66655509  0.33386162  0.75019353  1
  Ba  Ba5  1  0.66502162  0.33476085  0.99856946  1
  Ba  Ba6  1  0.66606501  0.33185163  0.50011920  1
  Ba  Ba7  1  0.76363619  0.01640360  0.37574314  1
  La  La8  1  0.25015380  0.99191735  0.62389357  1
  La  La9  1  0.00707212  0.26184791  0.12604831  1
  La  La10  1  0.00612495  0.25861856  0.62511510  1
  La  La11  1  0.33468489  0.66865169  0.00080112  1
  La  La12  1  0.34261119  0.67196671  0.25261940  1
  La  La13  1  0.25883428  0.25044179  0.37259944  1
  La  La14  1  0.26102402  0.25321362  0.87791292  1
  La  La15  1  0.73987750  0.74647521  0.62286618  1
  La  La16  1  0.66475531  0.33481015  0.24726100  1
  La  La17  1  0.99384698  0.73603494  0.37307214  1
  La  La18  1  0.99358380  0.73801147  0.87658027  1
  La  La19  1  0.74746626  0.00703227  0.87586722  1
  Si  Si20  1  0.03019656  0.39776324  0.36949411  1
  Si  Si21  1  0.03091303  0.38943473  0.87756283  1
  Si  Si22  1  0.35873186  0.96580572  0.37251218  1
  Si  Si23  1  0.35786101  0.96660055  0.87408320  1
  Si  Si24  1  0.39752060  0.37102041  0.12737435  1
  Si  Si25  1  0.38482255  0.35931687  0.62509157  1
  Si  Si26  1  0.60140033  0.62951032  0.37287316  1
  Si  Si27  1  0.60781204  0.64202415  0.87453195  1
  Si  Si28  1  0.63321337  0.03405981  0.12429428  1
  Si  Si29  1  0.64031506  0.02723050  0.62884833  1
  Si  Si30  1  0.97574613  0.61504872  0.62520308  1
  Si  Si31  1  0.97616764  0.59792741  0.12664407  1
  O  O32  1  0.25016747  0.91726878  0.46427550  1
  O  O33  1  0.23930183  0.88659375  0.95947228  1
  O  O34  1  0.23222046  0.88978275  0.29022450  1
  O  O35  1  0.24308328  0.90547550  0.78527650  1
  O  O36  1  0.16397557  0.65570045  0.12550236  1
  O  O37  1  0.16439594  0.70884139  0.62464607  1
  O  O38  1  0.12375192  0.58837681  0.36864141  1
  O  O39  1  0.11190505  0.57958223  0.88072088  1
  O  O40  1  0.09720903  0.34506388  0.28254848  1
  O  O41  1  0.09436758  0.33497538  0.79041300  1
  O  O42  1  0.07908338  0.33235880  0.45810485  1
  O  O43  1  0.10063936  0.34700983  0.96755980  1
  O  O44  1  0.47124147  0.89016476  0.87906984  1
  O  O45  1  0.45795966  0.87683431  0.36770475  1
  O  O46  1  0.33023601  0.49342478  0.12554476  1
  O  O47  1  0.29096284  0.45373727  0.62458726  1
  O  O48  1  0.50218458  0.84634708  0.12438470  1
  O  O49  1  0.54673552  0.83952572  0.62497414  1
  O  O50  1  0.40919912  0.52059401  0.37238325  1
  O  O51  1  0.41674231  0.52799848  0.87950213  1
  O  O52  1  0.33799815  0.26188116  0.21838177  1
  O  O53  1  0.33654847  0.26396323  0.03559056  1
  O  O54  1  0.33506152  0.24376016  0.71343167  1
  O  O55  1  0.33603947  0.24423133  0.53603424  1
  O  O56  1  0.65914629  0.73146092  0.46605573  1
  O  O57  1  0.63462393  0.74243557  0.28671530  1
  O  O58  1  0.64626926  0.75950135  0.96019451  1
  O  O59  1  0.66125224  0.75495131  0.78542736  1
  O  O60  1  0.58671271  0.46009223  0.13312952  1
  O  O61  1  0.57383843  0.47637988  0.62580976  1
  O  O62  1  0.46858639  0.15538928  0.36427558  1
  O  O63  1  0.45387476  0.15429737  0.87648349  1
  O  O64  1  0.69936372  0.54556441  0.87661037  1
  O  O65  1  0.68471330  0.52385572  0.36368973  1
  O  O66  1  0.54294637  0.13158931  0.13233343  1
  O  O67  1  0.52057563  0.09561959  0.62703345  1
  O  O68  1  0.92896797  0.65895208  0.03621757  1
  O  O69  1  0.90853867  0.66256849  0.53629859  1
  O  O70  1  0.92216756  0.65279538  0.21725267  1
  O  O71  1  0.90868744  0.66414629  0.71341285  1
  O  O72  1  0.87936926  0.40726433  0.13056029  1
  O  O73  1  0.90532531  0.42716357  0.62580042  1
  O  O74  1  0.84433775  0.33512404  0.36283886  1
  O  O75  1  0.84287595  0.30095247  0.87645701  1
  O  O76  1  0.75923359  0.09435852  0.20694172  1
  O  O77  1  0.74504865  0.08143148  0.03369658  1
  O  O78  1  0.75319129  0.09159642  0.71882350  1
  O  O79  1  0.76306121  0.10327571  0.54514043  1
  F  F80  1  0.00437540  0.02816138  0.12590801  1
  F  F81  1  0.00112320  0.99951022  0.87813226  1
  F  F82  1  0.02111600  0.99634157  0.37265754  1
  F  F83  1  0.99925964  0.00003730  0.62469899  1
