# generated using pymatgen
data_SrB8O13
_symmetry_space_group_name_H-M   'P 1'
_cell_length_a   8.49758766
_cell_length_b   14.05763750
_cell_length_c   16.85018031
_cell_angle_alpha   90.00000000
_cell_angle_beta   90.00000000
_cell_angle_gamma   106.43102402
_symmetry_Int_Tables_number   1
_chemical_formula_structural   SrB8O13
_chemical_formula_sum   'Sr8 B64 O104'
_cell_volume   1930.65216817
_cell_formula_units_Z   8
loop_
 _symmetry_equiv_pos_site_id
 _symmetry_equiv_pos_as_xyz
  1  'x, y, z'
loop_
 _atom_site_type_symbol
 _atom_site_label
 _atom_site_symmetry_multiplicity
 _atom_site_fract_x
 _atom_site_fract_y
 _atom_site_fract_z
 _atom_site_occupancy
  Sr  Sr0  1  0.51114651  0.27980901  0.50148935  1
  Sr  Sr1  1  0.51114651  0.77980901  0.99851065  1
  Sr  Sr2  1  0.09608929  0.95829786  0.74253353  1
  Sr  Sr3  1  0.48885349  0.72019099  0.49851065  1
  Sr  Sr4  1  0.48885349  0.22019099  0.00148935  1
  Sr  Sr5  1  0.09608929  0.45829786  0.75746647  1
  Sr  Sr6  1  0.90391071  0.04170214  0.25746647  1
  Sr  Sr7  1  0.90391071  0.54170214  0.24253353  1
  B  B8  1  0.42979676  0.52544360  0.90060512  1
  B  B9  1  0.77488341  0.31524632  0.34541195  1
  B  B10  1  0.26736299  0.26954541  0.21492371  1
  B  B11  1  0.92902224  0.38607857  0.46513112  1
  B  B12  1  0.22511659  0.18475368  0.84541195  1
  B  B13  1  0.94973682  0.55426076  0.91301114  1
  B  B14  1  0.38817086  0.38422682  0.31648263  1
  B  B15  1  0.94168890  0.84404534  0.52497830  1
  B  B16  1  0.82997663  0.25956771  0.85097767  1
  B  B17  1  0.70401459  0.75137795  0.28549611  1
  B  B18  1  0.17002337  0.74043229  0.14902233  1
  B  B19  1  0.24555201  0.14475145  0.58792492  1
  B  B20  1  0.61014882  0.13736748  0.32995063  1
  B  B21  1  0.65965455  0.46501935  0.87530211  1
  B  B22  1  0.07097776  0.11392143  0.96513112  1
  B  B23  1  0.45150848  0.97143227  0.89190787  1
  B  B24  1  0.27671904  0.02446168  0.15316519  1
  B  B25  1  0.73263701  0.23045459  0.71492371  1
  B  B26  1  0.84551456  0.60272956  0.44600101  1
  B  B27  1  0.17002337  0.24043229  0.35097767  1
  B  B28  1  0.94973682  0.05426076  0.58698886  1
  B  B29  1  0.05831110  0.15595466  0.47502170  1
  B  B30  1  0.38985118  0.86263252  0.67004937  1
  B  B31  1  0.61182914  0.61577318  0.68351737  1
  B  B32  1  0.70401459  0.25137795  0.21450389  1
  B  B33  1  0.86778964  0.84897247  0.89071042  1
  B  B34  1  0.65965455  0.96501935  0.62469789  1
  B  B35  1  0.75444799  0.85524855  0.41207508  1
  B  B36  1  0.42979676  0.02544360  0.59939488  1
  B  B37  1  0.73263701  0.73045459  0.78507629  1
  B  B38  1  0.15448544  0.89727044  0.94600101  1
  B  B39  1  0.24555201  0.64475145  0.91207508  1
  B  B40  1  0.77488341  0.81524632  0.15458805  1
  B  B41  1  0.07097776  0.61392143  0.53486888  1
  B  B42  1  0.13221036  0.65102753  0.39071042  1
  B  B43  1  0.75444799  0.35524855  0.08792492  1
  B  B44  1  0.61182914  0.11577318  0.81648263  1
  B  B45  1  0.38985118  0.36263252  0.82995063  1
  B  B46  1  0.26736299  0.76954541  0.28507629  1
  B  B47  1  0.92902224  0.88607857  0.03486888  1
  B  B48  1  0.45150848  0.47143227  0.60809213  1
  B  B49  1  0.86778964  0.34897247  0.60928958  1
  B  B50  1  0.57020324  0.97455640  0.40060512  1
  B  B51  1  0.27671904  0.52446168  0.34683481  1
  B  B52  1  0.05831110  0.65595466  0.02497830  1
  B  B53  1  0.29598541  0.24862205  0.71450389  1
  B  B54  1  0.94168890  0.34404534  0.97502170  1
  B  B55  1  0.61014882  0.63736748  0.17004937  1
  B  B56  1  0.15448544  0.39727044  0.55399899  1
  B  B57  1  0.29598541  0.74862205  0.78549611  1
  B  B58  1  0.84551456  0.10272956  0.05399899  1
  B  B59  1  0.13221036  0.15102753  0.10928958  1
  B  B60  1  0.34034545  0.03498065  0.37530211  1
  B  B61  1  0.82997663  0.75956771  0.64902233  1
  B  B62  1  0.72328096  0.97553832  0.84683481  1
  B  B63  1  0.57020324  0.47455640  0.09939488  1
  B  B64  1  0.05026318  0.94573924  0.41301114  1
  B  B65  1  0.54849152  0.52856773  0.39190787  1
  B  B66  1  0.22511659  0.68475368  0.65458805  1
  B  B67  1  0.05026318  0.44573924  0.08698886  1
  B  B68  1  0.38817086  0.88422682  0.18351737  1
  B  B69  1  0.54849152  0.02856773  0.10809213  1
  B  B70  1  0.34034545  0.53498065  0.12469789  1
  B  B71  1  0.72328096  0.47553832  0.65316519  1
  O  O72  1  0.67763379  0.57772408  0.43985596  1
  O  O73  1  0.58630042  0.43354661  0.60357626  1
  O  O74  1  0.41369958  0.06645339  0.10357626  1
  O  O75  1  0.04978598  0.85923855  0.88475716  1
  O  O76  1  0.59188765  0.02881680  0.58419441  1
  O  O77  1  0.66834279  0.05163362  0.35611323  1
  O  O78  1  0.09556741  0.41185298  0.47915694  1
  O  O79  1  0.92465003  0.09343502  0.51419802  1
  O  O80  1  0.45310730  0.05574924  0.85135096  1
  O  O81  1  0.69008339  0.69420516  0.62180797  1
  O  O82  1  0.81928810  0.35593311  0.52493503  1
  O  O83  1  0.72530904  0.55563392  0.69754367  1
  O  O84  1  0.27469096  0.44436608  0.30245633  1
  O  O85  1  0.22670662  0.66713580  0.73538370  1
  O  O86  1  0.10064592  0.07550328  0.62260903  1
  O  O87  1  0.95963259  0.81470862  0.60209008  1
  O  O88  1  0.77329338  0.83286420  0.23538370  1
  O  O89  1  0.32236621  0.92227592  0.93985596  1
  O  O90  1  0.10064592  0.57550328  0.87739097  1
  O  O91  1  0.40705724  0.33643948  0.24160554  1
  O  O92  1  0.82975593  0.98502745  0.62747490  1
  O  O93  1  0.20691329  0.18484874  0.51073373  1
  O  O94  1  0.07534997  0.40656498  0.01419802  1
  O  O95  1  0.59294276  0.16356052  0.74160554  1
  O  O96  1  0.75829889  0.75601160  0.86306850  1
  O  O97  1  0.89935408  0.92449672  0.37739097  1
  O  O98  1  0.82975593  0.48502745  0.87252510  1
  O  O99  1  0.30991661  0.80579484  0.12180797  1
  O  O100  1  0.30991661  0.30579484  0.37819203  1
  O  O101  1  0.95963259  0.31470862  0.89790992  1
  O  O102  1  0.33165721  0.44836638  0.85611323  1
  O  O103  1  0.66463281  0.65725150  0.25350598  1
  O  O104  1  0.84872064  0.93262046  0.84220818  1
  O  O105  1  0.56778807  0.88306115  0.66267521  1
  O  O106  1  0.54689270  0.44425076  0.35135096  1
  O  O107  1  0.17024407  0.01497255  0.37252510  1
  O  O108  1  0.95021402  0.14076145  0.11524284  1
  O  O109  1  0.59294276  0.66356052  0.75839446  1
  O  O110  1  0.40811235  0.97118320  0.41580559  1
  O  O111  1  0.87569635  0.89273833  0.11170624  1
  O  O112  1  0.41369958  0.56645339  0.39642374  1
  O  O113  1  0.43221193  0.61693885  0.16267521  1
  O  O114  1  0.68543939  0.76627980  0.36362317  1
  O  O115  1  0.33536719  0.84274850  0.75350598  1
  O  O116  1  0.62063188  0.89806830  0.43110057  1
  O  O117  1  0.58630042  0.93354661  0.89642374  1
  O  O118  1  0.18071190  0.14406689  0.02493503  1
  O  O119  1  0.14094329  0.72356705  0.23001697  1
  O  O120  1  0.20691329  0.68484874  0.98926627  1
  O  O121  1  0.90443259  0.08814702  0.97915694  1
  O  O122  1  0.95021402  0.64076145  0.38475716  1
  O  O123  1  0.81928810  0.85593311  0.97506497  1
  O  O124  1  0.43221193  0.11693885  0.33732479  1
  O  O125  1  0.68651223  0.72891104  0.11987775  1
  O  O126  1  0.87569635  0.39273833  0.38829376  1
  O  O127  1  0.79308671  0.31515126  0.01073373  1
  O  O128  1  0.17024407  0.51497255  0.12747490  1
  O  O129  1  0.12430365  0.60726167  0.61170624  1
  O  O130  1  0.24170111  0.74398840  0.36306850  1
  O  O131  1  0.12430365  0.10726167  0.88829376  1
  O  O132  1  0.85905671  0.77643295  0.73001697  1
  O  O133  1  0.84872064  0.43262046  0.65779182  1
  O  O134  1  0.15127936  0.56737954  0.34220818  1
  O  O135  1  0.40811235  0.47118320  0.08419441  1
  O  O136  1  0.14094329  0.22356705  0.26998303  1
  O  O137  1  0.54689270  0.94425076  0.14864904  1
  O  O138  1  0.69008339  0.19420516  0.87819203  1
  O  O139  1  0.33165721  0.94836638  0.64388677  1
  O  O140  1  0.56778807  0.38306115  0.83732479  1
  O  O141  1  0.89935408  0.42449672  0.12260903  1
  O  O142  1  0.75829889  0.25601160  0.63693150  1
  O  O143  1  0.92465003  0.59343502  0.98580198  1
  O  O144  1  0.31456061  0.23372020  0.63637683  1
  O  O145  1  0.68543939  0.26627980  0.13637683  1
  O  O146  1  0.77329338  0.33286420  0.26461630  1
  O  O147  1  0.79308671  0.81515126  0.48926627  1
  O  O148  1  0.68651223  0.22891104  0.38012225  1
  O  O149  1  0.67763379  0.07772408  0.06014404  1
  O  O150  1  0.59188765  0.52881680  0.91580559  1
  O  O151  1  0.04978598  0.35923855  0.61524284  1
  O  O152  1  0.04036741  0.18529138  0.39790992  1
  O  O153  1  0.09556741  0.91185298  0.02084306  1
  O  O154  1  0.31348777  0.77108896  0.61987775  1
  O  O155  1  0.07534997  0.90656498  0.48580198  1
  O  O156  1  0.18071190  0.64406689  0.47506497  1
  O  O157  1  0.33536719  0.34274850  0.74649402  1
  O  O158  1  0.37936812  0.10193170  0.56889943  1
  O  O159  1  0.22670662  0.16713580  0.76461630  1
  O  O160  1  0.40705724  0.83643948  0.25839446  1
  O  O161  1  0.72530904  0.05563392  0.80245633  1
  O  O162  1  0.90443259  0.58814702  0.52084306  1
  O  O163  1  0.85905671  0.27643295  0.76998303  1
  O  O164  1  0.31348777  0.27108896  0.88012225  1
  O  O165  1  0.04036741  0.68529138  0.10209008  1
  O  O166  1  0.27469096  0.94436608  0.19754367  1
  O  O167  1  0.32236621  0.42227592  0.56014404  1
  O  O168  1  0.66463281  0.15725150  0.24649402  1
  O  O169  1  0.37936812  0.60193170  0.93110057  1
  O  O170  1  0.31456061  0.73372020  0.86362317  1
  O  O171  1  0.62063188  0.39806830  0.06889943  1
  O  O172  1  0.15127936  0.06737954  0.15779182  1
  O  O173  1  0.66834279  0.55163362  0.14388677  1
  O  O174  1  0.24170111  0.24398840  0.13693150  1
  O  O175  1  0.45310730  0.55574924  0.64864904  1
