# generated using pymatgen
data_CaGd2Zr(GaO3)4
_symmetry_space_group_name_H-M   'P 1'
_cell_length_a   10.96941764
_cell_length_b   10.99774692
_cell_length_c   10.93046435
_cell_angle_alpha   109.38366882
_cell_angle_beta   109.33431402
_cell_angle_gamma   109.62400645
_symmetry_Int_Tables_number   1
_chemical_formula_structural   CaGd2Zr(GaO3)4
_chemical_formula_sum   'Ca4 Gd8 Zr4 Ga16 O48'
_cell_volume   1015.98005974
_cell_formula_units_Z   4
loop_
 _symmetry_equiv_pos_site_id
 _symmetry_equiv_pos_as_xyz
  1  'x, y, z'
loop_
 _atom_site_type_symbol
 _atom_site_label
 _atom_site_symmetry_multiplicity
 _atom_site_fract_x
 _atom_site_fract_y
 _atom_site_fract_z
 _atom_site_occupancy
  Ca  Ca0  1  0.13186914  0.37424028  0.75107314  1
  Ca  Ca1  1  0.12309731  0.24564976  0.37104263  1
  Ca  Ca2  1  0.87690269  0.75435024  0.62895737  1
  Ca  Ca3  1  0.86813086  0.62575972  0.24892686  1
  Gd  Gd4  1  0.25350158  0.87702121  0.62718347  1
  Gd  Gd5  1  0.38022726  0.75055026  0.12190825  1
  Gd  Gd6  1  0.62899044  0.88089273  0.75477708  1
  Gd  Gd7  1  0.24646472  0.36908710  0.11939313  1
  Gd  Gd8  1  0.37100956  0.11910727  0.24522292  1
  Gd  Gd9  1  0.75353528  0.63091290  0.88060687  1
  Gd  Gd10  1  0.61977274  0.24944974  0.87809175  1
  Gd  Gd11  1  0.74649842  0.12297879  0.37281653  1
  Zr  Zr12  1  0.50000000  0.50000000  0.50000000  1
  Zr  Zr13  1  0.00000000  0.00000000  0.50000000  1
  Zr  Zr14  1  0.00000000  0.50000000  0.50000000  1
  Zr  Zr15  1  0.00000000  0.50000000  0.00000000  1
  Ga  Ga16  1  0.12645453  0.76026935  0.87902880  1
  Ga  Ga17  1  0.12617196  0.87644066  0.24976565  1
  Ga  Ga18  1  0.37645563  0.62880448  0.75933165  1
  Ga  Ga19  1  0.25623597  0.12793650  0.88071248  1
  Ga  Ga20  1  0.25665168  0.63190521  0.37829021  1
  Ga  Ga21  1  0.50000000  0.00000000  0.50000000  1
  Ga  Ga22  1  0.00000000  0.00000000  0.00000000  1
  Ga  Ga23  1  0.37591751  0.24954743  0.62628161  1
  Ga  Ga24  1  0.62408249  0.75045257  0.37371839  1
  Ga  Ga25  1  0.50000000  0.50000000  0.00000000  1
  Ga  Ga26  1  0.74376403  0.87206350  0.11928752  1
  Ga  Ga27  1  0.74334832  0.36809479  0.62170979  1
  Ga  Ga28  1  0.62354437  0.37119552  0.24066835  1
  Ga  Ga29  1  0.50000000  0.00000000  0.00000000  1
  Ga  Ga30  1  0.87382804  0.12355934  0.75023435  1
  Ga  Ga31  1  0.87354547  0.23973065  0.12097120  1
  O  O32  1  0.10453145  0.97797382  0.68617661  1
  O  O33  1  0.02733586  0.31686266  0.90444923  1
  O  O34  1  0.12568809  0.60497703  0.91807643  1
  O  O35  1  0.08974693  0.71249513  0.68451179  1
  O  O36  1  0.08985667  0.87821460  0.40513288  1
  O  O37  1  0.10278405  0.62683954  0.41718392  1
  O  O38  1  0.18672223  0.47929715  0.60022400  1
  O  O39  1  0.41893059  0.82260938  0.79727190  1
  O  O40  1  0.38249932  0.58609817  0.91177377  1
  O  O41  1  0.30023713  0.32207541  0.92296931  1
  O  O42  1  0.18403675  0.20734241  0.58512614  1
  O  O43  1  0.32204324  0.91706876  0.29548905  1
  O  O44  1  0.02661524  0.20284038  0.11776037  1
  O  O45  1  0.21181201  0.58645703  0.18228676  1
  O  O46  1  0.40720567  0.82528254  0.52882524  1
  O  O47  1  0.29257296  0.47638996  0.37365275  1
  O  O48  1  0.32430968  0.90675914  0.02790759  1
  O  O49  1  0.12281546  0.02323764  0.20062453  1
  O  O50  1  0.52779977  0.62683905  0.71241540  1
  O  O51  1  0.40577004  0.08146708  0.87882821  1
  O  O52  1  0.52654857  0.40411844  0.82096854  1
  O  O53  1  0.37960065  0.28918253  0.47290952  1
  O  O54  1  0.58093330  0.90366579  0.37601886  1
  O  O55  1  0.20517887  0.12165522  0.02738946  1
  O  O56  1  0.79482113  0.87834478  0.97261054  1
  O  O57  1  0.41906670  0.09633421  0.62398114  1
  O  O58  1  0.62039935  0.71081747  0.52709048  1
  O  O59  1  0.47345143  0.59588156  0.17903146  1
  O  O60  1  0.59422996  0.91853292  0.12117179  1
  O  O61  1  0.47220023  0.37316095  0.28758460  1
  O  O62  1  0.87718454  0.97676236  0.79937547  1
  O  O63  1  0.67569032  0.09324086  0.97209241  1
  O  O64  1  0.70742704  0.52361004  0.62634725  1
  O  O65  1  0.59279433  0.17471746  0.47117476  1
  O  O66  1  0.78818799  0.41354297  0.81771324  1
  O  O67  1  0.97338476  0.79715962  0.88223963  1
  O  O68  1  0.67795676  0.08293124  0.70451095  1
  O  O69  1  0.81596325  0.79265759  0.41487386  1
  O  O70  1  0.69976287  0.67792459  0.07703069  1
  O  O71  1  0.61750068  0.41390183  0.08822623  1
  O  O72  1  0.58106941  0.17739062  0.20272810  1
  O  O73  1  0.81327777  0.52070285  0.39977600  1
  O  O74  1  0.89721595  0.37316046  0.58281608  1
  O  O75  1  0.91014333  0.12178540  0.59486712  1
  O  O76  1  0.91025307  0.28750487  0.31548821  1
  O  O77  1  0.87431191  0.39502297  0.08192357  1
  O  O78  1  0.97266414  0.68313734  0.09555077  1
  O  O79  1  0.89546855  0.02202618  0.31382339  1
