# generated using pymatgen
data_BaNa5Ca7P6(O8F)3
_symmetry_space_group_name_H-M   'P 1'
_cell_length_a   14.44895047
_cell_length_b   14.46789447
_cell_length_c   28.89873432
_cell_angle_alpha   28.61537184
_cell_angle_beta   28.68269973
_cell_angle_gamma   28.61430272
_symmetry_Int_Tables_number   1
_chemical_formula_structural   BaNa5Ca7P6(O8F)3
_chemical_formula_sum   'Ba2 Na10 Ca14 P12 O48 F6'
_cell_volume   1226.70441815
_cell_formula_units_Z   2
loop_
 _symmetry_equiv_pos_site_id
 _symmetry_equiv_pos_as_xyz
  1  'x, y, z'
loop_
 _atom_site_type_symbol
 _atom_site_label
 _atom_site_symmetry_multiplicity
 _atom_site_fract_x
 _atom_site_fract_y
 _atom_site_fract_z
 _atom_site_occupancy
  Ba  Ba0  1  0.99926915  0.99859701  0.99976741  1
  Ba  Ba1  1  0.00116504  0.00139485  0.50006976  1
  Na  Na2  1  0.30794998  0.31588670  0.39515778  1
  Na  Na3  1  0.31327811  0.78697565  0.15745790  1
  Na  Na4  1  0.22252620  0.68475036  0.33957213  1
  Na  Na5  1  0.68093559  0.22240126  0.34440816  1
  Na  Na6  1  0.68056606  0.69555920  0.10776430  1
  Na  Na7  1  0.30415320  0.78276918  0.66047239  1
  Na  Na8  1  0.31989988  0.31584451  0.88931406  1
  Na  Na9  1  0.78285357  0.30418546  0.66045108  1
  Na  Na10  1  0.20799175  0.68338015  0.84676335  1
  Na  Na11  1  0.68275960  0.20788209  0.84708980  1
  Ca  Ca12  1  0.07192496  0.55629714  0.28001605  1
  Ca  Ca13  1  0.55285657  0.07009519  0.28099170  1
  Ca  Ca14  1  0.55522485  0.56037148  0.03472812  1
  Ca  Ca15  1  0.78571845  0.31525433  0.15653495  1
  Ca  Ca16  1  0.44275092  0.92777774  0.22009684  1
  Ca  Ca17  1  0.44238101  0.44294928  0.46337595  1
  Ca  Ca18  1  0.92701931  0.44466581  0.22038134  1
  Ca  Ca19  1  0.07284120  0.55947756  0.77846406  1
  Ca  Ca20  1  0.55641687  0.55649909  0.53717474  1
  Ca  Ca21  1  0.55950380  0.07306954  0.77830173  1
  Ca  Ca22  1  0.68516512  0.68523735  0.60835859  1
  Ca  Ca23  1  0.43860267  0.92922197  0.72377480  1
  Ca  Ca24  1  0.44061641  0.44120448  0.96435269  1
  Ca  Ca25  1  0.92927092  0.43852327  0.72379772  1
  P  P26  1  0.08416323  0.08293639  0.04184886  1
  P  P27  1  0.20712852  0.20652622  0.10330736  1
  P  P28  1  0.32396134  0.32398879  0.16234310  1
  P  P29  1  0.08403932  0.08408149  0.54127961  1
  P  P30  1  0.20944023  0.20949505  0.60202449  1
  P  P31  1  0.32480072  0.32466737  0.66166691  1
  P  P32  1  0.67603656  0.67555160  0.33785360  1
  P  P33  1  0.79529452  0.79353712  0.39529745  1
  P  P34  1  0.91662914  0.91599527  0.45818638  1
  P  P35  1  0.67594291  0.67581113  0.83775691  1
  P  P36  1  0.79414409  0.79036043  0.89638387  1
  P  P37  1  0.91716684  0.91697135  0.95769631  1
  O  O38  1  0.12104691  0.12117982  0.06031453  1
  O  O39  1  0.23813330  0.24863683  0.12467489  1
  O  O40  1  0.19353542  0.54414800  0.09665182  1
  O  O41  1  0.19357973  0.19327589  0.27219477  1
  O  O42  1  0.54341989  0.19372307  0.09693325  1
  O  O43  1  0.36149718  0.36175151  0.18114774  1
  O  O44  1  0.18959783  0.19017802  0.41599145  1
  O  O45  1  0.18846979  0.83377599  0.09520162  1
  O  O46  1  0.83091859  0.19238272  0.09692023  1
  O  O47  1  0.12057183  0.12049715  0.56026603  1
  O  O48  1  0.04475201  0.68334425  0.34054537  1
  O  O49  1  0.68772186  0.04582159  0.33752654  1
  O  O50  1  0.68741346  0.67530890  0.02254800  1
  O  O51  1  0.31762948  0.31801186  0.47768353  1
  O  O52  1  0.31678188  0.95654230  0.15890056  1
  O  O53  1  0.95657261  0.31363339  0.15670429  1
  O  O54  1  0.24573898  0.24574543  0.62347586  1
  O  O55  1  0.16504369  0.81065996  0.40591969  1
  O  O56  1  0.81070978  0.16483299  0.40578869  1
  O  O57  1  0.81141145  0.81148355  0.08282592  1
  O  O58  1  0.19415021  0.19381168  0.77169021  1
  O  O59  1  0.19300538  0.54442158  0.59659257  1
  O  O60  1  0.63818698  0.63866495  0.31894062  1
  O  O61  1  0.54399858  0.19320102  0.59679889  1
  O  O62  1  0.45630580  0.80611423  0.40322238  1
  O  O63  1  0.36197797  0.36167345  0.68078748  1
  O  O64  1  0.80612546  0.80668183  0.22826692  1
  O  O65  1  0.80693080  0.45590433  0.40327190  1
  O  O66  1  0.18837670  0.18832944  0.91764900  1
  O  O67  1  0.18973393  0.83384157  0.59410823  1
  O  O68  1  0.83369843  0.18990330  0.59410393  1
  O  O69  1  0.75041693  0.75206153  0.38075945  1
  O  O70  1  0.04320065  0.68076396  0.84228363  1
  O  O71  1  0.68121552  0.03929272  0.84417625  1
  O  O72  1  0.68588005  0.69168648  0.51977249  1
  O  O73  1  0.31684804  0.31778755  0.97834575  1
  O  O74  1  0.31990290  0.95826321  0.65662991  1
  O  O75  1  0.95831717  0.31987432  0.65646094  1
  O  O76  1  0.87888448  0.87860920  0.43966562  1
  O  O77  1  0.16765158  0.81078967  0.90508281  1
  O  O78  1  0.81065302  0.16751617  0.90511879  1
  O  O79  1  0.80643278  0.80622746  0.58486604  1
  O  O80  1  0.63787389  0.63791391  0.81932800  1
  O  O81  1  0.45596367  0.80667982  0.90293982  1
  O  O82  1  0.80651417  0.45545671  0.90347847  1
  O  O83  1  0.80638970  0.80642046  0.72798016  1
  O  O84  1  0.75347848  0.75353405  0.87721210  1
  O  O85  1  0.87970428  0.87959134  0.93967613  1
  F  F86  1  0.43997209  0.42279409  0.21122410  1
  F  F87  1  0.50680473  0.49542868  0.24811539  1
  F  F88  1  0.57348811  0.57186142  0.28682978  1
  F  F89  1  0.42786019  0.42721496  0.71304809  1
  F  F90  1  0.50502956  0.50435945  0.74599342  1
  F  F91  1  0.57809348  0.57819940  0.77908375  1
