# generated using pymatgen
data_Cs2NiF6
_symmetry_space_group_name_H-M   'P 1'
_cell_length_a   6.39956263
_cell_length_b   6.39956815
_cell_length_c   6.39958871
_cell_angle_alpha   59.99621638
_cell_angle_beta   59.99635742
_cell_angle_gamma   59.99639893
_symmetry_Int_Tables_number   1
_chemical_formula_structural   Cs2NiF6
_chemical_formula_sum   'Cs2 Ni1 F6'
_cell_volume   185.31126988
_cell_formula_units_Z   1
loop_
 _symmetry_equiv_pos_site_id
 _symmetry_equiv_pos_as_xyz
  1  'x, y, z'
loop_
 _atom_site_type_symbol
 _atom_site_label
 _atom_site_symmetry_multiplicity
 _atom_site_fract_x
 _atom_site_fract_y
 _atom_site_fract_z
 _atom_site_occupancy
  F  F0  1  0.19981293  0.80020066  0.80020142  1
  F  F1  1  0.19979976  0.80018748  0.19980149  1
  F  F2  1  0.80019788  0.19981567  0.80020091  1
  F  F3  1  0.80018604  0.19980132  0.19980049  1
  F  F4  1  0.80019787  0.80020010  0.19981570  1
  F  F5  1  0.19979978  0.19980236  0.80018739  1
  Ni  Ni6  1  0.99999591  0.00000571  0.00000560  1
  Cs  Cs7  1  0.75000762  0.74999621  0.74999579  1
  Cs  Cs8  1  0.25000222  0.24999049  0.24999120  1
