# generated using pymatgen
data_In2(PSe3)3
_symmetry_space_group_name_H-M   'P 1'
_cell_length_a   8.16913820
_cell_length_b   24.59270659
_cell_length_c   30.03395775
_cell_angle_alpha   23.43788375
_cell_angle_beta   41.96453467
_cell_angle_gamma   46.98502098
_symmetry_Int_Tables_number   1
_chemical_formula_structural   In2(PSe3)3
_chemical_formula_sum   'In8 P12 Se36'
_cell_volume   1604.80592789
_cell_formula_units_Z   4
loop_
 _symmetry_equiv_pos_site_id
 _symmetry_equiv_pos_as_xyz
  1  'x, y, z'
loop_
 _atom_site_type_symbol
 _atom_site_label
 _atom_site_symmetry_multiplicity
 _atom_site_fract_x
 _atom_site_fract_y
 _atom_site_fract_z
 _atom_site_occupancy
  In  In0  1  0.12588889  0.33082886  0.09507617  1
  In  In1  1  0.18206500  0.97925115  0.59379500  1
  In  In2  1  0.20182461  0.67011257  0.07039060  1
  In  In3  1  0.79817539  0.32988743  0.42960940  1
  In  In4  1  0.14998376  0.68674830  0.57000532  1
  In  In5  1  0.87411111  0.66917114  0.40492383  1
  In  In6  1  0.85001624  0.31325170  0.92999468  1
  In  In7  1  0.81793500  0.02074885  0.90620500  1
  P  P8  1  0.54778771  0.00657243  0.27231000  1
  P  P9  1  0.43763163  0.33171362  0.22664631  1
  P  P10  1  0.54333463  0.32413556  0.28433198  1
  P  P11  1  0.45666537  0.67586444  0.21566802  1
  P  P12  1  0.53787566  0.99680410  0.78207295  1
  P  P13  1  0.56236837  0.66828638  0.27335369  1
  P  P14  1  0.44298334  0.33753731  0.72272638  1
  P  P15  1  0.45221229  0.99342757  0.22769000  1
  P  P16  1  0.55926628  0.34090922  0.76946531  1
  P  P17  1  0.44073372  0.65909078  0.73053469  1
  P  P18  1  0.55701666  0.66246269  0.77727362  1
  P  P19  1  0.46212434  0.00319590  0.71792705  1
  Se  Se20  1  0.41669182  0.21455971  0.04990465  1
  Se  Se21  1  0.24446962  0.10573037  0.29419841  1
  Se  Se22  1  0.08005433  0.21773732  0.38250029  1
  Se  Se23  1  0.91712909  0.09587367  0.13531358  1
  Se  Se24  1  0.41663781  0.54644739  0.04830121  1
  Se  Se25  1  0.72130538  0.22064868  0.21612092  1
  Se  Se26  1  0.24487603  0.44199567  0.29095376  1
  Se  Se27  1  0.56255121  0.10992544  0.46245779  1
  Se  Se28  1  0.11224554  0.56357185  0.36222325  1
  Se  Se29  1  0.88775446  0.43642815  0.13777675  1
  Se  Se30  1  0.40438641  0.21867215  0.54982243  1
  Se  Se31  1  0.43744879  0.89007456  0.03754221  1
  Se  Se32  1  0.75512397  0.55800433  0.20904624  1
  Se  Se33  1  0.25344295  0.11478006  0.78533970  1
  Se  Se34  1  0.27869462  0.77935132  0.28387908  1
  Se  Se35  1  0.58336219  0.45355261  0.45169879  1
  Se  Se36  1  0.09241739  0.22908544  0.86937896  1
  Se  Se37  1  0.08287091  0.90412633  0.36468642  1
  Se  Se38  1  0.90336629  0.10097308  0.63450691  1
  Se  Se39  1  0.91994567  0.78226268  0.11749971  1
  Se  Se40  1  0.42988791  0.55972386  0.53876195  1
  Se  Se41  1  0.73612718  0.23650489  0.70216178  1
  Se  Se42  1  0.75553038  0.89426963  0.20580159  1
  Se  Se43  1  0.25069932  0.45002096  0.78459366  1
  Se  Se44  1  0.57597708  0.12754207  0.94850679  1
  Se  Se45  1  0.58330818  0.78544029  0.45009535  1
  Se  Se46  1  0.09200471  0.54904018  0.87893079  1
  Se  Se47  1  0.90799529  0.45095982  0.62106921  1
  Se  Se48  1  0.42402292  0.87245793  0.55149321  1
  Se  Se49  1  0.74930068  0.54997904  0.71540634  1
  Se  Se50  1  0.26387282  0.76349511  0.79783822  1
  Se  Se51  1  0.57011209  0.44027614  0.96123805  1
  Se  Se52  1  0.09663371  0.89902692  0.86549309  1
  Se  Se53  1  0.90758261  0.77091456  0.63062104  1
  Se  Se54  1  0.74655705  0.88521994  0.71466030  1
  Se  Se55  1  0.59561359  0.78132785  0.95017757  1
