# generated using pymatgen
data_Ti4P8S29
_symmetry_space_group_name_H-M   'P 1'
_cell_length_a   12.89469601
_cell_length_b   13.45245164
_cell_length_c   13.45245177
_cell_angle_alpha   82.01297772
_cell_angle_beta   83.95885695
_cell_angle_gamma   83.95885466
_symmetry_Int_Tables_number   1
_chemical_formula_structural   Ti4P8S29
_chemical_formula_sum   'Ti8 P16 S58'
_cell_volume   2288.31368525
_cell_formula_units_Z   2
loop_
 _symmetry_equiv_pos_site_id
 _symmetry_equiv_pos_as_xyz
  1  'x, y, z'
loop_
 _atom_site_type_symbol
 _atom_site_label
 _atom_site_symmetry_multiplicity
 _atom_site_fract_x
 _atom_site_fract_y
 _atom_site_fract_z
 _atom_site_occupancy
  Ti  Ti0  1  0.07401832  0.25475280  0.55468229  1
  Ti  Ti1  1  0.15002749  0.18638641  0.10887597  1
  Ti  Ti2  1  0.35000544  0.89103175  0.81393778  1
  Ti  Ti3  1  0.42518084  0.44458122  0.74332154  1
  Ti  Ti4  1  0.57401832  0.55468229  0.25475280  1
  Ti  Ti5  1  0.65002749  0.10887597  0.18638641  1
  Ti  Ti6  1  0.85000544  0.81393778  0.89103175  1
  Ti  Ti7  1  0.92518084  0.74332154  0.44458122  1
  P  P8  1  0.05964826  0.40137322  0.01809394  1
  P  P9  1  0.11548937  0.19244221  0.33808734  1
  P  P10  1  0.14008220  0.74967047  0.31948378  1
  P  P11  1  0.24985417  0.02473347  0.97527165  1
  P  P12  1  0.24935360  0.34574728  0.65363710  1
  P  P13  1  0.35063516  0.66568167  0.23852729  1
  P  P14  1  0.38519492  0.66072082  0.80804154  1
  P  P15  1  0.44159769  0.98283818  0.60023797  1
  P  P16  1  0.55964826  0.01809394  0.40137322  1
  P  P17  1  0.61548937  0.33808734  0.19244221  1
  P  P18  1  0.64008220  0.31948378  0.74967047  1
  P  P19  1  0.74935360  0.65363710  0.34574728  1
  P  P20  1  0.74985417  0.97527165  0.02473347  1
  P  P21  1  0.85063516  0.23852729  0.66568167  1
  P  P22  1  0.88519492  0.80804154  0.66072082  1
  P  P23  1  0.94159769  0.60023797  0.98283818  1
  S  S24  1  0.00482649  0.18489579  0.24129324  1
  S  S25  1  0.01019782  0.83916709  0.28671374  1
  S  S26  1  0.02033961  0.26881566  0.98684110  1
  S  S27  1  0.12714740  0.01493539  0.08545618  1
  S  S28  1  0.09210949  0.10245211  0.47303940  1
  S  S29  1  0.06634445  0.52215710  0.89747699  1
  S  S30  1  0.11154327  0.33234246  0.38442131  1
  S  S31  1  0.11228666  0.41528691  0.60286146  1
  S  S32  1  0.11072337  0.66984112  0.45540287  1
  S  S33  1  0.19043569  0.36877007  0.09013702  1
  S  S34  1  0.20032620  0.01198915  0.83810973  1
  S  S35  1  0.19690684  0.67011035  0.19239010  1
  S  S36  1  0.25299446  0.15972078  0.25257389  1
  S  S37  1  0.23763446  0.19966260  0.62992358  1
  S  S38  1  0.25957575  0.37303334  0.79880971  1
  S  S39  1  0.24776423  0.74654741  0.84105041  1
  S  S40  1  0.30921556  0.80446540  0.31572343  1
  S  S41  1  0.29913961  0.16214829  0.98771803  1
  S  S42  1  0.30969536  0.91199289  0.63278326  1
  S  S43  1  0.36890645  0.77265004  0.44231635  1
  S  S44  1  0.38898053  0.53994400  0.32960596  1
  S  S45  1  0.38856929  0.39356092  0.58450401  1
  S  S46  1  0.38841162  0.61550099  0.66779317  1
  S  S47  1  0.43728284  0.10500207  0.48098209  1
  S  S48  1  0.40849522  0.52502887  0.89729979  1
  S  S49  1  0.37292084  0.91507330  0.98519825  1
  S  S50  1  0.50482649  0.24129324  0.18489579  1
  S  S51  1  0.48007698  0.01365888  0.73315804  1
  S  S52  1  0.47930074  0.70008260  0.14757712  1
  S  S53  1  0.51019782  0.28671374  0.83916709  1
  S  S54  1  0.52033961  0.98684110  0.26881566  1
  S  S55  1  0.49536131  0.75836374  0.81468277  1
  S  S56  1  0.62714740  0.08545618  0.01493539  1
  S  S57  1  0.59210949  0.47303940  0.10245211  1
  S  S58  1  0.56634445  0.89747699  0.52215710  1
  S  S59  1  0.61154327  0.38442131  0.33234246  1
  S  S60  1  0.61228666  0.60286146  0.41528691  1
  S  S61  1  0.61072337  0.45540287  0.66984112  1
  S  S62  1  0.69043569  0.09013702  0.36877007  1
  S  S63  1  0.70032620  0.83810973  0.01198915  1
  S  S64  1  0.69690684  0.19239010  0.67011035  1
  S  S65  1  0.75299446  0.25257389  0.15972078  1
  S  S66  1  0.73763446  0.62992358  0.19966260  1
  S  S67  1  0.75957575  0.79880971  0.37303334  1
  S  S68  1  0.74776423  0.84105041  0.74654741  1
  S  S69  1  0.80921556  0.31572343  0.80446540  1
  S  S70  1  0.79913961  0.98771803  0.16214829  1
  S  S71  1  0.80969536  0.63278326  0.91199289  1
  S  S72  1  0.86890645  0.44231635  0.77265004  1
  S  S73  1  0.88898053  0.32960596  0.53994400  1
  S  S74  1  0.88856929  0.58450401  0.39356092  1
  S  S75  1  0.88841162  0.66779317  0.61550099  1
  S  S76  1  0.93728284  0.48098209  0.10500207  1
  S  S77  1  0.90849522  0.89729979  0.52502887  1
  S  S78  1  0.87292084  0.98519825  0.91507330  1
  S  S79  1  0.98007698  0.73315804  0.01365888  1
  S  S80  1  0.97930074  0.14757712  0.70008260  1
  S  S81  1  0.99536131  0.81468277  0.75836374  1
