# generated using pymatgen
data_NaHCO3
_symmetry_space_group_name_H-M   'P 1'
_cell_length_a   3.53871402
_cell_length_b   9.78177318
_cell_length_c   8.11133184
_cell_angle_alpha   90.00000000
_cell_angle_beta   112.19455480
_cell_angle_gamma   90.00000000
_symmetry_Int_Tables_number   1
_chemical_formula_structural   NaHCO3
_chemical_formula_sum   'Na4 H4 C4 O12'
_cell_volume   259.96947141
_cell_formula_units_Z   4
loop_
 _symmetry_equiv_pos_site_id
 _symmetry_equiv_pos_as_xyz
  1  'x, y, z'
loop_
 _atom_site_type_symbol
 _atom_site_label
 _atom_site_symmetry_multiplicity
 _atom_site_fract_x
 _atom_site_fract_y
 _atom_site_fract_z
 _atom_site_occupancy
  Na  Na0  1  0.42653016  0.49696606  0.21404158  1
  Na  Na1  1  0.57346984  0.99696606  0.28595842  1
  Na  Na2  1  0.57346984  0.50303394  0.78595842  1
  Na  Na3  1  0.42653016  0.00303394  0.71404158  1
  H  H4  1  0.68327388  0.25563362  0.64772494  1
  H  H5  1  0.31672612  0.75563362  0.85227506  1
  H  H6  1  0.31672612  0.74436638  0.35227506  1
  H  H7  1  0.68327388  0.24436638  0.14772494  1
  C  C8  1  0.20894077  0.26081181  0.42213650  1
  C  C9  1  0.79105923  0.76081181  0.07786350  1
  C  C10  1  0.79105923  0.73918819  0.57786350  1
  C  C11  1  0.20894077  0.23918819  0.92213650  1
  O  O12  1  0.18272436  0.13155588  0.42545262  1
  O  O13  1  0.81727564  0.63155588  0.07454738  1
  O  O14  1  0.81727564  0.86844412  0.57454738  1
  O  O15  1  0.18272436  0.36844412  0.92545262  1
  O  O16  1  0.98713377  0.33839674  0.29505658  1
  O  O17  1  0.01286623  0.83839674  0.20494342  1
  O  O18  1  0.01286623  0.66160326  0.70494342  1
  O  O19  1  0.98713377  0.16160326  0.79505658  1
  O  O20  1  0.49499410  0.32607392  0.55984841  1
  O  O21  1  0.50500590  0.82607392  0.94015159  1
  O  O22  1  0.50500590  0.67392608  0.44015159  1
  O  O23  1  0.49499410  0.17392608  0.05984841  1
