# generated using pymatgen
data_Te4Mo3W(SeS)2
_symmetry_space_group_name_H-M   'P 1'
_cell_length_a   3.40019144
_cell_length_b   3.40020873
_cell_length_c   38.76650791
_cell_angle_alpha   90.00085828
_cell_angle_beta   90.00000000
_cell_angle_gamma   119.99983179
_symmetry_Int_Tables_number   1
_chemical_formula_structural   Te4Mo3W(SeS)2
_chemical_formula_sum   'Te4 Mo3 W1 Se2 S2'
_cell_volume   388.14768217
_cell_formula_units_Z   1
loop_
 _symmetry_equiv_pos_site_id
 _symmetry_equiv_pos_as_xyz
  1  'x, y, z'
loop_
 _atom_site_type_symbol
 _atom_site_label
 _atom_site_symmetry_multiplicity
 _atom_site_fract_x
 _atom_site_fract_y
 _atom_site_fract_z
 _atom_site_occupancy
  Te  Te0  1  0.33335206  0.66670512  0.70585274  1
  Te  Te1  1  0.66664730  0.33329360  0.42100885  1
  Te  Te2  1  0.66664918  0.33329736  0.51817198  1
  Te  Te3  1  0.33335411  0.66670922  0.60930936  1
  Mo  Mo4  1  0.33330883  0.66661765  0.09395402  1
  Mo  Mo5  1  0.66668498  0.33336996  0.28180065  1
  Mo  Mo6  1  0.66668651  0.33337301  0.65761486  1
  W  W7  1  0.33331196  0.66662392  0.46960684  1
  Se  Se8  1  0.33335748  0.66671595  0.32430984  1
  Se  Se9  1  0.33335562  0.66671225  0.23924310  1
  S  S10  1  0.66664538  0.33328977  0.05513620  1
  S  S11  1  0.66664659  0.33329218  0.13273957  1
