# generated using pymatgen
data_RbCa(H2N)3
_symmetry_space_group_name_H-M   'P 1'
_cell_length_a   7.05899938
_cell_length_b   7.05899938
_cell_length_c   6.67904488
_cell_angle_alpha   79.39460534
_cell_angle_beta   100.60539466
_cell_angle_gamma   63.04537154
_symmetry_Int_Tables_number   1
_chemical_formula_structural   RbCa(H2N)3
_chemical_formula_sum   'Rb2 Ca2 H12 N6'
_cell_volume   277.67103408
_cell_formula_units_Z   2
loop_
 _symmetry_equiv_pos_site_id
 _symmetry_equiv_pos_as_xyz
  1  'x, y, z'
loop_
 _atom_site_type_symbol
 _atom_site_label
 _atom_site_symmetry_multiplicity
 _atom_site_fract_x
 _atom_site_fract_y
 _atom_site_fract_z
 _atom_site_occupancy
  Rb  Rb0  1  0.71082552  0.71082552  0.75000000  1
  Rb  Rb1  1  0.28917448  0.28917448  0.25000000  1
  Ca  Ca2  1  0.00000000  0.00000000  0.50000000  1
  Ca  Ca3  1  0.00000000  0.00000000  0.00000000  1
  H  H4  1  0.90315271  0.68529962  0.33564088  1
  H  H5  1  0.68529962  0.90315271  0.16435912  1
  H  H6  1  0.09684729  0.31470038  0.66435912  1
  H  H7  1  0.31470038  0.09684729  0.83564088  1
  H  H8  1  0.80274861  0.46473901  0.19817944  1
  H  H9  1  0.46473901  0.80274861  0.30182056  1
  H  H10  1  0.19725139  0.53526099  0.80182056  1
  H  H11  1  0.53526099  0.19725139  0.69817944  1
  H  H12  1  0.32414106  0.65726473  0.88696894  1
  H  H13  1  0.65726473  0.32414106  0.61303106  1
  H  H14  1  0.67585894  0.34273527  0.11303106  1
  H  H15  1  0.34273527  0.67585894  0.38696894  1
  N  N16  1  0.15297996  0.15297996  0.75000000  1
  N  N17  1  0.84702004  0.84702004  0.25000000  1
  N  N18  1  0.83422500  0.31783475  0.16528341  1
  N  N19  1  0.31783475  0.83422500  0.33471659  1
  N  N20  1  0.16577500  0.68216525  0.83471659  1
  N  N21  1  0.68216525  0.16577500  0.66528341  1
