# generated using pymatgen
data_KNb4AsO13
_symmetry_space_group_name_H-M   'P 1'
_cell_length_a   7.49878108
_cell_length_b   14.99614483
_cell_length_c   10.16426964
_cell_angle_alpha   90.00527827
_cell_angle_beta   90.00359613
_cell_angle_gamma   90.77705994
_symmetry_Int_Tables_number   1
_chemical_formula_structural   KNb4AsO13
_chemical_formula_sum   'K4 Nb16 As4 O52'
_cell_volume   1142.89552845
_cell_formula_units_Z   4
loop_
 _symmetry_equiv_pos_site_id
 _symmetry_equiv_pos_as_xyz
  1  'x, y, z'
loop_
 _atom_site_type_symbol
 _atom_site_label
 _atom_site_symmetry_multiplicity
 _atom_site_fract_x
 _atom_site_fract_y
 _atom_site_fract_z
 _atom_site_occupancy
  K  K0  1  0.05180566  0.02588012  0.90641031  1
  K  K1  1  0.05302605  0.52657705  0.93824659  1
  K  K2  1  0.94572939  0.97291988  0.43299150  1
  K  K3  1  0.94668672  0.47328542  0.43811614  1
  Nb  Nb4  1  0.05554006  0.69924371  0.25226944  1
  Nb  Nb5  1  0.05657052  0.19923813  0.25159614  1
  Nb  Nb6  1  0.32214402  0.83599039  0.00175096  1
  Nb  Nb7  1  0.32731239  0.83834384  0.50110016  1
  Nb  Nb8  1  0.32353811  0.33580941  0.00145975  1
  Nb  Nb9  1  0.32821486  0.33823506  0.50096788  1
  Nb  Nb10  1  0.39845577  0.52787765  0.25218532  1
  Nb  Nb11  1  0.39864051  0.02812862  0.25165633  1
  Nb  Nb12  1  0.60009461  0.97167139  0.75168174  1
  Nb  Nb13  1  0.60055175  0.47187106  0.75206021  1
  Nb  Nb14  1  0.67084773  0.66147711  0.00160466  1
  Nb  Nb15  1  0.67608724  0.66388882  0.50109187  1
  Nb  Nb16  1  0.67265689  0.16131866  0.00156473  1
  Nb  Nb17  1  0.67696807  0.16383266  0.50101869  1
  Nb  Nb18  1  0.94341769  0.79955557  0.75186251  1
  Nb  Nb19  1  0.94360080  0.30082288  0.75189648  1
  As  As20  1  0.33664767  0.66820467  0.74903121  1
  As  As21  1  0.33804157  0.16906295  0.74827611  1
  As  As22  1  0.66274629  0.83160657  0.24889015  1
  As  As23  1  0.66363790  0.33166863  0.24885302  1
  O  O24  1  0.11212153  0.68398991  0.75259890  1
  O  O25  1  0.11342567  0.18479683  0.75161941  1
  O  O26  1  0.13714049  0.85215579  0.61291110  1
  O  O27  1  0.13838967  0.85133888  0.88207800  1
  O  O28  1  0.13819286  0.35171408  0.61310010  1
  O  O29  1  0.13918122  0.35225767  0.88289897  1
  O  O30  1  0.16236752  0.58126688  0.25022825  1
  O  O31  1  0.16319245  0.08153668  0.25195599  1
  O  O32  1  0.19023913  0.74519038  0.10856294  1
  O  O33  1  0.19156773  0.74621653  0.39023083  1
  O  O34  1  0.19111779  0.24506526  0.10803089  1
  O  O35  1  0.19253389  0.24670425  0.38955073  1
  O  O36  1  0.29557698  0.93144719  0.11247885  1
  O  O37  1  0.29508082  0.93012010  0.38214319  1
  O  O38  1  0.29650301  0.43091207  0.11322693  1
  O  O39  1  0.29512320  0.43059628  0.38291866  1
  O  O40  1  0.36877718  0.55605367  0.75329005  1
  O  O41  1  0.36884407  0.05678823  0.75093365  1
  O  O42  1  0.43238792  0.71634153  0.60955334  1
  O  O43  1  0.43275583  0.71647079  0.88848112  1
  O  O44  1  0.43409679  0.21691055  0.60894086  1
  O  O45  1  0.43386328  0.21685698  0.88805297  1
  O  O46  1  0.48979641  0.59519633  0.10828892  1
  O  O47  1  0.49227506  0.59612698  0.39001698  1
  O  O48  1  0.49064431  0.09551648  0.10823514  1
  O  O49  1  0.49349215  0.09596465  0.38980065  1
  O  O50  1  0.50844217  0.90482429  0.60759073  1
  O  O51  1  0.50548081  0.90383610  0.88931212  1
  O  O52  1  0.50959520  0.40475094  0.60810659  1
  O  O53  1  0.50709142  0.40383131  0.89000902  1
  O  O54  1  0.56667180  0.78381823  0.10926414  1
  O  O55  1  0.56622345  0.78319758  0.38829766  1
  O  O56  1  0.56801004  0.28350006  0.10932277  1
  O  O57  1  0.56706293  0.28343345  0.38826647  1
  O  O58  1  0.63056394  0.94366019  0.25309068  1
  O  O59  1  0.63094296  0.44377392  0.25324040  1
  O  O60  1  0.70284748  0.56895594  0.61324603  1
  O  O61  1  0.70435298  0.56943602  0.88307358  1
  O  O62  1  0.70484462  0.06874726  0.61270447  1
  O  O63  1  0.70280321  0.06937564  0.88192407  1
  O  O64  1  0.80947615  0.75428655  0.60757730  1
  O  O65  1  0.80702694  0.75313073  0.88960409  1
  O  O66  1  0.80974479  0.25469762  0.60819080  1
  O  O67  1  0.80839594  0.25311790  0.88968813  1
  O  O68  1  0.83580289  0.91777894  0.74902537  1
  O  O69  1  0.83724062  0.41872977  0.75017233  1
  O  O70  1  0.86147282  0.64836569  0.11324745  1
  O  O71  1  0.86049322  0.64721236  0.38279385  1
  O  O72  1  0.86334351  0.14763824  0.11249205  1
  O  O73  1  0.86097545  0.14789257  0.38221939  1
  O  O74  1  0.88704719  0.81526488  0.25355507  1
  O  O75  1  0.88799828  0.31549855  0.25277613  1
