# generated using pymatgen
data_TlH6(NO4)3
_symmetry_space_group_name_H-M   'P 1'
_cell_length_a   7.88195515
_cell_length_b   7.88195515
_cell_length_c   7.88195548
_cell_angle_alpha   100.66060273
_cell_angle_beta   100.66060274
_cell_angle_gamma   100.66059829
_symmetry_Int_Tables_number   1
_chemical_formula_structural   TlH6(NO4)3
_chemical_formula_sum   'Tl2 H12 N6 O24'
_cell_volume   460.56768377
_cell_formula_units_Z   2
loop_
 _symmetry_equiv_pos_site_id
 _symmetry_equiv_pos_as_xyz
  1  'x, y, z'
loop_
 _atom_site_type_symbol
 _atom_site_label
 _atom_site_symmetry_multiplicity
 _atom_site_fract_x
 _atom_site_fract_y
 _atom_site_fract_z
 _atom_site_occupancy
  Tl  Tl0  1  0.75603091  0.75603091  0.75603091  1
  Tl  Tl1  1  0.24396909  0.24396909  0.24396909  1
  H  H2  1  0.69626764  0.85450657  0.42130007  1
  H  H3  1  0.85450657  0.42130007  0.69626764  1
  H  H4  1  0.42130007  0.69626764  0.85450657  1
  H  H5  1  0.30373236  0.14549343  0.57869993  1
  H  H6  1  0.14549343  0.57869993  0.30373236  1
  H  H7  1  0.57869993  0.30373236  0.14549343  1
  H  H8  1  0.67076094  0.64665089  0.36055353  1
  H  H9  1  0.64665089  0.36055353  0.67076094  1
  H  H10  1  0.36055353  0.67076094  0.64665089  1
  H  H11  1  0.32923906  0.35334911  0.63944647  1
  H  H12  1  0.35334911  0.63944647  0.32923906  1
  H  H13  1  0.63944647  0.32923906  0.35334911  1
  N  N14  1  0.86158165  0.66036522  0.10026892  1
  N  N15  1  0.66036522  0.10026892  0.86158165  1
  N  N16  1  0.10026892  0.86158165  0.66036522  1
  N  N17  1  0.13841835  0.33963478  0.89973108  1
  N  N18  1  0.33963478  0.89973108  0.13841835  1
  N  N19  1  0.89973108  0.13841835  0.33963478  1
  O  O20  1  0.93342192  0.62830729  0.24199715  1
  O  O21  1  0.62830729  0.24199715  0.93342192  1
  O  O22  1  0.24199715  0.93342192  0.62830729  1
  O  O23  1  0.06657808  0.37169271  0.75800285  1
  O  O24  1  0.37169271  0.75800285  0.06657808  1
  O  O25  1  0.75800285  0.06657808  0.37169271  1
  O  O26  1  0.95983710  0.70926037  0.99314248  1
  O  O27  1  0.70926037  0.99314248  0.95983710  1
  O  O28  1  0.99314248  0.95983710  0.70926037  1
  O  O29  1  0.04016290  0.29073963  0.00685752  1
  O  O30  1  0.29073963  0.00685752  0.04016290  1
  O  O31  1  0.00685752  0.04016290  0.29073963  1
  O  O32  1  0.69769025  0.64800463  0.05651231  1
  O  O33  1  0.64800463  0.05651231  0.69769025  1
  O  O34  1  0.05651231  0.69769025  0.64800463  1
  O  O35  1  0.30230975  0.35199537  0.94348769  1
  O  O36  1  0.35199537  0.94348769  0.30230975  1
  O  O37  1  0.94348769  0.30230975  0.35199537  1
  O  O38  1  0.64698702  0.73964089  0.44885459  1
  O  O39  1  0.73964089  0.44885459  0.64698702  1
  O  O40  1  0.44885459  0.64698702  0.73964089  1
  O  O41  1  0.35301298  0.26035911  0.55114541  1
  O  O42  1  0.26035911  0.55114541  0.35301298  1
  O  O43  1  0.55114541  0.35301298  0.26035911  1
