# generated using pymatgen
data_HgHNO4
_symmetry_space_group_name_H-M   'P 1'
_cell_length_a   6.65875469
_cell_length_b   7.35800621
_cell_length_c   7.98530510
_cell_angle_alpha   90.00000000
_cell_angle_beta   115.52886442
_cell_angle_gamma   90.00000000
_symmetry_Int_Tables_number   1
_chemical_formula_structural   HgHNO4
_chemical_formula_sum   'Hg4 H4 N4 O16'
_cell_volume   353.04373084
_cell_formula_units_Z   4
loop_
 _symmetry_equiv_pos_site_id
 _symmetry_equiv_pos_as_xyz
  1  'x, y, z'
loop_
 _atom_site_type_symbol
 _atom_site_label
 _atom_site_symmetry_multiplicity
 _atom_site_fract_x
 _atom_site_fract_y
 _atom_site_fract_z
 _atom_site_occupancy
  Hg  Hg0  1  0.00685154  0.36811752  0.76971185  1
  Hg  Hg1  1  0.99314846  0.86811752  0.73028815  1
  Hg  Hg2  1  0.99314846  0.63188248  0.23028815  1
  Hg  Hg3  1  0.00685154  0.13188248  0.26971185  1
  H  H4  1  0.72733118  0.13524903  0.55029674  1
  H  H5  1  0.27266882  0.63524903  0.94970326  1
  H  H6  1  0.27266882  0.86475097  0.44970326  1
  H  H7  1  0.72733118  0.36475097  0.05029674  1
  N  N8  1  0.41433753  0.15870777  0.08339072  1
  N  N9  1  0.58566247  0.65870777  0.41660928  1
  N  N10  1  0.58566247  0.84129223  0.91660928  1
  N  N11  1  0.41433753  0.34129223  0.58339072  1
  O  O12  1  0.21499888  0.10520685  0.04116786  1
  O  O13  1  0.78500112  0.60520685  0.45883214  1
  O  O14  1  0.78500112  0.89479315  0.95883214  1
  O  O15  1  0.21499888  0.39479315  0.54116786  1
  O  O16  1  0.44245886  0.29477981  0.99734761  1
  O  O17  1  0.55754114  0.79477981  0.50265239  1
  O  O18  1  0.55754114  0.70522019  0.00265239  1
  O  O19  1  0.44245886  0.20522019  0.49734761  1
  O  O20  1  0.57541503  0.07638494  0.20563845  1
  O  O21  1  0.42458497  0.57638494  0.29436155  1
  O  O22  1  0.42458497  0.92361506  0.79436155  1
  O  O23  1  0.57541503  0.42361506  0.70563845  1
  O  O24  1  0.10716189  0.62864522  0.89896760  1
  O  O25  1  0.89283811  0.12864522  0.60103240  1
  O  O26  1  0.89283811  0.37135478  0.10103240  1
  O  O27  1  0.10716189  0.87135478  0.39896760  1
