# generated using pymatgen
data_ScP3(HO2)6
_symmetry_space_group_name_H-M   'P 1'
_cell_length_a   10.09437038
_cell_length_b   10.09437038
_cell_length_c   10.09437034
_cell_angle_alpha   48.64910845
_cell_angle_beta   48.64910845
_cell_angle_gamma   48.64910933
_symmetry_Int_Tables_number   1
_chemical_formula_structural   ScP3(HO2)6
_chemical_formula_sum   'Sc2 P6 H12 O24'
_cell_volume   531.77848918
_cell_formula_units_Z   2
loop_
 _symmetry_equiv_pos_site_id
 _symmetry_equiv_pos_as_xyz
  1  'x, y, z'
loop_
 _atom_site_type_symbol
 _atom_site_label
 _atom_site_symmetry_multiplicity
 _atom_site_fract_x
 _atom_site_fract_y
 _atom_site_fract_z
 _atom_site_occupancy
  Sc  Sc0  1  0.91854491  0.91854491  0.91854491  1
  Sc  Sc1  1  0.41854491  0.41854491  0.41854491  1
  P  P2  1  0.51860608  0.82173033  0.16605184  1
  P  P3  1  0.82173033  0.16605184  0.51860608  1
  P  P4  1  0.16605184  0.51860608  0.82173033  1
  P  P5  1  0.01860608  0.66605184  0.32173033  1
  P  P6  1  0.66605184  0.32173033  0.01860608  1
  P  P7  1  0.32173033  0.01860608  0.66605184  1
  H  H8  1  0.22663283  0.92131481  0.37848600  1
  H  H9  1  0.92131481  0.37848600  0.22663283  1
  H  H10  1  0.37848600  0.22663283  0.92131481  1
  H  H11  1  0.72663283  0.87848600  0.42131481  1
  H  H12  1  0.87848600  0.42131481  0.72663283  1
  H  H13  1  0.42131481  0.72663283  0.87848600  1
  H  H14  1  0.43321553  0.98538357  0.40753172  1
  H  H15  1  0.98538357  0.40753172  0.43321553  1
  H  H16  1  0.40753172  0.43321553  0.98538357  1
  H  H17  1  0.93321553  0.90753172  0.48538357  1
  H  H18  1  0.90753172  0.48538357  0.93321553  1
  H  H19  1  0.48538357  0.93321553  0.90753172  1
  O  O20  1  0.70367025  0.81383368  0.10785295  1
  O  O21  1  0.81383368  0.10785295  0.70367025  1
  O  O22  1  0.10785295  0.70367025  0.81383368  1
  O  O23  1  0.20367025  0.60785295  0.31383368  1
  O  O24  1  0.60785295  0.31383368  0.20367025  1
  O  O25  1  0.31383368  0.20367025  0.60785295  1
  O  O26  1  0.52418951  0.63372554  0.23407163  1
  O  O27  1  0.63372554  0.23407163  0.52418951  1
  O  O28  1  0.23407163  0.52418951  0.63372554  1
  O  O29  1  0.02418951  0.73407163  0.13372554  1
  O  O30  1  0.73407163  0.13372554  0.02418951  1
  O  O31  1  0.13372554  0.02418951  0.73407163  1
  O  O32  1  0.35698670  0.91686968  0.31932171  1
  O  O33  1  0.91686968  0.31932171  0.35698670  1
  O  O34  1  0.31932171  0.35698670  0.91686968  1
  O  O35  1  0.85698670  0.81932171  0.41686968  1
  O  O36  1  0.81932171  0.41686968  0.85698670  1
  O  O37  1  0.41686968  0.85698670  0.81932171  1
  O  O38  1  0.44868403  0.98186245  0.99013423  1
  O  O39  1  0.98186245  0.99013423  0.44868403  1
  O  O40  1  0.99013423  0.44868403  0.98186245  1
  O  O41  1  0.94868403  0.49013423  0.48186245  1
  O  O42  1  0.49013423  0.48186245  0.94868403  1
  O  O43  1  0.48186245  0.94868403  0.49013423  1
