# generated using pymatgen
data_SbH7(Br2O)3
_symmetry_space_group_name_H-M   'P 1'
_cell_length_a   7.22522892
_cell_length_b   13.74991753
_cell_length_c   13.03571794
_cell_angle_alpha   90.00000000
_cell_angle_beta   94.78433643
_cell_angle_gamma   90.00000000
_symmetry_Int_Tables_number   1
_chemical_formula_structural   SbH7(Br2O)3
_chemical_formula_sum   'Sb4 H28 Br24 O12'
_cell_volume   1290.53802164
_cell_formula_units_Z   4
loop_
 _symmetry_equiv_pos_site_id
 _symmetry_equiv_pos_as_xyz
  1  'x, y, z'
loop_
 _atom_site_type_symbol
 _atom_site_label
 _atom_site_symmetry_multiplicity
 _atom_site_fract_x
 _atom_site_fract_y
 _atom_site_fract_z
 _atom_site_occupancy
  Sb  Sb0  1  0.30559693  0.36792213  0.69301392  1
  Sb  Sb1  1  0.69440307  0.86792213  0.80698608  1
  Sb  Sb2  1  0.69440307  0.63207787  0.30698608  1
  Sb  Sb3  1  0.30559693  0.13207787  0.19301392  1
  H  H4  1  0.74253312  0.57648925  0.85796198  1
  H  H5  1  0.25746688  0.07648925  0.64203802  1
  H  H6  1  0.25746688  0.42351075  0.14203802  1
  H  H7  1  0.74253312  0.92351075  0.35796198  1
  H  H8  1  0.90608779  0.52681922  0.80615855  1
  H  H9  1  0.09391221  0.02681922  0.69384145  1
  H  H10  1  0.09391221  0.47318078  0.19384145  1
  H  H11  1  0.90608779  0.97318078  0.30615855  1
  H  H12  1  0.84376319  0.43587887  0.94757843  1
  H  H13  1  0.15623681  0.93587887  0.55242157  1
  H  H14  1  0.15623681  0.56412113  0.05242157  1
  H  H15  1  0.84376319  0.06412113  0.44757843  1
  H  H16  1  0.96970611  0.39861828  0.05247362  1
  H  H17  1  0.03029389  0.89861828  0.44752638  1
  H  H18  1  0.03029389  0.60138172  0.94752638  1
  H  H19  1  0.96970611  0.10138172  0.55247362  1
  H  H20  1  0.79737048  0.31247723  0.99206756  1
  H  H21  1  0.20262952  0.81247723  0.50793244  1
  H  H22  1  0.20262952  0.68752277  0.00793244  1
  H  H23  1  0.79737048  0.18752277  0.49206756  1
  H  H24  1  0.72266863  0.17680471  0.03182784  1
  H  H25  1  0.27733137  0.67680471  0.46817216  1
  H  H26  1  0.27733137  0.82319529  0.96817216  1
  H  H27  1  0.72266863  0.32319529  0.53182784  1
  H  H28  1  0.59815780  0.22263199  0.93838708  1
  H  H29  1  0.40184220  0.72263199  0.56161292  1
  H  H30  1  0.40184220  0.77736801  0.06161292  1
  H  H31  1  0.59815780  0.27736801  0.43838708  1
  Br  Br32  1  0.22325959  0.31262332  0.50423559  1
  Br  Br33  1  0.77674041  0.81262332  0.99576441  1
  Br  Br34  1  0.77674041  0.68737668  0.49576441  1
  Br  Br35  1  0.22325959  0.18737668  0.00423559  1
  Br  Br36  1  0.60119935  0.45721654  0.63805914  1
  Br  Br37  1  0.39880065  0.95721654  0.86194086  1
  Br  Br38  1  0.39880065  0.54278346  0.36194086  1
  Br  Br39  1  0.60119935  0.04278346  0.13805914  1
  Br  Br40  1  0.11169438  0.52635162  0.65870714  1
  Br  Br41  1  0.88830562  0.02635162  0.84129286  1
  Br  Br42  1  0.88830562  0.47364838  0.34129286  1
  Br  Br43  1  0.11169438  0.97364838  0.15870714  1
  Br  Br44  1  0.39461409  0.42382538  0.88266721  1
  Br  Br45  1  0.60538591  0.92382538  0.61733279  1
  Br  Br46  1  0.60538591  0.57617462  0.11733279  1
  Br  Br47  1  0.39461409  0.07617462  0.38266721  1
  Br  Br48  1  0.01267763  0.27940211  0.74989536  1
  Br  Br49  1  0.98732237  0.77940211  0.75010464  1
  Br  Br50  1  0.98732237  0.72059789  0.25010464  1
  Br  Br51  1  0.01267763  0.22059789  0.24989536  1
  Br  Br52  1  0.49929808  0.20733369  0.72587991  1
  Br  Br53  1  0.50070192  0.70733369  0.77412009  1
  Br  Br54  1  0.50070192  0.79266631  0.27412009  1
  Br  Br55  1  0.49929808  0.29266631  0.22587991  1
  O  O56  1  0.85922666  0.54066160  0.87379535  1
  O  O57  1  0.14077334  0.04066160  0.62620465  1
  O  O58  1  0.14077334  0.45933840  0.12620465  1
  O  O59  1  0.85922666  0.95933840  0.37379535  1
  O  O60  1  0.85488850  0.38672115  0.00467774  1
  O  O61  1  0.14511150  0.88672115  0.49532226  1
  O  O62  1  0.14511150  0.61327885  0.99532226  1
  O  O63  1  0.85488850  0.11327885  0.50467774  1
  O  O64  1  0.72288634  0.22458254  0.97461317  1
  O  O65  1  0.27711366  0.72458254  0.52538683  1
  O  O66  1  0.27711366  0.77541746  0.02538683  1
  O  O67  1  0.72288634  0.27541746  0.47461317  1
