# generated using pymatgen
data_RbHSeO4
_symmetry_space_group_name_H-M   'P 1'
_cell_length_a   13.21307296
_cell_length_b   4.66158795
_cell_length_c   7.69737073
_cell_angle_alpha   90.00000000
_cell_angle_beta   90.00000000
_cell_angle_gamma   90.00000000
_symmetry_Int_Tables_number   1
_chemical_formula_structural   RbHSeO4
_chemical_formula_sum   'Rb4 H4 Se4 O16'
_cell_volume   474.11109604
_cell_formula_units_Z   4
loop_
 _symmetry_equiv_pos_site_id
 _symmetry_equiv_pos_as_xyz
  1  'x, y, z'
loop_
 _atom_site_type_symbol
 _atom_site_label
 _atom_site_symmetry_multiplicity
 _atom_site_fract_x
 _atom_site_fract_y
 _atom_site_fract_z
 _atom_site_occupancy
  Rb  Rb0  1  0.87792449  0.81612550  0.44884399  1
  Rb  Rb1  1  0.62207551  0.18387450  0.94884399  1
  Rb  Rb2  1  0.37792449  0.68387450  0.55115601  1
  Rb  Rb3  1  0.12207551  0.31612550  0.05115601  1
  H  H4  1  0.88784110  0.28090857  0.82633223  1
  H  H5  1  0.61215890  0.71909143  0.32633223  1
  H  H6  1  0.38784110  0.21909143  0.17366777  1
  H  H7  1  0.11215890  0.78090857  0.67366777  1
  Se  Se8  1  0.87388478  0.73004945  0.95852362  1
  Se  Se9  1  0.62611522  0.26995055  0.45852362  1
  Se  Se10  1  0.37388478  0.76995055  0.04147638  1
  Se  Se11  1  0.12611522  0.23004945  0.54147638  1
  O  O12  1  0.78178264  0.57998881  0.07069382  1
  O  O13  1  0.71821736  0.42001119  0.57069382  1
  O  O14  1  0.28178264  0.92001119  0.92930618  1
  O  O15  1  0.21821736  0.07998881  0.42930618  1
  O  O16  1  0.96930339  0.83963685  0.08111752  1
  O  O17  1  0.53069661  0.16036315  0.58111752  1
  O  O18  1  0.46930339  0.66036315  0.91888248  1
  O  O19  1  0.03069661  0.33963685  0.41888248  1
  O  O20  1  0.83086929  0.98606118  0.82571694  1
  O  O21  1  0.66913071  0.01393882  0.32571694  1
  O  O22  1  0.33086929  0.51393882  0.17428306  1
  O  O23  1  0.16913071  0.48606118  0.67428306  1
  O  O24  1  0.92810373  0.47055770  0.81689556  1
  O  O25  1  0.57189627  0.52944230  0.31689556  1
  O  O26  1  0.42810373  0.02944230  0.18310444  1
  O  O27  1  0.07189627  0.97055770  0.68310444  1
