# generated using pymatgen
data_BH3OF4
_symmetry_space_group_name_H-M   'P 1'
_cell_length_a   4.73863079
_cell_length_b   6.14062453
_cell_length_c   6.37519180
_cell_angle_alpha   79.68545112
_cell_angle_beta   81.23327241
_cell_angle_gamma   89.05597583
_symmetry_Int_Tables_number   1
_chemical_formula_structural   BH3OF4
_chemical_formula_sum   'B2 H6 O2 F8'
_cell_volume   180.36505592
_cell_formula_units_Z   2
loop_
 _symmetry_equiv_pos_site_id
 _symmetry_equiv_pos_as_xyz
  1  'x, y, z'
loop_
 _atom_site_type_symbol
 _atom_site_label
 _atom_site_symmetry_multiplicity
 _atom_site_fract_x
 _atom_site_fract_y
 _atom_site_fract_z
 _atom_site_occupancy
  B  B0  1  0.56811880  0.79857045  0.79827581  1
  B  B1  1  0.43188120  0.20142955  0.20172419  1
  H  H2  1  0.83624912  0.70451312  0.16391637  1
  H  H3  1  0.16375088  0.29548688  0.83608363  1
  H  H4  1  0.75375125  0.69599290  0.42904669  1
  H  H5  1  0.24624875  0.30400710  0.57095331  1
  H  H6  1  0.04333982  0.83516517  0.29217210  1
  H  H7  1  0.95666018  0.16483483  0.70782790  1
  O  O8  1  0.91379597  0.70401560  0.30299607  1
  O  O9  1  0.08620403  0.29598440  0.69700393  1
  F  F10  1  0.72730802  0.67778269  0.95129408  1
  F  F11  1  0.27269198  0.32221731  0.04870592  1
  F  F12  1  0.73175993  0.98841582  0.67960593  1
  F  F13  1  0.26824007  0.01158418  0.32039407  1
  F  F14  1  0.53090926  0.66077576  0.64407640  1
  F  F15  1  0.46909074  0.33922424  0.35592360  1
  F  F16  1  0.30638930  0.86279898  0.89583875  1
  F  F17  1  0.69361070  0.13720102  0.10416125  1
