# generated using pymatgen
data_TiH12C2(NF)6
_symmetry_space_group_name_H-M   'P 1'
_cell_length_a   7.47913464
_cell_length_b   7.47913464
_cell_length_c   6.31030397
_cell_angle_alpha   69.12771547
_cell_angle_beta   110.87228453
_cell_angle_gamma   120.28862601
_symmetry_Int_Tables_number   1
_chemical_formula_structural   TiH12C2(NF)6
_chemical_formula_sum   'Ti1 H12 C2 N6 F6'
_cell_volume   277.89172625
_cell_formula_units_Z   1
loop_
 _symmetry_equiv_pos_site_id
 _symmetry_equiv_pos_as_xyz
  1  'x, y, z'
loop_
 _atom_site_type_symbol
 _atom_site_label
 _atom_site_symmetry_multiplicity
 _atom_site_fract_x
 _atom_site_fract_y
 _atom_site_fract_z
 _atom_site_occupancy
  Ti  Ti0  1  0.06640078  0.93359922  0.58145946  1
  H  H1  1  0.05069840  0.62659848  0.30753612  1
  H  H2  1  0.37340152  0.94930160  0.30753612  1
  H  H3  1  0.05929970  0.39304836  0.32340114  1
  H  H4  1  0.60695164  0.94070030  0.32340114  1
  H  H5  1  0.37069133  0.39378198  0.33065782  1
  H  H6  1  0.60621802  0.62930867  0.33065782  1
  H  H7  1  0.76648168  0.46761639  0.86288583  1
  H  H8  1  0.53238361  0.23351832  0.86288583  1
  H  H9  1  0.08203263  0.46870905  0.85625612  1
  H  H10  1  0.53129095  0.91796737  0.85625612  1
  H  H11  1  0.07615770  0.23411052  0.84959474  1
  H  H12  1  0.76588948  0.92384230  0.84959474  1
  C  C13  1  0.79342954  0.20657046  0.86438868  1
  C  C14  1  0.34051374  0.65948626  0.30471984  1
  N  N15  1  0.13191352  0.55506578  0.29760241  1
  N  N16  1  0.44493422  0.86808648  0.29760241  1
  N  N17  1  0.44497096  0.55502904  0.31022356  1
  N  N18  1  0.69275203  0.30724797  0.87704198  1
  N  N19  1  0.00001930  0.31034182  0.86174474  1
  N  N20  1  0.68965818  -0.00001930  0.86174474  1
  F  F21  1  0.22485332  0.77514668  0.75607805  1
  F  F22  1  0.90760026  0.09239974  0.40293987  1
  F  F23  1  0.26170706  0.09959823  0.38345889  1
  F  F24  1  0.90040177  0.73829294  0.38345889  1
  F  F25  1  0.22823332  0.12888464  0.77958646  1
  F  F26  1  0.87111536  0.77176668  0.77958646  1
