# generated using pymatgen
data_Te2MoWSeS
_symmetry_space_group_name_H-M   'P 1'
_cell_length_a   3.39929076
_cell_length_b   3.39927214
_cell_length_c   39.43005308
_cell_angle_alpha   89.99906016
_cell_angle_beta   90.00000000
_cell_angle_gamma   120.00018122
_symmetry_Int_Tables_number   1
_chemical_formula_structural   Te2MoWSeS
_chemical_formula_sum   'Te4 Mo2 W2 Se2 S2'
_cell_volume   394.57671121
_cell_formula_units_Z   2
loop_
 _symmetry_equiv_pos_site_id
 _symmetry_equiv_pos_as_xyz
  1  'x, y, z'
loop_
 _atom_site_type_symbol
 _atom_site_label
 _atom_site_symmetry_multiplicity
 _atom_site_fract_x
 _atom_site_fract_y
 _atom_site_fract_z
 _atom_site_occupancy
  Te  Te0  1  0.33333552  0.66667203  0.32873838  1
  Te  Te1  1  0.66666085  0.33332069  0.42228033  1
  Te  Te2  1  0.66663443  0.33326785  0.51777562  1
  Te  Te3  1  0.33346404  0.66692908  0.23373954  1
  Mo  Mo4  1  0.33328968  0.66657937  0.09391782  1
  Mo  Mo5  1  0.66672872  0.33345745  0.28127376  1
  W  W6  1  0.33330655  0.66661310  0.47006134  1
  W  W7  1  0.66666043  0.33332086  0.65769941  1
  Se  Se8  1  0.33331921  0.66663943  0.69963285  1
  Se  Se9  1  0.33333503  0.66667106  0.61571531  1
  S  S10  1  0.66663860  0.33327621  0.05582610  1
  S  S11  1  0.66662693  0.33325286  0.13208755  1
