# generated using pymatgen
data_MgZn2H12(BrO)6
_symmetry_space_group_name_H-M   'P 1'
_cell_length_a   8.49566816
_cell_length_b   8.49566816
_cell_length_c   8.49566816
_cell_angle_alpha   104.77856670
_cell_angle_beta   102.77807593
_cell_angle_gamma   121.58349886
_symmetry_Int_Tables_number   1
_chemical_formula_structural   MgZn2H12(BrO)6
_chemical_formula_sum   'Mg1 Zn2 H12 Br6 O6'
_cell_volume   455.82997757
_cell_formula_units_Z   1
loop_
 _symmetry_equiv_pos_site_id
 _symmetry_equiv_pos_as_xyz
  1  'x, y, z'
loop_
 _atom_site_type_symbol
 _atom_site_label
 _atom_site_symmetry_multiplicity
 _atom_site_fract_x
 _atom_site_fract_y
 _atom_site_fract_z
 _atom_site_occupancy
  Mg  Mg0  1  0.00000000  0.00000000  0.00000000  1
  Zn  Zn1  1  0.15760505  0.50000000  0.65760505  1
  Zn  Zn2  1  0.84239495  0.50000000  0.34239495  1
  H  H3  1  0.83675361  0.93874217  0.24912908  1
  H  H4  1  0.16324639  0.41237546  0.10198856  1
  H  H5  1  0.31038690  0.06125783  0.89801144  1
  H  H6  1  0.68961310  0.58762454  0.75087092  1
  H  H7  1  0.16324639  0.06125783  0.75087092  1
  H  H8  1  0.83675361  0.58762454  0.89801144  1
  H  H9  1  0.68961310  0.93874217  0.10198856  1
  H  H10  1  0.31038690  0.41237546  0.24912908  1
  H  H11  1  0.25037766  0.07653876  0.32691642  1
  H  H12  1  0.74962234  0.07653876  0.82616110  1
  H  H13  1  0.25037766  0.92346124  0.17383890  1
  H  H14  1  0.74962234  0.92346124  0.67308358  1
  Br  Br15  1  0.77672634  0.27672634  0.50000000  1
  Br  Br16  1  0.22327366  0.72327366  0.50000000  1
  Br  Br17  1  0.28747147  0.30855471  0.59602619  1
  Br  Br18  1  0.71252853  0.30855471  0.02108324  1
  Br  Br19  1  0.28747147  0.69144529  0.97891676  1
  Br  Br20  1  0.71252853  0.69144529  0.40397381  1
  O  O21  1  0.82405930  0.97064943  0.14659013  1
  O  O22  1  0.17594070  0.32253083  0.14659013  1
  O  O23  1  0.17594070  0.02935057  0.85340987  1
  O  O24  1  0.82405930  0.67746917  0.85340987  1
  O  O25  1  0.19607706  0.00000000  0.19607706  1
  O  O26  1  0.80392294  0.00000000  0.80392294  1
