# generated using pymatgen
data_MgH6(BrN)2
_symmetry_space_group_name_H-M   'P 1'
_cell_length_a   6.01208856
_cell_length_b   12.00607477
_cell_length_c   8.04678610
_cell_angle_alpha   90.00000000
_cell_angle_beta   90.00000000
_cell_angle_gamma   90.00000000
_symmetry_Int_Tables_number   1
_chemical_formula_structural   MgH6(BrN)2
_chemical_formula_sum   'Mg4 H24 Br8 N8'
_cell_volume   580.82977305
_cell_formula_units_Z   4
loop_
 _symmetry_equiv_pos_site_id
 _symmetry_equiv_pos_as_xyz
  1  'x, y, z'
loop_
 _atom_site_type_symbol
 _atom_site_label
 _atom_site_symmetry_multiplicity
 _atom_site_fract_x
 _atom_site_fract_y
 _atom_site_fract_z
 _atom_site_occupancy
  Mg  Mg0  1  0.49896069  0.50005489  0.25000000  1
  Mg  Mg1  1  0.99896069  0.99994511  0.25000000  1
  Mg  Mg2  1  0.50103931  0.49994511  0.75000000  1
  Mg  Mg3  1  0.00103931  0.00005489  0.75000000  1
  H  H4  1  0.70816431  0.29559269  0.25000000  1
  H  H5  1  0.20816431  0.20440731  0.25000000  1
  H  H6  1  0.29183569  0.70440731  0.75000000  1
  H  H7  1  0.79183569  0.79559269  0.75000000  1
  H  H8  1  0.86415473  0.38496819  0.14888535  1
  H  H9  1  0.36415473  0.11503181  0.35111465  1
  H  H10  1  0.13584527  0.61503181  0.64888535  1
  H  H11  1  0.63584527  0.88496819  0.85111465  1
  H  H12  1  0.13584527  0.61503181  0.85111465  1
  H  H13  1  0.63584527  0.88496819  0.64888535  1
  H  H14  1  0.86415473  0.38496819  0.35111465  1
  H  H15  1  0.36415473  0.11503181  0.14888535  1
  H  H16  1  0.08630775  0.60160845  0.25000000  1
  H  H17  1  0.58630775  0.89839155  0.25000000  1
  H  H18  1  0.91369225  0.39839155  0.75000000  1
  H  H19  1  0.41369225  0.10160845  0.75000000  1
  H  H20  1  0.26081397  0.68159949  0.14937848  1
  H  H21  1  0.76081397  0.81840051  0.35062152  1
  H  H22  1  0.73918603  0.31840051  0.64937848  1
  H  H23  1  0.23918603  0.18159949  0.85062152  1
  H  H24  1  0.73918603  0.31840051  0.85062152  1
  H  H25  1  0.23918603  0.18159949  0.64937848  1
  H  H26  1  0.26081397  0.68159949  0.35062152  1
  H  H27  1  0.76081397  0.81840051  0.14937848  1
  Br  Br28  1  0.77825589  0.11317437  0.00083195  1
  Br  Br29  1  0.27825589  0.38682563  0.49916805  1
  Br  Br30  1  0.22174411  0.88682563  0.50083195  1
  Br  Br31  1  0.72174411  0.61317437  0.99916805  1
  Br  Br32  1  0.22174411  0.88682563  0.99916805  1
  Br  Br33  1  0.72174411  0.61317437  0.50083195  1
  Br  Br34  1  0.77825589  0.11317437  0.49916805  1
  Br  Br35  1  0.27825589  0.38682563  0.00083195  1
  N  N36  1  0.76077882  0.37701617  0.25000000  1
  N  N37  1  0.26077882  0.12298383  0.25000000  1
  N  N38  1  0.23922118  0.62298383  0.75000000  1
  N  N39  1  0.73922118  0.87701617  0.75000000  1
  N  N40  1  0.24809927  0.62911997  0.25000000  1
  N  N41  1  0.74809927  0.87088003  0.25000000  1
  N  N42  1  0.75190073  0.37088003  0.75000000  1
  N  N43  1  0.25190073  0.12911997  0.75000000  1
