# generated using pymatgen
data_HI
_symmetry_space_group_name_H-M   'P 1'
_cell_length_a   8.74254725
_cell_length_b   9.87313622
_cell_length_c   8.74254725
_cell_angle_alpha   116.30661805
_cell_angle_beta   90.39308530
_cell_angle_gamma   115.86413818
_symmetry_Int_Tables_number   1
_chemical_formula_structural   HI
_chemical_formula_sum   'H8 I8'
_cell_volume   589.66687509
_cell_formula_units_Z   8
loop_
 _symmetry_equiv_pos_site_id
 _symmetry_equiv_pos_as_xyz
  1  'x, y, z'
loop_
 _atom_site_type_symbol
 _atom_site_label
 _atom_site_symmetry_multiplicity
 _atom_site_fract_x
 _atom_site_fract_y
 _atom_site_fract_z
 _atom_site_occupancy
  H  H0  1  0.24260509  0.02009245  0.58080610  1
  H  H1  1  0.56071364  0.47990755  0.72251263  1
  H  H2  1  0.75739491  0.97990755  0.41919390  1
  H  H3  1  0.43928636  0.52009245  0.27748737  1
  H  H4  1  0.56999529  0.99885906  0.76537299  1
  H  H5  1  0.76651394  0.50114094  0.07113623  1
  H  H6  1  0.43000471  0.00114094  0.23462701  1
  H  H7  1  0.23348606  0.49885906  0.92886377  1
  I  I8  1  0.25111983  0.02359017  0.76953821  1
  I  I9  1  0.74594805  0.47640983  0.72752967  1
  I  I10  1  0.74888017  0.97640983  0.23046179  1
  I  I11  1  0.25405195  0.52359017  0.27247033  1
  I  I12  1  0.75576337  0.99642539  0.76169308  1
  I  I13  1  0.76526769  0.50357461  0.25933799  1
  I  I14  1  0.24423663  0.00357461  0.23830692  1
  I  I15  1  0.23473231  0.49642539  0.74066201  1
