# generated using pymatgen
data_H2S
_symmetry_space_group_name_H-M   'P 1'
_cell_length_a   4.13427834
_cell_length_b   13.54941030
_cell_length_c   6.79560608
_cell_angle_alpha   90.00000000
_cell_angle_beta   90.00000000
_cell_angle_gamma   90.00000000
_symmetry_Int_Tables_number   1
_chemical_formula_structural   H2S
_chemical_formula_sum   'H16 S8'
_cell_volume   380.66969359
_cell_formula_units_Z   8
loop_
 _symmetry_equiv_pos_site_id
 _symmetry_equiv_pos_as_xyz
  1  'x, y, z'
loop_
 _atom_site_type_symbol
 _atom_site_label
 _atom_site_symmetry_multiplicity
 _atom_site_fract_x
 _atom_site_fract_y
 _atom_site_fract_z
 _atom_site_occupancy
  H  H0  1  0.17376027  0.28062401  0.75000000  1
  H  H1  1  0.82623973  0.71937599  0.25000000  1
  H  H2  1  0.17376027  0.21937599  0.25000000  1
  H  H3  1  0.82623973  0.78062401  0.75000000  1
  H  H4  1  0.19171272  0.42767100  0.75000000  1
  H  H5  1  0.80828728  0.57232900  0.25000000  1
  H  H6  1  0.19171272  0.07232900  0.25000000  1
  H  H7  1  0.80828728  0.92767100  0.75000000  1
  H  H8  1  0.67385311  0.12033240  0.60414572  1
  H  H9  1  0.32614689  0.87966760  0.10414572  1
  H  H10  1  0.67385311  0.37966760  0.39585428  1
  H  H11  1  0.32614689  0.62033240  0.89585428  1
  H  H12  1  0.32614689  0.87966760  0.39585428  1
  H  H13  1  0.67385311  0.12033240  0.89585428  1
  H  H14  1  0.32614689  0.62033240  0.60414572  1
  H  H15  1  0.67385311  0.37966760  0.10414572  1
  S  S16  1  0.95883007  0.35624527  0.75000000  1
  S  S17  1  0.04116993  0.64375473  0.25000000  1
  S  S18  1  0.95883007  0.14375473  0.25000000  1
  S  S19  1  0.04116993  0.85624527  0.75000000  1
  S  S20  1  0.46143468  0.09941654  0.75000000  1
  S  S21  1  0.53856532  0.90058346  0.25000000  1
  S  S22  1  0.46143468  0.40058346  0.25000000  1
  S  S23  1  0.53856532  0.59941654  0.75000000  1
