# generated using pymatgen
data_K3CaP2HO8
_symmetry_space_group_name_H-M   'P 1'
_cell_length_a   5.77567626
_cell_length_b   5.77567626
_cell_length_c   7.52155247
_cell_angle_alpha   86.00060969
_cell_angle_beta   93.99939031
_cell_angle_gamma   119.58034092
_symmetry_Int_Tables_number   1
_chemical_formula_structural   K3CaP2HO8
_chemical_formula_sum   'K3 Ca1 P2 H1 O8'
_cell_volume   217.49326450
_cell_formula_units_Z   1
loop_
 _symmetry_equiv_pos_site_id
 _symmetry_equiv_pos_as_xyz
  1  'x, y, z'
loop_
 _atom_site_type_symbol
 _atom_site_label
 _atom_site_symmetry_multiplicity
 _atom_site_fract_x
 _atom_site_fract_y
 _atom_site_fract_z
 _atom_site_occupancy
  K  K0  1  0.00000000  0.00000000  0.50000000  1
  K  K1  1  0.66969262  0.33030738  0.19049311  1
  K  K2  1  0.33030738  0.66969262  0.80950689  1
  Ca  Ca3  1  0.00000000  0.00000000  0.00000000  1
  P  P4  1  0.65975101  0.34024899  0.74861383  1
  P  P5  1  0.34024899  0.65975101  0.25138617  1
  H  H6  1  0.50000000  0.50000000  0.50000000  1
  O  O7  1  0.81481949  0.18518051  0.78091068  1
  O  O8  1  0.18518051  0.81481949  0.21908932  1
  O  O9  1  0.62080978  0.37919022  0.54022265  1
  O  O10  1  0.37919022  0.62080978  0.45977735  1
  O  O11  1  0.81777266  0.62044151  0.82827185  1
  O  O12  1  0.37955849  0.18222734  0.82827185  1
  O  O13  1  0.18222734  0.37955849  0.17172815  1
  O  O14  1  0.62044151  0.81777266  0.17172815  1
