# generated using pymatgen
data_K3GeH2NO3
_symmetry_space_group_name_H-M   'P 1'
_cell_length_a   6.46849934
_cell_length_b   6.77730737
_cell_length_c   7.29667681
_cell_angle_alpha   96.29127895
_cell_angle_beta   101.42268722
_cell_angle_gamma   91.60701482
_symmetry_Int_Tables_number   1
_chemical_formula_structural   K3GeH2NO3
_chemical_formula_sum   'K6 Ge2 H4 N2 O6'
_cell_volume   311.24839453
_cell_formula_units_Z   2
loop_
 _symmetry_equiv_pos_site_id
 _symmetry_equiv_pos_as_xyz
  1  'x, y, z'
loop_
 _atom_site_type_symbol
 _atom_site_label
 _atom_site_symmetry_multiplicity
 _atom_site_fract_x
 _atom_site_fract_y
 _atom_site_fract_z
 _atom_site_occupancy
  K  K0  1  0.76157599  0.09139698  0.02888780  1
  K  K1  1  0.23842401  0.90860302  0.97111220  1
  K  K2  1  0.65408686  0.19918557  0.48271222  1
  K  K3  1  0.34591314  0.80081443  0.51728778  1
  K  K4  1  0.71682914  0.52322305  0.87003580  1
  K  K5  1  0.28317086  0.47677695  0.12996420  1
  Ge  Ge6  1  0.78582181  0.70225401  0.30320029  1
  Ge  Ge7  1  0.21417819  0.29774599  0.69679971  1
  H  H8  1  0.88575861  0.89045786  0.62504118  1
  H  H9  1  0.11424139  0.10954214  0.37495882  1
  H  H10  1  0.96790474  0.66447300  0.63073602  1
  H  H11  1  0.03209526  0.33552700  0.36926398  1
  N  N12  1  0.84024658  0.74318744  0.57699393  1
  N  N13  1  0.15975342  0.25681256  0.42300607  1
  O  O14  1  0.56638301  0.85021239  0.23729130  1
  O  O15  1  0.43361699  0.14978761  0.76270870  1
  O  O16  1  0.99589543  0.21955696  0.79226950  1
  O  O17  1  0.00410457  0.78044304  0.20773050  1
  O  O18  1  0.72263436  0.44530534  0.23894148  1
  O  O19  1  0.27736564  0.55469466  0.76105852  1
