# generated using pymatgen
data_Te4Mo3W(SeS)2
_symmetry_space_group_name_H-M   'P 1'
_cell_length_a   3.40201396
_cell_length_b   3.40200615
_cell_length_c   38.71509331
_cell_angle_alpha   90.00092947
_cell_angle_beta   90.00000000
_cell_angle_gamma   120.00007598
_symmetry_Int_Tables_number   1
_chemical_formula_structural   Te4Mo3W(SeS)2
_chemical_formula_sum   'Te4 Mo3 W1 Se2 S2'
_cell_volume   388.04473442
_cell_formula_units_Z   1
loop_
 _symmetry_equiv_pos_site_id
 _symmetry_equiv_pos_as_xyz
  1  'x, y, z'
loop_
 _atom_site_type_symbol
 _atom_site_label
 _atom_site_symmetry_multiplicity
 _atom_site_fract_x
 _atom_site_fract_y
 _atom_site_fract_z
 _atom_site_occupancy
  Te  Te0  1  0.33335826  0.66671753  0.33011535  1
  Te  Te1  1  0.33334833  0.66669767  0.70620089  1
  Te  Te2  1  0.33334909  0.66669919  0.23343554  1
  Te  Te3  1  0.33336287  0.66672673  0.60886466  1
  Mo  Mo4  1  0.33330319  0.66660638  0.09394630  1
  Mo  Mo5  1  0.33330542  0.66661085  0.46965945  1
  Mo  Mo6  1  0.66669619  0.33339239  0.28179711  1
  W  W7  1  0.66669112  0.33338223  0.65753544  1
  Se  Se8  1  0.66664745  0.33329389  0.42711801  1
  Se  Se9  1  0.66664816  0.33329532  0.51220277  1
  S  S10  1  0.66664465  0.33328830  0.05508545  1
  S  S11  1  0.66664527  0.33328954  0.13278701  1
