# generated using pymatgen
data_Rb2ZnH4
_symmetry_space_group_name_H-M   'P 1'
_cell_length_a   8.21088438
_cell_length_b   6.09114227
_cell_length_c   10.69494152
_cell_angle_alpha   90.00000000
_cell_angle_beta   90.00000000
_cell_angle_gamma   90.00000000
_symmetry_Int_Tables_number   1
_chemical_formula_structural   Rb2ZnH4
_chemical_formula_sum   'Rb8 Zn4 H16'
_cell_volume   534.89322153
_cell_formula_units_Z   4
loop_
 _symmetry_equiv_pos_site_id
 _symmetry_equiv_pos_as_xyz
  1  'x, y, z'
loop_
 _atom_site_type_symbol
 _atom_site_label
 _atom_site_symmetry_multiplicity
 _atom_site_fract_x
 _atom_site_fract_y
 _atom_site_fract_z
 _atom_site_occupancy
  Rb  Rb0  1  0.66067461  0.25000000  0.09362800  1
  Rb  Rb1  1  0.16067461  0.25000000  0.40637200  1
  Rb  Rb2  1  0.33932539  0.75000000  0.90637200  1
  Rb  Rb3  1  0.83932539  0.75000000  0.59362800  1
  Rb  Rb4  1  0.98508455  0.25000000  0.81369306  1
  Rb  Rb5  1  0.48508455  0.25000000  0.68630694  1
  Rb  Rb6  1  0.01491545  0.75000000  0.18630694  1
  Rb  Rb7  1  0.51491545  0.75000000  0.31369306  1
  Zn  Zn8  1  0.73977541  0.25000000  0.41737584  1
  Zn  Zn9  1  0.23977541  0.25000000  0.08262416  1
  Zn  Zn10  1  0.26022459  0.75000000  0.58262416  1
  Zn  Zn11  1  0.76022459  0.75000000  0.91737584  1
  H  H12  1  0.81360321  0.02649228  0.34711035  1
  H  H13  1  0.31360321  0.47350772  0.15288965  1
  H  H14  1  0.18639679  0.52649228  0.65288965  1
  H  H15  1  0.68639679  0.97350772  0.84711035  1
  H  H16  1  0.18639679  0.97350772  0.65288965  1
  H  H17  1  0.68639679  0.52649228  0.84711035  1
  H  H18  1  0.81360321  0.47350772  0.34711035  1
  H  H19  1  0.31360321  0.02649228  0.15288965  1
  H  H20  1  0.53772910  0.25000000  0.40837688  1
  H  H21  1  0.03772910  0.25000000  0.09162312  1
  H  H22  1  0.46227090  0.75000000  0.59162312  1
  H  H23  1  0.96227090  0.75000000  0.90837688  1
  H  H24  1  0.30565690  0.25000000  0.93435714  1
  H  H25  1  0.80565690  0.25000000  0.56564286  1
  H  H26  1  0.69434310  0.75000000  0.06564286  1
  H  H27  1  0.19434310  0.75000000  0.43435714  1
