# generated using pymatgen
data_CeMg2H7
_symmetry_space_group_name_H-M   'P 1'
_cell_length_a   6.27724900
_cell_length_b   6.27724900
_cell_length_c   9.37159266
_cell_angle_alpha   90.00000000
_cell_angle_beta   90.00000000
_cell_angle_gamma   90.00000000
_symmetry_Int_Tables_number   1
_chemical_formula_structural   CeMg2H7
_chemical_formula_sum   'Ce4 Mg8 H28'
_cell_volume   369.27687837
_cell_formula_units_Z   4
loop_
 _symmetry_equiv_pos_site_id
 _symmetry_equiv_pos_as_xyz
  1  'x, y, z'
loop_
 _atom_site_type_symbol
 _atom_site_label
 _atom_site_symmetry_multiplicity
 _atom_site_fract_x
 _atom_site_fract_y
 _atom_site_fract_z
 _atom_site_occupancy
  Ce  Ce0  1  0.76890296  0.23109704  0.75000000  1
  Ce  Ce1  1  0.23109704  0.76890296  0.25000000  1
  Ce  Ce2  1  0.73109704  0.73109704  0.50000000  1
  Ce  Ce3  1  0.26890296  0.26890296  0.00000000  1
  Mg  Mg4  1  0.52725257  0.23770080  0.39825212  1
  Mg  Mg5  1  0.47274743  0.76229920  0.89825212  1
  Mg  Mg6  1  0.73770080  0.97274743  0.14825212  1
  Mg  Mg7  1  0.26229920  0.02725257  0.64825212  1
  Mg  Mg8  1  0.76229920  0.47274743  0.10174788  1
  Mg  Mg9  1  0.23770080  0.52725257  0.60174788  1
  Mg  Mg10  1  0.97274743  0.73770080  0.85174788  1
  Mg  Mg11  1  0.02725257  0.26229920  0.35174788  1
  H  H12  1  0.53911362  0.46931863  0.62173810  1
  H  H13  1  0.46088638  0.53068137  0.12173810  1
  H  H14  1  0.96931863  0.96088638  0.37173810  1
  H  H15  1  0.03068137  0.03911362  0.87173810  1
  H  H16  1  0.53068137  0.46088638  0.87826190  1
  H  H17  1  0.46931863  0.53911362  0.37826190  1
  H  H18  1  0.96088638  0.96931863  0.62826190  1
  H  H19  1  0.03911362  0.03068137  0.12826190  1
  H  H20  1  0.57903767  0.06379646  0.56992443  1
  H  H21  1  0.42096233  0.93620354  0.06992443  1
  H  H22  1  0.56379646  0.92096233  0.31992443  1
  H  H23  1  0.43620354  0.07903767  0.81992443  1
  H  H24  1  0.93620354  0.42096233  0.93007557  1
  H  H25  1  0.06379646  0.57903767  0.43007557  1
  H  H26  1  0.92096233  0.56379646  0.68007557  1
  H  H27  1  0.07903767  0.43620354  0.18007557  1
  H  H28  1  0.80640927  0.34501080  0.49815400  1
  H  H29  1  0.19359073  0.65498920  0.99815400  1
  H  H30  1  0.84501080  0.69359073  0.24815400  1
  H  H31  1  0.15498920  0.30640927  0.74815400  1
  H  H32  1  0.65498920  0.19359073  0.00184600  1
  H  H33  1  0.34501080  0.80640927  0.50184600  1
  H  H34  1  0.69359073  0.84501080  0.75184600  1
  H  H35  1  0.30640927  0.15498920  0.25184600  1
  H  H36  1  0.25523048  0.74476952  0.75000000  1
  H  H37  1  0.74476952  0.25523048  0.25000000  1
  H  H38  1  0.24476952  0.24476952  0.50000000  1
  H  H39  1  0.75523048  0.75523048  0.00000000  1
