# generated using pymatgen
data_H8W(S2N)2
_symmetry_space_group_name_H-M   'P 1'
_cell_length_a   9.78299120
_cell_length_b   7.12584738
_cell_length_c   12.46874789
_cell_angle_alpha   90.00000000
_cell_angle_beta   90.00000000
_cell_angle_gamma   90.00000000
_symmetry_Int_Tables_number   1
_chemical_formula_structural   H8W(S2N)2
_chemical_formula_sum   'H32 W4 S16 N8'
_cell_volume   869.22262735
_cell_formula_units_Z   4
loop_
 _symmetry_equiv_pos_site_id
 _symmetry_equiv_pos_as_xyz
  1  'x, y, z'
loop_
 _atom_site_type_symbol
 _atom_site_label
 _atom_site_symmetry_multiplicity
 _atom_site_fract_x
 _atom_site_fract_y
 _atom_site_fract_z
 _atom_site_occupancy
  H  H0  1  0.99134783  0.75000000  0.23867948  1
  H  H1  1  0.49134783  0.75000000  0.26132052  1
  H  H2  1  0.00865217  0.25000000  0.76132052  1
  H  H3  1  0.50865217  0.25000000  0.73867948  1
  H  H4  1  0.03082311  0.75000000  0.10788428  1
  H  H5  1  0.53082311  0.75000000  0.39211572  1
  H  H6  1  0.96917689  0.25000000  0.89211572  1
  H  H7  1  0.46917689  0.25000000  0.60788428  1
  H  H8  1  0.89035158  0.63151520  0.15245562  1
  H  H9  1  0.39035158  0.86848480  0.34754438  1
  H  H10  1  0.10964842  0.13151520  0.84754438  1
  H  H11  1  0.60964842  0.36848480  0.65245562  1
  H  H12  1  0.10964842  0.36848480  0.84754438  1
  H  H13  1  0.60964842  0.13151520  0.65245562  1
  H  H14  1  0.89035158  0.86848480  0.15245562  1
  H  H15  1  0.39035158  0.63151520  0.34754438  1
  H  H16  1  0.74498287  0.75000000  0.83398474  1
  H  H17  1  0.24498287  0.75000000  0.66601526  1
  H  H18  1  0.25501713  0.25000000  0.16601526  1
  H  H19  1  0.75501713  0.25000000  0.33398474  1
  H  H20  1  0.57326013  0.75000000  0.84674639  1
  H  H21  1  0.07326013  0.75000000  0.65325361  1
  H  H22  1  0.42673987  0.25000000  0.15325361  1
  H  H23  1  0.92673987  0.25000000  0.34674639  1
  H  H24  1  0.67041746  0.63078577  0.93547206  1
  H  H25  1  0.17041746  0.86921423  0.56452794  1
  H  H26  1  0.32958254  0.13078577  0.06452794  1
  H  H27  1  0.82958254  0.36921423  0.43547206  1
  H  H28  1  0.32958254  0.36921423  0.06452794  1
  H  H29  1  0.82958254  0.13078577  0.43547206  1
  H  H30  1  0.67041746  0.86921423  0.93547206  1
  H  H31  1  0.17041746  0.63078577  0.56452794  1
  W  W32  1  0.25216432  0.75000000  0.92844703  1
  W  W33  1  0.75216432  0.75000000  0.57155297  1
  W  W34  1  0.74783568  0.25000000  0.07155297  1
  W  W35  1  0.24783568  0.25000000  0.42844703  1
  S  S36  1  0.03164532  0.75000000  0.88982908  1
  S  S37  1  0.53164532  0.75000000  0.61017092  1
  S  S38  1  0.96835468  0.25000000  0.11017092  1
  S  S39  1  0.46835468  0.25000000  0.38982908  1
  S  S40  1  0.28183753  0.75000000  0.10375931  1
  S  S41  1  0.78183753  0.75000000  0.39624069  1
  S  S42  1  0.71816247  0.25000000  0.89624069  1
  S  S43  1  0.21816247  0.25000000  0.60375931  1
  S  S44  1  0.34984477  0.49858579  0.85950711  1
  S  S45  1  0.84984477  0.00141421  0.64049289  1
  S  S46  1  0.65015523  0.99858579  0.14049289  1
  S  S47  1  0.15015523  0.50141421  0.35950711  1
  S  S48  1  0.65015523  0.50141421  0.14049289  1
  S  S49  1  0.15015523  0.99858579  0.35950711  1
  S  S50  1  0.34984477  0.00141421  0.85950711  1
  S  S51  1  0.84984477  0.49858579  0.64049289  1
  N  N52  1  0.95077395  0.75000000  0.16238085  1
  N  N53  1  0.45077395  0.75000000  0.33761915  1
  N  N54  1  0.04922605  0.25000000  0.83761915  1
  N  N55  1  0.54922605  0.25000000  0.66238085  1
  N  N56  1  0.66510780  0.75000000  0.88805660  1
  N  N57  1  0.16510780  0.75000000  0.61194340  1
  N  N58  1  0.33489220  0.25000000  0.11194340  1
  N  N59  1  0.83489220  0.25000000  0.38805660  1
