# generated using pymatgen
data_Mg2NiH4
_symmetry_space_group_name_H-M   'P 1'
_cell_length_a   6.41314967
_cell_length_b   6.50055601
_cell_length_c   7.88268337
_cell_angle_alpha   111.31920702
_cell_angle_beta   114.00316819
_cell_angle_gamma   90.00000000
_symmetry_Int_Tables_number   1
_chemical_formula_structural   Mg2NiH4
_chemical_formula_sum   'Mg8 Ni4 H16'
_cell_volume   275.40476245
_cell_formula_units_Z   4
loop_
 _symmetry_equiv_pos_site_id
 _symmetry_equiv_pos_as_xyz
  1  'x, y, z'
loop_
 _atom_site_type_symbol
 _atom_site_label
 _atom_site_symmetry_multiplicity
 _atom_site_fract_x
 _atom_site_fract_y
 _atom_site_fract_z
 _atom_site_occupancy
  Mg  Mg0  1  0.78176575  0.58887966  0.53159144  1
  Mg  Mg1  1  0.25017431  0.91112034  0.46840856  1
  Mg  Mg2  1  0.21823425  0.41112034  0.46840856  1
  Mg  Mg3  1  0.74982569  0.08887966  0.53159144  1
  Mg  Mg4  1  0.97133729  0.75000000  0.00000000  1
  Mg  Mg5  1  0.02866271  0.25000000  1.00000000  1
  Mg  Mg6  1  0.46870181  0.75000000  0.00000000  1
  Mg  Mg7  1  0.53129819  0.25000000  1.00000000  1
  Ni  Ni8  1  0.89268769  0.57689374  0.24102294  1
  Ni  Ni9  1  0.65166475  0.92310626  0.75897706  1
  Ni  Ni10  1  0.10731231  0.42310626  0.75897706  1
  Ni  Ni11  1  0.34833525  0.07689374  0.24102294  1
  H  H12  1  0.90772884  0.80024654  0.41820003  1
  H  H13  1  0.48952881  0.69975346  0.58179997  1
  H  H14  1  0.09227116  0.19975346  0.58179997  1
  H  H15  1  0.51047119  0.30024654  0.41820003  1
  H  H16  1  0.81616148  0.37711063  0.27848496  1
  H  H17  1  0.53767651  0.12288937  0.72151504  1
  H  H18  1  0.18383852  0.62288937  0.72151504  1
  H  H19  1  0.46232349  0.87711063  0.27848496  1
  H  H20  1  0.72074473  0.55900609  0.02608074  1
  H  H21  1  0.69466399  0.94099391  0.97391926  1
  H  H22  1  0.27925527  0.44099391  0.97391926  1
  H  H23  1  0.30533601  0.05900609  0.02608074  1
  H  H24  1  0.13698212  0.56674073  0.24881037  1
  H  H25  1  0.88817175  0.93325927  0.75118963  1
  H  H26  1  0.86301788  0.43325927  0.75118963  1
  H  H27  1  0.11182825  0.06674073  0.24881037  1
