# generated using pymatgen
data_KAlSi3O8
_symmetry_space_group_name_H-M   'P 1'
_cell_length_a   8.00889875
_cell_length_b   7.72143668
_cell_length_c   7.32094592
_cell_angle_alpha   76.32046997
_cell_angle_beta   104.37137837
_cell_angle_gamma   67.12534224
_symmetry_Int_Tables_number   1
_chemical_formula_structural   KAlSi3O8
_chemical_formula_sum   'K2 Al2 Si6 O16'
_cell_volume   374.89966446
_cell_formula_units_Z   2
loop_
 _symmetry_equiv_pos_site_id
 _symmetry_equiv_pos_as_xyz
  1  'x, y, z'
loop_
 _atom_site_type_symbol
 _atom_site_label
 _atom_site_symmetry_multiplicity
 _atom_site_fract_x
 _atom_site_fract_y
 _atom_site_fract_z
 _atom_site_occupancy
  K  K0  1  0.72357721  0.29068319  0.86319594  1
  K  K1  1  0.27642279  0.70931681  0.13680406  1
  Al  Al2  1  0.80164496  0.82169884  0.78298865  1
  Al  Al3  1  0.19835504  0.17830116  0.21701135  1
  Si  Si4  1  0.17149157  0.19115221  0.76876193  1
  Si  Si5  1  0.82850843  0.80884779  0.23123807  1
  Si  Si6  1  0.16703563  0.59034697  0.66019989  1
  Si  Si7  1  0.83296437  0.40965303  0.33980011  1
  Si  Si8  1  0.40747608  0.82236942  0.64919195  1
  Si  Si9  1  0.59252392  0.17763058  0.35080805  1
  O  O10  1  0.85494520  0.85611653  0.01659657  1
  O  O11  1  0.14505480  0.14388347  0.98340343  1
  O  O12  1  0.35475722  0.63432980  0.71285677  1
  O  O13  1  0.64524278  0.36567020  0.28714323  1
  O  O14  1  0.02999588  0.67159992  0.78025730  1
  O  O15  1  0.97000412  0.32840008  0.21974270  1
  O  O16  1  0.31206178  0.97608636  0.76085167  1
  O  O17  1  0.68793822  0.02391364  0.23914833  1
  O  O18  1  0.64416527  0.71464623  0.74927194  1
  O  O19  1  0.35583473  0.28535377  0.25072806  1
  O  O20  1  0.26961698  0.34195093  0.73405021  1
  O  O21  1  0.73038302  0.65804907  0.26594979  1
  O  O22  1  0.68678570  0.06601313  0.59480208  1
  O  O23  1  0.31321430  0.93398687  0.40519792  1
  O  O24  1  0.95137763  0.30537327  0.58823545  1
  O  O25  1  0.04862237  0.69462673  0.41176455  1
