# generated using pymatgen
data_SbH12C2N6F5
_symmetry_space_group_name_H-M   'P 1'
_cell_length_a   9.06332759
_cell_length_b   9.06332759
_cell_length_c   9.77613273
_cell_angle_alpha   62.77214509
_cell_angle_beta   117.22785491
_cell_angle_gamma   123.98626375
_symmetry_Int_Tables_number   1
_chemical_formula_structural   SbH12C2N6F5
_chemical_formula_sum   'Sb2 H24 C4 N12 F10'
_cell_volume   569.48093074
_cell_formula_units_Z   2
loop_
 _symmetry_equiv_pos_site_id
 _symmetry_equiv_pos_as_xyz
  1  'x, y, z'
loop_
 _atom_site_type_symbol
 _atom_site_label
 _atom_site_symmetry_multiplicity
 _atom_site_fract_x
 _atom_site_fract_y
 _atom_site_fract_z
 _atom_site_occupancy
  Sb  Sb0  1  0.34568509  0.65431491  0.86211592  1
  Sb  Sb1  1  0.65431491  0.34568509  0.13788408  1
  H  H2  1  0.99617532  0.21366064  0.77019721  1
  H  H3  1  0.78633936  0.00382468  0.77019721  1
  H  H4  1  0.00382468  0.78633936  0.22980279  1
  H  H5  1  0.21366064  0.99617532  0.22980279  1
  H  H6  1  0.98910939  0.73266464  0.83018221  1
  H  H7  1  0.26733536  0.01089061  0.83018221  1
  H  H8  1  0.01089061  0.26733536  0.16981779  1
  H  H9  1  0.73266464  0.98910939  0.16981779  1
  H  H10  1  0.78611968  0.73835016  0.80563079  1
  H  H11  1  0.26164984  0.21388032  0.80563079  1
  H  H12  1  0.21388032  0.26164984  0.19436921  1
  H  H13  1  0.73835016  0.78611968  0.19436921  1
  H  H14  1  0.37444548  0.83451946  0.13666392  1
  H  H15  1  0.16548054  0.62555452  0.13666392  1
  H  H16  1  0.62555452  0.16548054  0.86333608  1
  H  H17  1  0.83451946  0.37444548  0.86333608  1
  H  H18  1  0.21370132  0.50860375  0.54830753  1
  H  H19  1  0.49139625  0.78629868  0.54830753  1
  H  H20  1  0.78629868  0.49139625  0.45169247  1
  H  H21  1  0.50860375  0.21370132  0.45169247  1
  H  H22  1  0.07826061  0.44372305  0.37004450  1
  H  H23  1  0.55627695  0.92173939  0.37004450  1
  H  H24  1  0.92173939  0.55627695  0.62995550  1
  H  H25  1  0.44372305  0.07826061  0.62995550  1
  C  C26  1  0.01433621  0.98566379  0.80155114  1
  C  C27  1  0.98566379  0.01433621  0.19844886  1
  C  C28  1  0.31955738  0.68044262  0.35406275  1
  C  C29  1  0.68044262  0.31955738  0.64593725  1
  N  N30  1  0.92457155  0.07542845  0.77951604  1
  N  N31  1  0.07542845  0.92457155  0.22048396  1
  N  N32  1  0.92319661  0.80450576  0.81277958  1
  N  N33  1  0.19549424  0.07680339  0.81277958  1
  N  N34  1  0.07680339  0.19549424  0.18722042  1
  N  N35  1  0.80450576  0.92319661  0.18722042  1
  N  N36  1  0.28416461  0.71583539  0.19627124  1
  N  N37  1  0.71583539  0.28416461  0.80372876  1
  N  N38  1  0.20080002  0.52639276  0.43291474  1
  N  N39  1  0.47360724  0.79919998  0.43291474  1
  N  N40  1  0.79919998  0.47360724  0.56708526  1
  N  N41  1  0.52639276  0.20080002  0.56708526  1
  F  F42  1  0.24053927  0.75946073  0.63660461  1
  F  F43  1  0.75946073  0.24053927  0.36339539  1
  F  F44  1  0.57047303  0.77193659  0.76871694  1
  F  F45  1  0.22806341  0.42952697  0.76871694  1
  F  F46  1  0.42952697  0.22806341  0.23128306  1
  F  F47  1  0.77193659  0.57047303  0.23128306  1
  F  F48  1  0.08026721  0.58049464  0.86717789  1
  F  F49  1  0.41950536  0.91973279  0.86717789  1
  F  F50  1  0.91973279  0.41950536  0.13282211  1
  F  F51  1  0.58049464  0.08026721  0.13282211  1
