# generated using pymatgen
data_CsUCrO6
_symmetry_space_group_name_H-M   'P 1'
_cell_length_a   7.59126229
_cell_length_b   8.44207926
_cell_length_c   10.63929746
_cell_angle_alpha   90.00000000
_cell_angle_beta   105.53920971
_cell_angle_gamma   90.00000000
_symmetry_Int_Tables_number   1
_chemical_formula_structural   CsUCrO6
_chemical_formula_sum   'Cs4 U4 Cr4 O24'
_cell_volume   656.90770898
_cell_formula_units_Z   4
loop_
 _symmetry_equiv_pos_site_id
 _symmetry_equiv_pos_as_xyz
  1  'x, y, z'
loop_
 _atom_site_type_symbol
 _atom_site_label
 _atom_site_symmetry_multiplicity
 _atom_site_fract_x
 _atom_site_fract_y
 _atom_site_fract_z
 _atom_site_occupancy
  Cs  Cs0  1  0.96226206  0.73838078  0.13292609  1
  Cs  Cs1  1  0.96226206  0.76161922  0.63292609  1
  Cs  Cs2  1  0.03773794  0.26161922  0.86707391  1
  Cs  Cs3  1  0.03773794  0.23838078  0.36707391  1
  U  U4  1  0.51064456  0.51757562  0.32284090  1
  U  U5  1  0.48935544  0.48242438  0.67715910  1
  U  U6  1  0.48935544  0.01757562  0.17715910  1
  U  U7  1  0.51064456  0.98242438  0.82284090  1
  Cr  Cr8  1  0.39680383  0.64335099  0.94333072  1
  Cr  Cr9  1  0.60319617  0.14335099  0.55666928  1
  Cr  Cr10  1  0.60319617  0.35664901  0.05666928  1
  Cr  Cr11  1  0.39680383  0.85664901  0.44333072  1
  O  O12  1  0.24117896  0.05442030  0.12240302  1
  O  O13  1  0.53282761  0.55957479  0.10535982  1
  O  O14  1  0.43517228  0.71119766  0.78781017  1
  O  O15  1  0.52578066  0.15685998  0.99337987  1
  O  O16  1  0.73660004  0.51962074  0.73705286  1
  O  O17  1  0.53282761  0.94042521  0.60535982  1
  O  O18  1  0.56482772  0.28880234  0.21218983  1
  O  O19  1  0.56482772  0.21119766  0.71218983  1
  O  O20  1  0.24117896  0.44557970  0.62240302  1
  O  O21  1  0.82051167  0.36696672  0.07193318  1
  O  O22  1  0.47421934  0.84314002  0.00662013  1
  O  O23  1  0.17948833  0.86696672  0.42806682  1
  O  O24  1  0.43517228  0.78880234  0.28781017  1
  O  O25  1  0.75882104  0.94557970  0.87759698  1
  O  O26  1  0.17948833  0.63303328  0.92806682  1
  O  O27  1  0.52578066  0.34314002  0.49337987  1
  O  O28  1  0.47421934  0.65685998  0.50662013  1
  O  O29  1  0.75882104  0.55442030  0.37759698  1
  O  O30  1  0.46717239  0.05957479  0.39464018  1
  O  O31  1  0.46717239  0.44042521  0.89464018  1
  O  O32  1  0.26339996  0.01962074  0.76294714  1
  O  O33  1  0.82051167  0.13303328  0.57193318  1
  O  O34  1  0.73660004  0.98037926  0.23705286  1
  O  O35  1  0.26339996  0.48037926  0.26294714  1
