# generated using pymatgen
data_CaP4(HO6)2
_symmetry_space_group_name_H-M   'P 1'
_cell_length_a   5.74777594
_cell_length_b   9.80678772
_cell_length_c   8.94700984
_cell_angle_alpha   90.00000000
_cell_angle_beta   92.15417742
_cell_angle_gamma   90.00000000
_symmetry_Int_Tables_number   1
_chemical_formula_structural   CaP4(HO6)2
_chemical_formula_sum   'Ca2 P8 H4 O24'
_cell_volume   503.96165606
_cell_formula_units_Z   2
loop_
 _symmetry_equiv_pos_site_id
 _symmetry_equiv_pos_as_xyz
  1  'x, y, z'
loop_
 _atom_site_type_symbol
 _atom_site_label
 _atom_site_symmetry_multiplicity
 _atom_site_fract_x
 _atom_site_fract_y
 _atom_site_fract_z
 _atom_site_occupancy
  Ca  Ca0  1  0.00000000  0.50000000  0.50000000  1
  Ca  Ca1  1  0.00000000  0.00000000  0.00000000  1
  P  P2  1  0.71504844  0.28689054  0.20020965  1
  P  P3  1  0.28495156  0.78689054  0.29979035  1
  P  P4  1  0.28495156  0.71310946  0.79979035  1
  P  P5  1  0.71504844  0.21310946  0.70020965  1
  P  P6  1  0.38867294  0.27578368  0.94208682  1
  P  P7  1  0.61132706  0.77578368  0.55791318  1
  P  P8  1  0.61132706  0.72421632  0.05791318  1
  P  P9  1  0.38867294  0.22421632  0.44208682  1
  H  H10  1  0.81134540  0.95065385  0.66170347  1
  H  H11  1  0.18865460  0.45065385  0.83829653  1
  H  H12  1  0.18865460  0.04934615  0.33829653  1
  H  H13  1  0.81134540  0.54934615  0.16170347  1
  O  O14  1  0.86301321  0.30900222  0.61750143  1
  O  O15  1  0.13698679  0.80900222  0.88249857  1
  O  O16  1  0.13698679  0.69099778  0.38249857  1
  O  O17  1  0.86301321  0.19099778  0.11750143  1
  O  O18  1  0.81440887  0.08616183  0.77300339  1
  O  O19  1  0.18559113  0.58616183  0.72699661  1
  O  O20  1  0.18559113  0.91383817  0.22699661  1
  O  O21  1  0.81440887  0.41383817  0.27300339  1
  O  O22  1  0.57939249  0.30566786  0.82067028  1
  O  O23  1  0.42060751  0.80566786  0.67932972  1
  O  O24  1  0.42060751  0.69433214  0.17932972  1
  O  O25  1  0.57939249  0.19433214  0.32067028  1
  O  O26  1  0.49846941  0.65650462  0.90897099  1
  O  O27  1  0.50153059  0.15650462  0.59102901  1
  O  O28  1  0.50153059  0.34349538  0.09102901  1
  O  O29  1  0.49846941  0.84349538  0.40897099  1
  O  O30  1  0.17509949  0.36740015  0.90401459  1
  O  O31  1  0.82490051  0.86740015  0.59598541  1
  O  O32  1  0.82490051  0.63259985  0.09598541  1
  O  O33  1  0.17509949  0.13259985  0.40401459  1
  O  O34  1  0.32910091  0.12967549  0.95822706  1
  O  O35  1  0.67089909  0.62967549  0.54177294  1
  O  O36  1  0.67089909  0.87032451  0.04177294  1
  O  O37  1  0.32910091  0.37032451  0.45822706  1
