# generated using pymatgen
data_Te4Mo3W(SeS)2
_symmetry_space_group_name_H-M   'P 1'
_cell_length_a   3.39887309
_cell_length_b   3.39886466
_cell_length_c   39.95661499
_cell_angle_alpha   90.00586139
_cell_angle_beta   90.00000000
_cell_angle_gamma   120.00008213
_symmetry_Int_Tables_number   1
_chemical_formula_structural   Te4Mo3W(SeS)2
_chemical_formula_sum   'Te4 Mo3 W1 Se2 S2'
_cell_volume   399.74936166
_cell_formula_units_Z   1
loop_
 _symmetry_equiv_pos_site_id
 _symmetry_equiv_pos_as_xyz
  1  'x, y, z'
loop_
 _atom_site_type_symbol
 _atom_site_label
 _atom_site_symmetry_multiplicity
 _atom_site_fract_x
 _atom_site_fract_y
 _atom_site_fract_z
 _atom_site_occupancy
  Te  Te0  1  0.33337657  0.66675415  0.70584724  1
  Te  Te1  1  0.66647661  0.33295221  0.42182606  1
  Te  Te2  1  0.66657428  0.33314756  0.51561318  1
  Te  Te3  1  0.33330321  0.66660742  0.61156205  1
  Mo  Mo4  1  0.33332498  0.66664996  0.09401333  1
  Mo  Mo5  1  0.33319210  0.66638419  0.46872220  1
  Mo  Mo6  1  0.66677689  0.33355378  0.28147221  1
  W  W7  1  0.66665986  0.33331972  0.65868412  1
  Se  Se8  1  0.33349914  0.66699928  0.32277377  1
  Se  Se9  1  0.33344411  0.66688922  0.24018649  1
  S  S10  1  0.66666351  0.33332601  0.05643995  1
  S  S11  1  0.66670875  0.33341650  0.13160739  1
