# generated using pymatgen
data_Sr2AlH7
_symmetry_space_group_name_H-M   'P 1'
_cell_length_a   9.37089650
_cell_length_b   8.40234789
_cell_length_c   9.37089650
_cell_angle_alpha   90.58720637
_cell_angle_beta   116.89779358
_cell_angle_gamma   126.90382338
_symmetry_Int_Tables_number   1
_chemical_formula_structural   Sr2AlH7
_chemical_formula_sum   'Sr8 Al4 H28'
_cell_volume   483.32390239
_cell_formula_units_Z   4
loop_
 _symmetry_equiv_pos_site_id
 _symmetry_equiv_pos_as_xyz
  1  'x, y, z'
loop_
 _atom_site_type_symbol
 _atom_site_label
 _atom_site_symmetry_multiplicity
 _atom_site_fract_x
 _atom_site_fract_y
 _atom_site_fract_z
 _atom_site_occupancy
  Sr  Sr0  1  0.74355723  0.16752013  0.26558936  1
  Sr  Sr1  1  0.09806923  0.33247987  0.07603611  1
  Sr  Sr2  1  0.25644277  0.83247987  0.73441064  1
  Sr  Sr3  1  0.90193077  0.66752013  0.92396389  1
  Sr  Sr4  1  0.77179703  0.70270760  0.29479172  1
  Sr  Sr5  1  0.59208412  0.79729240  0.56909043  1
  Sr  Sr6  1  0.22820297  0.29729240  0.70520828  1
  Sr  Sr7  1  0.40791588  0.20270760  0.43090957  1
  Al  Al8  1  0.13198855  0.65164381  0.32281265  1
  Al  Al9  1  0.67116884  0.84835619  0.98034474  1
  Al  Al10  1  0.86801145  0.34835619  0.67718735  1
  Al  Al11  1  0.32883116  0.15164381  0.01965526  1
  H  H12  1  0.96939858  0.57749609  0.39536386  1
  H  H13  1  0.81786677  0.92250391  0.89190249  1
  H  H14  1  0.03060142  0.42250391  0.60463614  1
  H  H15  1  0.18213323  0.07749609  0.10809751  1
  H  H16  1  0.15842354  0.46263314  0.39010909  1
  H  H17  1  0.92747596  0.03736686  0.19579040  1
  H  H18  1  0.84157646  0.53736686  0.60989091  1
  H  H19  1  0.07252404  0.96263314  0.80420960  1
  H  H20  1  0.35974404  0.86185194  0.52737801  1
  H  H21  1  0.66552607  0.63814806  0.99789310  1
  H  H22  1  0.64025596  0.13814806  0.47262199  1
  H  H23  1  0.33447393  0.36185194  0.00210790  1
  H  H24  1  0.30758455  0.71335517  0.26505725  1
  H  H25  1  0.55170108  0.78664483  0.09422938  1
  H  H26  1  0.69241545  0.28664483  0.73494275  1
  H  H27  1  0.44829892  0.21335517  0.90577062  1
  H  H28  1  0.08569048  0.81358880  0.24511253  1
  H  H29  1  0.43152373  0.68641120  0.77210168  1
  H  H30  1  0.91430952  0.18641120  0.75488747  1
  H  H31  1  0.56847627  0.31358880  0.22789832  1
  H  H32  1  0.91225467  0.44176902  0.11790565  1
  H  H33  1  0.67613663  0.05823098  0.97048565  1
  H  H34  1  0.08774533  0.55823098  0.88209435  1
  H  H35  1  0.32386337  0.94176902  0.02951435  1
  H  H36  1  0.46788003  0.50871819  0.33920576  1
  H  H37  1  0.83048757  0.99128181  0.45916184  1
  H  H38  1  0.53211997  0.49128181  0.66079424  1
  H  H39  1  0.16951243  0.00871819  0.54083816  1
