# generated using pymatgen
data_RbAs2H5O8
_symmetry_space_group_name_H-M   'P 1'
_cell_length_a   8.09415977
_cell_length_b   9.89663237
_cell_length_c   20.84199569
_cell_angle_alpha   90.00000000
_cell_angle_beta   90.00000000
_cell_angle_gamma   90.00000000
_symmetry_Int_Tables_number   1
_chemical_formula_structural   RbAs2H5O8
_chemical_formula_sum   'Rb8 As16 H40 O64'
_cell_volume   1669.54647216
_cell_formula_units_Z   8
loop_
 _symmetry_equiv_pos_site_id
 _symmetry_equiv_pos_as_xyz
  1  'x, y, z'
loop_
 _atom_site_type_symbol
 _atom_site_label
 _atom_site_symmetry_multiplicity
 _atom_site_fract_x
 _atom_site_fract_y
 _atom_site_fract_z
 _atom_site_occupancy
  Rb  Rb0  1  0.79722004  0.93143598  0.11773817  1
  Rb  Rb1  1  0.29722004  0.56856402  0.88226183  1
  Rb  Rb2  1  0.20277996  0.43143598  0.38226183  1
  Rb  Rb3  1  0.70277996  0.06856402  0.61773817  1
  Rb  Rb4  1  0.20277996  0.06856402  0.88226183  1
  Rb  Rb5  1  0.70277996  0.43143598  0.11773817  1
  Rb  Rb6  1  0.79722004  0.56856402  0.61773817  1
  Rb  Rb7  1  0.29722004  0.93143598  0.38226183  1
  As  As8  1  0.80979307  0.70310182  0.96056605  1
  As  As9  1  0.30979307  0.79689818  0.03943395  1
  As  As10  1  0.19020693  0.20310182  0.53943395  1
  As  As11  1  0.69020693  0.29689818  0.46056605  1
  As  As12  1  0.19020693  0.29689818  0.03943395  1
  As  As13  1  0.69020693  0.20310182  0.96056605  1
  As  As14  1  0.80979307  0.79689818  0.46056605  1
  As  As15  1  0.30979307  0.70310182  0.53943395  1
  As  As16  1  0.70185951  0.13098583  0.27765955  1
  As  As17  1  0.20185951  0.36901417  0.72234045  1
  As  As18  1  0.29814049  0.63098583  0.22234045  1
  As  As19  1  0.79814049  0.86901417  0.77765955  1
  As  As20  1  0.29814049  0.86901417  0.72234045  1
  As  As21  1  0.79814049  0.63098583  0.27765955  1
  As  As22  1  0.70185951  0.36901417  0.77765955  1
  As  As23  1  0.20185951  0.13098583  0.22234045  1
  H  H24  1  0.01383702  0.65195516  0.03539855  1
  H  H25  1  0.51383702  0.84804484  0.96460145  1
  H  H26  1  0.98616298  0.15195516  0.46460145  1
  H  H27  1  0.48616298  0.34804484  0.53539855  1
  H  H28  1  0.98616298  0.34804484  0.96460145  1
  H  H29  1  0.48616298  0.15195516  0.03539855  1
  H  H30  1  0.01383702  0.84804484  0.53539855  1
  H  H31  1  0.51383702  0.65195516  0.46460145  1
  H  H32  1  0.96207903  0.78575056  0.86668083  1
  H  H33  1  0.46207903  0.71424944  0.13331917  1
  H  H34  1  0.03792097  0.28575056  0.63331917  1
  H  H35  1  0.53792097  0.21424944  0.36668083  1
  H  H36  1  0.03792097  0.21424944  0.13331917  1
  H  H37  1  0.53792097  0.28575056  0.86668083  1
  H  H38  1  0.96207903  0.71424944  0.36668083  1
  H  H39  1  0.46207903  0.78575056  0.63331917  1
  H  H40  1  0.70241555  0.48866066  0.95034093  1
  H  H41  1  0.20241555  0.01133934  0.04965907  1
  H  H42  1  0.29758445  0.98866066  0.54965907  1
  H  H43  1  0.79758445  0.51133934  0.45034093  1
  H  H44  1  0.29758445  0.51133934  0.04965907  1
  H  H45  1  0.79758445  0.98866066  0.95034093  1
  H  H46  1  0.70241555  0.01133934  0.45034093  1
  H  H47  1  0.20241555  0.48866066  0.54965907  1
  H  H48  1  0.72972201  0.89467278  0.28706094  1
  H  H49  1  0.22972201  0.60532722  0.71293906  1
  H  H50  1  0.27027799  0.39467278  0.21293906  1
  H  H51  1  0.77027799  0.10532722  0.78706094  1
  H  H52  1  0.27027799  0.10532722  0.71293906  1
  H  H53  1  0.77027799  0.39467278  0.28706094  1
  H  H54  1  0.72972201  0.60532722  0.78706094  1
  H  H55  1  0.22972201  0.89467278  0.21293906  1
  H  H56  1  0.51846958  0.19499765  0.19812076  1
  H  H57  1  0.01846958  0.30500235  0.80187924  1
  H  H58  1  0.48153042  0.69499765  0.30187924  1
  H  H59  1  0.98153042  0.80500235  0.69812076  1
  H  H60  1  0.48153042  0.80500235  0.80187924  1
  H  H61  1  0.98153042  0.69499765  0.19812076  1
  H  H62  1  0.51846958  0.30500235  0.69812076  1
  H  H63  1  0.01846958  0.19499765  0.30187924  1
  O  O64  1  0.88692740  0.65434398  0.03617921  1
  O  O65  1  0.38692740  0.84565602  0.96382079  1
  O  O66  1  0.11307260  0.15434398  0.46382079  1
  O  O67  1  0.61307260  0.34565602  0.53617921  1
  O  O68  1  0.11307260  0.34565602  0.96382079  1
  O  O69  1  0.61307260  0.15434398  0.03617921  1
  O  O70  1  0.88692740  0.84565602  0.53617921  1
  O  O71  1  0.38692740  0.65434398  0.46382079  1
  O  O72  1  0.97243378  0.70111833  0.90834223  1
  O  O73  1  0.47243378  0.79888167  0.09165777  1
  O  O74  1  0.02756622  0.20111833  0.59165777  1
  O  O75  1  0.52756622  0.29888167  0.40834223  1
  O  O76  1  0.02756622  0.29888167  0.09165777  1
  O  O77  1  0.52756622  0.20111833  0.90834223  1
  O  O78  1  0.97243378  0.79888167  0.40834223  1
  O  O79  1  0.47243378  0.70111833  0.59165777  1
  O  O80  1  0.65497204  0.58435125  0.94412656  1
  O  O81  1  0.15497204  0.91564875  0.05587344  1
  O  O82  1  0.34502796  0.08435125  0.55587344  1
  O  O83  1  0.84502796  0.41564875  0.44412656  1
  O  O84  1  0.34502796  0.41564875  0.05587344  1
  O  O85  1  0.84502796  0.08435125  0.94412656  1
  O  O86  1  0.65497204  0.91564875  0.44412656  1
  O  O87  1  0.15497204  0.58435125  0.55587344  1
  O  O88  1  0.71085980  0.85380473  0.96603240  1
  O  O89  1  0.21085980  0.64619527  0.03396760  1
  O  O90  1  0.28914020  0.35380473  0.53396760  1
  O  O91  1  0.78914020  0.14619527  0.46603240  1
  O  O92  1  0.28914020  0.14619527  0.03396760  1
  O  O93  1  0.78914020  0.35380473  0.96603240  1
  O  O94  1  0.71085980  0.64619527  0.46603240  1
  O  O95  1  0.21085980  0.85380473  0.53396760  1
  O  O96  1  0.79871381  0.97407899  0.27067552  1
  O  O97  1  0.29871381  0.52592101  0.72932448  1
  O  O98  1  0.20128619  0.47407899  0.22932448  1
  O  O99  1  0.70128619  0.02592101  0.77067552  1
  O  O100  1  0.20128619  0.02592101  0.72932448  1
  O  O101  1  0.70128619  0.47407899  0.27067552  1
  O  O102  1  0.79871381  0.52592101  0.77067552  1
  O  O103  1  0.29871381  0.97407899  0.22932448  1
  O  O104  1  0.53178867  0.12437576  0.32637496  1
  O  O105  1  0.03178867  0.37562424  0.67362504  1
  O  O106  1  0.46821133  0.62437576  0.17362504  1
  O  O107  1  0.96821133  0.87562424  0.82637496  1
  O  O108  1  0.46821133  0.87562424  0.67362504  1
  O  O109  1  0.96821133  0.62437576  0.32637496  1
  O  O110  1  0.53178867  0.37562424  0.82637496  1
  O  O111  1  0.03178867  0.12437576  0.17362504  1
  O  O112  1  0.84096598  0.24693066  0.30410197  1
  O  O113  1  0.34096598  0.25306934  0.69589803  1
  O  O114  1  0.15903402  0.74693066  0.19589803  1
  O  O115  1  0.65903402  0.75306934  0.80410197  1
  O  O116  1  0.15903402  0.75306934  0.69589803  1
  O  O117  1  0.65903402  0.74693066  0.30410197  1
  O  O118  1  0.84096598  0.25306934  0.80410197  1
  O  O119  1  0.34096598  0.24693066  0.19589803  1
  O  O120  1  0.64201910  0.16737084  0.19835472  1
  O  O121  1  0.14201910  0.33262916  0.80164528  1
  O  O122  1  0.35798090  0.66737084  0.30164528  1
  O  O123  1  0.85798090  0.83262916  0.69835472  1
  O  O124  1  0.35798090  0.83262916  0.80164528  1
  O  O125  1  0.85798090  0.66737084  0.19835472  1
  O  O126  1  0.64201910  0.33262916  0.69835472  1
  O  O127  1  0.14201910  0.16737084  0.30164528  1
