# generated using pymatgen
data_Na2Cr2O7
_symmetry_space_group_name_H-M   'P 1'
_cell_length_a   7.77206039
_cell_length_b   9.49204487
_cell_length_c   10.15017174
_cell_angle_alpha   75.73951679
_cell_angle_beta   70.06605141
_cell_angle_gamma   70.35793772
_symmetry_Int_Tables_number   1
_chemical_formula_structural   Na2Cr2O7
_chemical_formula_sum   'Na8 Cr8 O28'
_cell_volume   655.60180830
_cell_formula_units_Z   4
loop_
 _symmetry_equiv_pos_site_id
 _symmetry_equiv_pos_as_xyz
  1  'x, y, z'
loop_
 _atom_site_type_symbol
 _atom_site_label
 _atom_site_symmetry_multiplicity
 _atom_site_fract_x
 _atom_site_fract_y
 _atom_site_fract_z
 _atom_site_occupancy
  Na  Na0  1  0.53393605  0.60643524  0.22620366  1
  Na  Na1  1  0.02608613  0.26381866  0.35195469  1
  Na  Na2  1  0.02467904  0.10199379  0.74079604  1
  Na  Na3  1  0.97532096  0.89800621  0.25920396  1
  Na  Na4  1  0.53207621  0.21483060  0.17382716  1
  Na  Na5  1  0.46606395  0.39356476  0.77379634  1
  Na  Na6  1  0.97391387  0.73618134  0.64804531  1
  Na  Na7  1  0.46792379  0.78516940  0.82617284  1
  Cr  Cr8  1  0.32455120  0.90910326  0.44193774  1
  Cr  Cr9  1  0.29806862  0.37143211  0.52863220  1
  Cr  Cr10  1  0.70193138  0.62856789  0.47136780  1
  Cr  Cr11  1  0.16788753  0.59114497  0.08083205  1
  Cr  Cr12  1  0.67544880  0.09089674  0.55806226  1
  Cr  Cr13  1  0.83211247  0.40885503  0.91916795  1
  Cr  Cr14  1  0.79420139  0.84784730  0.01145561  1
  Cr  Cr15  1  0.20579861  0.15215270  0.98854439  1
  O  O16  1  0.28742323  0.59225586  0.91249280  1
  O  O17  1  0.45632826  0.23011270  0.62085584  1
  O  O18  1  0.14985446  0.86222649  0.42386672  1
  O  O19  1  0.91637355  0.87653418  0.84507550  1
  O  O20  1  0.07991578  0.32420582  0.90071712  1
  O  O21  1  0.80242608  0.58219872  0.83680507  1
  O  O22  1  0.33507499  0.07436073  0.34751082  1
  O  O23  1  0.85014554  0.13777351  0.57613328  1
  O  O24  1  0.92008422  0.67579418  0.09928288  1
  O  O25  1  0.75722149  0.47502073  0.40223397  1
  O  O26  1  0.77111685  0.98615240  0.09227359  1
  O  O27  1  0.22888315  0.01384760  0.90772641  1
  O  O28  1  0.89037934  0.68391867  0.44632104  1
  O  O29  1  0.19757392  0.41780128  0.16319493  1
  O  O30  1  0.24523199  0.69000793  0.14886668  1
  O  O31  1  0.71257677  0.40774414  0.08750720  1
  O  O32  1  0.58867886  0.82516378  0.02638497  1
  O  O33  1  0.59082494  0.60264370  0.64001717  1
  O  O34  1  0.75476801  0.30999207  0.85113332  1
  O  O35  1  0.66492501  0.92563927  0.65248918  1
  O  O36  1  0.71585520  0.08390016  0.39078849  1
  O  O37  1  0.54367174  0.76988730  0.37914416  1
  O  O38  1  0.40917506  0.39735630  0.35998283  1
  O  O39  1  0.41132114  0.17483622  0.97361503  1
  O  O40  1  0.10962066  0.31608133  0.55367896  1
  O  O41  1  0.28414480  0.91609984  0.60921151  1
  O  O42  1  0.08362645  0.12346582  0.15492450  1
  O  O43  1  0.24277851  0.52497927  0.59776603  1
