# generated using pymatgen
data_K2SiH4(NO)2
_symmetry_space_group_name_H-M   'P 1'
_cell_length_a   6.80212914
_cell_length_b   10.20395775
_cell_length_c   7.64133792
_cell_angle_alpha   90.00000000
_cell_angle_beta   91.81119936
_cell_angle_gamma   90.00000000
_symmetry_Int_Tables_number   1
_chemical_formula_structural   K2SiH4(NO)2
_chemical_formula_sum   'K8 Si4 H16 N8 O8'
_cell_volume   530.10988630
_cell_formula_units_Z   4
loop_
 _symmetry_equiv_pos_site_id
 _symmetry_equiv_pos_as_xyz
  1  'x, y, z'
loop_
 _atom_site_type_symbol
 _atom_site_label
 _atom_site_symmetry_multiplicity
 _atom_site_fract_x
 _atom_site_fract_y
 _atom_site_fract_z
 _atom_site_occupancy
  K  K0  1  0.34759862  0.43606510  0.15709557  1
  K  K1  1  0.65240138  0.93606510  0.34290443  1
  K  K2  1  0.65240138  0.56393490  0.84290443  1
  K  K3  1  0.34759862  0.06393490  0.65709557  1
  K  K4  1  0.34248378  0.80411583  0.97968982  1
  K  K5  1  0.65751622  0.30411583  0.52031018  1
  K  K6  1  0.65751622  0.19588417  0.02031018  1
  K  K7  1  0.34248378  0.69588417  0.47968982  1
  Si  Si8  1  0.78424790  0.57348768  0.25821969  1
  Si  Si9  1  0.21575210  0.07348768  0.24178031  1
  Si  Si10  1  0.21575210  0.42651232  0.74178031  1
  Si  Si11  1  0.78424790  0.92651232  0.75821969  1
  H  H12  1  0.95522984  0.12078690  0.43657393  1
  H  H13  1  0.04477016  0.62078690  0.06342607  1
  H  H14  1  0.04477016  0.87921310  0.56342607  1
  H  H15  1  0.95522984  0.37921310  0.93657393  1
  H  H16  1  0.95337726  0.22799608  0.27416802  1
  H  H17  1  0.04662274  0.72799608  0.22583198  1
  H  H18  1  0.04662274  0.77200392  0.72583198  1
  H  H19  1  0.95337726  0.27200392  0.77416802  1
  H  H20  1  0.23732280  0.18166563  0.96249443  1
  H  H21  1  0.76267720  0.68166563  0.53750557  1
  H  H22  1  0.76267720  0.81833437  0.03750557  1
  H  H23  1  0.23732280  0.31833437  0.46249443  1
  H  H24  1  0.09919526  0.04924831  0.93808924  1
  H  H25  1  0.90080474  0.54924831  0.56191076  1
  H  H26  1  0.90080474  0.95075169  0.06191076  1
  H  H27  1  0.09919526  0.45075169  0.43808924  1
  N  N28  1  0.02069313  0.86883896  0.69459486  1
  N  N29  1  0.97930687  0.36883896  0.80540514  1
  N  N30  1  0.97930687  0.13116104  0.30540514  1
  N  N31  1  0.02069313  0.63116104  0.19459486  1
  N  N32  1  0.21464441  0.08828644  0.00950987  1
  N  N33  1  0.78535559  0.58828644  0.49049013  1
  N  N34  1  0.78535559  0.91171356  0.99049013  1
  N  N35  1  0.21464441  0.41171356  0.50950987  1
  O  O36  1  0.39575796  0.16622310  0.31329017  1
  O  O37  1  0.60424204  0.66622310  0.18670983  1
  O  O38  1  0.60424204  0.83377690  0.68670983  1
  O  O39  1  0.39575796  0.33377690  0.81329017  1
  O  O40  1  0.22914284  0.92133954  0.30279680  1
  O  O41  1  0.77085716  0.42133954  0.19720320  1
  O  O42  1  0.77085716  0.07866046  0.69720320  1
  O  O43  1  0.22914284  0.57866046  0.80279680  1
