# generated using pymatgen
data_AgB11H6CBr6
_symmetry_space_group_name_H-M   'P 1'
_cell_length_a   12.04996996
_cell_length_b   11.36629550
_cell_length_c   13.16828271
_cell_angle_alpha   90.00000000
_cell_angle_beta   90.00000000
_cell_angle_gamma   90.00000000
_symmetry_Int_Tables_number   1
_chemical_formula_structural   AgB11H6CBr6
_chemical_formula_sum   'Ag4 B44 H24 C4 Br24'
_cell_volume   1803.57434351
_cell_formula_units_Z   4
loop_
 _symmetry_equiv_pos_site_id
 _symmetry_equiv_pos_as_xyz
  1  'x, y, z'
loop_
 _atom_site_type_symbol
 _atom_site_label
 _atom_site_symmetry_multiplicity
 _atom_site_fract_x
 _atom_site_fract_y
 _atom_site_fract_z
 _atom_site_occupancy
  Ag  Ag0  1  0.50000000  0.00000000  0.50000000  1
  Ag  Ag1  1  0.00000000  0.50000000  0.00000000  1
  Ag  Ag2  1  0.50000000  0.50000000  0.50000000  1
  Ag  Ag3  1  0.00000000  0.00000000  0.00000000  1
  B  B4  1  0.91925564  0.17172668  0.49700212  1
  B  B5  1  0.41925564  0.32827332  0.00299788  1
  B  B6  1  0.08074436  0.67172668  0.50299788  1
  B  B7  1  0.58074436  0.82827332  0.99700212  1
  B  B8  1  0.08074436  0.82827332  0.50299788  1
  B  B9  1  0.58074436  0.67172668  0.99700212  1
  B  B10  1  0.91925564  0.32827332  0.49700212  1
  B  B11  1  0.41925564  0.17172668  0.00299788  1
  B  B12  1  0.85772553  0.12338030  0.61304279  1
  B  B13  1  0.35772553  0.37661970  0.88695721  1
  B  B14  1  0.14227447  0.62338030  0.38695721  1
  B  B15  1  0.64227447  0.87661970  0.11304279  1
  B  B16  1  0.14227447  0.87661970  0.38695721  1
  B  B17  1  0.64227447  0.62338030  0.11304279  1
  B  B18  1  0.85772553  0.37661970  0.61304279  1
  B  B19  1  0.35772553  0.12338030  0.88695721  1
  B  B20  1  0.81962507  0.25000000  0.68497640  1
  B  B21  1  0.31962507  0.25000000  0.81502360  1
  B  B22  1  0.18037493  0.75000000  0.31502360  1
  B  B23  1  0.68037493  0.75000000  0.18497640  1
  B  B24  1  0.77960886  0.12239275  0.49878528  1
  B  B25  1  0.27960886  0.37760725  0.00121472  1
  B  B26  1  0.22039114  0.62239275  0.50121472  1
  B  B27  1  0.72039114  0.87760725  0.99878528  1
  B  B28  1  0.22039114  0.87760725  0.50121472  1
  B  B29  1  0.72039114  0.62239275  0.99878528  1
  B  B30  1  0.77960886  0.37760725  0.49878528  1
  B  B31  1  0.27960886  0.12239275  0.00121472  1
  B  B32  1  0.71766144  0.17133970  0.61517326  1
  B  B33  1  0.21766144  0.32866030  0.88482674  1
  B  B34  1  0.28233856  0.67133970  0.38482674  1
  B  B35  1  0.78233856  0.82866030  0.11517326  1
  B  B36  1  0.28233856  0.82866030  0.38482674  1
  B  B37  1  0.78233856  0.67133970  0.11517326  1
  B  B38  1  0.71766144  0.32866030  0.61517326  1
  B  B39  1  0.21766144  0.17133970  0.88482674  1
  B  B40  1  0.81776402  0.25000000  0.42521459  1
  B  B41  1  0.31776402  0.25000000  0.07478541  1
  B  B42  1  0.18223598  0.75000000  0.57478541  1
  B  B43  1  0.68223598  0.75000000  0.92521459  1
  B  B44  1  0.69290662  0.25000000  0.49939692  1
  B  B45  1  0.19290662  0.25000000  0.00060308  1
  B  B46  1  0.30709338  0.75000000  0.50060308  1
  B  B47  1  0.80709338  0.75000000  0.99939692  1
  H  H48  1  0.01262651  0.25000000  0.64315064  1
  H  H49  1  0.51262651  0.25000000  0.85684936  1
  H  H50  1  0.98737349  0.75000000  0.35684936  1
  H  H51  1  0.48737349  0.75000000  0.14315064  1
  H  H52  1  0.99709155  0.12065961  0.46385657  1
  H  H53  1  0.49709155  0.37934039  0.03614343  1
  H  H54  1  0.00290845  0.62065961  0.53614343  1
  H  H55  1  0.50290845  0.87934039  0.96385657  1
  H  H56  1  0.00290845  0.87934039  0.53614343  1
  H  H57  1  0.50290845  0.62065961  0.96385657  1
  H  H58  1  0.99709155  0.37934039  0.46385657  1
  H  H59  1  0.49709155  0.12065961  0.03614343  1
  H  H60  1  0.89380351  0.03943753  0.65514165  1
  H  H61  1  0.39380351  0.46056247  0.84485835  1
  H  H62  1  0.10619649  0.53943753  0.34485835  1
  H  H63  1  0.60619649  0.96056247  0.15514165  1
  H  H64  1  0.10619649  0.96056247  0.34485835  1
  H  H65  1  0.60619649  0.53943753  0.15514165  1
  H  H66  1  0.89380351  0.46056247  0.65514165  1
  H  H67  1  0.39380351  0.03943753  0.84485835  1
  H  H68  1  0.83177252  0.25000000  0.77445274  1
  H  H69  1  0.33177252  0.25000000  0.72554726  1
  H  H70  1  0.16822748  0.75000000  0.22554726  1
  H  H71  1  0.66822748  0.75000000  0.27445274  1
  C  C72  1  0.93197561  0.25000000  0.60667816  1
  C  C73  1  0.43197561  0.25000000  0.89332184  1
  C  C74  1  0.06802439  0.75000000  0.39332184  1
  C  C75  1  0.56802439  0.75000000  0.10667816  1
  Br  Br76  1  0.73111108  0.97324703  0.43586986  1
  Br  Br77  1  0.23111108  0.52675297  0.06413014  1
  Br  Br78  1  0.26888892  0.47324703  0.56413014  1
  Br  Br79  1  0.76888892  0.02675297  0.93586986  1
  Br  Br80  1  0.26888892  0.02675297  0.56413014  1
  Br  Br81  1  0.76888892  0.47324703  0.93586986  1
  Br  Br82  1  0.73111108  0.52675297  0.43586986  1
  Br  Br83  1  0.23111108  0.97324703  0.06413014  1
  Br  Br84  1  0.59922993  0.07947877  0.68218384  1
  Br  Br85  1  0.09922993  0.42052123  0.81781616  1
  Br  Br86  1  0.40077007  0.57947877  0.31781616  1
  Br  Br87  1  0.90077007  0.92052123  0.18218384  1
  Br  Br88  1  0.40077007  0.92052123  0.31781616  1
  Br  Br89  1  0.90077007  0.57947877  0.18218384  1
  Br  Br90  1  0.59922993  0.42052123  0.68218384  1
  Br  Br91  1  0.09922993  0.07947877  0.81781616  1
  Br  Br92  1  0.81450120  0.25000000  0.27663407  1
  Br  Br93  1  0.31450120  0.25000000  0.22336593  1
  Br  Br94  1  0.18549880  0.75000000  0.72336593  1
  Br  Br95  1  0.68549880  0.75000000  0.77663407  1
  Br  Br96  1  0.54609405  0.25000000  0.43349819  1
  Br  Br97  1  0.04609405  0.25000000  0.06650181  1
  Br  Br98  1  0.45390595  0.75000000  0.56650181  1
  Br  Br99  1  0.95390595  0.75000000  0.93349819  1
