# generated using pymatgen
data_Rb2B10H6O19
_symmetry_space_group_name_H-M   'P 1'
_cell_length_a   7.72048848
_cell_length_b   9.32809955
_cell_length_c   12.26994292
_cell_angle_alpha   99.19406054
_cell_angle_beta   105.93714033
_cell_angle_gamma   91.59481136
_symmetry_Int_Tables_number   1
_chemical_formula_structural   Rb2B10H6O19
_chemical_formula_sum   'Rb4 B20 H12 O38'
_cell_volume   836.37338830
_cell_formula_units_Z   2
loop_
 _symmetry_equiv_pos_site_id
 _symmetry_equiv_pos_as_xyz
  1  'x, y, z'
loop_
 _atom_site_type_symbol
 _atom_site_label
 _atom_site_symmetry_multiplicity
 _atom_site_fract_x
 _atom_site_fract_y
 _atom_site_fract_z
 _atom_site_occupancy
  Rb  Rb0  1  0.07517305  0.26132082  0.79299562  1
  Rb  Rb1  1  0.51260105  0.94936012  0.74490166  1
  Rb  Rb2  1  0.48739895  0.05063988  0.25509834  1
  Rb  Rb3  1  0.92482695  0.73867918  0.20700438  1
  B  B4  1  0.00008171  0.85911276  0.73201226  1
  B  B5  1  0.17962641  0.94724439  0.93650183  1
  B  B6  1  0.00854766  0.75976049  0.53049739  1
  B  B7  1  0.17596518  0.04252264  0.44011486  1
  B  B8  1  0.04430301  0.25318573  0.10458078  1
  B  B9  1  0.36847284  0.82873397  0.44002582  1
  B  B10  1  0.57726597  0.33368329  0.92997293  1
  B  B11  1  0.23071209  0.48162167  0.10369714  1
  B  B12  1  0.41655570  0.35377486  0.52943452  1
  B  B13  1  0.58909463  0.33639072  0.73016707  1
  B  B14  1  0.41090537  0.66360928  0.26983293  1
  B  B15  1  0.58344430  0.64622514  0.47056548  1
  B  B16  1  0.76928791  0.51837833  0.89630286  1
  B  B17  1  0.42273403  0.66631671  0.07002707  1
  B  B18  1  0.63152716  0.17126603  0.55997418  1
  B  B19  1  0.95569699  0.74681427  0.89541922  1
  B  B20  1  0.82403482  0.95747736  0.55988514  1
  B  B21  1  0.99145234  0.24023951  0.46950261  1
  B  B22  1  0.82037359  0.05275561  0.06349817  1
  B  B23  1  0.99991829  0.14088724  0.26798774  1
  H  H24  1  0.37178702  0.55472906  0.72746072  1
  H  H25  1  0.13624786  0.58528145  0.47868195  1
  H  H26  1  0.22908835  0.67418690  0.72651819  1
  H  H27  1  0.42156850  0.69234481  0.91089537  1
  H  H28  1  0.26938986  0.38803590  0.37330858  1
  H  H29  1  0.62904171  0.88094777  0.00318989  1
  H  H30  1  0.37095829  0.11905223  0.99681011  1
  H  H31  1  0.73061014  0.61196410  0.62669142  1
  H  H32  1  0.57843150  0.30765519  0.08910463  1
  H  H33  1  0.77091165  0.32581310  0.27348181  1
  H  H34  1  0.86375214  0.41471855  0.52131805  1
  H  H35  1  0.62821298  0.44527094  0.27253928  1
  O  O36  1  0.08888807  0.84341557  0.97487523  1
  O  O37  1  0.14823805  0.95058639  0.82125141  1
  O  O38  1  0.07858817  0.77128908  0.64717436  1
  O  O39  1  0.05333974  0.65822880  0.45081027  1
  O  O40  1  0.11356349  0.14200683  0.51531737  1
  O  O41  1  0.12893578  0.04315004  0.32496855  1
  O  O42  1  0.09551092  0.24304554  0.21861049  1
  O  O43  1  0.33494157  0.63509433  0.77673408  1
  O  O44  1  0.47953174  0.73668565  0.99438402  1
  O  O45  1  0.29277072  0.94542008  0.49082478  1
  O  O46  1  0.29251407  0.42418623  0.45600273  1
  O  O47  1  0.11875570  0.35583718  0.05686101  1
  O  O48  1  0.51046572  0.28252061  0.81452279  1
  O  O49  1  0.26625765  0.54560468  0.21581564  1
  O  O50  1  0.44515316  0.39452628  0.64499158  1
  O  O51  1  0.33070834  0.78763663  0.32452366  1
  O  O52  1  0.70046452  0.95484601  0.97990959  1
  O  O53  1  0.49300610  0.75888943  0.51598902  1
  O  O54  1  0.69890695  0.45667188  0.97258075  1
  O  O55  1  0.30109305  0.54332812  0.02741925  1
  O  O56  1  0.50699390  0.24111057  0.48401098  1
  O  O57  1  0.29953548  0.04515399  0.02009041  1
  O  O58  1  0.66929166  0.21236337  0.67547634  1
  O  O59  1  0.55484684  0.60547372  0.35500842  1
  O  O60  1  0.73374235  0.45439532  0.78418436  1
  O  O61  1  0.48953428  0.71747939  0.18547721  1
  O  O62  1  0.88124430  0.64416282  0.94313899  1
  O  O63  1  0.70748593  0.57581377  0.54399727  1
  O  O64  1  0.70722928  0.05457992  0.50917522  1
  O  O65  1  0.52046826  0.26331435  0.00561598  1
  O  O66  1  0.66505843  0.36490567  0.22326592  1
  O  O67  1  0.90448908  0.75695446  0.78138951  1
  O  O68  1  0.87106422  0.95684996  0.67503145  1
  O  O69  1  0.88643651  0.85799317  0.48468263  1
  O  O70  1  0.94666026  0.34177120  0.54918973  1
  O  O71  1  0.92141183  0.22871092  0.35282564  1
  O  O72  1  0.85176195  0.04941361  0.17874859  1
  O  O73  1  0.91111193  0.15658443  0.02512477  1
