# generated using pymatgen
data_Na2CdH4(SeO5)2
_symmetry_space_group_name_H-M   'P 1'
_cell_length_a   6.09664795
_cell_length_b   13.59348012
_cell_length_c   5.92411816
_cell_angle_alpha   90.00000000
_cell_angle_beta   106.53848482
_cell_angle_gamma   90.00000000
_symmetry_Int_Tables_number   1
_chemical_formula_structural   Na2CdH4(SeO5)2
_chemical_formula_sum   'Na4 Cd2 H8 Se4 O20'
_cell_volume   470.64769450
_cell_formula_units_Z   2
loop_
 _symmetry_equiv_pos_site_id
 _symmetry_equiv_pos_as_xyz
  1  'x, y, z'
loop_
 _atom_site_type_symbol
 _atom_site_label
 _atom_site_symmetry_multiplicity
 _atom_site_fract_x
 _atom_site_fract_y
 _atom_site_fract_z
 _atom_site_occupancy
  Na  Na0  1  0.57722693  0.37836974  0.74805352  1
  Na  Na1  1  0.42277307  0.87836974  0.75194648  1
  Na  Na2  1  0.42277307  0.62163026  0.25194648  1
  Na  Na3  1  0.57722693  0.12163026  0.24805352  1
  Cd  Cd4  1  0.00000000  0.50000000  0.50000000  1
  Cd  Cd5  1  0.00000000  0.00000000  0.00000000  1
  H  H6  1  0.90081872  0.29300100  0.50335185  1
  H  H7  1  0.09918128  0.79300100  0.99664815  1
  H  H8  1  0.09918128  0.70699900  0.49664815  1
  H  H9  1  0.90081872  0.20699900  0.00335185  1
  H  H10  1  0.68524812  0.34293178  0.32379141  1
  H  H11  1  0.31475188  0.84293178  0.17620859  1
  H  H12  1  0.31475188  0.65706822  0.67620859  1
  H  H13  1  0.68524812  0.15706822  0.82379141  1
  Se  Se14  1  0.23607129  0.38044963  0.07448570  1
  Se  Se15  1  0.76392871  0.88044963  0.42551430  1
  Se  Se16  1  0.76392871  0.61955037  0.92551430  1
  Se  Se17  1  0.23607129  0.11955037  0.57448570  1
  O  O18  1  0.98076243  0.32657104  0.01211527  1
  O  O19  1  0.01923757  0.82657104  0.48788473  1
  O  O20  1  0.01923757  0.67342896  0.98788473  1
  O  O21  1  0.98076243  0.17342896  0.51211527  1
  O  O22  1  0.28793647  0.44448785  0.32899323  1
  O  O23  1  0.71206353  0.94448785  0.17100677  1
  O  O24  1  0.71206353  0.55551215  0.67100677  1
  O  O25  1  0.28793647  0.05551215  0.82899323  1
  O  O26  1  0.25207936  0.45974945  0.85970145  1
  O  O27  1  0.74792064  0.95974945  0.64029855  1
  O  O28  1  0.74792064  0.54025055  0.14029855  1
  O  O29  1  0.25207936  0.04025055  0.35970145  1
  O  O30  1  0.45115668  0.30104969  0.09608455  1
  O  O31  1  0.54884332  0.80104969  0.40391545  1
  O  O32  1  0.54884332  0.69895031  0.90391545  1
  O  O33  1  0.45115668  0.19895031  0.59608455  1
  O  O34  1  0.80368325  0.35351254  0.47779984  1
  O  O35  1  0.19631675  0.85351254  0.02220016  1
  O  O36  1  0.19631675  0.64648746  0.52220016  1
  O  O37  1  0.80368325  0.14648746  0.97779984  1
