# generated using pymatgen
data_Ba2AlH7
_symmetry_space_group_name_H-M   'P 1'
_cell_length_a   9.98500166
_cell_length_b   8.81390020
_cell_length_c   9.98500166
_cell_angle_alpha   90.94799236
_cell_angle_beta   117.63825381
_cell_angle_gamma   126.21385044
_symmetry_Int_Tables_number   1
_chemical_formula_structural   Ba2AlH7
_chemical_formula_sum   'Ba8 Al4 H28'
_cell_volume   573.83015340
_cell_formula_units_Z   4
loop_
 _symmetry_equiv_pos_site_id
 _symmetry_equiv_pos_as_xyz
  1  'x, y, z'
loop_
 _atom_site_type_symbol
 _atom_site_label
 _atom_site_symmetry_multiplicity
 _atom_site_fract_x
 _atom_site_fract_y
 _atom_site_fract_z
 _atom_site_occupancy
  Ba  Ba0  1  0.74196114  0.17058074  0.25930393  1
  Ba  Ba1  1  0.08872320  0.32941926  0.07138041  1
  Ba  Ba2  1  0.25803886  0.82941926  0.74069607  1
  Ba  Ba3  1  0.91127680  0.67058074  0.92861959  1
  Ba  Ba4  1  0.76111832  0.69520683  0.28062149  1
  Ba  Ba5  1  0.58541466  0.80479317  0.56591149  1
  Ba  Ba6  1  0.23888168  0.30479317  0.71937851  1
  Ba  Ba7  1  0.41458534  0.19520683  0.43408851  1
  Al  Al8  1  0.12060524  0.65240515  0.31820828  1
  Al  Al9  1  0.66580314  0.84759485  0.96820009  1
  Al  Al10  1  0.87939476  0.34759485  0.68179172  1
  Al  Al11  1  0.33419686  0.15240515  0.03179991  1
  H  H12  1  0.97122997  0.57706922  0.39060373  1
  H  H13  1  0.81353451  0.92293078  0.89416075  1
  H  H14  1  0.02877003  0.42293078  0.60939627  1
  H  H15  1  0.18646549  0.07706922  0.10583925  1
  H  H16  1  0.15805186  0.48184454  0.37704786  1
  H  H17  1  0.89520332  0.01815546  0.17620731  1
  H  H18  1  0.84194814  0.51815546  0.62295214  1
  H  H19  1  0.10479668  0.98184454  0.82379269  1
  H  H20  1  0.33951816  0.85687706  0.51200339  1
  H  H21  1  0.65512633  0.64312294  0.98264110  1
  H  H22  1  0.66048184  0.14312294  0.48799661  1
  H  H23  1  0.34487367  0.35687706  0.01735890  1
  H  H24  1  0.27948458  0.72466620  0.25392075  1
  H  H25  1  0.52925455  0.77533380  0.05481838  1
  H  H26  1  0.72051542  0.27533380  0.74607925  1
  H  H27  1  0.47074545  0.22466620  0.94518162  1
  H  H28  1  0.06798514  0.80378404  0.24719467  1
  H  H29  1  0.44341063  0.69621596  0.76420110  1
  H  H30  1  0.93201486  0.19621596  0.75280533  1
  H  H31  1  0.55658937  0.30378404  0.23579890  1
  H  H32  1  0.91098996  0.44966567  0.12359297  1
  H  H33  1  0.67392731  0.05033433  0.96132429  1
  H  H34  1  0.08901004  0.55033433  0.87640703  1
  H  H35  1  0.32607269  0.94966567  0.03867571  1
  H  H36  1  0.46381674  0.51050270  0.33772038  1
  H  H37  1  0.82721768  0.98949730  0.45331404  1
  H  H38  1  0.53618326  0.48949730  0.66227962  1
  H  H39  1  0.17278232  0.01050270  0.54668596  1
