# generated using pymatgen
data_K2SiAs2
_symmetry_space_group_name_H-M   'P 1'
_cell_length_a   6.43864478
_cell_length_b   7.07408753
_cell_length_c   8.24891665
_cell_angle_alpha   115.39072425
_cell_angle_beta   112.97143408
_cell_angle_gamma   89.99999997
_symmetry_Int_Tables_number   1
_chemical_formula_structural   K2SiAs2
_chemical_formula_sum   'K4 Si2 As4'
_cell_volume   306.11845340
_cell_formula_units_Z   2
loop_
 _symmetry_equiv_pos_site_id
 _symmetry_equiv_pos_as_xyz
  1  'x, y, z'
loop_
 _atom_site_type_symbol
 _atom_site_label
 _atom_site_symmetry_multiplicity
 _atom_site_fract_x
 _atom_site_fract_y
 _atom_site_fract_z
 _atom_site_occupancy
  Si  Si0  1  0.25000000  0.50000000  0.00000000  1
  Si  Si1  1  0.75000000  0.50000000  0.00000000  1
  K  K2  1  0.85688284  0.02177205  0.71376568  1
  K  K3  1  0.35688284  0.69199364  0.71376568  1
  K  K4  1  0.64311716  0.30800636  0.28623432  1
  K  K5  1  0.14311716  0.97822795  0.28623432  1
  As  As6  1  0.60090549  0.76606817  0.20181099  1
  As  As7  1  0.10090549  0.43574282  0.20181099  1
  As  As8  1  0.89909451  0.56425718  0.79818901  1
  As  As9  1  0.39909451  0.23393183  0.79818901  1
