# generated using pymatgen
data_Cr(Bi7O12)2
_symmetry_space_group_name_H-M   'P 1'
_cell_length_a   8.89740953
_cell_length_b   8.89417731
_cell_length_c   10.46863531
_cell_angle_alpha   114.44590803
_cell_angle_beta   114.14513955
_cell_angle_gamma   90.63093484
_symmetry_Int_Tables_number   1
_chemical_formula_structural   Cr(Bi7O12)2
_chemical_formula_sum   'Cr1 Bi14 O24'
_cell_volume   671.78551071
_cell_formula_units_Z   1
loop_
 _symmetry_equiv_pos_site_id
 _symmetry_equiv_pos_as_xyz
  1  'x, y, z'
loop_
 _atom_site_type_symbol
 _atom_site_label
 _atom_site_symmetry_multiplicity
 _atom_site_fract_x
 _atom_site_fract_y
 _atom_site_fract_z
 _atom_site_occupancy
  Cr  Cr0  1  0.95894002  0.99173769  0.95466243  1
  Bi  Bi1  1  0.12917285  0.94382306  0.66421681  1
  Bi  Bi2  1  0.05476393  0.46798348  0.33320495  1
  Bi  Bi3  1  0.33903223  0.33719325  0.67613729  1
  Bi  Bi4  1  0.27300327  0.86938093  0.32823018  1
  Bi  Bi5  1  0.21530307  0.43589434  0.99914104  1
  Bi  Bi6  1  0.52549381  0.72161365  0.65799418  1
  Bi  Bi7  1  0.46549937  0.27676182  0.33245736  1
  Bi  Bi8  1  0.44092399  0.78169825  0.99791743  1
  Bi  Bi9  1  0.71635148  0.12953794  0.66368072  1
  Bi  Bi10  1  0.65787580  0.66032636  0.32429476  1
  Bi  Bi11  1  0.56136003  0.21591970  0.99979857  1
  Bi  Bi12  1  0.93949460  0.52786046  0.66089860  1
  Bi  Bi13  1  0.86697794  0.05614897  0.33197172  1
  Bi  Bi14  1  0.78554549  0.56286558  0.00112438  1
  O  O15  1  0.14676096  0.10499377  0.01619975  1
  O  O16  1  0.99846248  0.33037406  0.49446105  1
  O  O17  1  0.23424661  0.54107163  0.83927447  1
  O  O18  1  0.29641355  0.23765529  0.83539764  1
  O  O19  1  0.16766401  0.00233930  0.49704506  1
  O  O20  1  0.11032858  0.62070891  0.22799890  1
  O  O21  1  0.38093911  0.88435602  0.76809539  1
  O  O22  1  0.32788416  0.49875854  0.49531814  1
  O  O23  1  0.53798938  0.60389356  0.84003851  1
  O  O24  1  0.59638613  0.30658524  0.83870874  1
  O  O25  1  0.49110389  0.82856307  0.49017167  1
  O  O26  1  0.49693110  0.17248917  0.50340465  1
  O  O27  1  0.39802064  0.69518593  0.15866046  1
  O  O28  1  0.46258286  0.40319662  0.16362954  1
  O  O29  1  0.82635727  0.12156653  0.98099170  1
  O  O30  1  0.66600634  0.49607393  0.49606792  1
  O  O31  1  0.61712203  0.11706795  0.23120006  1
  O  O32  1  0.88547699  0.37852266  0.77119699  1
  O  O33  1  0.88201382  0.86669731  0.75997624  1
  O  O34  1  0.83334327  0.00288106  0.50059977  1
  O  O35  1  0.69840820  0.76450121  0.16067455  1
  O  O36  1  0.76246563  0.46366680  0.16341262  1
  O  O37  1  0.00314231  0.66687935  0.50061733  1
  O  O38  1  0.97151280  0.87552657  0.04772842  1
