# generated using pymatgen
data_In2(MoO4)3
_symmetry_space_group_name_H-M   'P 1'
_cell_length_a   9.88499576
_cell_length_b   16.58889578
_cell_length_c   16.78781078
_cell_angle_alpha   108.62315846
_cell_angle_beta   90.00000000
_cell_angle_gamma   90.00000000
_symmetry_Int_Tables_number   1
_chemical_formula_structural   In2(MoO4)3
_chemical_formula_sum   'In16 Mo24 O96'
_cell_volume   2608.74209649
_cell_formula_units_Z   8
loop_
 _symmetry_equiv_pos_site_id
 _symmetry_equiv_pos_as_xyz
  1  'x, y, z'
loop_
 _atom_site_type_symbol
 _atom_site_label
 _atom_site_symmetry_multiplicity
 _atom_site_fract_x
 _atom_site_fract_y
 _atom_site_fract_z
 _atom_site_occupancy
  In  In0  1  0.03121249  0.93667234  0.31466110  1
  In  In1  1  0.96391160  0.68333521  0.56206001  1
  In  In2  1  0.46391160  0.81666479  0.43793999  1
  In  In3  1  0.46838745  0.31399772  0.93313049  1
  In  In4  1  0.03161255  0.81399772  0.93313049  1
  In  In5  1  0.96878751  0.06332766  0.68533890  1
  In  In6  1  0.03419813  0.43416069  0.81620296  1
  In  In7  1  0.53161255  0.68600228  0.06686951  1
  In  In8  1  0.46878751  0.43667234  0.31466110  1
  In  In9  1  0.53419813  0.06583931  0.18379704  1
  In  In10  1  0.96838745  0.18600228  0.06686951  1
  In  In11  1  0.03608840  0.31666479  0.43793999  1
  In  In12  1  0.96580187  0.56583931  0.18379704  1
  In  In13  1  0.53608840  0.18333521  0.56206001  1
  In  In14  1  0.53121249  0.56332766  0.68533890  1
  In  In15  1  0.46580187  0.93416069  0.81620296  1
  Mo  Mo16  1  0.61988802  0.12335143  0.76723964  1
  Mo  Mo17  1  0.11301305  0.86952946  0.72871239  1
  Mo  Mo18  1  0.11988802  0.37664857  0.23276036  1
  Mo  Mo19  1  0.75288214  0.48471000  0.98400106  1
  Mo  Mo20  1  0.38698695  0.36952946  0.72871239  1
  Mo  Mo21  1  0.61536058  0.76815728  0.62497028  1
  Mo  Mo22  1  0.88463942  0.26815728  0.62497028  1
  Mo  Mo23  1  0.61301305  0.63047054  0.27128761  1
  Mo  Mo24  1  0.38463942  0.23184272  0.37502972  1
  Mo  Mo25  1  0.88698695  0.13047054  0.27128761  1
  Mo  Mo26  1  0.24985878  0.51271661  0.51725008  1
  Mo  Mo27  1  0.12052847  0.22692135  0.87620989  1
  Mo  Mo28  1  0.25288214  0.01529000  0.01599894  1
  Mo  Mo29  1  0.74711786  0.98471000  0.98400106  1
  Mo  Mo30  1  0.87947153  0.77307865  0.12379011  1
  Mo  Mo31  1  0.62052847  0.27307865  0.12379011  1
  Mo  Mo32  1  0.25014122  0.01271661  0.51725008  1
  Mo  Mo33  1  0.88011198  0.62335143  0.76723964  1
  Mo  Mo34  1  0.75014122  0.48728339  0.48274992  1
  Mo  Mo35  1  0.24711786  0.51529000  0.01599894  1
  Mo  Mo36  1  0.38011198  0.87664857  0.23276036  1
  Mo  Mo37  1  0.74985878  0.98728339  0.48274992  1
  Mo  Mo38  1  0.11536058  0.73184272  0.37502972  1
  Mo  Mo39  1  0.37947153  0.72692135  0.87620989  1
  O  O40  1  0.99823113  0.05703801  0.29666510  1
  O  O41  1  0.08291599  0.31626241  0.84257537  1
  O  O42  1  0.21779385  0.40999012  0.74129840  1
  O  O43  1  0.34890474  0.04738065  0.11166326  1
  O  O44  1  0.07959219  0.81704910  0.33537126  1
  O  O45  1  0.39290328  0.77821444  0.14735562  1
  O  O46  1  0.60624577  0.73153061  0.35365866  1
  O  O47  1  0.12618727  0.09355116  0.01990987  1
  O  O48  1  0.08684960  0.12914672  0.79418666  1
  O  O49  1  0.42040781  0.31704910  0.33537126  1
  O  O50  1  0.20217445  0.72807082  0.90127233  1
  O  O51  1  0.60709672  0.22178556  0.85264438  1
  O  O52  1  0.65109526  0.95261935  0.88833674  1
  O  O53  1  0.56015383  0.64256880  0.17407501  1
  O  O54  1  0.57728655  0.86598271  0.70517534  1
  O  O55  1  0.17517917  0.91377602  0.00147262  1
  O  O56  1  0.48574169  0.24110952  0.46713406  1
  O  O57  1  0.91708401  0.68373759  0.15742463  1
  O  O58  1  0.71779385  0.09000988  0.25870160  1
  O  O59  1  0.15109526  0.54738065  0.11166326  1
  O  O60  1  0.00176887  0.94296199  0.70333490  1
  O  O61  1  0.79782555  0.27192918  0.09872767  1
  O  O62  1  0.43984617  0.35743120  0.82592499  1
  O  O63  1  0.64474146  0.50000995  0.57250731  1
  O  O64  1  0.65080332  0.44864958  0.38888159  1
  O  O65  1  0.50176887  0.55703801  0.29666510  1
  O  O66  1  0.07728655  0.63401729  0.29482466  1
  O  O67  1  0.91315040  0.87085328  0.20581334  1
  O  O68  1  0.98574169  0.25889048  0.53286594  1
  O  O69  1  0.88322382  0.41345934  0.48272714  1
  O  O70  1  0.99583796  0.54786859  0.78487614  1
  O  O71  1  0.68033949  0.08929315  0.48808805  1
  O  O72  1  0.06015383  0.85743120  0.82592499  1
  O  O73  1  0.62618727  0.40644884  0.98009013  1
  O  O74  1  0.89290328  0.72178556  0.85264438  1
  O  O75  1  0.63751661  0.99274472  0.07122697  1
  O  O76  1  0.81966051  0.58929315  0.48808805  1
  O  O77  1  0.79275938  0.76823728  0.60058375  1
  O  O78  1  0.01652320  0.23271775  0.96547243  1
  O  O79  1  0.85525854  0.00000995  0.57250731  1
  O  O80  1  0.01425831  0.74110952  0.46713406  1
  O  O81  1  0.50416204  0.04786859  0.78487614  1
  O  O82  1  0.35525854  0.49999005  0.42749269  1
  O  O83  1  0.42271345  0.13401729  0.29482466  1
  O  O84  1  0.61677618  0.91345934  0.48272714  1
  O  O85  1  0.67517917  0.58622398  0.99852738  1
  O  O86  1  0.51652320  0.26728225  0.03452757  1
  O  O87  1  0.28986742  0.41626491  0.23704718  1
  O  O88  1  0.28220615  0.90999012  0.74129840  1
  O  O89  1  0.70217445  0.77192918  0.09872767  1
  O  O90  1  0.21013258  0.91626491  0.23704718  1
  O  O91  1  0.37381273  0.59355116  0.01990987  1
  O  O92  1  0.87381273  0.90644884  0.98009013  1
  O  O93  1  0.11677618  0.58654066  0.51727286  1
  O  O94  1  0.48347680  0.73271775  0.96547243  1
  O  O95  1  0.36248339  0.00725528  0.92877303  1
  O  O96  1  0.58684960  0.37085328  0.20581334  1
  O  O97  1  0.49823113  0.44296199  0.70333490  1
  O  O98  1  0.57959219  0.68295090  0.66462874  1
  O  O99  1  0.49583796  0.95213141  0.21512386  1
  O  O100  1  0.98347680  0.76728225  0.03452757  1
  O  O101  1  0.38322382  0.08654066  0.51727286  1
  O  O102  1  0.93984617  0.14256880  0.17407501  1
  O  O103  1  0.00416204  0.45213141  0.21512386  1
  O  O104  1  0.58291599  0.18373759  0.15742463  1
  O  O105  1  0.78986742  0.08373509  0.76295282  1
  O  O106  1  0.41988746  0.86134160  0.33091825  1
  O  O107  1  0.71013258  0.58373509  0.76295282  1
  O  O108  1  0.20724062  0.23176272  0.39941625  1
  O  O109  1  0.10709672  0.27821444  0.14735562  1
  O  O110  1  0.08011254  0.36134160  0.33091825  1
  O  O111  1  0.31966051  0.91070685  0.51191195  1
  O  O112  1  0.10624577  0.76846939  0.64634134  1
  O  O113  1  0.91988746  0.63865840  0.66908175  1
  O  O114  1  0.39375423  0.26846939  0.64634134  1
  O  O115  1  0.78220615  0.59000988  0.25870160  1
  O  O116  1  0.92271345  0.36598271  0.70517534  1
  O  O117  1  0.29275938  0.73176272  0.39941625  1
  O  O118  1  0.82482083  0.08622398  0.99852738  1
  O  O119  1  0.18033949  0.41070685  0.51191195  1
  O  O120  1  0.84919668  0.94864958  0.38888159  1
  O  O121  1  0.15080332  0.05135042  0.61111841  1
  O  O122  1  0.51425831  0.75889048  0.53286594  1
  O  O123  1  0.41708401  0.81626241  0.84257537  1
  O  O124  1  0.84890474  0.45261935  0.88833674  1
  O  O125  1  0.29782555  0.22807082  0.90127233  1
  O  O126  1  0.41315040  0.62914672  0.79418666  1
  O  O127  1  0.89375423  0.23153061  0.35365866  1
  O  O128  1  0.34919668  0.55135042  0.61111841  1
  O  O129  1  0.14474146  0.99999005  0.42749269  1
  O  O130  1  0.32482083  0.41377602  0.00147262  1
  O  O131  1  0.70724062  0.26823728  0.60058375  1
  O  O132  1  0.86248339  0.49274472  0.07122697  1
  O  O133  1  0.58011254  0.13865840  0.66908175  1
  O  O134  1  0.92040781  0.18295090  0.66462874  1
  O  O135  1  0.13751661  0.50725528  0.92877303  1
