# generated using pymatgen
data_Li10Si(PS6)2
_symmetry_space_group_name_H-M   'P 1'
_cell_length_a   8.58317906
_cell_length_b   8.86409809
_cell_length_c   12.94160506
_cell_angle_alpha   91.86389874
_cell_angle_beta   90.63498024
_cell_angle_gamma   90.31028873
_symmetry_Int_Tables_number   1
_chemical_formula_structural   Li10Si(PS6)2
_chemical_formula_sum   'Li20 Si2 P4 S24'
_cell_volume   984.02719697
_cell_formula_units_Z   2
loop_
 _symmetry_equiv_pos_site_id
 _symmetry_equiv_pos_as_xyz
  1  'x, y, z'
loop_
 _atom_site_type_symbol
 _atom_site_label
 _atom_site_symmetry_multiplicity
 _atom_site_fract_x
 _atom_site_fract_y
 _atom_site_fract_z
 _atom_site_occupancy
  Li  Li0  1  0.98855350  0.51695051  0.95265050  1
  Li  Li1  1  0.96496027  0.51675931  0.42529361  1
  Li  Li2  1  0.51061972  0.96510130  0.54995772  1
  Li  Li3  1  0.49623080  0.99630528  0.04937984  1
  Li  Li4  1  0.25897117  0.29015686  0.15751958  1
  Li  Li5  1  0.74508371  0.74648846  0.28170326  1
  Li  Li6  1  0.21713674  0.81855318  0.75350100  1
  Li  Li7  1  0.22856970  0.75587879  0.25148568  1
  Li  Li8  1  0.75443605  0.22126745  0.35090075  1
  Li  Li9  1  0.46240864  0.51758019  0.75078878  1
  Li  Li10  1  0.22944070  0.22905130  0.36552255  1
  Li  Li11  1  0.73265757  0.25517004  0.85716885  1
  Li  Li12  1  0.24479021  0.76141436  0.00565835  1
  Li  Li13  1  0.74201366  0.26428609  0.13173884  1
  Li  Li14  1  0.76361043  0.72925447  0.69015979  1
  Li  Li15  1  0.22223699  0.25803275  0.91944489  1
  Li  Li16  1  0.74807816  0.76147285  0.00831192  1
  Li  Li17  1  0.24416263  0.72014935  0.48518740  1
  Li  Li18  1  0.78316412  0.21416108  0.62591855  1
  Li  Li19  1  0.24172257  0.21125439  0.65032879  1
  Si  Si20  1  0.99708987  0.48697386  0.18303727  1
  Si  Si21  1  0.50770356  0.99151039  0.81543592  1
  P  P22  1  0.99319883  0.96503576  0.50153560  1
  P  P23  1  0.49235985  0.51535439  0.99316497  1
  P  P24  1  0.00861790  0.48322701  0.68469450  1
  P  P25  1  0.48785664  0.00881758  0.31037890  1
  S  S26  1  0.98881975  0.17704004  0.44356216  1
  S  S27  1  0.00461200  0.79401320  0.38958841  1
  S  S28  1  0.29529224  0.53056472  0.90100870  1
  S  S29  1  0.68412016  0.52985992  0.89925207  1
  S  S30  1  0.49552318  0.69490802  0.09746836  1
  S  S31  1  0.48682789  0.30983915  0.06012612  1
  S  S32  1  0.19612303  0.94799099  0.58842501  1
  S  S33  1  0.80129265  0.94596536  0.59026265  1
  S  S34  1  0.00688352  0.30286167  0.06991071  1
  S  S35  1  0.00052635  0.70037093  0.10699378  1
  S  S36  1  0.21289516  0.48646120  0.60109530  1
  S  S37  1  0.81452372  0.49104264  0.58946158  1
  S  S38  1  0.48491337  0.79984010  0.37538353  1
  S  S39  1  0.49586273  0.17916820  0.42233439  1
  S  S40  1  0.29302772  0.98950247  0.90223161  1
  S  S41  1  0.70529985  0.99637045  0.91634726  1
  S  S42  1  0.99331438  0.66383336  0.78778778  1
  S  S43  1  0.00289373  0.28120428  0.76091713  1
  S  S44  1  0.78745294  0.46665182  0.26921846  1
  S  S45  1  0.19302421  0.47866945  0.28743295  1
  S  S46  1  0.51622966  0.19353955  0.72509485  1
  S  S47  1  0.49434764  0.80010542  0.70840875  1
  S  S48  1  0.68619792  0.01606050  0.22110379  1
  S  S49  1  0.29172621  0.03103654  0.21891985  1
