# generated using pymatgen
data_Ca2B8H2O15
_symmetry_space_group_name_H-M   'P 1'
_cell_length_a   6.51119285
_cell_length_b   9.41246590
_cell_length_c   10.09911206
_cell_angle_alpha   63.16561712
_cell_angle_beta   89.57367921
_cell_angle_gamma   99.25917746
_symmetry_Int_Tables_number   1
_chemical_formula_structural   Ca2B8H2O15
_chemical_formula_sum   'Ca4 B16 H4 O30'
_cell_volume   542.83404322
_cell_formula_units_Z   2
loop_
 _symmetry_equiv_pos_site_id
 _symmetry_equiv_pos_as_xyz
  1  'x, y, z'
loop_
 _atom_site_type_symbol
 _atom_site_label
 _atom_site_symmetry_multiplicity
 _atom_site_fract_x
 _atom_site_fract_y
 _atom_site_fract_z
 _atom_site_occupancy
  Ca  Ca0  1  0.98750922  0.82417142  0.72115018  1
  Ca  Ca1  1  0.01249078  0.17582858  0.27884982  1
  Ca  Ca2  1  0.67271861  0.81645896  0.16871186  1
  Ca  Ca3  1  0.32728139  0.18354104  0.83128814  1
  B  B4  1  0.75269276  0.06029345  0.78021667  1
  B  B5  1  0.24730724  0.93970655  0.21978333  1
  B  B6  1  0.73517536  0.46800192  0.84449326  1
  B  B7  1  0.26482464  0.53199808  0.15550674  1
  B  B8  1  0.91915932  0.59602421  0.12488023  1
  B  B9  1  0.08084068  0.40397579  0.87511977  1
  B  B10  1  0.55826150  0.15709099  0.18966298  1
  B  B11  1  0.44173850  0.84290901  0.81033702  1
  B  B12  1  0.70998414  0.26246602  0.52083227  1
  B  B13  1  0.29001586  0.73753398  0.47916773  1
  B  B14  1  0.57934963  0.39141980  0.25982411  1
  B  B15  1  0.42065037  0.60858020  0.74017589  1
  B  B16  1  0.77177392  0.17299739  0.97406699  1
  B  B17  1  0.22822608  0.82700261  0.02593301  1
  B  B18  1  0.93808024  0.80803371  0.42001030  1
  B  B19  1  0.06191976  0.19196629  0.57998970  1
  H  H20  1  0.68205971  0.85774038  0.50322739  1
  H  H21  1  0.31794029  0.14225962  0.49677261  1
  H  H22  1  0.67854430  0.62464115  0.49244216  1
  H  H23  1  0.32145570  0.37535885  0.50755784  1
  O  O24  1  0.63674699  0.59593740  0.78158205  1
  O  O25  1  0.36325301  0.40406260  0.21841795  1
  O  O26  1  0.97149769  0.08215428  0.73148097  1
  O  O27  1  0.02850231  0.91784572  0.26851903  1
  O  O28  1  0.83089194  0.90410291  0.47836787  1
  O  O29  1  0.16910806  0.09589709  0.52163213  1
  O  O30  1  0.00073428  0.24066247  0.95218377  1
  O  O31  1  0.99926572  0.75933753  0.04781623  1
  O  O32  1  0.69888924  0.09134443  0.13702523  1
  O  O33  1  0.30111076  0.90865557  0.86297477  1
  O  O34  1  0.65785319  0.27592194  0.22178951  1
  O  O35  1  0.34214681  0.72407806  0.77821049  1
  O  O36  1  0.71382922  0.55344269  0.17493245  1
  O  O37  1  0.28617078  0.44655731  0.82506755  1
  O  O38  1  0.72223261  0.04813455  0.92815056  1
  O  O39  1  0.27776739  0.95186545  0.07184944  1
  O  O40  1  0.65089508  0.30739748  0.89563900  1
  O  O41  1  0.34910492  0.69260252  0.10436100  1
  O  O42  1  0.95007854  0.51594260  0.84879554  1
  O  O43  1  0.04992146  0.48405740  0.15120446  1
  O  O44  1  0.78737424  0.67995539  0.41015246  1
  O  O45  1  0.21262576  0.32004461  0.58984754  1
  O  O46  1  0.56926998  0.33519200  0.42208830  1
  O  O47  1  0.43073002  0.66480800  0.57791170  1
  O  O48  1  0.90421319  0.25467108  0.47284369  1
  O  O49  1  0.09578681  0.74532892  0.52715631  1
  O  O50  1  0.65212293  0.89975689  0.78567836  1
  O  O51  1  0.34787707  0.10024311  0.21432164  1
  O  O52  1  0.64584487  0.18979236  0.67157817  1
  O  O53  1  0.35415513  0.81020764  0.32842183  1
