# generated using pymatgen
data_KRe3Os3(Se4Cl3)2
_symmetry_space_group_name_H-M   'P 1'
_cell_length_a   13.27007836
_cell_length_b   13.24614833
_cell_length_c   13.22772631
_cell_angle_alpha   90.09324595
_cell_angle_beta   89.99936026
_cell_angle_gamma   89.99866741
_symmetry_Int_Tables_number   1
_chemical_formula_structural   KRe3Os3(Se4Cl3)2
_chemical_formula_sum   'K4 Re12 Os12 Se32 Cl24'
_cell_volume   2325.13260796
_cell_formula_units_Z   4
loop_
 _symmetry_equiv_pos_site_id
 _symmetry_equiv_pos_as_xyz
  1  'x, y, z'
loop_
 _atom_site_type_symbol
 _atom_site_label
 _atom_site_symmetry_multiplicity
 _atom_site_fract_x
 _atom_site_fract_y
 _atom_site_fract_z
 _atom_site_occupancy
  K  K0  1  0.00037845  0.00001092  0.99959847  1
  K  K1  1  0.00035494  0.49986655  0.50054506  1
  K  K2  1  0.49956098  0.00017777  0.50014981  1
  K  K3  1  0.49984472  0.50006384  0.99990705  1
  Re  Re4  1  0.03157432  0.54145379  0.86836984  1
  Re  Re5  1  0.03156157  0.95856799  0.63168272  1
  Re  Re6  1  0.04152471  0.13167603  0.53170936  1
  Re  Re7  1  0.04157356  0.36831063  0.96834008  1
  Re  Re8  1  0.13146976  0.53148120  0.04178138  1
  Re  Re9  1  0.13142629  0.96848084  0.45835732  1
  Re  Re10  1  0.45846557  0.36854282  0.53146218  1
  Re  Re11  1  0.46856017  0.54160356  0.63127664  1
  Re  Re12  1  0.46864676  0.95831524  0.86863368  1
  Re  Re13  1  0.53146824  0.04149809  0.13140800  1
  Re  Re14  1  0.53137711  0.45837455  0.36853330  1
  Re  Re15  1  0.54158297  0.86840706  0.03148251  1
  Os  Os16  1  0.36820970  0.53219583  0.45789549  1
  Os  Os17  1  0.36788842  0.96883941  0.04177036  1
  Os  Os18  1  0.45855539  0.13126021  0.96852103  1
  Os  Os19  1  0.54151007  0.63144877  0.46845678  1
  Os  Os20  1  0.63179805  0.03217101  0.95802941  1
  Os  Os21  1  0.63210925  0.46887742  0.54164014  1
  Os  Os22  1  0.86832481  0.46874221  0.95907741  1
  Os  Os23  1  0.86825457  0.03122087  0.54105512  1
  Os  Os24  1  0.95783052  0.63122383  0.03216796  1
  Os  Os25  1  0.95780007  0.86877290  0.46788616  1
  Os  Os26  1  0.96783489  0.04117667  0.36828622  1
  Os  Os27  1  0.96781795  0.45881987  0.13177940  1
  Se  Se28  1  0.05494443  0.61654810  0.19550888  1
  Se  Se29  1  0.05493502  0.88340460  0.30451217  1
  Se  Se30  1  0.11560658  0.69572123  0.94506680  1
  Se  Se31  1  0.11557558  0.80422271  0.55504828  1
  Se  Se32  1  0.13457505  0.13558935  0.36318978  1
  Se  Se33  1  0.13457865  0.36437018  0.13686277  1
  Se  Se34  1  0.19551460  0.05617033  0.61742461  1
  Se  Se35  1  0.19559950  0.44377245  0.88268456  1
  Se  Se36  1  0.30492449  0.05588662  0.88468301  1
  Se  Se37  1  0.30416699  0.44495685  0.61535236  1
  Se  Se38  1  0.36349124  0.13538593  0.13464041  1
  Se  Se39  1  0.36304212  0.36526917  0.36422415  1
  Se  Se40  1  0.38327422  0.69508400  0.55428740  1
  Se  Se41  1  0.38213594  0.80512281  0.94503657  1
  Se  Se42  1  0.44320914  0.61742688  0.30571823  1
  Se  Se43  1  0.44265760  0.88316544  0.19476100  1
  Se  Se44  1  0.55681542  0.11736712  0.80578122  1
  Se  Se45  1  0.55740968  0.38325970  0.69474752  1
  Se  Se46  1  0.61669528  0.19505682  0.05437125  1
  Se  Se47  1  0.61785951  0.30519435  0.44494672  1
  Se  Se48  1  0.63660765  0.63543190  0.63462929  1
  Se  Se49  1  0.63710785  0.86523831  0.86423794  1
  Se  Se50  1  0.69588589  0.94473992  0.11528641  1
  Se  Se51  1  0.69514171  0.55611377  0.38475433  1
  Se  Se52  1  0.80554263  0.94417317  0.38327183  1
  Se  Se53  1  0.80554078  0.55580046  0.11678771  1
  Se  Se54  1  0.86405754  0.63530178  0.86538378  1
  Se  Se55  1  0.86403826  0.86464949  0.63466542  1
  Se  Se56  1  0.88291605  0.19416832  0.44374793  1
  Se  Se57  1  0.88293673  0.30576408  0.05629860  1
  Se  Se58  1  0.94314656  0.11688954  0.69522452  1
  Se  Se59  1  0.94319241  0.38307874  0.80479760  1
  Cl  Cl60  1  0.07661401  0.90429339  0.79938804  1
  Cl  Cl61  1  0.07619104  0.59590659  0.70077959  1
  Cl  Cl62  1  0.09698211  0.29901963  0.57621595  1
  Cl  Cl63  1  0.09700316  0.20094589  0.92377229  1
  Cl  Cl64  1  0.20081474  0.92400150  0.09703816  1
  Cl  Cl65  1  0.20040834  0.57496973  0.40323450  1
  Cl  Cl66  1  0.29978148  0.57491627  0.09588888  1
  Cl  Cl67  1  0.29937080  0.92521538  0.40458305  1
  Cl  Cl68  1  0.40395066  0.20084303  0.57562456  1
  Cl  Cl69  1  0.40388921  0.29838093  0.92440156  1
  Cl  Cl70  1  0.42459037  0.59589188  0.79922859  1
  Cl  Cl71  1  0.42500319  0.90266193  0.70105729  1
  Cl  Cl72  1  0.57583565  0.09576847  0.29942780  1
  Cl  Cl73  1  0.57540745  0.40280815  0.20085969  1
  Cl  Cl74  1  0.59660901  0.79887538  0.42425379  1
  Cl  Cl75  1  0.59667453  0.70034774  0.07575092  1
  Cl  Cl76  1  0.70168867  0.07574098  0.59728089  1
  Cl  Cl77  1  0.70213860  0.42436117  0.90306443  1
  Cl  Cl78  1  0.79887407  0.42375632  0.59638367  1
  Cl  Cl79  1  0.79931467  0.07518969  0.90383517  1
  Cl  Cl80  1  0.90422227  0.79901713  0.07507619  1
  Cl  Cl81  1  0.90419552  0.70098010  0.42493548  1
  Cl  Cl82  1  0.92478983  0.40302037  0.29934140  1
  Cl  Cl83  1  0.92522175  0.09718441  0.20084214  1
