# generated using pymatgen
data_Rb4SnO4
_symmetry_space_group_name_H-M   'P 1'
_cell_length_a   6.91074184
_cell_length_b   6.91654771
_cell_length_c   10.28380817
_cell_angle_alpha   71.68982341
_cell_angle_beta   79.62314907
_cell_angle_gamma   66.52660831
_symmetry_Int_Tables_number   1
_chemical_formula_structural   Rb4SnO4
_chemical_formula_sum   'Rb8 Sn2 O8'
_cell_volume   427.19025231
_cell_formula_units_Z   2
loop_
 _symmetry_equiv_pos_site_id
 _symmetry_equiv_pos_as_xyz
  1  'x, y, z'
loop_
 _atom_site_type_symbol
 _atom_site_label
 _atom_site_symmetry_multiplicity
 _atom_site_fract_x
 _atom_site_fract_y
 _atom_site_fract_z
 _atom_site_occupancy
  O  O0  1  0.87020218  0.84038182  0.90599242  1
  O  O1  1  0.12979782  0.15961818  0.09400758  1
  O  O2  1  0.03944106  0.29745064  0.37391505  1
  O  O3  1  0.96055894  0.70254936  0.62608495  1
  O  O4  1  0.45696382  0.33604362  0.18950772  1
  O  O5  1  0.54303618  0.66395638  0.81049228  1
  O  O6  1  0.45078035  0.85217403  0.35036279  1
  O  O7  1  0.54921965  0.14782597  0.64963721  1
  Rb  Rb8  1  0.74555866  0.59507493  0.16380720  1
  Rb  Rb9  1  0.25444134  0.40492507  0.83619280  1
  Rb  Rb10  1  0.75800457  0.23640374  0.97343807  1
  Rb  Rb11  1  0.24199543  0.76359626  0.02656193  1
  Rb  Rb12  1  0.27306456  0.51115559  0.43971764  1
  Rb  Rb13  1  0.72693544  0.48884441  0.56028236  1
  Rb  Rb14  1  0.77897293  0.03930104  0.38215932  1
  Rb  Rb15  1  0.22102707  0.96069896  0.61784068  1
  Sn  Sn16  1  0.72613513  0.84464901  0.75278280  1
  Sn  Sn17  1  0.27386487  0.15535099  0.24721720  1
