# generated using pymatgen
data_Ca12Al11Si3Cl5O32
_symmetry_space_group_name_H-M   'P 1'
_cell_length_a   10.47198400
_cell_length_b   10.47465144
_cell_length_c   10.45237987
_cell_angle_alpha   109.47507854
_cell_angle_beta   109.54544981
_cell_angle_gamma   109.31907610
_symmetry_Int_Tables_number   1
_chemical_formula_structural   Ca12Al11Si3Cl5O32
_chemical_formula_sum   'Ca12 Al11 Si3 Cl5 O32'
_cell_volume   883.39880955
_cell_formula_units_Z   1
loop_
 _symmetry_equiv_pos_site_id
 _symmetry_equiv_pos_as_xyz
  1  'x, y, z'
loop_
 _atom_site_type_symbol
 _atom_site_label
 _atom_site_symmetry_multiplicity
 _atom_site_fract_x
 _atom_site_fract_y
 _atom_site_fract_z
 _atom_site_occupancy
  Ca  Ca0  1  0.25836102  0.90111990  0.65093192  1
  Ca  Ca1  1  0.14149804  0.39252204  0.74937171  1
  Ca  Ca2  1  0.10012231  0.24614197  0.35334055  1
  Ca  Ca3  1  0.60600199  0.86093714  0.75312656  1
  Ca  Ca4  1  0.39503698  0.75175341  0.14333321  1
  Ca  Ca5  1  0.24227714  0.35028457  0.10088930  1
  Ca  Ca6  1  0.36383451  0.10832667  0.24496196  1
  Ca  Ca7  1  0.75254002  0.60649610  0.85304660  1
  Ca  Ca8  1  0.64599653  0.24459235  0.89090648  1
  Ca  Ca9  1  0.85881536  0.75872989  0.60864128  1
  Ca  Ca10  1  0.74323116  0.13763001  0.39174310  1
  Ca  Ca11  1  0.88935199  0.63957522  0.25031025  1
  Al  Al12  1  0.12387191  0.74523917  0.87289343  1
  Al  Al13  1  0.03236597  0.49925842  0.00072064  1
  Al  Al14  1  0.25410579  0.62527514  0.37930894  1
  Al  Al15  1  0.37482352  0.25513008  0.62885155  1
  Al  Al16  1  0.49942086  0.00074821  0.53281934  1
  Al  Al17  1  0.96736657  0.96609259  0.96740572  1
  Al  Al18  1  0.62644991  0.37687846  0.25370266  1
  Al  Al19  1  0.74591519  0.87323015  0.12204718  1
  Al  Al20  1  0.49845368  0.99955016  0.03144672  1
  Al  Al21  1  0.87523332  0.12481535  0.74911941  1
  Al  Al22  1  0.00057387  0.03234797  0.49936129  1
  Si  Si23  1  0.46434892  0.46408996  0.46517512  1
  Si  Si24  1  0.53727106  0.50140532  0.00216759  1
  Si  Si25  1  0.00063188  0.53629897  0.49962671  1
  Cl  Cl26  1  0.37403514  0.62348755  0.74907721  1
  Cl  Cl27  1  0.24953787  0.12619025  0.87617346  1
  Cl  Cl28  1  0.62648623  0.74938080  0.37549012  1
  Cl  Cl29  1  0.74905753  0.37446347  0.62453183  1
  Cl  Cl30  1  0.87634039  0.25174627  0.12566083  1
  O  O31  1  0.02221829  0.31654203  0.90278068  1
  O  O32  1  0.12191452  0.59774497  0.91721017  1
  O  O33  1  0.07623355  0.69064403  0.67340500  1
  O  O34  1  0.09717283  0.60876808  0.41945456  1
  O  O35  1  0.18221339  0.20565944  0.57916586  1
  O  O36  1  0.20145056  0.58679844  0.18802777  1
  O  O37  1  0.39622445  0.81819671  0.52125067  1
  O  O38  1  0.30842471  0.48170536  0.38623499  1
  O  O39  1  0.31371540  0.90051106  0.01627206  1
  O  O40  1  0.13495458  0.12669522  0.13976736  1
  O  O41  1  0.51814943  0.40347772  0.82775324  1
  O  O42  1  0.39111521  0.31131376  0.48807485  1
  O  O43  1  0.79581712  0.87306133  0.97797664  1
  O  O44  1  0.41148087  0.10114940  0.61236322  1
  O  O45  1  0.38215303  0.49876429  0.00073299  1
  O  O46  1  0.50176547  0.00293391  0.86776342  1
  O  O47  1  0.61911742  0.61860873  0.61802424  1
  O  O48  1  0.59859523  0.91759946  0.12139051  1
  O  O49  1  0.48701444  0.38994863  0.31110549  1
  O  O50  1  0.88038615  0.97820074  0.79552061  1
  O  O51  1  0.48648004  0.99490196  0.36029322  1
  O  O52  1  0.68299980  0.08535772  0.70324478  1
  O  O53  1  0.98132490  0.79466486  0.88180951  1
  O  O54  1  0.69189618  0.67556227  0.08049504  1
  O  O55  1  0.61476799  0.42596255  0.10396241  1
  O  O56  1  0.58077310  0.18544868  0.20142576  1
  O  O57  1  0.82521007  0.51682135  0.39952304  1
  O  O58  1  0.00561177  0.86480860  0.49202134  1
  O  O59  1  0.91562167  0.12019380  0.59672647  1
  O  O60  1  0.87425776  0.51511517  0.01018219  1
  O  O61  1  0.99773686  0.38125104  0.49876116  1
  O  O62  1  0.90484654  0.01285113  0.31109811  1
