# generated using pymatgen
data_SrLaMnSbO6
_symmetry_space_group_name_H-M   'P 1'
_cell_length_a   5.72723593
_cell_length_b   5.85985393
_cell_length_c   8.14849760
_cell_angle_alpha   90.00000000
_cell_angle_beta   89.95688381
_cell_angle_gamma   90.00000000
_symmetry_Int_Tables_number   1
_chemical_formula_structural   SrLaMnSbO6
_chemical_formula_sum   'Sr2 La2 Mn2 Sb2 O12'
_cell_volume   273.46974344
_cell_formula_units_Z   2
loop_
 _symmetry_equiv_pos_site_id
 _symmetry_equiv_pos_as_xyz
  1  'x, y, z'
loop_
 _atom_site_type_symbol
 _atom_site_label
 _atom_site_symmetry_multiplicity
 _atom_site_fract_x
 _atom_site_fract_y
 _atom_site_fract_z
 _atom_site_occupancy
  Sr  Sr0  1  0.00907390  0.03836030  0.24935946  1
  Sr  Sr1  1  0.50907390  0.46163970  0.74935946  1
  La  La2  1  0.48637911  0.55144214  0.24757272  1
  La  La3  1  0.98637911  0.94855786  0.74757272  1
  Mn  Mn4  1  0.99867072  0.49386701  0.49957458  1
  Mn  Mn5  1  0.49867072  0.00613299  0.99957458  1
  Sb  Sb6  1  0.49952919  0.00291567  0.49987276  1
  Sb  Sb7  1  0.99952919  0.49708433  0.99987276  1
  O  O8  1  0.07757877  0.53248173  0.76020180  1
  O  O9  1  0.20440203  0.77095533  0.04819093  1
  O  O10  1  0.22390129  0.79613110  0.45963730  1
  O  O11  1  0.28563313  0.30692945  0.04780779  1
  O  O12  1  0.31287579  0.28735808  0.44922003  1
  O  O13  1  0.40195607  0.02615526  0.73856263  1
  O  O14  1  0.57757877  0.96751827  0.26020180  1
  O  O15  1  0.70440203  0.72904467  0.54819093  1
  O  O16  1  0.72390129  0.70386890  0.95963730  1
  O  O17  1  0.78563313  0.19307055  0.54780779  1
  O  O18  1  0.81287579  0.21264192  0.94922003  1
  O  O19  1  0.90195607  0.47384474  0.23856263  1
