# generated using pymatgen
data_Sb2S19F12
_symmetry_space_group_name_H-M   'P 1'
_cell_length_a   15.91311699
_cell_length_b   13.66747729
_cell_length_c   14.83957500
_cell_angle_alpha   90.00000000
_cell_angle_beta   105.35804594
_cell_angle_gamma   90.00000000
_symmetry_Int_Tables_number   1
_chemical_formula_structural   Sb2S19F12
_chemical_formula_sum   'Sb8 S76 F48'
_cell_volume   3112.23627649
_cell_formula_units_Z   4
loop_
 _symmetry_equiv_pos_site_id
 _symmetry_equiv_pos_as_xyz
  1  'x, y, z'
loop_
 _atom_site_type_symbol
 _atom_site_label
 _atom_site_symmetry_multiplicity
 _atom_site_fract_x
 _atom_site_fract_y
 _atom_site_fract_z
 _atom_site_occupancy
  Sb  Sb0  1  0.59505914  0.28134588  0.97274924  1
  Sb  Sb1  1  0.90494086  0.78134588  0.02725076  1
  Sb  Sb2  1  0.40494086  0.71865412  0.02725076  1
  Sb  Sb3  1  0.09505914  0.21865412  0.97274924  1
  Sb  Sb4  1  0.52604142  0.25163929  0.52299100  1
  Sb  Sb5  1  0.97395858  0.75163929  0.47700900  1
  Sb  Sb6  1  0.47395858  0.74836071  0.47700900  1
  Sb  Sb7  1  0.02604142  0.24836071  0.52299100  1
  S  S8  1  0.77894479  0.08984115  0.40693456  1
  S  S9  1  0.72105521  0.58984115  0.59306544  1
  S  S10  1  0.22105521  0.91015885  0.59306544  1
  S  S11  1  0.27894479  0.41015885  0.40693456  1
  S  S12  1  0.70150268  0.98399390  0.42420660  1
  S  S13  1  0.79849732  0.48399390  0.57579340  1
  S  S14  1  0.29849732  0.01600610  0.57579340  1
  S  S15  1  0.20150268  0.51600610  0.42420660  1
  S  S16  1  0.58092687  0.00494569  0.32160147  1
  S  S17  1  0.91907313  0.50494569  0.67839853  1
  S  S18  1  0.41907313  0.99505431  0.67839853  1
  S  S19  1  0.08092687  0.49505431  0.32160147  1
  S  S20  1  0.58245001  0.89168403  0.23366418  1
  S  S21  1  0.91754999  0.39168403  0.76633582  1
  S  S22  1  0.41754999  0.10831597  0.76633582  1
  S  S23  1  0.08245001  0.60831597  0.23366418  1
  S  S24  1  0.67072298  0.93040321  0.15720798  1
  S  S25  1  0.82927702  0.43040321  0.84279202  1
  S  S26  1  0.32927702  0.06959679  0.84279202  1
  S  S27  1  0.17072298  0.56959679  0.15720798  1
  S  S28  1  0.78938853  0.89957147  0.24465575  1
  S  S29  1  0.71061147  0.39957147  0.75534425  1
  S  S30  1  0.21061147  0.10042853  0.75534425  1
  S  S31  1  0.28938853  0.60042853  0.24465575  1
  S  S32  1  0.84675428  0.03513091  0.29693823  1
  S  S33  1  0.65324572  0.53513091  0.70306177  1
  S  S34  1  0.15324572  0.96486909  0.70306177  1
  S  S35  1  0.34675428  0.46486909  0.29693823  1
  S  S36  1  0.79597436  0.13738756  0.19069925  1
  S  S37  1  0.70402564  0.63738756  0.80930075  1
  S  S38  1  0.20402564  0.86261244  0.80930075  1
  S  S39  1  0.29597436  0.36261244  0.19069925  1
  S  S40  1  0.89908817  0.16181652  0.13541668  1
  S  S41  1  0.60091183  0.66181652  0.86458332  1
  S  S42  1  0.10091183  0.83818348  0.86458332  1
  S  S43  1  0.39908817  0.33818348  0.13541668  1
  S  S44  1  0.95915913  0.28829883  0.19913844  1
  S  S45  1  0.54084087  0.78829883  0.80086156  1
  S  S46  1  0.04084087  0.71170117  0.80086156  1
  S  S47  1  0.45915913  0.21170117  0.19913844  1
  S  S48  1  0.57857092  0.89864286  0.89723178  1
  S  S49  1  0.92142908  0.39864286  0.10276822  1
  S  S50  1  0.42142908  0.10135714  0.10276822  1
  S  S51  1  0.07857092  0.60135714  0.89723178  1
  S  S52  1  0.80309488  0.45460425  0.11055262  1
  S  S53  1  0.69690512  0.95460425  0.88944738  1
  S  S54  1  0.19690512  0.54539575  0.88944738  1
  S  S55  1  0.30309488  0.04539575  0.11055262  1
  S  S56  1  0.84035701  0.55796590  0.21613840  1
  S  S57  1  0.65964299  0.05796590  0.78386160  1
  S  S58  1  0.15964299  0.44203410  0.78386160  1
  S  S59  1  0.34035701  0.94203410  0.21613840  1
  S  S60  1  0.71470093  0.65009213  0.16996688  1
  S  S61  1  0.78529907  0.15009213  0.83003312  1
  S  S62  1  0.28529907  0.34990787  0.83003312  1
  S  S63  1  0.21470093  0.84990787  0.16996688  1
  S  S64  1  0.65567484  0.63763500  0.27017576  1
  S  S65  1  0.84432516  0.13763500  0.72982424  1
  S  S66  1  0.34432516  0.36236500  0.72982424  1
  S  S67  1  0.15567484  0.86236500  0.27017576  1
  S  S68  1  0.57750980  0.51010739  0.23690454  1
  S  S69  1  0.92249020  0.01010739  0.76309546  1
  S  S70  1  0.42249020  0.48989261  0.76309546  1
  S  S71  1  0.07750980  0.98989261  0.23690454  1
  S  S72  1  0.63891676  0.41814903  0.34089119  1
  S  S73  1  0.86108324  0.91814903  0.65910881  1
  S  S74  1  0.36108324  0.58185097  0.65910881  1
  S  S75  1  0.13891676  0.08185097  0.34089119  1
  S  S76  1  0.75403539  0.37222992  0.30856325  1
  S  S77  1  0.74596461  0.87222992  0.69143675  1
  S  S78  1  0.24596461  0.62777008  0.69143675  1
  S  S79  1  0.25403539  0.12777008  0.30856325  1
  S  S80  1  0.66197755  0.98525172  0.65643333  1
  S  S81  1  0.83802245  0.48525172  0.34356667  1
  S  S82  1  0.33802245  0.01474828  0.34356667  1
  S  S83  1  0.16197755  0.51474828  0.65643333  1
  F  F84  1  0.57542920  0.26331658  0.84029300  1
  F  F85  1  0.92457080  0.76331658  0.15970700  1
  F  F86  1  0.42457080  0.73668342  0.15970700  1
  F  F87  1  0.07542920  0.23668342  0.84029300  1
  F  F88  1  0.59050465  0.14145664  0.98881061  1
  F  F89  1  0.90949535  0.64145664  0.01118939  1
  F  F90  1  0.40949535  0.85854336  0.01118939  1
  F  F91  1  0.09050465  0.35854336  0.98881061  1
  F  F92  1  0.71916520  0.27175415  0.98820620  1
  F  F93  1  0.78083480  0.77175415  0.01179380  1
  F  F94  1  0.28083480  0.72824585  0.01179380  1
  F  F95  1  0.21916520  0.22824585  0.98820620  1
  F  F96  1  0.47091015  0.28852263  0.95716898  1
  F  F97  1  0.02908985  0.78852263  0.04283102  1
  F  F98  1  0.52908985  0.71147737  0.04283102  1
  F  F99  1  0.97091015  0.21147737  0.95716898  1
  F  F100  1  0.60089071  0.42042217  0.95586589  1
  F  F101  1  0.89910929  0.92042217  0.04413411  1
  F  F102  1  0.39910929  0.57957783  0.04413411  1
  F  F103  1  0.10089071  0.07957783  0.95586589  1
  F  F104  1  0.61593447  0.29896420  0.10549922  1
  F  F105  1  0.88406553  0.79896420  0.89450078  1
  F  F106  1  0.38406553  0.70103580  0.89450078  1
  F  F107  1  0.11593447  0.20103580  0.10549922  1
  F  F108  1  0.59397359  0.20247171  0.64212128  1
  F  F109  1  0.90602641  0.70247171  0.35787872  1
  F  F110  1  0.40602641  0.79752829  0.35787872  1
  F  F111  1  0.09397359  0.29752829  0.64212128  1
  F  F112  1  0.45913296  0.30524064  0.40511511  1
  F  F113  1  0.04086704  0.80524064  0.59488489  1
  F  F114  1  0.54086704  0.69475936  0.59488489  1
  F  F115  1  0.95913296  0.19475936  0.40511511  1
  F  F116  1  0.56844333  0.38110216  0.56214128  1
  F  F117  1  0.93155667  0.88110216  0.43785872  1
  F  F118  1  0.43155667  0.61889784  0.43785872  1
  F  F119  1  0.06844333  0.11889784  0.56214128  1
  F  F120  1  0.62317469  0.23069232  0.47066324  1
  F  F121  1  0.87682531  0.73069232  0.52933676  1
  F  F122  1  0.37682531  0.76930768  0.52933676  1
  F  F123  1  0.12317469  0.26930768  0.47066324  1
  F  F124  1  0.42764448  0.27104674  0.57275213  1
  F  F125  1  0.07235552  0.77104674  0.42724787  1
  F  F126  1  0.57235552  0.72895326  0.42724787  1
  F  F127  1  0.92764448  0.22895326  0.57275213  1
  F  F128  1  0.48548484  0.12153525  0.48541947  1
  F  F129  1  0.01451516  0.62153525  0.51458053  1
  F  F130  1  0.51451516  0.87846475  0.51458053  1
  F  F131  1  0.98548484  0.37846475  0.48541947  1
