# generated using pymatgen
data_Li3P11(H3N)17
_symmetry_space_group_name_H-M   'P 1'
_cell_length_a   11.99024070
_cell_length_b   12.58411455
_cell_length_c   12.59736604
_cell_angle_alpha   89.96228412
_cell_angle_beta   80.13279451
_cell_angle_gamma   80.35073458
_symmetry_Int_Tables_number   1
_chemical_formula_structural   Li3P11(H3N)17
_chemical_formula_sum   'Li6 P22 H102 N34'
_cell_volume   1845.39149651
_cell_formula_units_Z   2
loop_
 _symmetry_equiv_pos_site_id
 _symmetry_equiv_pos_as_xyz
  1  'x, y, z'
loop_
 _atom_site_type_symbol
 _atom_site_label
 _atom_site_symmetry_multiplicity
 _atom_site_fract_x
 _atom_site_fract_y
 _atom_site_fract_z
 _atom_site_occupancy
  Li  Li0  1  0.74606722  0.02187551  0.76049739  1
  Li  Li1  1  0.25393278  0.97812449  0.23950261  1
  Li  Li2  1  0.87374766  0.60805909  0.71598463  1
  Li  Li3  1  0.12625234  0.39194091  0.28401537  1
  Li  Li4  1  0.78155054  0.25314809  0.08499601  1
  Li  Li5  1  0.21844946  0.74685191  0.91500399  1
  P  P6  1  0.73802123  0.76389206  0.42229747  1
  P  P7  1  0.26197877  0.23610794  0.57770253  1
  P  P8  1  0.59324392  0.68856335  0.21955932  1
  P  P9  1  0.40675608  0.31143665  0.78044068  1
  P  P10  1  0.70570195  0.93119595  0.19752203  1
  P  P11  1  0.29429805  0.06880405  0.80247797  1
  P  P12  1  0.75534984  0.58029545  0.23995032  1
  P  P13  1  0.24465016  0.41970455  0.76004968  1
  P  P14  1  0.89895822  0.78532622  0.31121128  1
  P  P15  1  0.10104178  0.21467378  0.68878872  1
  P  P16  1  0.78313940  0.80460512  0.07047789  1
  P  P17  1  0.21686060  0.19539488  0.92952211  1
  P  P18  1  0.88542680  0.68430740  0.16704617  1
  P  P19  1  0.11457320  0.31569260  0.83295383  1
  P  P20  1  0.85640817  0.95207931  0.26525366  1
  P  P21  1  0.14359183  0.04792069  0.73474634  1
  P  P22  1  0.74769563  0.59030249  0.41293579  1
  P  P23  1  0.25230437  0.40969751  0.58706421  1
  P  P24  1  0.60620338  0.83369456  0.31996822  1
  P  P25  1  0.39379662  0.16630544  0.68003178  1
  P  P26  1  0.63363726  0.73370507  0.05255042  1
  P  P27  1  0.36636274  0.26629493  0.94744958  1
  H  H28  1  0.89093943  0.06198130  0.07305409  1
  H  H29  1  0.10906057  0.93801870  0.92694591  1
  H  H30  1  0.96347428  0.12199709  0.97400389  1
  H  H31  1  0.03652572  0.87800291  0.02599611  1
  H  H32  1  0.85022897  0.07356098  0.95577925  1
  H  H33  1  0.14977103  0.92643902  0.04422075  1
  H  H34  1  0.99941199  0.53698008  0.86300922  1
  H  H35  1  0.00058801  0.46301992  0.13699078  1
  H  H36  1  0.98199308  0.66904977  0.86991556  1
  H  H37  1  0.01800692  0.33095023  0.13008444  1
  H  H38  1  0.87560749  0.60814746  0.92050617  1
  H  H39  1  0.12439251  0.39185254  0.07949383  1
  H  H40  1  0.86802175  0.86545165  0.84788671  1
  H  H41  1  0.13197825  0.13454835  0.15211329  1
  H  H42  1  0.91114883  0.86009471  0.71521178  1
  H  H43  1  0.08885117  0.13990529  0.28478822  1
  H  H44  1  0.95799218  0.94355824  0.79009197  1
  H  H45  1  0.04200782  0.05644176  0.20990803  1
  H  H46  1  0.73739208  0.21156196  0.84369706  1
  H  H47  1  0.26260792  0.78843804  0.15630294  1
  H  H48  1  0.86087597  0.19318790  0.76013418  1
  H  H49  1  0.13912403  0.80681210  0.23986582  1
  H  H50  1  0.73953331  0.22338003  0.71532689  1
  H  H51  1  0.26046669  0.77661997  0.28467311  1
  H  H52  1  0.94918341  0.61750982  0.51586158  1
  H  H53  1  0.05081659  0.38249018  0.48413842  1
  H  H54  1  0.01461695  0.70277488  0.57044173  1
  H  H55  1  0.98538305  0.29722512  0.42955827  1
  H  H56  1  0.05504532  0.57041857  0.58089974  1
  H  H57  1  0.94495468  0.42958143  0.41910026  1
  H  H58  1  0.54535992  0.07443284  0.88817337  1
  H  H59  1  0.45464008  0.92556716  0.11182663  1
  H  H60  1  0.57305822  0.94284918  0.87537724  1
  H  H61  1  0.42694178  0.05715082  0.12462276  1
  H  H62  1  0.63733941  0.00245747  0.95461476  1
  H  H63  1  0.36266059  0.99754253  0.04538524  1
  H  H64  1  0.87374467  0.24376538  0.27519257  1
  H  H65  1  0.12625533  0.75623462  0.72480743  1
  H  H66  1  0.77475844  0.34924284  0.26779589  1
  H  H67  1  0.22524156  0.65075716  0.73220411  1
  H  H68  1  0.73955182  0.22868072  0.28826094  1
  H  H69  1  0.26044818  0.77131928  0.71173906  1
  H  H70  1  0.75071961  0.39864505  0.94396767  1
  H  H71  1  0.24928039  0.60135495  0.05603233  1
  H  H72  1  0.88839446  0.37934339  0.95013780  1
  H  H73  1  0.11160554  0.62065661  0.04986220  1
  H  H74  1  0.79407626  0.45464842  0.04307222  1
  H  H75  1  0.20592374  0.54535158  0.95692778  1
  H  H76  1  0.90468041  0.39610054  0.69487359  1
  H  H77  1  0.09531959  0.60389946  0.30512641  1
  H  H78  1  0.80699170  0.44744258  0.62315207  1
  H  H79  1  0.19300830  0.55255742  0.37684793  1
  H  H80  1  0.77181234  0.45001274  0.75549557  1
  H  H81  1  0.22818766  0.54998726  0.24450443  1
  H  H82  1  0.71065205  0.78026547  0.68578811  1
  H  H83  1  0.28934795  0.21973453  0.31421189  1
  H  H84  1  0.66175265  0.66793642  0.71593509  1
  H  H85  1  0.33824735  0.33206358  0.28406491  1
  H  H86  1  0.68971876  0.74187934  0.81296231  1
  H  H87  1  0.31028124  0.25812066  0.18703769  1
  H  H88  1  0.61068646  0.01468701  0.61629442  1
  H  H89  1  0.38931354  0.98531299  0.38370558  1
  H  H90  1  0.73297783  0.93578039  0.56713322  1
  H  H91  1  0.26702217  0.06421961  0.43286678  1
  H  H92  1  0.72408897  0.06660104  0.56966373  1
  H  H93  1  0.27591103  0.93339896  0.43033627  1
  H  H94  1  0.55616209  0.24084101  0.05455073  1
  H  H95  1  0.44383791  0.75915899  0.94544927  1
  H  H96  1  0.61823903  0.14928328  0.12943324  1
  H  H97  1  0.38176097  0.85071672  0.87056676  1
  H  H98  1  0.56747906  0.27293289  0.17761496  1
  H  H99  1  0.43252094  0.72706711  0.82238504  1
  H  H100  1  0.46844489  0.66314389  0.64117111  1
  H  H101  1  0.53155511  0.33685611  0.35882889  1
  H  H102  1  0.57016099  0.56556257  0.58685896  1
  H  H103  1  0.42983901  0.43443743  0.41314104  1
  H  H104  1  0.45481664  0.53640595  0.66289963  1
  H  H105  1  0.54518336  0.46359405  0.33710037  1
  H  H106  1  0.61795874  0.32454658  0.62557021  1
  H  H107  1  0.38204126  0.67545342  0.37442979  1
  H  H108  1  0.63630240  0.28887506  0.49793129  1
  H  H109  1  0.36369760  0.71112494  0.50206871  1
  H  H110  1  0.74408789  0.26488839  0.56306696  1
  H  H111  1  0.25591211  0.73511161  0.43693304  1
  H  H112  1  0.51984126  0.14249944  0.33789745  1
  H  H113  1  0.48015874  0.85750056  0.66210255  1
  H  H114  1  0.63306763  0.08467556  0.38440785  1
  H  H115  1  0.36693237  0.91532444  0.61559215  1
  H  H116  1  0.52233817  0.15265081  0.46692878  1
  H  H117  1  0.47766183  0.84734919  0.53307122  1
  H  H118  1  0.91450884  0.08183366  0.41686470  1
  H  H119  1  0.08549116  0.91816634  0.58313530  1
  H  H120  1  0.85910171  0.18970868  0.49220944  1
  H  H121  1  0.14089829  0.81029132  0.50779056  1
  H  H122  1  0.97269843  0.11283245  0.52201692  1
  H  H123  1  0.02730157  0.88716755  0.47798308  1
  H  H124  1  0.58071783  0.53695145  0.79459990  1
  H  H125  1  0.41928217  0.46304855  0.20540010  1
  H  H126  1  0.56345840  0.42063862  0.84494222  1
  H  H127  1  0.43654160  0.57936138  0.15505778  1
  H  H128  1  0.58386161  0.51639773  0.92456813  1
  H  H129  1  0.41613839  0.48360227  0.07543187  1
  N  N130  1  0.88224067  0.11424082  0.01102151  1
  N  N131  1  0.11775933  0.88575918  0.98897849  1
  N  N132  1  0.94189825  0.60580639  0.85673128  1
  N  N133  1  0.05810175  0.39419361  0.14326872  1
  N  N134  1  0.88670104  0.91091496  0.78189160  1
  N  N135  1  0.11329896  0.08908504  0.21810840  1
  N  N136  1  0.77840019  0.17796326  0.77032661  1
  N  N137  1  0.22159981  0.82203674  0.22967339  1
  N  N138  1  0.98547757  0.63080190  0.58164797  1
  N  N139  1  0.01452243  0.36919810  0.41835203  1
  N  N140  1  0.61100816  0.00912531  0.88130501  1
  N  N141  1  0.38899184  0.99087469  0.11869499  1
  N  N142  1  0.79948518  0.26900230  0.24583558  1
  N  N143  1  0.20051482  0.73099770  0.75416442  1
  N  N144  1  0.80809645  0.38522732  0.99620446  1
  N  N145  1  0.19190355  0.61477268  0.00379554  1
  N  N146  1  0.83743682  0.45768998  0.69302619  1
  N  N147  1  0.16256318  0.54231002  0.30697381  1
  N  N148  1  0.71784912  0.71541007  0.73448347  1
  N  N149  1  0.28215088  0.28458993  0.26551653  1
  N  N150  1  0.69823494  0.00409879  0.61377784  1
  N  N151  1  0.30176506  0.99590121  0.38622216  1
  N  N152  1  0.61033407  0.22920024  0.10986173  1
  N  N153  1  0.38966593  0.77079976  0.89013827  1
  N  N154  1  0.51226693  0.58906925  0.65635090  1
  N  N155  1  0.48773307  0.41093075  0.34364910  1
  N  N156  1  0.67374715  0.32085341  0.55443486  1
  N  N157  1  0.32625285  0.67914659  0.44556514  1
  N  N158  1  0.57188521  0.15331461  0.39201588  1
  N  N159  1  0.42811479  0.84668539  0.60798412  1
  N  N160  1  0.93543283  0.14349475  0.45913952  1
  N  N161  1  0.06456717  0.85650525  0.54086048  1
  N  N162  1  0.60950850  0.48192317  0.84888486  1
  N  N163  1  0.39049150  0.51807683  0.15111514  1
