# generated using pymatgen
data_Li10Si(PSe6)2
_symmetry_space_group_name_H-M   'P 1'
_cell_length_a   9.04091265
_cell_length_b   9.38321865
_cell_length_c   13.63791907
_cell_angle_alpha   91.81536578
_cell_angle_beta   90.72548580
_cell_angle_gamma   90.35035010
_symmetry_Int_Tables_number   1
_chemical_formula_structural   Li10Si(PSe6)2
_chemical_formula_sum   'Li20 Si2 P4 Se24'
_cell_volume   1156.24574004
_cell_formula_units_Z   2
loop_
 _symmetry_equiv_pos_site_id
 _symmetry_equiv_pos_as_xyz
  1  'x, y, z'
loop_
 _atom_site_type_symbol
 _atom_site_label
 _atom_site_symmetry_multiplicity
 _atom_site_fract_x
 _atom_site_fract_y
 _atom_site_fract_z
 _atom_site_occupancy
  Li  Li0  1  0.98855959  0.51605942  0.95521821  1
  Li  Li1  1  0.96614464  0.51670734  0.42483954  1
  Li  Li2  1  0.50889393  0.96633830  0.54765464  1
  Li  Li3  1  0.49692228  0.99302079  0.04818829  1
  Li  Li4  1  0.25666034  0.29202886  0.15811905  1
  Li  Li5  1  0.74598256  0.74669437  0.28114354  1
  Li  Li6  1  0.21847922  0.81795356  0.75533461  1
  Li  Li7  1  0.23058242  0.75561970  0.25110437  1
  Li  Li8  1  0.75355673  0.22006047  0.34972083  1
  Li  Li9  1  0.46256318  0.51650222  0.75127571  1
  Li  Li10  1  0.23022455  0.22726175  0.36402627  1
  Li  Li11  1  0.73164214  0.25649507  0.85695265  1
  Li  Li12  1  0.24763941  0.76023256  0.00679306  1
  Li  Li13  1  0.74184023  0.26551067  0.13281766  1
  Li  Li14  1  0.76310359  0.72632187  0.69045956  1
  Li  Li15  1  0.22450390  0.26120033  0.91974740  1
  Li  Li16  1  0.74545615  0.75960194  0.00912775  1
  Li  Li17  1  0.24180874  0.72158192  0.48410310  1
  Li  Li18  1  0.78416156  0.21395436  0.62549522  1
  Li  Li19  1  0.24129136  0.21090601  0.64980696  1
  Si  Si20  1  0.99710075  0.48598995  0.18303895  1
  Si  Si21  1  0.50777625  0.99259411  0.81634022  1
  P  P22  1  0.99313415  0.96567293  0.50148614  1
  P  P23  1  0.49211258  0.51529545  0.99297949  1
  P  P24  1  0.00875905  0.48208985  0.68431081  1
  P  P25  1  0.48755650  0.00972670  0.31062530  1
  Se  Se26  1  0.98855256  0.18371620  0.44372592  1
  Se  Se27  1  0.00521559  0.79050816  0.38573067  1
  Se  Se28  1  0.28866590  0.53426425  0.89802003  1
  Se  Se29  1  0.68978682  0.53374377  0.89554851  1
  Se  Se30  1  0.49672064  0.69852603  0.10184152  1
  Se  Se31  1  0.48545523  0.30437626  0.06134419  1
  Se  Se32  1  0.20285666  0.94564103  0.59074971  1
  Se  Se33  1  0.79554887  0.94552397  0.59378596  1
  Se  Se34  1  0.00570264  0.29758756  0.06863238  1
  Se  Se35  1  0.00011994  0.70411859  0.10724291  1
  Se  Se36  1  0.21946225  0.48552576  0.59860336  1
  Se  Se37  1  0.80884294  0.49148519  0.58685579  1
  Se  Se38  1  0.48693199  0.79445120  0.37636938  1
  Se  Se39  1  0.49622078  0.18435242  0.42568450  1
  Se  Se40  1  0.28815387  0.99064334  0.90384894  1
  Se  Se41  1  0.71172156  0.99652624  0.91709672  1
  Se  Se42  1  0.99169038  0.66649383  0.79150021  1
  Se  Se43  1  0.00328322  0.27439332  0.76154946  1
  Se  Se44  1  0.78244124  0.46692693  0.26998261  1
  Se  Se45  1  0.19704566  0.47979693  0.28939548  1
  Se  Se46  1  0.51574624  0.19713809  0.72442119  1
  Se  Se47  1  0.49298703  0.80019325  0.70563483  1
  Se  Se48  1  0.69188995  0.01460247  0.21861747  1
  Se  Se49  1  0.28589824  0.03114569  0.21631193  1
