# generated using pymatgen
data_Li10Sn(PSe6)2
_symmetry_space_group_name_H-M   'P 1'
_cell_length_a   9.08308228
_cell_length_b   9.43421887
_cell_length_c   13.79637049
_cell_angle_alpha   92.05967257
_cell_angle_beta   90.71512499
_cell_angle_gamma   90.17597103
_symmetry_Int_Tables_number   1
_chemical_formula_structural   Li10Sn(PSe6)2
_chemical_formula_sum   'Li20 Sn2 P4 Se24'
_cell_volume   1181.37247993
_cell_formula_units_Z   2
loop_
 _symmetry_equiv_pos_site_id
 _symmetry_equiv_pos_as_xyz
  1  'x, y, z'
loop_
 _atom_site_type_symbol
 _atom_site_label
 _atom_site_symmetry_multiplicity
 _atom_site_fract_x
 _atom_site_fract_y
 _atom_site_fract_z
 _atom_site_occupancy
  Li  Li0  1  0.98903355  0.51629350  0.95232371  1
  Li  Li1  1  0.96464076  0.51746405  0.42754918  1
  Li  Li2  1  0.50951815  0.96471754  0.54474818  1
  Li  Li3  1  0.49703543  0.99352211  0.05163305  1
  Li  Li4  1  0.25944563  0.28912017  0.15852742  1
  Li  Li5  1  0.74260507  0.74826141  0.28344808  1
  Li  Li6  1  0.21520510  0.81646926  0.75464611  1
  Li  Li7  1  0.23325571  0.75842303  0.25294260  1
  Li  Li8  1  0.75215615  0.21703685  0.35133799  1
  Li  Li9  1  0.46176806  0.51262453  0.75132388  1
  Li  Li10  1  0.23098755  0.22492319  0.36557396  1
  Li  Li11  1  0.73605045  0.25909900  0.85727376  1
  Li  Li12  1  0.24785294  0.75952953  0.00645222  1
  Li  Li13  1  0.74034561  0.26177873  0.13204641  1
  Li  Li14  1  0.76488923  0.72464027  0.68829152  1
  Li  Li15  1  0.22179207  0.26183707  0.91995902  1
  Li  Li16  1  0.74570319  0.75955068  0.00893505  1
  Li  Li17  1  0.24220297  0.72064651  0.48430852  1
  Li  Li18  1  0.78522498  0.21552654  0.62493457  1
  Li  Li19  1  0.24026322  0.21290819  0.64873952  1
  Sn  Sn20  1  0.99592294  0.48964272  0.18335415  1
  Sn  Sn21  1  0.51051131  0.99089186  0.81605676  1
  P  P22  1  0.99246478  0.96607560  0.50177446  1
  P  P23  1  0.49234610  0.51531467  0.99274747  1
  P  P24  1  0.00879333  0.48161290  0.68381526  1
  P  P25  1  0.48781553  0.01035656  0.31094303  1
  Se  Se26  1  0.98808374  0.18177161  0.44362116  1
  Se  Se27  1  0.00569892  0.79012801  0.38702699  1
  Se  Se28  1  0.29017042  0.53393342  0.89852341  1
  Se  Se29  1  0.68937491  0.53431390  0.89706235  1
  Se  Se30  1  0.49642648  0.69835624  0.10046550  1
  Se  Se31  1  0.48566341  0.30552445  0.05966741  1
  Se  Se32  1  0.20143944  0.94539290  0.59002823  1
  Se  Se33  1  0.79633001  0.94604284  0.59284360  1
  Se  Se34  1  0.00601197  0.28149543  0.05839907  1
  Se  Se35  1  0.00085181  0.72619026  0.09848285  1
  Se  Se36  1  0.21709704  0.48501722  0.59912375  1
  Se  Se37  1  0.81078931  0.49160646  0.58709857  1
  Se  Se38  1  0.48625322  0.79666649  0.37526038  1
  Se  Se39  1  0.49589657  0.18212759  0.42623097  1
  Se  Se40  1  0.26794011  0.98894674  0.91053834  1
  Se  Se41  1  0.73152261  0.00336437  0.93000015  1
  Se  Se42  1  0.99132657  0.66456734  0.79115302  1
  Se  Se43  1  0.00374334  0.27588602  0.76036849  1
  Se  Se44  1  0.76210065  0.46575699  0.28033285  1
  Se  Se45  1  0.21682438  0.47892274  0.29917656  1
  Se  Se46  1  0.51943438  0.21617535  0.71545049  1
  Se  Se47  1  0.48868826  0.78151274  0.69219807  1
  Se  Se48  1  0.69027343  0.01385251  0.21949441  1
  Se  Se49  1  0.28762821  0.03128492  0.21696251  1
