# generated using pymatgen
data_Li10Ge(PSe6)2
_symmetry_space_group_name_H-M   'P 1'
_cell_length_a   9.05284816
_cell_length_b   9.39981286
_cell_length_c   13.69120445
_cell_angle_alpha   91.92888685
_cell_angle_beta   90.68956577
_cell_angle_gamma   90.31837394
_symmetry_Int_Tables_number   1
_chemical_formula_structural   Li10Ge(PSe6)2
_chemical_formula_sum   'Li20 Ge2 P4 Se24'
_cell_volume   1164.28892153
_cell_formula_units_Z   2
loop_
 _symmetry_equiv_pos_site_id
 _symmetry_equiv_pos_as_xyz
  1  'x, y, z'
loop_
 _atom_site_type_symbol
 _atom_site_label
 _atom_site_symmetry_multiplicity
 _atom_site_fract_x
 _atom_site_fract_y
 _atom_site_fract_z
 _atom_site_occupancy
  Li  Li0  1  0.98874648  0.51611965  0.95420313  1
  Li  Li1  1  0.96555710  0.51691490  0.42577466  1
  Li  Li2  1  0.50918569  0.96592726  0.54687566  1
  Li  Li3  1  0.49677503  0.99350439  0.04942906  1
  Li  Li4  1  0.25724254  0.29125939  0.15819756  1
  Li  Li5  1  0.74474653  0.74727265  0.28185417  1
  Li  Li6  1  0.21753459  0.81767969  0.75504751  1
  Li  Li7  1  0.23119327  0.75656042  0.25168665  1
  Li  Li8  1  0.75323486  0.21881160  0.35035769  1
  Li  Li9  1  0.46226530  0.51517754  0.75154417  1
  Li  Li10  1  0.23036134  0.22645108  0.36468509  1
  Li  Li11  1  0.73313553  0.25740588  0.85700552  1
  Li  Li12  1  0.24779004  0.75971513  0.00657961  1
  Li  Li13  1  0.74156571  0.26436036  0.13249683  1
  Li  Li14  1  0.76371693  0.72581448  0.68969658  1
  Li  Li15  1  0.22345380  0.26153869  0.91982219  1
  Li  Li16  1  0.74558530  0.75929700  0.00903958  1
  Li  Li17  1  0.24190179  0.72128647  0.48414686  1
  Li  Li18  1  0.78440594  0.21414827  0.62534420  1
  Li  Li19  1  0.24106975  0.21153751  0.64948006  1
  Ge  Ge20  1  0.99675372  0.48714224  0.18299468  1
  Ge  Ge21  1  0.50887644  0.99178722  0.81644177  1
  P  P22  1  0.99268166  0.96560102  0.50158167  1
  P  P23  1  0.49245981  0.51510446  0.99293653  1
  P  P24  1  0.00911062  0.48198720  0.68428036  1
  P  P25  1  0.48791151  0.00980198  0.31069492  1
  Se  Se26  1  0.98840659  0.18310567  0.44357964  1
  Se  Se27  1  0.00539131  0.79028383  0.38618169  1
  Se  Se28  1  0.28935044  0.53390212  0.89817947  1
  Se  Se29  1  0.68950979  0.53398604  0.89616942  1
  Se  Se30  1  0.49662297  0.69855928  0.10137188  1
  Se  Se31  1  0.48554015  0.30480985  0.06076858  1
  Se  Se32  1  0.20241199  0.94543574  0.59039557  1
  Se  Se33  1  0.79590720  0.94573554  0.59333413  1
  Se  Se34  1  0.00548519  0.29133462  0.06462659  1
  Se  Se35  1  0.00038690  0.71203146  0.10416637  1
  Se  Se36  1  0.21850653  0.48531895  0.59886779  1
  Se  Se37  1  0.80921078  0.49140761  0.58696125  1
  Se  Se38  1  0.48688663  0.79538107  0.37607369  1
  Se  Se39  1  0.49614292  0.18389361  0.42590009  1
  Se  Se40  1  0.28068182  0.99007765  0.90618054  1
  Se  Se41  1  0.71906984  0.99956865  0.92212597  1
  Se  Se42  1  0.99155456  0.66618080  0.79134421  1
  Se  Se43  1  0.00350711  0.27524532  0.76104592  1
  Se  Se44  1  0.77540164  0.46662386  0.27347077  1
  Se  Se45  1  0.20419904  0.47976299  0.29292866  1
  Se  Se46  1  0.51733654  0.20350264  0.72109226  1
  Se  Se47  1  0.49104821  0.79348848  0.70055235  1
  Se  Se48  1  0.69114779  0.01417491  0.21908437  1
  Se  Se49  1  0.28643080  0.03108379  0.21660309  1
