# generated using pymatgen
data_CrH14N4Cl3O
_symmetry_space_group_name_H-M   'P 1'
_cell_length_a   6.85833281
_cell_length_b   10.75180947
_cell_length_c   6.83469620
_cell_angle_alpha   90.00000000
_cell_angle_beta   98.13710775
_cell_angle_gamma   90.00000000
_symmetry_Int_Tables_number   1
_chemical_formula_structural   CrH14N4Cl3O
_chemical_formula_sum   'Cr2 H28 N8 Cl6 O2'
_cell_volume   498.91295352
_cell_formula_units_Z   2
loop_
 _symmetry_equiv_pos_site_id
 _symmetry_equiv_pos_as_xyz
  1  'x, y, z'
loop_
 _atom_site_type_symbol
 _atom_site_label
 _atom_site_symmetry_multiplicity
 _atom_site_fract_x
 _atom_site_fract_y
 _atom_site_fract_z
 _atom_site_occupancy
  Cr  Cr0  1  0.16370066  0.25000000  0.22566777  1
  Cr  Cr1  1  0.83629934  0.75000000  0.77433223  1
  H  H2  1  0.20892572  0.02188935  0.09135808  1
  H  H3  1  0.79107428  0.52188935  0.90864192  1
  H  H4  1  0.79107428  0.97811065  0.90864192  1
  H  H5  1  0.20892572  0.47811065  0.09135808  1
  H  H6  1  0.03572023  0.01693625  0.23610234  1
  H  H7  1  0.96427977  0.51693625  0.76389766  1
  H  H8  1  0.96427977  0.98306375  0.76389766  1
  H  H9  1  0.03572023  0.48306375  0.23610234  1
  H  H10  1  0.27101310  0.01901541  0.33425120  1
  H  H11  1  0.72898690  0.51901541  0.66574880  1
  H  H12  1  0.72898690  0.98098459  0.66574880  1
  H  H13  1  0.27101310  0.48098459  0.33425120  1
  H  H14  1  0.84886204  0.32723715  0.38137495  1
  H  H15  1  0.15113796  0.82723715  0.61862505  1
  H  H16  1  0.15113796  0.67276285  0.61862505  1
  H  H17  1  0.84886204  0.17276285  0.38137495  1
  H  H18  1  0.98987628  0.25000000  0.55757369  1
  H  H19  1  0.01012372  0.75000000  0.44242631  1
  H  H20  1  0.41275034  0.32724495  0.98374980  1
  H  H21  1  0.58724966  0.82724495  0.01625020  1
  H  H22  1  0.58724966  0.67275505  0.01625020  1
  H  H23  1  0.41275034  0.17275505  0.98374980  1
  H  H24  1  0.52453485  0.25000000  0.17860639  1
  H  H25  1  0.47546515  0.75000000  0.82139361  1
  H  H26  1  0.37142808  0.32521924  0.55791415  1
  H  H27  1  0.62857192  0.82521924  0.44208585  1
  H  H28  1  0.62857192  0.67478076  0.44208585  1
  H  H29  1  0.37142808  0.17478076  0.55791415  1
  N  N30  1  0.17102762  0.05443993  0.22191182  1
  N  N31  1  0.82897238  0.55443993  0.77808818  1
  N  N32  1  0.82897238  0.94556007  0.77808818  1
  N  N33  1  0.17102762  0.44556007  0.22191182  1
  N  N34  1  0.93769466  0.25000000  0.40906039  1
  N  N35  1  0.06230534  0.75000000  0.59093961  1
  N  N36  1  0.40492983  0.25000000  0.07065487  1
  N  N37  1  0.59507017  0.75000000  0.92934513  1
  Cl  Cl38  1  0.93003300  0.25000000  0.94448246  1
  Cl  Cl39  1  0.06996700  0.75000000  0.05551754  1
  Cl  Cl40  1  0.68538921  0.97983684  0.28275419  1
  Cl  Cl41  1  0.31461079  0.47983684  0.71724581  1
  Cl  Cl42  1  0.31461079  0.02016316  0.71724581  1
  Cl  Cl43  1  0.68538921  0.52016316  0.28275419  1
  O  O44  1  0.37691361  0.25000000  0.47153753  1
  O  O45  1  0.62308639  0.75000000  0.52846247  1
