# generated using pymatgen
data_TiMnFe(PO4)3
_symmetry_space_group_name_H-M   'P 1'
_cell_length_a   8.65152298
_cell_length_b   8.65152360
_cell_length_c   8.65152303
_cell_angle_alpha   59.98689767
_cell_angle_beta   59.98689526
_cell_angle_gamma   59.98689497
_symmetry_Int_Tables_number   1
_chemical_formula_structural   TiMnFe(PO4)3
_chemical_formula_sum   'Ti2 Mn2 Fe2 P6 O24'
_cell_volume   457.75560807
_cell_formula_units_Z   2
loop_
 _symmetry_equiv_pos_site_id
 _symmetry_equiv_pos_as_xyz
  1  'x, y, z'
loop_
 _atom_site_type_symbol
 _atom_site_label
 _atom_site_symmetry_multiplicity
 _atom_site_fract_x
 _atom_site_fract_y
 _atom_site_fract_z
 _atom_site_occupancy
  Ti  Ti0  1  0.14535252  0.14535252  0.14535252  1
  Ti  Ti1  1  0.64535252  0.64535252  0.64535252  1
  Mn  Mn2  1  0.99761517  0.99761517  0.99761517  1
  Mn  Mn3  1  0.49761517  0.49761517  0.49761517  1
  Fe  Fe4  1  0.35411490  0.35411490  0.35411490  1
  Fe  Fe5  1  0.85411490  0.85411490  0.85411490  1
  P  P6  1  0.04417528  0.75054548  0.45760857  1
  P  P7  1  0.45760857  0.04417528  0.75054548  1
  P  P8  1  0.75054548  0.45760857  0.04417528  1
  P  P9  1  0.25054548  0.54417528  0.95760857  1
  P  P10  1  0.54417528  0.95760857  0.25054548  1
  P  P11  1  0.95760857  0.25054548  0.54417528  1
  O  O12  1  0.11447305  0.31208456  0.50323224  1
  O  O13  1  0.31208456  0.50323224  0.11447305  1
  O  O14  1  0.05666488  0.91544754  0.26342525  1
  O  O15  1  0.50323224  0.11447305  0.31208456  1
  O  O16  1  0.00323224  0.81208456  0.61447305  1
  O  O17  1  0.23537405  0.58713610  0.44108497  1
  O  O18  1  0.26342525  0.05666488  0.91544754  1
  O  O19  1  0.44108497  0.23537405  0.58713610  1
  O  O20  1  0.19249571  0.37809083  0.00107890  1
  O  O21  1  0.58713610  0.44108497  0.23537405  1
  O  O22  1  0.08713610  0.73537405  0.94108497  1
  O  O23  1  0.37809083  0.00107890  0.19249571  1
  O  O24  1  0.61447305  0.00323224  0.81208456  1
  O  O25  1  0.91544754  0.26342525  0.05666488  1
  O  O26  1  0.41544754  0.55666488  0.76342525  1
  O  O27  1  0.81208456  0.61447305  0.00323224  1
  O  O28  1  0.55666488  0.76342525  0.41544754  1
  O  O29  1  0.73537405  0.94108497  0.08713610  1
  O  O30  1  0.76342525  0.41544754  0.55666488  1
  O  O31  1  0.00107890  0.19249571  0.37809083  1
  O  O32  1  0.50107890  0.87809083  0.69249571  1
  O  O33  1  0.94108497  0.08713610  0.73537405  1
  O  O34  1  0.69249571  0.50107890  0.87809083  1
  O  O35  1  0.87809083  0.69249571  0.50107890  1
