# generated using pymatgen
data_FeH4(CO3)2
_symmetry_space_group_name_H-M   'P 1'
_cell_length_a   6.69555131
_cell_length_b   6.69555131
_cell_length_c   9.92390114
_cell_angle_alpha   55.74382378
_cell_angle_beta   124.25617622
_cell_angle_gamma   130.19409113
_symmetry_Int_Tables_number   1
_chemical_formula_structural   FeH4(CO3)2
_chemical_formula_sum   'Fe2 H8 C4 O12'
_cell_volume   266.47647600
_cell_formula_units_Z   2
loop_
 _symmetry_equiv_pos_site_id
 _symmetry_equiv_pos_as_xyz
  1  'x, y, z'
loop_
 _atom_site_type_symbol
 _atom_site_label
 _atom_site_symmetry_multiplicity
 _atom_site_fract_x
 _atom_site_fract_y
 _atom_site_fract_z
 _atom_site_occupancy
  Fe  Fe0  1  0.82656396  0.82656396  0.75000000  1
  Fe  Fe1  1  0.17343604  0.17343604  0.25000000  1
  H  H2  1  0.17463921  0.64869578  0.84916340  1
  H  H3  1  0.64869578  0.17463921  0.65083660  1
  H  H4  1  0.82536079  0.35130422  0.15083660  1
  H  H5  1  0.35130422  0.82536079  0.34916340  1
  H  H6  1  0.02634030  0.70503730  0.64370086  1
  H  H7  1  0.70503730  0.02634030  0.85629914  1
  H  H8  1  0.97365970  0.29496270  0.35629914  1
  H  H9  1  0.29496270  0.97365970  0.14370086  1
  C  C10  1  0.37873741  0.27654127  0.85045046  1
  C  C11  1  0.27654127  0.37873741  0.64954954  1
  C  C12  1  0.62126259  0.72345873  0.14954954  1
  C  C13  1  0.72345873  0.62126259  0.35045046  1
  O  O14  1  0.61595777  0.43946994  0.92408455  1
  O  O15  1  0.43946994  0.61595777  0.57591545  1
  O  O16  1  0.38404223  0.56053006  0.07591545  1
  O  O17  1  0.56053006  0.38404223  0.42408455  1
  O  O18  1  0.21573803  0.03857073  0.92416386  1
  O  O19  1  0.03857073  0.21573803  0.57583614  1
  O  O20  1  0.78426197  0.96142927  0.07583614  1
  O  O21  1  0.96142927  0.78426197  0.42416386  1
  O  O22  1  0.00413240  0.64610374  0.75334484  1
  O  O23  1  0.64610374  0.00413240  0.74665516  1
  O  O24  1  0.99586760  0.35389626  0.24665516  1
  O  O25  1  0.35389626  0.99586760  0.25334484  1
