# generated using pymatgen
data_ErCrHO5
_symmetry_space_group_name_H-M   'P 1'
_cell_length_a   8.20244362
_cell_length_b   11.59018777
_cell_length_c   8.23929834
_cell_angle_alpha   90.00000000
_cell_angle_beta   93.45601834
_cell_angle_gamma   90.00000000
_symmetry_Int_Tables_number   1
_chemical_formula_structural   ErCrHO5
_chemical_formula_sum   'Er8 Cr8 H8 O40'
_cell_volume   781.86795262
_cell_formula_units_Z   8
loop_
 _symmetry_equiv_pos_site_id
 _symmetry_equiv_pos_as_xyz
  1  'x, y, z'
loop_
 _atom_site_type_symbol
 _atom_site_label
 _atom_site_symmetry_multiplicity
 _atom_site_fract_x
 _atom_site_fract_y
 _atom_site_fract_z
 _atom_site_occupancy
  Er  Er0  1  0.08443292  0.92262502  0.32326928  1
  Er  Er1  1  0.58443292  0.57737498  0.82326928  1
  Er  Er2  1  0.91556708  0.07737498  0.67673072  1
  Er  Er3  1  0.41556708  0.42262502  0.17673072  1
  Er  Er4  1  0.63470900  0.93808903  0.34845473  1
  Er  Er5  1  0.13470900  0.56191097  0.84845473  1
  Er  Er6  1  0.36529100  0.06191097  0.65154527  1
  Er  Er7  1  0.86529100  0.43808903  0.15154527  1
  Cr  Cr8  1  0.86755294  0.67079663  0.50075695  1
  Cr  Cr9  1  0.36755294  0.82920337  0.00075695  1
  Cr  Cr10  1  0.13244706  0.32920337  0.49924305  1
  Cr  Cr11  1  0.63244706  0.17079663  0.99924305  1
  Cr  Cr12  1  0.86581140  0.81255443  0.95940764  1
  Cr  Cr13  1  0.36581140  0.68744557  0.45940764  1
  Cr  Cr14  1  0.13418860  0.18744557  0.04059236  1
  Cr  Cr15  1  0.63418860  0.31255443  0.54059236  1
  H  H16  1  0.89098042  0.10379896  0.32357128  1
  H  H17  1  0.39098042  0.39620104  0.82357128  1
  H  H18  1  0.10901958  0.89620104  0.67642872  1
  H  H19  1  0.60901958  0.60379896  0.17642872  1
  H  H20  1  0.63702446  0.92737096  0.69557562  1
  H  H21  1  0.13702446  0.57262904  0.19557562  1
  H  H22  1  0.36297554  0.07262904  0.30442438  1
  H  H23  1  0.86297554  0.42737096  0.80442438  1
  O  O24  1  0.84518961  0.80996509  0.43839239  1
  O  O25  1  0.34518961  0.69003491  0.93839239  1
  O  O26  1  0.15481039  0.19003491  0.56160761  1
  O  O27  1  0.65481039  0.30996509  0.06160761  1
  O  O28  1  0.01641341  0.66600546  0.64489604  1
  O  O29  1  0.51641341  0.83399454  0.14489604  1
  O  O30  1  0.98358659  0.33399454  0.35510396  1
  O  O31  1  0.48358659  0.16600546  0.85510396  1
  O  O32  1  0.70153558  0.62708468  0.58535104  1
  O  O33  1  0.20153558  0.87291532  0.08535104  1
  O  O34  1  0.29846442  0.37291532  0.41464896  1
  O  O35  1  0.79846442  0.12708468  0.91464896  1
  O  O36  1  0.89986881  0.58474225  0.34339672  1
  O  O37  1  0.39986881  0.91525775  0.84339672  1
  O  O38  1  0.10013119  0.41525775  0.65660328  1
  O  O39  1  0.60013119  0.08474225  0.15660328  1
  O  O40  1  0.85158562  0.88136213  0.13878944  1
  O  O41  1  0.35158562  0.61863787  0.63878944  1
  O  O42  1  0.14841438  0.11863787  0.86121056  1
  O  O43  1  0.64841438  0.38136213  0.36121056  1
  O  O44  1  0.99362973  0.70299699  0.98364708  1
  O  O45  1  0.49362973  0.79700301  0.48364708  1
  O  O46  1  0.00637027  0.29700301  0.01635292  1
  O  O47  1  0.50637027  0.20299699  0.51635292  1
  O  O48  1  0.68722215  0.75770707  0.88921263  1
  O  O49  1  0.18722215  0.74229293  0.38921263  1
  O  O50  1  0.31277785  0.24229293  0.11078737  1
  O  O51  1  0.81277785  0.25770707  0.61078737  1
  O  O52  1  0.92555940  0.90548065  0.82072631  1
  O  O53  1  0.42555940  0.59451935  0.32072631  1
  O  O54  1  0.07444060  0.09451935  0.17927369  1
  O  O55  1  0.57444060  0.40548065  0.67927369  1
  O  O56  1  0.87168181  0.04274623  0.40165381  1
  O  O57  1  0.37168181  0.45725377  0.90165381  1
  O  O58  1  0.12831819  0.95725377  0.59834619  1
  O  O59  1  0.62831819  0.54274623  0.09834619  1
  O  O60  1  0.64194518  0.99462812  0.62412530  1
  O  O61  1  0.14194518  0.50537188  0.12412530  1
  O  O62  1  0.35805482  0.00537188  0.37587470  1
  O  O63  1  0.85805482  0.49462812  0.87587470  1
