# generated using pymatgen
data_NaMn6Al3H42(SO19)2
_symmetry_space_group_name_H-M   'P 1'
_cell_length_a   12.35774685
_cell_length_b   12.35774432
_cell_length_c   12.35772119
_cell_angle_alpha   45.72096726
_cell_angle_beta   45.72055624
_cell_angle_gamma   45.72092173
_symmetry_Int_Tables_number   1
_chemical_formula_structural   NaMn6Al3H42(SO19)2
_chemical_formula_sum   'Na1 Mn6 Al3 H42 S2 O38'
_cell_volume   881.80404007
_cell_formula_units_Z   1
loop_
 _symmetry_equiv_pos_site_id
 _symmetry_equiv_pos_as_xyz
  1  'x, y, z'
loop_
 _atom_site_type_symbol
 _atom_site_label
 _atom_site_symmetry_multiplicity
 _atom_site_fract_x
 _atom_site_fract_y
 _atom_site_fract_z
 _atom_site_occupancy
  Na  Na0  1  0.00000113  0.99999770  -0.00000019  1
  Mn  Mn1  1  0.49634995  0.16610818  0.83380092  1
  Mn  Mn2  1  0.16611078  0.83378870  0.49634754  1
  Mn  Mn3  1  0.83379418  0.49634267  0.16611654  1
  Mn  Mn4  1  0.50369519  0.83388769  0.16624128  1
  Mn  Mn5  1  0.83386984  0.16619388  0.50367560  1
  Mn  Mn6  1  0.16620687  0.50366727  0.83387856  1
  Al  Al7  1  0.83595956  0.83595784  0.83596054  1
  Al  Al8  1  0.16403765  0.16403874  0.16403667  1
  Al  Al9  1  0.49998883  0.49999959  0.49999525  1
  H  H10  1  0.32626020  0.03997321  0.31013575  1
  H  H11  1  0.03996280  0.31012426  0.32627920  1
  H  H12  1  0.31012355  0.32627931  0.03996255  1
  H  H13  1  0.67371888  0.96003899  0.68987729  1
  H  H14  1  0.96002919  0.68986985  0.67372296  1
  H  H15  1  0.68986216  0.67373150  0.96004914  1
  H  H16  1  0.97908519  0.00780162  0.69940912  1
  H  H17  1  0.00780294  0.69940950  0.97908444  1
  H  H18  1  0.69942800  0.97909386  0.00778860  1
  H  H19  1  0.02090952  0.99219762  0.30059261  1
  H  H20  1  0.99219628  0.30059577  0.02091058  1
  H  H21  1  0.30060402  0.02090385  0.99220580  1
  H  H22  1  0.62655200  0.36267498  0.68983532  1
  H  H23  1  0.36266509  0.68984364  0.62655317  1
  H  H24  1  0.68984771  0.62654256  0.36267918  1
  H  H25  1  0.37344397  0.63736155  0.31014237  1
  H  H26  1  0.63733405  0.31015526  0.37343980  1
  H  H27  1  0.31014715  0.37344199  0.63734204  1
  H  H28  1  0.63801014  0.47008610  0.78431273  1
  H  H29  1  0.47007548  0.78431441  0.63801740  1
  H  H30  1  0.78432064  0.63800754  0.47007772  1
  H  H31  1  0.36198964  0.52990990  0.21568248  1
  H  H32  1  0.52992334  0.21568040  0.36198335  1
  H  H33  1  0.21567699  0.36199224  0.52991592  1
  H  H34  1  0.54967459  0.34871864  0.93960295  1
  H  H35  1  0.34871476  0.93960484  0.54967462  1
  H  H36  1  0.93961964  0.54966193  0.34872042  1
  H  H37  1  0.45032296  0.65128061  0.06039410  1
  H  H38  1  0.65128274  0.06038776  0.45032761  1
  H  H39  1  0.06037682  0.45033595  0.65127602  1
  H  H40  1  0.85395557  0.20932199  0.77732045  1
  H  H41  1  0.20931727  0.77732703  0.85395095  1
  H  H42  1  0.77733039  0.85394325  0.20932465  1
  H  H43  1  0.14604420  0.79067668  0.22267586  1
  H  H44  1  0.79067943  0.22266802  0.14605059  1
  H  H45  1  0.22266910  0.14604944  0.79067831  1
  H  H46  1  0.02986488  0.19933164  0.63172733  1
  H  H47  1  0.19932120  0.63173814  0.02986144  1
  H  H48  1  0.63174403  0.02985548  0.19932163  1
  H  H49  1  0.97013395  0.80066669  0.36826981  1
  H  H50  1  0.80067765  0.36825515  0.97014023  1
  H  H51  1  0.36825306  0.97014057  0.80067949  1
  S  S52  1  0.29531490  0.29533440  0.29532796  1
  S  S53  1  0.70468555  0.70466530  0.70466525  1
  O  O54  1  0.65934325  0.65935838  0.65935767  1
  O  O55  1  0.34065647  0.34063710  0.34064041  1
  O  O56  1  0.39231406  0.11395072  0.33516454  1
  O  O57  1  0.11396301  0.33517017  0.39230922  1
  O  O58  1  0.33516871  0.39231372  0.11395173  1
  O  O59  1  0.60768562  0.88604718  0.66483157  1
  O  O60  1  0.88603472  0.66482872  0.60768776  1
  O  O61  1  0.66482973  0.60768371  0.88604618  1
  O  O62  1  0.29503475  0.00072041  0.29213895  1
  O  O63  1  0.00071382  0.29212604  0.29504422  1
  O  O64  1  0.29213081  0.29504583  0.00071216  1
  O  O65  1  0.70496009  0.99928100  0.70786915  1
  O  O66  1  0.99927672  0.70786998  0.70495951  1
  O  O67  1  0.70786626  0.70496465  0.99928885  1
  O  O68  1  0.96465606  0.96515971  0.66780047  1
  O  O69  1  0.96515735  0.66780109  0.96466065  1
  O  O70  1  0.66780978  0.96466832  0.96515594  1
  O  O71  1  0.03532834  0.03484532  0.33220204  1
  O  O72  1  0.03483740  0.33220813  0.03533564  1
  O  O73  1  0.33221176  0.03533778  0.03483996  1
  O  O74  1  0.62144880  0.33407820  0.63670923  1
  O  O75  1  0.33406718  0.63671795  0.62145040  1
  O  O76  1  0.63671721  0.62145550  0.33407425  1
  O  O77  1  0.37854902  0.66594624  0.36327472  1
  O  O78  1  0.66592509  0.36328630  0.37854467  1
  O  O79  1  0.36327634  0.37854800  0.66593057  1
  O  O80  1  0.64091523  0.36398470  0.82828119  1
  O  O81  1  0.36397974  0.82828240  0.64091506  1
  O  O82  1  0.82827713  0.64091616  0.36399266  1
  O  O83  1  0.35907407  0.63601678  0.17171405  1
  O  O84  1  0.63602243  0.17170979  0.35907894  1
  O  O85  1  0.17172081  0.35907615  0.63600336  1
  O  O86  1  0.97253931  0.13114030  0.74413107  1
  O  O87  1  0.13113548  0.74412998  0.97254483  1
  O  O88  1  0.74412197  0.97255062  0.13114215  1
  O  O89  1  0.02745878  0.86885630  0.25586168  1
  O  O90  1  0.86885860  0.25586618  0.02745406  1
  O  O91  1  0.25586846  0.02744482  0.86885861  1
