# generated using pymatgen
data_K2Cr2AsHO10
_symmetry_space_group_name_H-M   'P 1'
_cell_length_a   7.87066453
_cell_length_b   7.87066450
_cell_length_c   14.64917257
_cell_angle_alpha   90.00000000
_cell_angle_beta   90.00000000
_cell_angle_gamma   120.00000019
_symmetry_Int_Tables_number   1
_chemical_formula_structural   K2Cr2AsHO10
_chemical_formula_sum   'K6 Cr6 As3 H3 O30'
_cell_volume   785.89862320
_cell_formula_units_Z   3
loop_
 _symmetry_equiv_pos_site_id
 _symmetry_equiv_pos_as_xyz
  1  'x, y, z'
loop_
 _atom_site_type_symbol
 _atom_site_label
 _atom_site_symmetry_multiplicity
 _atom_site_fract_x
 _atom_site_fract_y
 _atom_site_fract_z
 _atom_site_occupancy
  K  K0  1  0.56423808  0.01988645  0.01325039  1
  K  K1  1  0.45564837  0.43576192  0.67991639  1
  K  K2  1  0.98011355  0.54435163  0.34658339  1
  K  K3  1  0.38940618  0.39497663  0.18596561  1
  K  K4  1  0.00557045  0.61059382  0.85263161  1
  K  K5  1  0.60502337  0.99442955  0.51929861  1
  Cr  Cr6  1  0.57168701  0.99398916  0.27281947  1
  Cr  Cr7  1  0.42230215  0.42831299  0.93948547  1
  Cr  Cr8  1  0.00601084  0.57769785  0.60615247  1
  Cr  Cr9  1  0.99729975  0.57921681  0.09661474  1
  Cr  Cr10  1  0.58191706  0.00270025  0.76328074  1
  Cr  Cr11  1  0.42078319  0.41808294  0.42994774  1
  As  As12  1  0.87367685  0.89377870  0.16794156  1
  As  As13  1  0.02010185  0.12632315  0.83460756  1
  As  As14  1  0.10622130  0.97989815  0.50127456  1
  H  H15  1  0.95241381  0.96963641  0.98080045  1
  H  H16  1  0.01722260  0.04758619  0.64746645  1
  H  H17  1  0.03036359  0.98277740  0.31413345  1
  O  O18  1  0.74854765  0.13822185  0.34061808  1
  O  O19  1  0.38967420  0.25145235  0.00728408  1
  O  O20  1  0.86177815  0.61032580  0.67395108  1
  O  O21  1  0.53074730  0.12167517  0.19778059  1
  O  O22  1  0.59092787  0.46925270  0.86444659  1
  O  O23  1  0.87832483  0.40907213  0.53111359  1
  O  O24  1  0.37664868  0.85590348  0.33274796  1
  O  O25  1  0.47925480  0.62335132  0.99941396  1
  O  O26  1  0.14409652  0.52074520  0.66608096  1
  O  O27  1  0.64250325  0.83191854  0.21170253  1
  O  O28  1  0.18941529  0.35749675  0.87836853  1
  O  O29  1  0.16808146  0.81058471  0.54503553  1
  O  O30  1  0.91038445  0.01218688  0.06886011  1
  O  O31  1  0.10180243  0.08961555  0.73552611  1
  O  O32  1  0.98781312  0.89819757  0.40219311  1
  O  O33  1  0.05718314  0.03417204  0.24501057  1
  O  O34  1  0.97698889  0.94281686  0.91167657  1
  O  O35  1  0.96582796  0.02301111  0.57834357  1
  O  O36  1  0.84696243  0.65875987  0.16234151  1
  O  O37  1  0.81179745  0.15303757  0.82900751  1
  O  O38  1  0.34124013  0.18820255  0.49567451  1
  O  O39  1  0.16802719  0.76598686  0.04242966  1
  O  O40  1  0.59795967  0.83197281  0.70909566  1
  O  O41  1  0.23401314  0.40204033  0.37576266  1
  O  O42  1  0.09095425  0.49144016  0.16879824  1
  O  O43  1  0.40048592  0.90904575  0.83546424  1
  O  O44  1  0.50855984  0.59951408  0.50213124  1
  O  O45  1  0.85673554  0.41330437  0.02317055  1
  O  O46  1  0.55656883  0.14326446  0.68983655  1
  O  O47  1  0.58669563  0.44343117  0.35650355  1
