# generated using pymatgen
data_ZnCrH15N5Cl4F
_symmetry_space_group_name_H-M   'P 1'
_cell_length_a   9.64013226
_cell_length_b   9.64013226
_cell_length_c   9.17434999
_cell_angle_alpha   90.00000000
_cell_angle_beta   90.00000000
_cell_angle_gamma   49.21975419
_symmetry_Int_Tables_number   1
_chemical_formula_structural   ZnCrH15N5Cl4F
_chemical_formula_sum   'Zn2 Cr2 H30 N10 Cl8 F2'
_cell_volume   645.60001705
_cell_formula_units_Z   2
loop_
 _symmetry_equiv_pos_site_id
 _symmetry_equiv_pos_as_xyz
  1  'x, y, z'
loop_
 _atom_site_type_symbol
 _atom_site_label
 _atom_site_symmetry_multiplicity
 _atom_site_fract_x
 _atom_site_fract_y
 _atom_site_fract_z
 _atom_site_occupancy
  Zn  Zn0  1  0.88887732  0.88887732  0.52222109  1
  Zn  Zn1  1  0.11112268  0.11112268  0.02222109  1
  Cr  Cr2  1  0.60059404  0.60059404  0.42078733  1
  Cr  Cr3  1  0.39940596  0.39940596  0.92078733  1
  H  H4  1  0.27943173  0.70369586  0.36328342  1
  H  H5  1  0.70369586  0.27943173  0.36328342  1
  H  H6  1  0.72056827  0.29630414  0.86328342  1
  H  H7  1  0.29630414  0.72056827  0.86328342  1
  H  H8  1  0.38243817  0.66287430  0.20568874  1
  H  H9  1  0.66287430  0.38243817  0.20568874  1
  H  H10  1  0.61756183  0.33712570  0.70568874  1
  H  H11  1  0.33712570  0.61756183  0.70568874  1
  H  H12  1  0.27975770  0.86057047  0.29257387  1
  H  H13  1  0.86057047  0.27975770  0.29257387  1
  H  H14  1  0.72024230  0.13942953  0.79257387  1
  H  H15  1  0.13942953  0.72024230  0.79257387  1
  H  H16  1  0.78249727  0.57822549  0.18579694  1
  H  H17  1  0.57822549  0.78249727  0.18579694  1
  H  H18  1  0.21750273  0.42177451  0.68579694  1
  H  H19  1  0.42177451  0.21750273  0.68579694  1
  H  H20  1  0.73984756  0.73984756  0.29311386  1
  H  H21  1  0.26015244  0.26015244  0.79311386  1
  H  H22  1  0.85739576  0.41886872  0.62827665  1
  H  H23  1  0.41886872  0.85739576  0.62827665  1
  H  H24  1  0.14260424  0.58113128  0.12827665  1
  H  H25  1  0.58113128  0.14260424  0.12827665  1
  H  H26  1  0.86928515  0.56664525  0.55384362  1
  H  H27  1  0.56664525  0.86928515  0.55384362  1
  H  H28  1  0.13071485  0.43335475  0.05384362  1
  H  H29  1  0.43335475  0.13071485  0.05384362  1
  H  H30  1  0.96126376  0.37332182  0.46944365  1
  H  H31  1  0.37332182  0.96126376  0.46944365  1
  H  H32  1  0.03873624  0.62667818  0.96944365  1
  H  H33  1  0.62667818  0.03873624  0.96944365  1
  N  N34  1  0.35820338  0.72218386  0.30657215  1
  N  N35  1  0.72218386  0.35820338  0.30657215  1
  N  N36  1  0.64179662  0.27781614  0.80657215  1
  N  N37  1  0.27781614  0.64179662  0.80657215  1
  N  N38  1  0.68527947  0.68527947  0.25216847  1
  N  N39  1  0.31472053  0.31472053  0.75216847  1
  N  N40  1  0.85089786  0.47507925  0.53125284  1
  N  N41  1  0.47507925  0.85089786  0.53125284  1
  N  N42  1  0.14910214  0.52492075  0.03125284  1
  N  N43  1  0.52492075  0.14910214  0.03125284  1
  Cl  Cl44  1  0.82068936  0.82068936  0.74439673  1
  Cl  Cl45  1  0.17931064  0.17931064  0.24439673  1
  Cl  Cl46  1  0.01564637  0.01564637  0.56489175  1
  Cl  Cl47  1  0.98435363  0.98435363  0.06489175  1
  Cl  Cl48  1  0.08697481  0.60876643  0.41158042  1
  Cl  Cl49  1  0.60876643  0.08697481  0.41158042  1
  Cl  Cl50  1  0.91302519  0.39123357  0.91158042  1
  Cl  Cl51  1  0.39123357  0.91302519  0.91158042  1
  F  F52  1  0.52404819  0.52404819  0.57069617  1
  F  F53  1  0.47595181  0.47595181  0.07069617  1
