# generated using pymatgen
data_TbFeGe2O7
_symmetry_space_group_name_H-M   'P 1'
_cell_length_a   6.77960995
_cell_length_b   8.63898626
_cell_length_c   9.80527698
_cell_angle_alpha   90.00000000
_cell_angle_beta   100.37693038
_cell_angle_gamma   90.00000000
_symmetry_Int_Tables_number   1
_chemical_formula_structural   TbFeGe2O7
_chemical_formula_sum   'Tb4 Fe4 Ge8 O28'
_cell_volume   564.89188824
_cell_formula_units_Z   4
loop_
 _symmetry_equiv_pos_site_id
 _symmetry_equiv_pos_as_xyz
  1  'x, y, z'
loop_
 _atom_site_type_symbol
 _atom_site_label
 _atom_site_symmetry_multiplicity
 _atom_site_fract_x
 _atom_site_fract_y
 _atom_site_fract_z
 _atom_site_occupancy
  Tb  Tb0  1  0.25063947  0.03904513  0.24967989  1
  Tb  Tb1  1  0.74936053  0.53904513  0.75032011  1
  Tb  Tb2  1  0.74936053  0.96095487  0.75032011  1
  Tb  Tb3  1  0.25063947  0.46095487  0.24967989  1
  Fe  Fe4  1  0.75078117  0.94690617  0.25075977  1
  Fe  Fe5  1  0.24921883  0.44690617  0.74924023  1
  Fe  Fe6  1  0.24921883  0.05309383  0.74924023  1
  Fe  Fe7  1  0.75078117  0.55309383  0.25075977  1
  Ge  Ge8  1  0.95155868  0.25000000  0.47117872  1
  Ge  Ge9  1  0.04844132  0.75000000  0.52882128  1
  Ge  Ge10  1  0.52441363  0.75000000  0.44869441  1
  Ge  Ge11  1  0.47558637  0.25000000  0.55130559  1
  Ge  Ge12  1  0.97287922  0.75000000  0.05200163  1
  Ge  Ge13  1  0.02712078  0.25000000  0.94799837  1
  Ge  Ge14  1  0.44959302  0.75000000  0.97052938  1
  Ge  Ge15  1  0.55040698  0.25000000  0.02947062  1
  O  O16  1  0.53466905  0.92862893  0.36240309  1
  O  O17  1  0.46533095  0.42862893  0.63759691  1
  O  O18  1  0.46533095  0.07137107  0.63759691  1
  O  O19  1  0.53466905  0.57137107  0.36240309  1
  O  O20  1  0.65233176  0.75000000  0.11671887  1
  O  O21  1  0.34766824  0.25000000  0.88328113  1
  O  O22  1  0.24838923  0.75000000  0.06771927  1
  O  O23  1  0.75161077  0.25000000  0.93228073  1
  O  O24  1  0.25015997  0.75000000  0.43199292  1
  O  O25  1  0.74984003  0.25000000  0.56800708  1
  O  O26  1  0.96573966  0.57099619  0.13833885  1
  O  O27  1  0.03426034  0.07099619  0.86166115  1
  O  O28  1  0.03426034  0.42900381  0.86166115  1
  O  O29  1  0.96573966  0.92900381  0.13833885  1
  O  O30  1  0.84619932  0.75000000  0.88058847  1
  O  O31  1  0.15380068  0.25000000  0.11941153  1
  O  O32  1  0.45554188  0.58598945  0.86144743  1
  O  O33  1  0.54445812  0.08598945  0.13855257  1
  O  O34  1  0.54445812  0.41401055  0.13855257  1
  O  O35  1  0.45554188  0.91401055  0.86144743  1
  O  O36  1  0.65323800  0.75000000  0.61945126  1
  O  O37  1  0.34676200  0.25000000  0.38054874  1
  O  O38  1  0.84862213  0.75000000  0.38124672  1
  O  O39  1  0.15137787  0.25000000  0.61875328  1
  O  O40  1  0.95769155  0.08575379  0.36265798  1
  O  O41  1  0.04230845  0.58575379  0.63734202  1
  O  O42  1  0.04230845  0.91424621  0.63734202  1
  O  O43  1  0.95769155  0.41424621  0.36265798  1
