# generated using pymatgen
data_Ni2P2O7
_symmetry_space_group_name_H-M   'P 1'
_cell_length_a   6.98844546
_cell_length_b   8.32036711
_cell_length_c   8.92175276
_cell_angle_alpha   90.00000000
_cell_angle_beta   112.00441295
_cell_angle_gamma   90.00000000
_symmetry_Int_Tables_number   1
_chemical_formula_structural   Ni2P2O7
_chemical_formula_sum   'Ni8 P8 O28'
_cell_volume   480.97842666
_cell_formula_units_Z   4
loop_
 _symmetry_equiv_pos_site_id
 _symmetry_equiv_pos_as_xyz
  1  'x, y, z'
loop_
 _atom_site_type_symbol
 _atom_site_label
 _atom_site_symmetry_multiplicity
 _atom_site_fract_x
 _atom_site_fract_y
 _atom_site_fract_z
 _atom_site_occupancy
  Ni  Ni0  1  0.87425714  0.44258847  0.17929443  1
  Ni  Ni1  1  0.12574286  0.55741153  0.82070557  1
  Ni  Ni2  1  0.62574286  0.94258847  0.32070557  1
  Ni  Ni3  1  0.37425714  0.05741153  0.67929443  1
  Ni  Ni4  1  0.62161931  0.57564043  0.39069590  1
  Ni  Ni5  1  0.37838069  0.42435957  0.60930410  1
  Ni  Ni6  1  0.87838069  0.07564043  0.10930410  1
  Ni  Ni7  1  0.12161931  0.92435957  0.89069590  1
  P  P8  1  0.18359630  0.77058018  0.24293615  1
  P  P9  1  0.81640370  0.22941982  0.75706385  1
  P  P10  1  0.31640370  0.27058018  0.25706385  1
  P  P11  1  0.68359630  0.72941982  0.74293615  1
  P  P12  1  0.93729649  0.22498479  0.46600666  1
  P  P13  1  0.06270351  0.77501521  0.53399334  1
  P  P14  1  0.56270351  0.72498479  0.03399334  1
  P  P15  1  0.43729649  0.27501521  0.96600666  1
  O  O16  1  0.84596154  0.16712396  0.59589926  1
  O  O17  1  0.15403846  0.83287604  0.40410074  1
  O  O18  1  0.65403846  0.66712396  0.90410074  1
  O  O19  1  0.34596154  0.33287604  0.09589926  1
  O  O20  1  0.82675159  0.76683140  0.44985328  1
  O  O21  1  0.17324841  0.23316860  0.55014672  1
  O  O22  1  0.67324841  0.26683140  0.05014672  1
  O  O23  1  0.32675159  0.73316860  0.94985328  1
  O  O24  1  0.08038888  0.26189713  0.20233618  1
  O  O25  1  0.91961112  0.73810287  0.79766382  1
  O  O26  1  0.41961112  0.76189713  0.29766382  1
  O  O27  1  0.58038888  0.23810287  0.70233618  1
  O  O28  1  0.84733046  0.38946895  0.39769883  1
  O  O29  1  0.15266954  0.61053105  0.60230117  1
  O  O30  1  0.65266954  0.88946895  0.10230117  1
  O  O31  1  0.34733046  0.11053105  0.89769883  1
  O  O32  1  0.09745000  0.90664762  0.11991595  1
  O  O33  1  0.90255000  0.09335238  0.88008405  1
  O  O34  1  0.40255000  0.40664762  0.38008405  1
  O  O35  1  0.59745000  0.59335238  0.61991595  1
  O  O36  1  0.86431510  0.08878734  0.34132945  1
  O  O37  1  0.13568490  0.91121266  0.65867055  1
  O  O38  1  0.63568490  0.58878734  0.15867055  1
  O  O39  1  0.36431510  0.41121266  0.84132945  1
  O  O40  1  0.07602902  0.61204544  0.19084285  1
  O  O41  1  0.92397098  0.38795456  0.80915715  1
  O  O42  1  0.42397098  0.11204544  0.30915715  1
  O  O43  1  0.57602902  0.88795456  0.69084285  1
