# generated using pymatgen
data_MnP2(H4O5)2
_symmetry_space_group_name_H-M   'P 1'
_cell_length_a   5.46906316
_cell_length_b   10.24036230
_cell_length_c   7.38685977
_cell_angle_alpha   90.00000000
_cell_angle_beta   95.39623225
_cell_angle_gamma   90.00000000
_symmetry_Int_Tables_number   1
_chemical_formula_structural   MnP2(H4O5)2
_chemical_formula_sum   'Mn2 P4 H16 O20'
_cell_volume   411.86900495
_cell_formula_units_Z   2
loop_
 _symmetry_equiv_pos_site_id
 _symmetry_equiv_pos_as_xyz
  1  'x, y, z'
loop_
 _atom_site_type_symbol
 _atom_site_label
 _atom_site_symmetry_multiplicity
 _atom_site_fract_x
 _atom_site_fract_y
 _atom_site_fract_z
 _atom_site_occupancy
  Mn  Mn0  1  0.00000000  0.00000000  0.00000000  1
  Mn  Mn1  1  0.50000000  0.50000000  0.50000000  1
  P  P2  1  0.25679612  0.71645433  0.16874827  1
  P  P3  1  0.75679612  0.78354567  0.66874827  1
  P  P4  1  0.74320388  0.28354567  0.83125173  1
  P  P5  1  0.24320388  0.21645433  0.33125173  1
  H  H6  1  0.42257868  0.07981962  0.83170255  1
  H  H7  1  0.92257868  0.42018038  0.33170255  1
  H  H8  1  0.57742132  0.92018038  0.16829745  1
  H  H9  1  0.07742132  0.57981962  0.66829745  1
  H  H10  1  0.89493331  0.71835395  0.01501417  1
  H  H11  1  0.39493331  0.78164605  0.51501417  1
  H  H12  1  0.10506669  0.28164605  0.98498583  1
  H  H13  1  0.60506669  0.21835395  0.48498583  1
  H  H14  1  0.31126729  0.95845409  0.72626410  1
  H  H15  1  0.81126729  0.54154591  0.22626410  1
  H  H16  1  0.68873271  0.04154591  0.27373590  1
  H  H17  1  0.18873271  0.45845409  0.77373590  1
  H  H18  1  0.36022953  0.61905553  0.91570643  1
  H  H19  1  0.86022953  0.88094447  0.41570643  1
  H  H20  1  0.63977047  0.38094447  0.08429357  1
  H  H21  1  0.13977047  0.11905553  0.58429357  1
  O  O22  1  0.26886102  0.86420163  0.14035681  1
  O  O23  1  0.76886102  0.63579837  0.64035681  1
  O  O24  1  0.73113898  0.13579837  0.85964319  1
  O  O25  1  0.23113898  0.36420163  0.35964319  1
  O  O26  1  0.33886262  0.67215542  0.36160478  1
  O  O27  1  0.83886262  0.82784458  0.86160478  1
  O  O28  1  0.66113738  0.32784458  0.63839522  1
  O  O29  1  0.16113738  0.17215542  0.13839522  1
  O  O30  1  0.98302402  0.66550184  0.11860402  1
  O  O31  1  0.48302402  0.83449816  0.61860402  1
  O  O32  1  0.01697598  0.33449816  0.88139598  1
  O  O33  1  0.51697598  0.16550184  0.38139598  1
  O  O34  1  0.42988119  0.64339752  0.04126840  1
  O  O35  1  0.92988119  0.85660248  0.54126840  1
  O  O36  1  0.57011881  0.35660248  0.95873160  1
  O  O37  1  0.07011881  0.14339752  0.45873160  1
  O  O38  1  0.26159100  0.03936521  0.78693050  1
  O  O39  1  0.76159100  0.46063479  0.28693050  1
  O  O40  1  0.73840900  0.96063479  0.21306950  1
  O  O41  1  0.23840900  0.53936521  0.71306950  1
