# generated using pymatgen
data_NaFe9Si6B3H2O31
_symmetry_space_group_name_H-M   'P 1'
_cell_length_a   9.79767264
_cell_length_b   9.79767283
_cell_length_c   9.80117032
_cell_angle_alpha   113.66615255
_cell_angle_beta   113.66615306
_cell_angle_gamma   113.31276072
_symmetry_Int_Tables_number   1
_chemical_formula_structural   NaFe9Si6B3H2O31
_chemical_formula_sum   'Na1 Fe9 Si6 B3 H2 O31'
_cell_volume   590.26690420
_cell_formula_units_Z   1
loop_
 _symmetry_equiv_pos_site_id
 _symmetry_equiv_pos_as_xyz
  1  'x, y, z'
loop_
 _atom_site_type_symbol
 _atom_site_label
 _atom_site_symmetry_multiplicity
 _atom_site_fract_x
 _atom_site_fract_y
 _atom_site_fract_z
 _atom_site_occupancy
  Na  Na0  1  0.23386817  0.23386817  0.23744860  1
  Fe  Fe1  1  0.35325894  0.56631844  0.90468260  1
  Fe  Fe2  1  0.35266983  0.91177155  0.57889514  1
  Fe  Fe3  1  0.58980003  0.76481014  0.58664334  1
  Fe  Fe4  1  0.57693526  0.57693526  0.76677842  1
  Fe  Fe5  1  0.57645208  0.91009778  0.34857313  1
  Fe  Fe6  1  0.56631844  0.35325894  0.90468260  1
  Fe  Fe7  1  0.76481014  0.58980003  0.58664334  1
  Fe  Fe8  1  0.91177155  0.35266983  0.57889514  1
  Fe  Fe9  1  0.91009778  0.57645208  0.34857313  1
  Si  Si10  1  0.18887955  0.99853325  0.81252615  1
  Si  Si11  1  0.19058728  0.81218399  0.99918976  1
  Si  Si12  1  0.81390472  0.00039643  0.18861492  1
  Si  Si13  1  0.81218399  0.19058728  0.99918976  1
  Si  Si14  1  0.99853325  0.18887955  0.81252615  1
  Si  Si15  1  0.00039643  0.81390472  0.18861492  1
  B  B16  1  0.23723558  0.56451437  0.56531596  1
  B  B17  1  0.56470691  0.56470691  0.23829199  1
  B  B18  1  0.56451437  0.23723558  0.56531596  1
  H  H19  1  0.26588364  0.63493778  0.26541117  1
  H  H20  1  0.63493778  0.26588364  0.26541117  1
  O  O21  1  0.26739706  0.99408952  0.99456139  1
  O  O22  1  0.07611428  0.79321389  0.35544377  1
  O  O23  1  0.07576279  0.35649087  0.79482953  1
  O  O24  1  0.17174635  0.50301958  0.64674495  1
  O  O25  1  0.17370027  0.64608752  0.49980688  1
  O  O26  1  0.16132044  0.16132044  0.88656307  1
  O  O27  1  0.16492646  0.88761101  0.16355553  1
  O  O28  1  0.60062911  0.78184317  0.97770104  1
  O  O29  1  0.60111527  0.98070743  0.77862835  1
  O  O30  1  0.39641063  0.39641063  0.78111509  1
  O  O31  1  0.38706003  0.77253286  0.38713805  1
  O  O32  1  0.36711440  0.54952584  0.55195716  1
  O  O33  1  0.35872324  0.79439543  0.07661549  1
  O  O34  1  0.35649087  0.07576279  0.79482953  1
  O  O35  1  0.78184317  0.60062911  0.97770104  1
  O  O36  1  0.77748864  0.97906199  0.60123525  1
  O  O37  1  0.77323181  0.77323181  0.78528685  1
  O  O38  1  0.50301958  0.17174635  0.64674495  1
  O  O39  1  0.50267842  0.64774607  0.17527203  1
  O  O40  1  0.54952584  0.36711440  0.55195716  1
  O  O41  1  0.54587417  0.54587417  0.36340033  1
  O  O42  1  0.64774607  0.50267842  0.17527203  1
  O  O43  1  0.64608752  0.17370027  0.49980688  1
  O  O44  1  0.97906199  0.77748864  0.60123525  1
  O  O45  1  0.98070743  0.60111527  0.77862835  1
  O  O46  1  0.77253286  0.38706003  0.38713805  1
  O  O47  1  0.99408952  0.26739706  0.99456139  1
  O  O48  1  0.99273570  0.99273570  0.26253247  1
  O  O49  1  0.79321389  0.07611428  0.35544377  1
  O  O50  1  0.79439543  0.35872324  0.07661549  1
  O  O51  1  0.88761101  0.16492646  0.16355553  1
