# generated using pymatgen
data_BaBePO4F
_symmetry_space_group_name_H-M   'P 1'
_cell_length_a   4.93450860
_cell_length_b   4.93218933
_cell_length_c   9.14937105
_cell_angle_alpha   74.63978601
_cell_angle_beta   105.33296184
_cell_angle_gamma   89.88407634
_symmetry_Int_Tables_number   1
_chemical_formula_structural   BaBePO4F
_chemical_formula_sum   'Ba2 Be2 P2 O8 F2'
_cell_volume   206.45695752
_cell_formula_units_Z   2
loop_
 _symmetry_equiv_pos_site_id
 _symmetry_equiv_pos_as_xyz
  1  'x, y, z'
loop_
 _atom_site_type_symbol
 _atom_site_label
 _atom_site_symmetry_multiplicity
 _atom_site_fract_x
 _atom_site_fract_y
 _atom_site_fract_z
 _atom_site_occupancy
  Ba  Ba0  1  0.00051168  0.99950518  0.00060430  1
  Ba  Ba1  1  0.25054510  0.25019265  0.49964363  1
  Be  Be2  1  0.65102480  0.83260968  0.33646169  1
  Be  Be3  1  0.41777997  0.60002203  0.83588354  1
  P  P4  1  0.56228929  0.41719136  0.16550651  1
  P  P5  1  0.83405541  0.68787445  0.66542672  1
  O  O6  1  0.73604497  0.15985931  0.29698168  1
  O  O7  1  0.60411838  0.39767580  0.00501580  1
  O  O8  1  0.83306814  0.00083089  0.65897772  1
  O  O9  1  0.68616818  0.69309012  0.19867862  1
  O  O10  1  0.85366398  0.64536684  0.50522784  1
  O  O11  1  0.24879225  0.41791098  0.15937759  1
  O  O12  1  0.55797767  0.56325655  0.69885416  1
  O  O13  1  0.09114852  0.51370588  0.79728349  1
  F  F14  1  0.33700309  0.82635831  0.34820233  1
  F  F15  1  0.42372659  0.91424998  0.84713240  1
