# generated using pymatgen
data_Pr3GaO6
_symmetry_space_group_name_H-M   'P 1'
_cell_length_a   7.50356648
_cell_length_b   7.50356648
_cell_length_c   5.67284226
_cell_angle_alpha   90.00000000
_cell_angle_beta   90.00000000
_cell_angle_gamma   77.25788044
_symmetry_Int_Tables_number   1
_chemical_formula_structural   Pr3GaO6
_chemical_formula_sum   'Pr6 Ga2 O12'
_cell_volume   311.53493740
_cell_formula_units_Z   2
loop_
 _symmetry_equiv_pos_site_id
 _symmetry_equiv_pos_as_xyz
  1  'x, y, z'
loop_
 _atom_site_type_symbol
 _atom_site_label
 _atom_site_symmetry_multiplicity
 _atom_site_fract_x
 _atom_site_fract_y
 _atom_site_fract_z
 _atom_site_occupancy
  Pr  Pr0  1  0.29897234  0.91354475  0.47282674  1
  Pr  Pr1  1  0.08645525  0.70102766  0.97282674  1
  Pr  Pr2  1  0.39644136  0.39644136  0.42884271  1
  Pr  Pr3  1  0.60355864  0.60355864  0.92884271  1
  Pr  Pr4  1  0.91354475  0.29897234  0.47282674  1
  Pr  Pr5  1  0.70102766  0.08645525  0.97282674  1
  Ga  Ga6  1  0.19324861  0.19324861  0.00814212  1
  Ga  Ga7  1  0.80675139  0.80675139  0.50814212  1
  O  O8  1  0.35409344  0.67345797  0.20239060  1
  O  O9  1  0.32654203  0.64590656  0.70239060  1
  O  O10  1  0.10830711  0.41498836  0.17516611  1
  O  O11  1  0.58501164  0.89169289  0.67516611  1
  O  O12  1  0.04397780  0.04397780  0.13853864  1
  O  O13  1  0.21525440  0.21525440  0.68250661  1
  O  O14  1  0.95602220  0.95602220  0.63853864  1
  O  O15  1  0.78474560  0.78474560  0.18250661  1
  O  O16  1  0.41498836  0.10830711  0.17516611  1
  O  O17  1  0.89169289  0.58501164  0.67516611  1
  O  O18  1  0.67345797  0.35409344  0.20239060  1
  O  O19  1  0.64590656  0.32654203  0.70239060  1
