# generated using pymatgen
data_KAl2NiP3(H2O7)2
_symmetry_space_group_name_H-M   'P 1'
_cell_length_a   8.33839969
_cell_length_b   8.33839969
_cell_length_c   8.77404267
_cell_angle_alpha   75.88033764
_cell_angle_beta   104.11966236
_cell_angle_gamma   104.51351357
_symmetry_Int_Tables_number   1
_chemical_formula_structural   KAl2NiP3(H2O7)2
_chemical_formula_sum   'K2 Al4 Ni2 P6 H8 O28'
_cell_volume   561.77655408
_cell_formula_units_Z   2
loop_
 _symmetry_equiv_pos_site_id
 _symmetry_equiv_pos_as_xyz
  1  'x, y, z'
loop_
 _atom_site_type_symbol
 _atom_site_label
 _atom_site_symmetry_multiplicity
 _atom_site_fract_x
 _atom_site_fract_y
 _atom_site_fract_z
 _atom_site_occupancy
  K  K0  1  0.86522525  0.86522525  0.25000000  1
  K  K1  1  0.13477475  0.13477475  0.75000000  1
  Al  Al2  1  0.40505946  0.74936131  0.92684105  1
  Al  Al3  1  0.74936131  0.40505946  0.57315895  1
  Al  Al4  1  0.59494054  0.25063869  0.07315895  1
  Al  Al5  1  0.25063869  0.59494054  0.42684105  1
  Ni  Ni6  1  0.77390718  0.77390718  0.75000000  1
  Ni  Ni7  1  0.22609282  0.22609282  0.25000000  1
  P  P8  1  0.66804483  0.08173010  0.82640518  1
  P  P9  1  0.08173010  0.66804483  0.67359482  1
  P  P10  1  0.33195517  0.91826990  0.17359482  1
  P  P11  1  0.91826990  0.33195517  0.32640518  1
  P  P12  1  0.50190224  0.50190224  0.75000000  1
  P  P13  1  0.49809776  0.49809776  0.25000000  1
  H  H14  1  0.57284836  0.87158233  0.45859611  1
  H  H15  1  0.87158233  0.57284836  0.04140389  1
  H  H16  1  0.42715164  0.12841767  0.54140389  1
  H  H17  1  0.12841767  0.42715164  0.95859611  1
  H  H18  1  0.71865571  0.02041668  0.52033078  1
  H  H19  1  0.02041668  0.71865571  0.97966922  1
  H  H20  1  0.28134429  0.97958332  0.47966922  1
  H  H21  1  0.97958332  0.28134429  0.02033078  1
  O  O22  1  0.99680642  0.80804085  0.67932211  1
  O  O23  1  0.80804085  0.99680642  0.82067789  1
  O  O24  1  0.00319358  0.19195915  0.32067789  1
  O  O25  1  0.19195915  0.00319358  0.17932211  1
  O  O26  1  0.69067703  0.89933472  0.51647397  1
  O  O27  1  0.89933472  0.69067703  0.98352603  1
  O  O28  1  0.30932297  0.10066528  0.48352603  1
  O  O29  1  0.10066528  0.30932297  0.01647397  1
  O  O30  1  0.52680417  0.67093394  0.80678514  1
  O  O31  1  0.67093394  0.52680417  0.69321486  1
  O  O32  1  0.47319583  0.32906606  0.19321486  1
  O  O33  1  0.32906606  0.47319583  0.30678514  1
  O  O34  1  0.47559438  0.34890661  0.88708141  1
  O  O35  1  0.34890661  0.47559438  0.61291859  1
  O  O36  1  0.52440562  0.65109339  0.11291859  1
  O  O37  1  0.65109339  0.52440562  0.38708141  1
  O  O38  1  0.21039807  0.62596553  0.83376565  1
  O  O39  1  0.62596553  0.21039807  0.66623435  1
  O  O40  1  0.78960193  0.37403447  0.16623435  1
  O  O41  1  0.37403447  0.78960193  0.33376565  1
  O  O42  1  0.27253663  0.82483201  0.03069796  1
  O  O43  1  0.82483201  0.27253663  0.46930204  1
  O  O44  1  0.72746337  0.17516799  0.96930204  1
  O  O45  1  0.17516799  0.72746337  0.53069796  1
  O  O46  1  0.49647342  0.95957412  0.84105120  1
  O  O47  1  0.95957412  0.49647342  0.65894880  1
  O  O48  1  0.50352658  0.04042588  0.15894880  1
  O  O49  1  0.04042588  0.50352658  0.34105120  1
