# generated using pymatgen
data_Na3Cr2P2O8F3
_symmetry_space_group_name_H-M   'P 1'
_cell_length_a   6.43040298
_cell_length_b   6.43354009
_cell_length_c   21.22724840
_cell_angle_alpha   116.79241446
_cell_angle_beta   116.71161261
_cell_angle_gamma   90.04798039
_symmetry_Int_Tables_number   1
_chemical_formula_structural   Na3Cr2P2O8F3
_chemical_formula_sum   'Na9 Cr6 P6 O24 F9'
_cell_volume   677.06548073
_cell_formula_units_Z   3
loop_
 _symmetry_equiv_pos_site_id
 _symmetry_equiv_pos_as_xyz
  1  'x, y, z'
loop_
 _atom_site_type_symbol
 _atom_site_label
 _atom_site_symmetry_multiplicity
 _atom_site_fract_x
 _atom_site_fract_y
 _atom_site_fract_z
 _atom_site_occupancy
  Na  Na0  1  0.56377084  0.23090417  0.66611649  1
  Na  Na1  1  0.51619794  0.77058133  0.66686622  1
  Na  Na2  1  0.97239357  0.50217978  0.66574102  1
  Na  Na3  1  0.28389446  0.28405663  0.32981758  1
  Na  Na4  1  0.63641208  0.77469629  0.33325847  1
  Na  Na5  1  0.77433269  0.31923502  0.33371107  1
  Na  Na6  1  0.28276937  0.31886989  0.99916158  1
  Na  Na7  1  0.79921032  0.42230335  0.00182055  1
  Na  Na8  1  0.55142324  0.84086380  0.00478628  1
  Cr  Cr9  1  0.19202476  0.18285030  0.78718205  1
  Cr  Cr10  1  0.19710242  0.17806857  0.45296268  1
  Cr  Cr11  1  0.84138978  0.81849686  0.88159694  1
  Cr  Cr12  1  0.19800100  0.18339578  0.12243226  1
  Cr  Cr13  1  0.82718666  0.81857210  0.54417481  1
  Cr  Cr14  1  0.82653388  0.81608398  0.21127733  1
  P  P15  1  0.27012910  0.75944857  0.83777074  1
  P  P16  1  0.25546333  0.74958343  0.49803178  1
  P  P17  1  0.76075097  0.25255025  0.83401310  1
  P  P18  1  0.26005611  0.75782736  0.16744390  1
  P  P19  1  0.74857249  0.24603475  0.49328335  1
  P  P20  1  0.76272947  0.26357244  0.16950736  1
  O  O21  1  0.17998325  0.85023371  0.90003136  1
  O  O22  1  0.17819316  0.48290112  0.77999544  1
  O  O23  1  0.17314756  0.86154569  0.77952828  1
  O  O24  1  0.54618838  0.84125015  0.89169410  1
  O  O25  1  0.15910633  0.82248022  0.55835556  1
  O  O26  1  0.48452171  0.15445166  0.77430499  1
  O  O27  1  0.18396332  0.47288683  0.43983382  1
  O  O28  1  0.15452551  0.85511435  0.44143190  1
  O  O29  1  0.85687244  0.14850309  0.89215328  1
  O  O30  1  0.84083855  0.52658303  0.89277760  1
  O  O31  1  0.53208792  0.84629314  0.55679773  1
  O  O32  1  0.85975930  0.16788919  0.77442222  1
  O  O33  1  0.15626910  0.82697941  0.22521018  1
  O  O34  1  0.47439669  0.14848579  0.43227911  1
  O  O35  1  0.19501092  0.48072413  0.11033441  1
  O  O36  1  0.15414534  0.85516585  0.10822471  1
  O  O37  1  0.83624210  0.13937675  0.55039084  1
  O  O38  1  0.82181918  0.52108787  0.55204352  1
  O  O39  1  0.53618966  0.86142472  0.22579755  1
  O  O40  1  0.86441855  0.17630010  0.43905019  1
  O  O41  1  0.48787945  0.15364694  0.10749591  1
  O  O42  1  0.85938676  0.15121082  0.22519302  1
  O  O43  1  0.82061516  0.53568507  0.22792761  1
  O  O44  1  0.87580205  0.19976267  0.11462415  1
  F  F45  1  0.99533425  0.00396960  0.66562914  1
  F  F46  1  0.37882279  0.36019148  0.90746282  1
  F  F47  1  0.99799702  0.01271840  0.33207523  1
  F  F48  1  0.39216592  0.35764551  0.57197680  1
  F  F49  1  0.68828138  0.64150930  0.76217888  1
  F  F50  1  0.00553989  0.01854130  0.00206541  1
  F  F51  1  0.39072852  0.35057709  0.24218920  1
  F  F52  1  0.66446261  0.63205378  0.42406848  1
  F  F53  1  0.65336076  0.63883662  0.09150102  1
