# generated using pymatgen
data_MnP2HO7
_symmetry_space_group_name_H-M   'P 1'
_cell_length_a   8.12465968
_cell_length_b   12.81851289
_cell_length_c   5.04023025
_cell_angle_alpha   90.00000000
_cell_angle_beta   101.03204943
_cell_angle_gamma   90.00000000
_symmetry_Int_Tables_number   1
_chemical_formula_structural   MnP2HO7
_chemical_formula_sum   'Mn4 P8 H4 O28'
_cell_volume   515.21972905
_cell_formula_units_Z   4
loop_
 _symmetry_equiv_pos_site_id
 _symmetry_equiv_pos_as_xyz
  1  'x, y, z'
loop_
 _atom_site_type_symbol
 _atom_site_label
 _atom_site_symmetry_multiplicity
 _atom_site_fract_x
 _atom_site_fract_y
 _atom_site_fract_z
 _atom_site_occupancy
  Mn  Mn0  1  0.50466209  0.87369195  0.37052393  1
  Mn  Mn1  1  0.00466209  0.62630805  0.87052393  1
  Mn  Mn2  1  0.49533791  0.12630805  0.62947607  1
  Mn  Mn3  1  0.99533791  0.37369195  0.12947607  1
  P  P4  1  0.24981114  0.96482677  0.85020693  1
  P  P5  1  0.74981114  0.53517323  0.35020693  1
  P  P6  1  0.75018886  0.03517323  0.14979307  1
  P  P7  1  0.25018886  0.46482677  0.64979307  1
  P  P8  1  0.25488347  0.67796721  0.43689381  1
  P  P9  1  0.75488347  0.82203279  0.93689381  1
  P  P10  1  0.74511653  0.32203279  0.56310619  1
  P  P11  1  0.24511653  0.17796721  0.06310619  1
  H  H12  1  0.10248420  0.83223253  0.63589371  1
  H  H13  1  0.60248420  0.66776747  0.13589371  1
  H  H14  1  0.89751580  0.16776747  0.36410629  1
  H  H15  1  0.39751580  0.33223253  0.86410629  1
  O  O16  1  0.33452555  0.57192256  0.58858194  1
  O  O17  1  0.83452555  0.92807744  0.08858194  1
  O  O18  1  0.66547445  0.42807744  0.41141806  1
  O  O19  1  0.16547445  0.07192256  0.91141806  1
  O  O20  1  0.30199436  0.90246634  0.11000736  1
  O  O21  1  0.80199436  0.59753366  0.61000736  1
  O  O22  1  0.69800564  0.09753366  0.88999264  1
  O  O23  1  0.19800564  0.40246634  0.38999264  1
  O  O24  1  0.11079201  0.71108765  0.57335063  1
  O  O25  1  0.61079201  0.78891235  0.07335063  1
  O  O26  1  0.88920799  0.28891235  0.42664937  1
  O  O27  1  0.38920799  0.21108765  0.92664937  1
  O  O28  1  0.39921731  0.98898839  0.70871100  1
  O  O29  1  0.89921731  0.51101161  0.20871100  1
  O  O30  1  0.60078269  0.01101161  0.29128900  1
  O  O31  1  0.10078269  0.48898839  0.79128900  1
  O  O32  1  0.20477183  0.65085453  0.13728557  1
  O  O33  1  0.70477183  0.84914547  0.63728557  1
  O  O34  1  0.79522817  0.34914547  0.86271443  1
  O  O35  1  0.29522817  0.15085453  0.36271443  1
  O  O36  1  0.40350381  0.75225144  0.49466360  1
  O  O37  1  0.90350381  0.74774856  0.99466360  1
  O  O38  1  0.59649619  0.24774856  0.50533640  1
  O  O39  1  0.09649619  0.25225144  0.00533640  1
  O  O40  1  0.10267121  0.91134775  0.65893473  1
  O  O41  1  0.60267121  0.58865225  0.15893473  1
  O  O42  1  0.89732879  0.08865225  0.34106527  1
  O  O43  1  0.39732879  0.41134775  0.84106527  1
