# generated using pymatgen
data_Y13Ho19O48
_symmetry_space_group_name_H-M   'P 1'
_cell_length_a   9.22633064
_cell_length_b   9.22645849
_cell_length_c   15.06623241
_cell_angle_alpha   89.99272531
_cell_angle_beta   90.00274746
_cell_angle_gamma   109.48329085
_symmetry_Int_Tables_number   1
_chemical_formula_structural   Y13Ho19O48
_chemical_formula_sum   'Y13 Ho19 O48'
_cell_volume   1209.09405721
_cell_formula_units_Z   1
loop_
 _symmetry_equiv_pos_site_id
 _symmetry_equiv_pos_as_xyz
  1  'x, y, z'
loop_
 _atom_site_type_symbol
 _atom_site_label
 _atom_site_symmetry_multiplicity
 _atom_site_fract_x
 _atom_site_fract_y
 _atom_site_fract_z
 _atom_site_occupancy
  Y  Y0  1  0.85889179  0.14109131  0.10890738  1
  Y  Y1  1  0.49925835  0.99930773  0.99992342  1
  Y  Y2  1  0.59205851  0.34244680  0.12499707  1
  Y  Y3  1  0.24981997  0.24977610  0.25016499  1
  Y  Y4  1  0.75030132  0.75005283  0.25002044  1
  Y  Y5  1  0.50050998  0.00043046  0.50008599  1
  Y  Y6  1  0.00064713  0.50073756  0.99992107  1
  Y  Y7  1  0.90772583  0.15770968  0.87478074  1
  Y  Y8  1  0.40762631  0.65765115  0.37500493  1
  Y  Y9  1  0.25044718  0.25047577  0.74991993  1
  Y  Y10  1  0.74951105  0.74961222  0.74996129  1
  Y  Y11  1  0.99961716  0.49950423  0.50004936  1
  Y  Y12  1  0.09241123  0.84240899  0.62500087  1
  Ho  Ho13  1  0.90767390  0.15757340  0.37522627  1
  Ho  Ho14  1  0.73351969  0.76598355  0.01627407  1
  Ho  Ho15  1  0.48322602  0.01639219  0.26658977  1
  Ho  Ho16  1  0.64160236  0.35841777  0.39159147  1
  Ho  Ho17  1  0.89111128  0.10882123  0.64114271  1
  Ho  Ho18  1  0.39115031  0.60889817  0.14114933  1
  Ho  Ho19  1  0.76648637  0.73349411  0.48354274  1
  Ho  Ho20  1  0.01652654  0.48390835  0.23379822  1
  Ho  Ho21  1  0.09257923  0.84216200  0.12503242  1
  Ho  Ho22  1  0.59239074  0.34241093  0.62502633  1
  Ho  Ho23  1  0.23369414  0.26637957  0.51639015  1
  Ho  Ho24  1  0.98348566  0.51651210  0.76647390  1
  Ho  Ho25  1  0.60849945  0.39150531  0.85844836  1
  Ho  Ho26  1  0.10842469  0.89151947  0.35851540  1
  Ho  Ho27  1  0.35884855  0.64117166  0.60886589  1
  Ho  Ho28  1  0.51637583  0.98363300  0.73364988  1
  Ho  Ho29  1  0.26675588  0.23360329  0.98338324  1
  Ho  Ho30  1  0.40764008  0.65756142  0.87498990  1
  Ho  Ho31  1  0.14152680  0.85846971  0.89149141  1
  O  O32  1  0.99420800  0.22317554  0.23524256  1
  O  O33  1  0.60298864  0.09198274  0.13598963  1
  O  O34  1  0.84970659  0.39236968  0.12038493  1
  O  O35  1  0.65165110  0.10871998  0.37968155  1
  O  O36  1  0.64098657  0.59974173  0.12970210  1
  O  O37  1  0.89528191  0.40667348  0.36412290  1
  O  O38  1  0.03847883  0.26651238  0.00545377  1
  O  O39  1  0.34227090  0.35478183  0.11399422  1
  O  O40  1  0.98513036  0.71310360  0.25578720  1
  O  O41  1  0.50525688  0.27663763  0.26655045  1
  O  O42  1  0.97267918  0.24354731  0.51550681  1
  O  O43  1  0.87645362  0.90611246  0.13551137  1
  O  O44  1  0.47255491  0.74341809  0.01543160  1
  O  O45  1  0.65739920  0.12656995  0.61455290  1
  O  O46  1  0.15746136  0.62652770  0.11455938  1
  O  O47  1  0.62550736  0.59248345  0.36436371  1
  O  O48  1  0.15674015  0.14515747  0.38605780  1
  O  O49  1  0.46308402  0.23491701  0.49439903  1
  O  O50  1  0.51549378  0.78746923  0.24380761  1
  O  O51  1  0.75917916  0.99973170  0.77061191  1
  O  O52  1  0.25935966  0.49993690  0.27072385  1
  O  O53  1  0.74959663  0.49013716  0.52145793  1
  O  O54  1  0.24945951  0.99010345  0.02138738  1
  O  O55  1  0.85864147  0.90151594  0.37032902  1
  O  O56  1  0.74926314  0.00862352  0.97867617  1
  O  O57  1  0.24973339  0.50926160  0.47926482  1
  O  O58  1  0.74020764  0.49953082  0.72856211  1
  O  O59  1  0.14129254  0.09983736  0.62970955  1
  O  O60  1  0.24006516  0.99956629  0.22860594  1
  O  O61  1  0.84239538  0.85486052  0.61396553  1
  O  O62  1  0.53750716  0.76546463  0.50619082  1
  O  O63  1  0.48499384  0.21313546  0.75564951  1
  O  O64  1  0.84259338  0.37555762  0.88567471  1
  O  O65  1  0.34255805  0.87550080  0.38572918  1
  O  O66  1  0.37653646  0.40750299  0.63549510  1
  O  O67  1  0.49352406  0.72259202  0.73459953  1
  O  O68  1  0.02655702  0.75521928  0.48358848  1
  O  O69  1  0.12562081  0.09253184  0.86423065  1
  O  O70  1  0.52669225  0.25527289  0.98352007  1
  O  O71  1  0.65661506  0.64513792  0.88590242  1
  O  O72  1  0.10477316  0.59235025  0.63604976  1
  O  O73  1  0.01538239  0.28740457  0.74376197  1
  O  O74  1  0.96313674  0.73497644  0.99427339  1
  O  O75  1  0.34980359  0.89123952  0.62030600  1
  O  O76  1  0.35877813  0.40158205  0.87027365  1
  O  O77  1  0.15168238  0.60880865  0.87960247  1
  O  O78  1  0.39523270  0.90657375  0.86398994  1
  O  O79  1  0.00514345  0.77652172  0.76644969  1
