# generated using pymatgen
data_NdHS3O11
_symmetry_space_group_name_H-M   'P 1'
_cell_length_a   8.68111778
_cell_length_b   10.72068954
_cell_length_c   9.78376449
_cell_angle_alpha   90.00000000
_cell_angle_beta   99.24453452
_cell_angle_gamma   90.00000000
_symmetry_Int_Tables_number   1
_chemical_formula_structural   NdHS3O11
_chemical_formula_sum   'Nd4 H4 S12 O44'
_cell_volume   898.72465612
_cell_formula_units_Z   4
loop_
 _symmetry_equiv_pos_site_id
 _symmetry_equiv_pos_as_xyz
  1  'x, y, z'
loop_
 _atom_site_type_symbol
 _atom_site_label
 _atom_site_symmetry_multiplicity
 _atom_site_fract_x
 _atom_site_fract_y
 _atom_site_fract_z
 _atom_site_occupancy
  Nd  Nd0  1  0.01515430  0.17231753  0.77353575  1
  Nd  Nd1  1  0.48484570  0.67231753  0.72646425  1
  Nd  Nd2  1  0.51515430  0.32768247  0.27353575  1
  Nd  Nd3  1  0.98484570  0.82768247  0.22646425  1
  H  H4  1  0.06366058  0.42318984  0.32909920  1
  H  H5  1  0.43633942  0.92318984  0.17090080  1
  H  H6  1  0.56366058  0.07681016  0.82909920  1
  H  H7  1  0.93633942  0.57681016  0.67090080  1
  S  S8  1  0.14886966  0.68976271  0.91649406  1
  S  S9  1  0.27765302  0.44012825  0.92378511  1
  S  S10  1  0.22234698  0.94012825  0.57621489  1
  S  S11  1  0.24029212  0.56084639  0.39213725  1
  S  S12  1  0.25970788  0.06084639  0.10786275  1
  S  S13  1  0.35113034  0.18976271  0.58350594  1
  S  S14  1  0.64886966  0.81023729  0.41649406  1
  S  S15  1  0.74029212  0.93915361  0.89213725  1
  S  S16  1  0.75970788  0.43915361  0.60786275  1
  S  S17  1  0.77765302  0.05987175  0.42378511  1
  S  S18  1  0.72234698  0.55987175  0.07621489  1
  S  S19  1  0.85113034  0.31023729  0.08350594  1
  O  O20  1  0.01111093  0.65118244  0.82195671  1
  O  O21  1  0.13599675  0.36821921  0.88012095  1
  O  O22  1  0.19197285  0.09818995  0.96730125  1
  O  O23  1  0.15087299  0.98590583  0.69146776  1
  O  O24  1  0.11378767  0.88201787  0.46611770  1
  O  O25  1  0.11461946  0.46302980  0.41758405  1
  O  O26  1  0.22301902  0.23634955  0.65025099  1
  O  O27  1  0.16218913  0.66408920  0.31117298  1
  O  O28  1  0.14703220  0.00058526  0.18338580  1
  O  O29  1  0.11996547  0.76957651  0.02912202  1
  O  O30  1  0.27698098  0.73634955  0.84974901  1
  O  O31  1  0.27892270  0.06349825  0.49628448  1
  O  O32  1  0.34912701  0.48590583  0.80853224  1
  O  O33  1  0.30802715  0.59818995  0.53269875  1
  O  O34  1  0.22107730  0.56349825  0.00371552  1
  O  O35  1  0.36400225  0.86821921  0.61987905  1
  O  O36  1  0.38003453  0.26957651  0.47087798  1
  O  O37  1  0.35296780  0.50058526  0.31661420  1
  O  O38  1  0.33781087  0.16408920  0.18882702  1
  O  O39  1  0.48888907  0.15118244  0.67804329  1
  O  O40  1  0.38538054  0.96302980  0.08241595  1
  O  O41  1  0.38621233  0.38201787  0.03388230  1
  O  O42  1  0.61378767  0.61798213  0.96611770  1
  O  O43  1  0.61461946  0.03697020  0.91758405  1
  O  O44  1  0.51111093  0.84881756  0.32195671  1
  O  O45  1  0.66218913  0.83591080  0.81117298  1
  O  O46  1  0.64703220  0.49941474  0.68338580  1
  O  O47  1  0.61996547  0.73042349  0.52912202  1
  O  O48  1  0.63599775  0.13178079  0.38012095  1
  O  O49  1  0.77892270  0.43650175  0.99628448  1
  O  O50  1  0.69197285  0.40181005  0.46730125  1
  O  O51  1  0.65087299  0.51409417  0.19146776  1
  O  O52  1  0.72107730  0.93650175  0.50371552  1
  O  O53  1  0.72301902  0.26365045  0.15025099  1
  O  O54  1  0.88003453  0.23042349  0.97087798  1
  O  O55  1  0.85296780  0.99941474  0.81661420  1
  O  O56  1  0.83781087  0.33591080  0.68882702  1
  O  O57  1  0.77698098  0.76365045  0.34974901  1
  O  O58  1  0.88538054  0.53697020  0.58241595  1
  O  O59  1  0.88621233  0.11798213  0.53388230  1
  O  O60  1  0.84912701  0.01409417  0.30853224  1
  O  O61  1  0.80802715  0.90181005  0.03269875  1
  O  O62  1  0.86400225  0.63178079  0.11987905  1
  O  O63  1  0.98888907  0.34881756  0.17804329  1
