# generated using pymatgen
data_Ba2Tl(HO)7
_symmetry_space_group_name_H-M   'P 1'
_cell_length_a   6.61863529
_cell_length_b   6.87323061
_cell_length_c   10.65964905
_cell_angle_alpha   82.38881201
_cell_angle_beta   90.00000000
_cell_angle_gamma   61.21794851
_symmetry_Int_Tables_number   1
_chemical_formula_structural   Ba2Tl(HO)7
_chemical_formula_sum   'Ba4 Tl2 H14 O14'
_cell_volume   420.13284545
_cell_formula_units_Z   2
loop_
 _symmetry_equiv_pos_site_id
 _symmetry_equiv_pos_as_xyz
  1  'x, y, z'
loop_
 _atom_site_type_symbol
 _atom_site_label
 _atom_site_symmetry_multiplicity
 _atom_site_fract_x
 _atom_site_fract_y
 _atom_site_fract_z
 _atom_site_occupancy
  Ba  Ba0  1  0.43142842  0.76098885  0.62890713  1
  Ba  Ba1  1  0.80758373  0.76098885  0.12890713  1
  Ba  Ba2  1  0.19241627  0.23901115  0.87109287  1
  Ba  Ba3  1  0.56857158  0.23901115  0.37109287  1
  Tl  Tl4  1  0.00000000  0.50000000  0.50000000  1
  Tl  Tl5  1  0.50000000  0.50000000  0.00000000  1
  H  H6  1  0.09240162  0.78656194  0.88185979  1
  H  H7  1  0.68562773  0.74360754  0.85174839  1
  H  H8  1  0.96807659  0.71391200  0.70480166  1
  H  H9  1  0.12103644  0.78656194  0.38185979  1
  H  H10  1  0.57076473  0.74360754  0.35174839  1
  H  H11  1  0.31801141  0.71391200  0.20480166  1
  H  H12  1  0.68198859  0.28608800  0.79519834  1
  H  H13  1  0.42923527  0.25639246  0.64825161  1
  H  H14  1  0.87896356  0.21343806  0.61814021  1
  H  H15  1  0.03192341  0.28608800  0.29519834  1
  H  H16  1  0.31437227  0.25639246  0.14825161  1
  H  H17  1  0.90759838  0.21343806  0.11814021  1
  H  H18  1  0.87010910  0.00000000  0.75000000  1
  H  H19  1  0.12989090  1.00000000  0.25000000  1
  O  O20  1  0.54465900  0.80798768  0.89776844  1
  O  O21  1  0.12296135  0.66484616  0.95456997  1
  O  O22  1  0.64735332  0.80798768  0.39776844  1
  O  O23  1  0.89792253  0.61863904  0.69736386  1
  O  O24  1  0.21219149  0.66484616  0.45456997  1
  O  O25  1  0.48343944  0.61863904  0.19736386  1
  O  O26  1  0.51656056  0.38136096  0.80263614  1
  O  O27  1  0.78780851  0.33515384  0.54543003  1
  O  O28  1  0.10207747  0.38136096  0.30263614  1
  O  O29  1  0.35264668  0.19201232  0.60223156  1
  O  O30  1  0.87703865  0.33515384  0.04543003  1
  O  O31  1  0.45534100  0.19201232  0.10223156  1
  O  O32  1  0.01684371  0.00000000  0.75000000  1
  O  O33  1  0.98315629  0.00000000  0.25000000  1
