# generated using pymatgen
data_Ba4(PtO3)3
_symmetry_space_group_name_H-M   'P 1'
_cell_length_a   10.24044008
_cell_length_b   10.19561688
_cell_length_c   8.76169565
_cell_angle_alpha   90.18576195
_cell_angle_beta   89.94473689
_cell_angle_gamma   119.43524625
_symmetry_Int_Tables_number   1
_chemical_formula_structural   Ba4(PtO3)3
_chemical_formula_sum   'Ba12 Pt9 O27'
_cell_volume   796.69483433
_cell_formula_units_Z   3
loop_
 _symmetry_equiv_pos_site_id
 _symmetry_equiv_pos_as_xyz
  1  'x, y, z'
loop_
 _atom_site_type_symbol
 _atom_site_label
 _atom_site_symmetry_multiplicity
 _atom_site_fract_x
 _atom_site_fract_y
 _atom_site_fract_z
 _atom_site_occupancy
  Ba  Ba0  1  0.00393336  0.67788933  0.74777580  1
  Ba  Ba1  1  0.99289828  0.35950944  0.99898128  1
  Ba  Ba2  1  0.99217512  0.34048571  0.49451669  1
  Ba  Ba3  1  0.30253621  0.32163101  0.75026994  1
  Ba  Ba4  1  0.66088627  0.97561669  0.74848088  1
  Ba  Ba5  1  0.32557496  0.29789403  0.24953243  1
  Ba  Ba6  1  0.64315116  0.64588123  0.00020146  1
  Ba  Ba7  1  0.65925544  0.66530526  0.49686982  1
  Ba  Ba8  1  0.32949031  0.99321493  0.50307208  1
  Ba  Ba9  1  0.34054021  0.99335185  0.99789288  1
  Ba  Ba10  1  0.97906889  0.67257934  0.25172832  1
  Ba  Ba11  1  0.66694793  0.00313472  0.25207797  1
  Pt  Pt12  1  0.25874164  0.58855365  0.24574670  1
  Pt  Pt13  1  0.00310042  0.00078630  0.66311416  1
  Pt  Pt14  1  0.00205376  0.00014669  0.34097463  1
  Pt  Pt15  1  0.33663935  0.66538174  0.90687796  1
  Pt  Pt16  1  0.33520270  0.66292921  0.58406097  1
  Pt  Pt17  1  0.59304416  0.26533126  0.75245258  1
  Pt  Pt18  1  0.67043718  0.34365624  0.09173037  1
  Pt  Pt19  1  0.66910222  0.34029783  0.41456870  1
  Pt  Pt20  1  0.92386801  0.00009310  0.00308326  1
  O  O21  1  0.99603572  0.85097851  0.50239521  1
  O  O22  1  0.17249582  0.99073452  0.22823409  1
  O  O23  1  0.19030451  0.66729102  0.42828956  1
  O  O24  1  0.19267172  0.67288903  0.06392961  1
  O  O25  1  0.17039515  0.50999832  0.74412053  1
  O  O26  1  0.33724641  0.81185415  0.74541397  1
  O  O27  1  0.00006115  0.14943873  0.18471722  1
  O  O28  1  0.32611310  0.50757766  0.06044552  1
  O  O29  1  0.14774438  0.14840474  0.50142461  1
  O  O30  1  0.32673258  0.50830559  0.42854740  1
  O  O31  1  0.50988274  0.83393227  0.02206951  1
  O  O32  1  0.17652551  0.99931046  0.77347624  1
  O  O33  1  0.50932189  0.82842651  0.47142736  1
  O  O34  1  0.47809794  0.64982353  0.74521353  1
  O  O35  1  0.51529263  0.33476986  0.56732926  1
  O  O36  1  0.51246724  0.33276039  0.93944500  1
  O  O37  1  0.65632943  0.48537606  0.25580058  1
  O  O38  1  0.51843225  0.17939118  0.25020165  1
  O  O39  1  0.84441641  0.85380522  0.18892170  1
  O  O40  1  0.85166285  0.85145747  0.81704032  1
  O  O41  1  0.83819879  0.52214231  0.97845257  1
  O  O42  1  0.83762358  0.51021343  0.52999822  1
  O  O43  1  0.67462711  0.19835612  0.93347062  1
  O  O44  1  0.67081913  0.19405156  0.57108504  1
  O  O45  1  0.81745542  0.34036423  0.25260534  1
  O  O46  1  0.84920903  0.00563638  0.50051599  1
  O  O47  1  0.99848895  0.14794019  0.82142144  1
