# generated using pymatgen
data_BaB2H2O5
_symmetry_space_group_name_H-M   'P 1'
_cell_length_a   7.05629264
_cell_length_b   7.24335224
_cell_length_c   11.98664900
_cell_angle_alpha   90.00000000
_cell_angle_beta   90.98564548
_cell_angle_gamma   90.00000000
_symmetry_Int_Tables_number   1
_chemical_formula_structural   BaB2H2O5
_chemical_formula_sum   'Ba6 B12 H12 O30'
_cell_volume   612.56152130
_cell_formula_units_Z   6
loop_
 _symmetry_equiv_pos_site_id
 _symmetry_equiv_pos_as_xyz
  1  'x, y, z'
loop_
 _atom_site_type_symbol
 _atom_site_label
 _atom_site_symmetry_multiplicity
 _atom_site_fract_x
 _atom_site_fract_y
 _atom_site_fract_z
 _atom_site_occupancy
  Ba  Ba0  1  0.00000000  0.62925497  0.75000000  1
  Ba  Ba1  1  0.00000000  0.37074503  0.25000000  1
  Ba  Ba2  1  0.31955226  0.22594807  0.55368066  1
  Ba  Ba3  1  0.31955226  0.77405193  0.05368066  1
  Ba  Ba4  1  0.68044774  0.22594807  0.94631934  1
  Ba  Ba5  1  0.68044774  0.77405193  0.44631934  1
  B  B6  1  0.00000000  0.13938017  0.75000000  1
  B  B7  1  0.00000000  0.86061983  0.25000000  1
  B  B8  1  0.17378986  0.23674312  0.93367769  1
  B  B9  1  0.17378986  0.76325688  0.43367769  1
  B  B10  1  0.33632871  0.99873292  0.80171987  1
  B  B11  1  0.33632871  0.00126708  0.30171987  1
  B  B12  1  0.50000000  0.69101795  0.75000000  1
  B  B13  1  0.50000000  0.30898205  0.25000000  1
  B  B14  1  0.66367129  0.99873292  0.69828013  1
  B  B15  1  0.66367129  0.00126708  0.19828013  1
  B  B16  1  0.82621014  0.23674312  0.56632231  1
  B  B17  1  0.82621014  0.76325688  0.06632231  1
  H  H18  1  0.11709047  0.88549437  0.59020090  1
  H  H19  1  0.11709047  0.11450563  0.09020090  1
  H  H20  1  0.35595902  0.44747366  0.88134005  1
  H  H21  1  0.35595902  0.55252634  0.38134005  1
  H  H22  1  0.35561980  0.61675800  0.60479232  1
  H  H23  1  0.35561980  0.38324200  0.10479232  1
  H  H24  1  0.64438020  0.61675800  0.89520768  1
  H  H25  1  0.64438020  0.38324200  0.39520768  1
  H  H26  1  0.64404098  0.44747366  0.61865995  1
  H  H27  1  0.64404098  0.55252634  0.11865995  1
  H  H28  1  0.88290953  0.88549437  0.90979910  1
  H  H29  1  0.88290953  0.11450563  0.40979910  1
  O  O30  1  0.03415926  0.26615276  0.84547491  1
  O  O31  1  0.03415926  0.73384724  0.34547491  1
  O  O32  1  0.07181525  0.78341053  0.54240661  1
  O  O33  1  0.07181525  0.21658947  0.04240661  1
  O  O34  1  0.16588907  0.01866163  0.72721563  1
  O  O35  1  0.16588907  0.98133837  0.22721563  1
  O  O36  1  0.28751383  0.41616685  0.94930280  1
  O  O37  1  0.30148095  0.08148480  0.91451092  1
  O  O38  1  0.28751383  0.58383315  0.44930280  1
  O  O39  1  0.30148095  0.91851520  0.41451092  1
  O  O40  1  0.37705229  0.79969652  0.82168585  1
  O  O41  1  0.38478579  0.55900783  0.67720962  1
  O  O42  1  0.37705229  0.20030348  0.32168585  1
  O  O43  1  0.38478579  0.44099217  0.17720962  1
  O  O44  1  0.50000000  0.09209758  0.75000000  1
  O  O45  1  0.50000000  0.90790242  0.25000000  1
  O  O46  1  0.61521421  0.55900783  0.82279038  1
  O  O47  1  0.62294771  0.79969652  0.67831415  1
  O  O48  1  0.61521421  0.44099217  0.32279038  1
  O  O49  1  0.62294771  0.20030348  0.17831415  1
  O  O50  1  0.69851905  0.08148480  0.58548908  1
  O  O51  1  0.71248617  0.41616685  0.55069720  1
  O  O52  1  0.69851905  0.91851520  0.08548908  1
  O  O53  1  0.71248617  0.58383315  0.05069720  1
  O  O54  1  0.83411093  0.01866163  0.77278437  1
  O  O55  1  0.83411093  0.98133837  0.27278437  1
  O  O56  1  0.92818475  0.78341053  0.95759339  1
  O  O57  1  0.92818475  0.21658947  0.45759339  1
  O  O58  1  0.96584074  0.26615276  0.65452509  1
  O  O59  1  0.96584074  0.73384724  0.15452509  1
