# generated using pymatgen
data_K3Ta8O21
_symmetry_space_group_name_H-M   'P 1'
_cell_length_a   9.24752261
_cell_length_b   9.24755508
_cell_length_c   12.21774044
_cell_angle_alpha   90.00016555
_cell_angle_beta   90.00034116
_cell_angle_gamma   120.00125234
_symmetry_Int_Tables_number   1
_chemical_formula_structural   K3Ta8O21
_chemical_formula_sum   'K6 Ta16 O42'
_cell_volume   904.83288112
_cell_formula_units_Z   2
loop_
 _symmetry_equiv_pos_site_id
 _symmetry_equiv_pos_as_xyz
  1  'x, y, z'
loop_
 _atom_site_type_symbol
 _atom_site_label
 _atom_site_symmetry_multiplicity
 _atom_site_fract_x
 _atom_site_fract_y
 _atom_site_fract_z
 _atom_site_occupancy
  K  K0  1  0.00000501  0.58997787  0.25004383  1
  K  K1  1  0.99999526  0.41002003  0.74995745  1
  K  K2  1  0.41001254  0.41001597  0.25004022  1
  K  K3  1  0.58998023  0.58998163  0.74995888  1
  K  K4  1  0.41002279  0.99999505  0.74995742  1
  K  K5  1  0.58998102  0.00000209  0.25004150  1
  Ta  Ta6  1  0.00000921  0.75252204  0.59450737  1
  Ta  Ta7  1  0.00001121  0.75254378  0.90496898  1
  Ta  Ta8  1  0.99999023  0.24745611  0.40548426  1
  Ta  Ta9  1  0.99998652  0.24742552  0.09503608  1
  Ta  Ta10  1  0.33332761  0.66666298  0.49997713  1
  Ta  Ta11  1  0.33333025  0.66665409  0.00002467  1
  Ta  Ta12  1  0.24745809  0.24745249  0.90496847  1
  Ta  Ta13  1  0.24748538  0.24748421  0.59449963  1
  Ta  Ta14  1  0.24742808  0.99998780  0.09503626  1
  Ta  Ta15  1  0.24745808  0.99999352  0.40548557  1
  Ta  Ta16  1  0.75256420  0.75256383  0.09504012  1
  Ta  Ta17  1  0.75253188  0.75253408  0.40549134  1
  Ta  Ta18  1  0.66667111  0.33333204  0.49997804  1
  Ta  Ta19  1  0.66666448  0.33333724  0.00002376  1
  Ta  Ta20  1  0.75252389  0.00000637  0.59450701  1
  Ta  Ta21  1  0.75254537  0.00000682  0.90497085  1
  O  O22  1  0.99999629  0.80162511  0.07391248  1
  O  O23  1  0.00000125  0.80169079  0.42582398  1
  O  O24  1  0.99998427  0.79097190  0.75017528  1
  O  O25  1  0.16790163  0.68683504  0.90551671  1
  O  O26  1  0.16783996  0.68687106  0.59447452  1
  O  O27  1  0.00001655  0.20903760  0.24982198  1
  O  O28  1  0.31316773  0.83209458  0.09447507  1
  O  O29  1  0.31313233  0.83215449  0.40552977  1
  O  O30  1  0.00000014  0.19831047  0.57417031  1
  O  O31  1  0.00000525  0.19836842  0.92609581  1
  O  O32  1  0.16791105  0.48106546  0.09447778  1
  O  O33  1  0.16784316  0.48097038  0.40553243  1
  O  O34  1  0.31316366  0.48106084  0.90551802  1
  O  O35  1  0.31313450  0.48096778  0.59446769  1
  O  O36  1  0.19836437  0.19836124  0.07389491  1
  O  O37  1  0.19827700  0.19827792  0.42583109  1
  O  O38  1  0.51904361  0.83216545  0.59446665  1
  O  O39  1  0.51893980  0.83208753  0.90552327  1
  O  O40  1  0.20901153  0.20900488  0.75016562  1
  O  O41  1  0.51902367  0.68686196  0.40554124  1
  O  O42  1  0.51892863  0.68682541  0.09447621  1
  O  O43  1  0.19836949  0.00000094  0.92609565  1
  O  O44  1  0.19829807  -0.00000026  0.57417286  1
  O  O45  1  0.20903952  0.00001835  0.24982407  1
  O  O46  1  0.48106306  0.31316215  0.90552126  1
  O  O47  1  0.48096591  0.31313363  0.59446188  1
  O  O48  1  0.79097586  0.79097691  0.24983106  1
  O  O49  1  0.48106790  0.16790515  0.09447413  1
  O  O50  1  0.48096878  0.16784024  0.40553715  1
  O  O51  1  0.80172828  0.80172638  0.57416221  1
  O  O52  1  0.80163719  0.80163506  0.92611559  1
  O  O53  1  0.68683021  0.51892484  0.09447750  1
  O  O54  1  0.68686180  0.51902175  0.40553888  1
  O  O55  1  0.83216720  0.51904104  0.59446815  1
  O  O56  1  0.83208988  0.51893518  0.90551812  1
  O  O57  1  0.68687187  0.16784038  0.59447576  1
  O  O58  1  0.68683553  0.16789772  0.90551990  1
  O  O59  1  0.83215637  0.31313293  0.40552900  1
  O  O60  1  0.83209799  0.31316718  0.09447823  1
  O  O61  1  0.79097251  0.99997885  0.75017425  1
  O  O62  1  0.80170431  0.00000142  0.42582141  1
  O  O63  1  0.80162941  0.99999529  0.07391330  1
