# generated using pymatgen
data_Rb4Ge9(H3N)5
_symmetry_space_group_name_H-M   'P 1'
_cell_length_a   9.18025717
_cell_length_b   15.33013262
_cell_length_c   17.29504065
_cell_angle_alpha   90.00000000
_cell_angle_beta   91.92671968
_cell_angle_gamma   90.00000000
_symmetry_Int_Tables_number   1
_chemical_formula_structural   Rb4Ge9(H3N)5
_chemical_formula_sum   'Rb16 Ge36 H60 N20'
_cell_volume   2432.63385522
_cell_formula_units_Z   4
loop_
 _symmetry_equiv_pos_site_id
 _symmetry_equiv_pos_as_xyz
  1  'x, y, z'
loop_
 _atom_site_type_symbol
 _atom_site_label
 _atom_site_symmetry_multiplicity
 _atom_site_fract_x
 _atom_site_fract_y
 _atom_site_fract_z
 _atom_site_occupancy
  Rb  Rb0  1  0.18671674  0.72066856  0.90733480  1
  Rb  Rb1  1  0.18671674  0.77933144  0.40733480  1
  Rb  Rb2  1  0.25308574  0.44917086  0.75322404  1
  Rb  Rb3  1  0.25308574  0.05082914  0.25322404  1
  Rb  Rb4  1  0.27668611  0.77307153  0.64724314  1
  Rb  Rb5  1  0.27668611  0.72692847  0.14724314  1
  Rb  Rb6  1  0.44943674  0.35243774  0.55018596  1
  Rb  Rb7  1  0.44943674  0.14756226  0.05018596  1
  Rb  Rb8  1  0.55056326  0.85243774  0.94981404  1
  Rb  Rb9  1  0.55056326  0.64756226  0.44981404  1
  Rb  Rb10  1  0.72331389  0.27307153  0.85275686  1
  Rb  Rb11  1  0.72331389  0.22692847  0.35275686  1
  Rb  Rb12  1  0.74691426  0.94917086  0.74677596  1
  Rb  Rb13  1  0.74691426  0.55082914  0.24677596  1
  Rb  Rb14  1  0.81328326  0.22066856  0.59266520  1
  Rb  Rb15  1  0.81328326  0.27933144  0.09266520  1
  Ge  Ge16  1  0.04044483  0.15494473  0.76471923  1
  Ge  Ge17  1  0.04044483  0.34505527  0.26471923  1
  Ge  Ge18  1  0.10350946  0.00914208  0.69039401  1
  Ge  Ge19  1  0.10350946  0.49085792  0.19039401  1
  Ge  Ge20  1  0.18295520  0.07972934  0.88022936  1
  Ge  Ge21  1  0.18295520  0.42027066  0.38022936  1
  Ge  Ge22  1  0.22433935  0.15850763  0.65245339  1
  Ge  Ge23  1  0.22433935  0.34149237  0.15245339  1
  Ge  Ge24  1  0.27238348  0.94280740  0.80168507  1
  Ge  Ge25  1  0.29540704  0.21796380  0.81053629  1
  Ge  Ge26  1  0.27238348  0.55719260  0.30168507  1
  Ge  Ge27  1  0.29540704  0.28203620  0.31053629  1
  Ge  Ge28  1  0.38403479  0.00711834  0.67453858  1
  Ge  Ge29  1  0.38403479  0.49288166  0.17453858  1
  Ge  Ge30  1  0.45376547  0.06838367  0.83909326  1
  Ge  Ge31  1  0.45376547  0.43161633  0.33909326  1
  Ge  Ge32  1  0.48757897  0.16052590  0.71331321  1
  Ge  Ge33  1  0.51242103  0.66052590  0.78668679  1
  Ge  Ge34  1  0.48757897  0.33947410  0.21331321  1
  Ge  Ge35  1  0.51242103  0.83947410  0.28668679  1
  Ge  Ge36  1  0.54623453  0.56838367  0.66090674  1
  Ge  Ge37  1  0.54623453  0.93161633  0.16090674  1
  Ge  Ge38  1  0.61596521  0.50711834  0.82546142  1
  Ge  Ge39  1  0.61596521  0.99288166  0.32546142  1
  Ge  Ge40  1  0.70459296  0.71796380  0.68946371  1
  Ge  Ge41  1  0.72761652  0.44280740  0.69831493  1
  Ge  Ge42  1  0.70459296  0.78203620  0.18946371  1
  Ge  Ge43  1  0.72761652  0.05719260  0.19831493  1
  Ge  Ge44  1  0.77566065  0.65850763  0.84754661  1
  Ge  Ge45  1  0.77566065  0.84149237  0.34754661  1
  Ge  Ge46  1  0.81704480  0.57972934  0.61977064  1
  Ge  Ge47  1  0.81704480  0.92027066  0.11977064  1
  Ge  Ge48  1  0.89649054  0.50914208  0.80960599  1
  Ge  Ge49  1  0.89649054  0.99085792  0.30960599  1
  Ge  Ge50  1  0.95955517  0.65494473  0.73528077  1
  Ge  Ge51  1  0.95955517  0.84505527  0.23528077  1
  H  H52  1  0.00445599  0.86583278  0.58552008  1
  H  H53  1  0.02247375  0.41973070  0.60746326  1
  H  H54  1  0.00445599  0.63416722  0.08552008  1
  H  H55  1  0.02247375  0.08026930  0.10746326  1
  H  H56  1  0.07400632  0.34050780  0.99781200  1
  H  H57  1  0.07951519  0.27172141  0.92584595  1
  H  H58  1  0.07400632  0.15949220  0.49781200  1
  H  H59  1  0.07951519  0.22827859  0.42584595  1
  H  H60  1  0.12078827  0.32888459  0.60940468  1
  H  H61  1  0.12137835  0.62274673  0.54699755  1
  H  H62  1  0.12078827  0.17111541  0.10940468  1
  H  H63  1  0.16593791  0.49981916  0.99867426  1
  H  H64  1  0.14484858  0.40405984  0.54190643  1
  H  H65  1  0.12137835  0.87725327  0.04699755  1
  H  H66  1  0.16130830  0.52107977  0.90585659  1
  H  H67  1  0.16593791  0.00018084  0.49867426  1
  H  H68  1  0.14484858  0.09594016  0.04190643  1
  H  H69  1  0.16130830  0.97892023  0.40585659  1
  H  H70  1  0.20381235  0.92502564  0.97626445  1
  H  H71  1  0.20381235  0.57497436  0.47626445  1
  H  H72  1  0.28833516  0.58607202  0.56057814  1
  H  H73  1  0.31502118  0.48952146  0.95046835  1
  H  H74  1  0.28833516  0.91392798  0.06057814  1
  H  H75  1  0.31502118  0.01047854  0.45046835  1
  H  H76  1  0.42503480  0.33906779  0.94532618  1
  H  H77  1  0.42503480  0.16093221  0.44532618  1
  H  H78  1  0.42686710  0.88860869  0.52063438  1
  H  H79  1  0.42686710  0.61139131  0.02063438  1
  H  H80  1  0.45906573  0.15413457  0.53908915  1
  H  H81  1  0.45906573  0.34586543  0.03908915  1
  H  H82  1  0.54093427  0.65413457  0.96091085  1
  H  H83  1  0.54093427  0.84586543  0.46091085  1
  H  H84  1  0.57313290  0.38860869  0.97936562  1
  H  H85  1  0.57313290  0.11139131  0.47936562  1
  H  H86  1  0.57496520  0.83906779  0.55467382  1
  H  H87  1  0.57496520  0.66093221  0.05467382  1
  H  H88  1  0.68497882  0.98952146  0.54953165  1
  H  H89  1  0.71166484  0.08607202  0.93942186  1
  H  H90  1  0.68497882  0.51047854  0.04953165  1
  H  H91  1  0.71166484  0.41392798  0.43942186  1
  H  H92  1  0.79618765  0.42502564  0.52373555  1
  H  H93  1  0.79618765  0.07497436  0.02373555  1
  H  H94  1  0.83869170  0.02107977  0.59414341  1
  H  H95  1  0.85515142  0.90405984  0.95809357  1
  H  H96  1  0.83406209  -0.00018084  0.50132574  1
  H  H97  1  0.83869170  0.47892023  0.09414341  1
  H  H98  1  0.87862165  0.12274673  0.95300245  1
  H  H99  1  0.85515142  0.59594016  0.45809357  1
  H  H100  1  0.83406209  0.50018084  0.00132574  1
  H  H101  1  0.87921173  0.82888459  0.89059532  1
  H  H102  1  0.87862165  0.37725327  0.45300245  1
  H  H103  1  0.87921173  0.67111541  0.39059532  1
  H  H104  1  0.92048481  0.77172141  0.57415405  1
  H  H105  1  0.92599368  0.84050780  0.50218800  1
  H  H106  1  0.92048481  0.72827859  0.07415405  1
  H  H107  1  0.92599368  0.65949220  0.00218800  1
  H  H108  1  0.97752625  0.91973070  0.89253674  1
  H  H109  1  0.99554401  0.36583278  0.91447992  1
  H  H110  1  0.97752625  0.58026930  0.39253674  1
  H  H111  1  0.99554401  0.13416722  0.41447992  1
  N  N112  1  0.01203247  0.31490858  0.95266612  1
  N  N113  1  0.01203247  0.18509142  0.45266612  1
  N  N114  1  0.12506235  0.39502430  0.59974621  1
  N  N115  1  0.12506235  0.10497570  0.09974621  1
  N  N116  1  0.22459532  0.52778675  0.95578868  1
  N  N117  1  0.22049154  0.61812538  0.52109917  1
  N  N118  1  0.22459532  0.97221325  0.45578868  1
  N  N119  1  0.22049154  0.88187462  0.02109917  1
  N  N120  1  0.50736785  0.33550275  0.98680618  1
  N  N121  1  0.49263215  0.83550275  0.51319382  1
  N  N122  1  0.50736785  0.16449725  0.48680618  1
  N  N123  1  0.49263215  0.66449725  0.01319382  1
  N  N124  1  0.77950846  0.11812538  0.97890083  1
  N  N125  1  0.77540468  0.02778675  0.54421132  1
  N  N126  1  0.77950846  0.38187462  0.47890083  1
  N  N127  1  0.77540468  0.47221325  0.04421132  1
  N  N128  1  0.87493765  0.89502430  0.90025379  1
  N  N129  1  0.87493765  0.60497570  0.40025379  1
  N  N130  1  0.98796753  0.81490858  0.54733388  1
  N  N131  1  0.98796753  0.68509142  0.04733388  1
