# generated using pymatgen
data_KSb5O13
_symmetry_space_group_name_H-M   'P 1'
_cell_length_a   5.64315453
_cell_length_b   5.64315453
_cell_length_c   17.06160626
_cell_angle_alpha   90.00000000
_cell_angle_beta   90.00000000
_cell_angle_gamma   72.72184757
_symmetry_Int_Tables_number   1
_chemical_formula_structural   KSb5O13
_chemical_formula_sum   'K2 Sb10 O26'
_cell_volume   518.81189531
_cell_formula_units_Z   2
loop_
 _symmetry_equiv_pos_site_id
 _symmetry_equiv_pos_as_xyz
  1  'x, y, z'
loop_
 _atom_site_type_symbol
 _atom_site_label
 _atom_site_symmetry_multiplicity
 _atom_site_fract_x
 _atom_site_fract_y
 _atom_site_fract_z
 _atom_site_occupancy
  K  K0  1  0.15444579  0.09710506  0.25000000  1
  K  K1  1  0.90289494  0.84555421  0.75000000  1
  Sb  Sb2  1  0.00011496  0.99988504  0.00000000  1
  Sb  Sb3  1  0.00011496  0.99988504  0.50000000  1
  Sb  Sb4  1  0.77028759  0.76632159  0.36185218  1
  Sb  Sb5  1  0.23367841  0.22971241  0.63814782  1
  Sb  Sb6  1  0.77028759  0.76632159  0.13814782  1
  Sb  Sb7  1  0.23367841  0.22971241  0.86185218  1
  Sb  Sb8  1  0.38641879  0.38578345  0.07764952  1
  Sb  Sb9  1  0.38641879  0.38578345  0.42235048  1
  Sb  Sb10  1  0.61421655  0.61358121  0.57764952  1
  Sb  Sb11  1  0.61421655  0.61358121  0.92235048  1
  O  O12  1  0.07107852  0.47186428  0.13398500  1
  O  O13  1  0.07107852  0.47186428  0.36601500  1
  O  O14  1  0.52813572  0.92892148  0.63398500  1
  O  O15  1  0.52813572  0.92892148  0.86601500  1
  O  O16  1  0.31098407  0.68901593  0.00000000  1
  O  O17  1  0.31098407  0.68901593  0.50000000  1
  O  O18  1  0.55190386  0.55545769  0.34878901  1
  O  O19  1  0.98571670  0.98364767  0.11301581  1
  O  O20  1  0.01635233  0.01428330  0.61301581  1
  O  O21  1  0.81567286  0.81958280  0.25000000  1
  O  O22  1  0.22589742  0.22463974  0.50989944  1
  O  O23  1  0.44454231  0.44809614  0.65121099  1
  O  O24  1  0.77536026  0.77410258  0.00989944  1
  O  O25  1  0.01635233  0.01428330  0.88698419  1
  O  O26  1  0.55190386  0.55545769  0.15121099  1
  O  O27  1  0.44454231  0.44809614  0.84878901  1
  O  O28  1  0.18041720  0.18432714  0.75000000  1
  O  O29  1  0.22589742  0.22463974  0.99010056  1
  O  O30  1  0.98571670  0.98364767  0.38698419  1
  O  O31  1  0.77536026  0.77410258  0.49010056  1
  O  O32  1  0.68932492  0.31067508  0.00000000  1
  O  O33  1  0.68932492  0.31067508  0.50000000  1
  O  O34  1  0.47747475  0.06854206  0.13235510  1
  O  O35  1  0.47747475  0.06854206  0.36764490  1
  O  O36  1  0.93145794  0.52252525  0.63235510  1
  O  O37  1  0.93145794  0.52252525  0.86764490  1
