# generated using pymatgen
data_Sr2Tl2O5
_symmetry_space_group_name_H-M   'P 1'
_cell_length_a   6.09902813
_cell_length_b   7.08522774
_cell_length_c   14.12409884
_cell_angle_alpha   90.00000000
_cell_angle_beta   90.00000000
_cell_angle_gamma   73.48620718
_symmetry_Int_Tables_number   1
_chemical_formula_structural   Sr2Tl2O5
_chemical_formula_sum   'Sr8 Tl8 O20'
_cell_volume   585.16882480
_cell_formula_units_Z   4
loop_
 _symmetry_equiv_pos_site_id
 _symmetry_equiv_pos_as_xyz
  1  'x, y, z'
loop_
 _atom_site_type_symbol
 _atom_site_label
 _atom_site_symmetry_multiplicity
 _atom_site_fract_x
 _atom_site_fract_y
 _atom_site_fract_z
 _atom_site_occupancy
  Sr  Sr0  1  0.45390850  0.88575706  0.88670211  1
  Sr  Sr1  1  0.06314109  0.98777334  0.23671798  1
  Sr  Sr2  1  0.54609150  0.61424294  0.11329789  1
  Sr  Sr3  1  0.93685891  0.51222666  0.76328202  1
  Sr  Sr4  1  0.45390850  0.38575706  0.61329789  1
  Sr  Sr5  1  0.06314109  0.48777334  0.26328202  1
  Sr  Sr6  1  0.93685891  0.01222666  0.73671798  1
  Sr  Sr7  1  0.54609150  0.11424294  0.38670211  1
  Tl  Tl8  1  0.45497340  0.88666504  0.60689537  1
  Tl  Tl9  1  0.00000000  0.75000000  0.00000000  1
  Tl  Tl10  1  0.54502660  0.61333496  0.39310463  1
  Tl  Tl11  1  0.00000000  0.75000000  0.50000000  1
  Tl  Tl12  1  0.45497340  0.38666504  0.89310463  1
  Tl  Tl13  1  0.00000000  0.25000000  0.50000000  1
  Tl  Tl14  1  0.54502660  0.11333496  0.10689537  1
  Tl  Tl15  1  0.00000000  0.25000000  0.00000000  1
  O  O16  1  0.83385440  0.78565775  0.36144304  1
  O  O17  1  0.64063601  0.83241326  0.73430278  1
  O  O18  1  0.26680110  0.93524292  0.05414227  1
  O  O19  1  0.84998101  0.78716185  0.13904726  1
  O  O20  1  0.29206091  0.92642807  0.46534108  1
  O  O21  1  0.16614560  0.71434225  0.63855696  1
  O  O22  1  0.73319890  0.56475708  0.94585773  1
  O  O23  1  0.15001899  0.71283815  0.86095274  1
  O  O24  1  0.70793909  0.57357193  0.53465892  1
  O  O25  1  0.35936399  0.66758674  0.26569722  1
  O  O26  1  0.84998101  0.28716185  0.36095274  1
  O  O27  1  0.83385440  0.28565775  0.13855696  1
  O  O28  1  0.64063601  0.33241326  0.76569722  1
  O  O29  1  0.26680110  0.43524292  0.44585773  1
  O  O30  1  0.29206091  0.42642807  0.03465892  1
  O  O31  1  0.70793909  0.07357193  0.96534108  1
  O  O32  1  0.73319890  0.06475708  0.55414227  1
  O  O33  1  0.35936399  0.16758674  0.23430278  1
  O  O34  1  0.16614560  0.21434225  0.86144304  1
  O  O35  1  0.15001899  0.21283815  0.63904726  1
