# generated using pymatgen
data_La26B8O51
_symmetry_space_group_name_H-M   'P 1'
_cell_length_a   6.95586414
_cell_length_b   13.00753700
_cell_length_c   14.70877725
_cell_angle_alpha   89.93129636
_cell_angle_beta   99.36272064
_cell_angle_gamma   89.68779917
_symmetry_Int_Tables_number   1
_chemical_formula_structural   La26B8O51
_chemical_formula_sum   'La26 B8 O51'
_cell_volume   1313.07900057
_cell_formula_units_Z   1
loop_
 _symmetry_equiv_pos_site_id
 _symmetry_equiv_pos_as_xyz
  1  'x, y, z'
loop_
 _atom_site_type_symbol
 _atom_site_label
 _atom_site_symmetry_multiplicity
 _atom_site_fract_x
 _atom_site_fract_y
 _atom_site_fract_z
 _atom_site_occupancy
  La  La0  1  0.15202830  0.30885753  0.97111082  1
  La  La1  1  0.06548984  0.28953731  0.70287434  1
  La  La2  1  0.00000473  0.50235452  0.50080947  1
  La  La3  1  0.14455086  0.20623623  0.46297042  1
  La  La4  1  0.05507961  0.21240291  0.19924904  1
  La  La5  1  0.32345473  0.61157376  0.94136714  1
  La  La6  1  0.22448896  0.98970778  0.68415345  1
  La  La7  1  0.99953497  0.99937762  0.00111342  1
  La  La8  1  0.37475511  0.69772188  0.65955123  1
  La  La9  1  0.31627920  0.87518220  0.43102530  1
  La  La10  1  0.48672066  0.88856893  0.91526507  1
  La  La11  1  0.23143509  0.49972181  0.16757277  1
  La  La12  1  0.51824698  0.38883371  0.58757803  1
  La  La13  1  0.37389392  0.80098747  0.15562822  1
  La  La14  1  0.62666433  0.20084559  0.84548595  1
  La  La15  1  0.48554626  0.60644223  0.41325967  1
  La  La16  1  0.76827057  0.50080056  0.83232535  1
  La  La17  1  0.51581172  0.11021910  0.08694672  1
  La  La18  1  0.70938247  0.11716857  0.56189247  1
  La  La19  1  0.62318141  0.30075426  0.33688444  1
  La  La20  1  0.76150436  0.00044081  0.33206132  1
  La  La21  1  0.67723370  0.38836299  0.05928343  1
  La  La22  1  0.94060358  0.78461556  0.80043314  1
  La  La23  1  0.84397192  0.80928251  0.52941104  1
  La  La24  1  0.93662730  0.71137714  0.29755988  1
  La  La25  1  0.84884203  0.69099317  0.02995757  1
  B  B26  1  0.13674768  0.09895137  0.83872344  1
  B  B27  1  0.13757027  0.40466041  0.33742200  1
  B  B28  1  0.32893485  0.44905994  0.78887966  1
  B  B29  1  0.33082953  0.05132648  0.29276112  1
  B  B30  1  0.66602071  0.94875385  0.70542022  1
  B  B31  1  0.67126609  0.55118936  0.21097511  1
  B  B32  1  0.86180244  0.59748636  0.66213084  1
  B  B33  1  0.86248029  0.90334162  0.16352633  1
  O  O34  1  0.00868530  0.65144450  0.62992520  1
  O  O35  1  0.06239564  0.12812110  0.59970202  1
  O  O36  1  0.15714214  0.99156366  0.84632738  1
  O  O37  1  0.15785133  0.42987530  0.82495049  1
  O  O38  1  0.00951720  0.85028912  0.13072501  1
  O  O39  1  0.16121719  0.34623861  0.56866357  1
  O  O40  1  0.19195094  0.85522971  0.58584193  1
  O  O41  1  0.27165058  0.76548186  0.81738357  1
  O  O42  1  0.26536344  0.15144356  0.79191558  1
  O  O43  1  0.02949338  0.36193440  0.10748654  1
  O  O44  1  0.15727647  0.51009041  0.34720378  1
  O  O45  1  0.16778441  0.06927421  0.33567068  1
  O  O46  1  0.40502776  0.54719134  0.78558223  1
  O  O47  1  0.16394787  0.15448007  0.06895017  1
  O  O48  1  0.48634571  0.25070519  0.98134381  1
  O  O49  1  0.34257848  0.55314236  0.54908778  1
  O  O50  1  0.18785699  0.65530740  0.08971736  1
  O  O51  1  0.27065853  0.73931174  0.32538438  1
  O  O52  1  0.42798271  0.36708687  0.75641914  1
  O  O53  1  0.26600341  0.34762748  0.29374666  1
  O  O54  1  0.40533921  0.95251769  0.28564002  1
  O  O55  1  0.57258796  0.86885334  0.74184085  1
  O  O56  1  0.47982301  0.23847705  0.48702763  1
  O  O57  1  0.66306683  0.54543154  0.96682852  1
  O  O58  1  0.34179473  0.94593936  0.04744026  1
  O  O59  1  0.65759621  0.05427221  0.95105318  1
  O  O60  1  0.33676171  0.45468375  0.03312538  1
  O  O61  1  0.51509512  0.74922669  0.51637912  1
  O  O62  1  0.42663057  0.13245564  0.25886247  1
  O  O63  1  0.57313756  0.04477672  0.69689515  1
  O  O64  1  0.73200694  0.65131164  0.70759344  1
  O  O65  1  0.57269305  0.63296409  0.24316825  1
  O  O66  1  0.64010752  0.96155865  0.47065570  1
  O  O67  1  0.74006299  0.25985412  0.67501133  1
  O  O68  1  0.81215687  0.34429919  0.91028003  1
  O  O69  1  0.65528770  0.44234267  0.45226014  1
  O  O70  1  0.51416725  0.74894907  0.01864463  1
  O  O71  1  0.83617417  0.84512961  0.93155024  1
  O  O72  1  0.59449073  0.45287326  0.21475875  1
  O  O73  1  0.84565109  0.93323590  0.67521713  1
  O  O74  1  0.84374624  0.49136160  0.65192009  1
  O  O75  1  0.97166638  0.63684623  0.89343716  1
  O  O76  1  0.73391736  0.84956320  0.20924474  1
  O  O77  1  0.72621641  0.23784057  0.18081081  1
  O  O78  1  0.81415100  0.15727998  0.41091685  1
  O  O79  1  0.83544806  0.65538688  0.43082272  1
  O  O80  1  0.98932755  0.15003499  0.87017686  1
  O  O81  1  0.84202235  0.56936634  0.17443108  1
  O  O82  1  0.84300118  0.00986285  0.15408400  1
  O  O83  1  0.96176394  0.86331982  0.39414182  1
  O  O84  1  0.98890640  0.35240594  0.36997699  1
