# generated using pymatgen
data_Sr3(RhO2)16
_symmetry_space_group_name_H-M   'P 1'
_cell_length_a   9.86898903
_cell_length_b   8.20123897
_cell_length_c   8.75325826
_cell_angle_alpha   77.30034493
_cell_angle_beta   113.08711743
_cell_angle_gamma   107.61803788
_symmetry_Int_Tables_number   1
_chemical_formula_structural   Sr3(RhO2)16
_chemical_formula_sum   'Sr3 Rh16 O32'
_cell_volume   617.01203338
_cell_formula_units_Z   1
loop_
 _symmetry_equiv_pos_site_id
 _symmetry_equiv_pos_as_xyz
  1  'x, y, z'
loop_
 _atom_site_type_symbol
 _atom_site_label
 _atom_site_symmetry_multiplicity
 _atom_site_fract_x
 _atom_site_fract_y
 _atom_site_fract_z
 _atom_site_occupancy
  Sr  Sr0  1  0.01592377  0.01586246  0.01631627  1
  Sr  Sr1  1  0.32747580  0.32787383  0.32771711  1
  Sr  Sr2  1  0.69601674  0.69536874  0.69569186  1
  Rh  Rh3  1  0.24613788  0.05602885  0.78005739  1
  Rh  Rh4  1  0.62056273  0.12038043  0.80015087  1
  Rh  Rh5  1  0.12925759  0.62945354  0.94958222  1
  Rh  Rh6  1  0.00500508  0.19359460  0.46945191  1
  Rh  Rh7  1  0.25546190  0.44460891  0.71918950  1
  Rh  Rh8  1  0.50451161  0.69447210  0.97045134  1
  Rh  Rh9  1  0.88096065  0.37813187  0.70068118  1
  Rh  Rh10  1  0.63243146  0.12979183  0.45182229  1
  Rh  Rh11  1  0.36872680  0.86990251  0.54908658  1
  Rh  Rh12  1  0.11884394  0.62248752  0.29916513  1
  Rh  Rh13  1  0.99599936  0.80737609  0.52984516  1
  Rh  Rh14  1  0.49527934  0.30561818  0.03037123  1
  Rh  Rh15  1  0.74480150  0.55558831  0.28185269  1
  Rh  Rh16  1  0.87105466  0.37185822  0.05085763  1
  Rh  Rh17  1  0.38069683  0.88047113  0.20120268  1
  Rh  Rh18  1  0.75419695  0.94391505  0.22014164  1
  O  O19  1  0.47094607  0.13058223  0.88954818  1
  O  O20  1  0.26115962  0.24340071  0.91318724  1
  O  O21  1  0.02452927  0.36743224  0.94937595  1
  O  O22  1  0.77581437  0.11743994  0.70090218  1
  O  O23  1  0.72847107  0.37964261  0.80445539  1
  O  O24  1  0.47776937  0.12777649  0.55410099  1
  O  O25  1  0.48886241  0.50653963  0.83767916  1
  O  O26  1  0.23776922  0.25457006  0.58582792  1
  O  O27  1  0.27947414  0.61891708  0.86061568  1
  O  O28  1  0.03062017  0.36762194  0.61174278  1
  O  O29  1  0.21233363  0.88673598  0.97230311  1
  O  O30  1  0.98796286  0.00564721  0.33358455  1
  O  O31  1  0.78071480  0.11980896  0.36128476  1
  O  O32  1  0.96061568  0.63621709  0.72110266  1
  O  O33  1  0.46192600  0.13812835  0.22408133  1
  O  O34  1  0.71475103  0.38485529  0.47305232  1
  O  O35  1  0.53819463  0.86275266  0.77736767  1
  O  O36  1  0.04110440  0.36469399  0.27871911  1
  O  O37  1  0.28498164  0.61487855  0.52715534  1
  O  O38  1  0.22029388  0.88080067  0.63877173  1
  O  O39  1  0.01292195  0.99521457  0.66426182  1
  O  O40  1  0.78837984  0.11417104  0.02839135  1
  O  O41  1  0.72044765  0.38182368  0.13957711  1
  O  O42  1  0.96920521  0.63203037  0.38823187  1
  O  O43  1  0.76343978  0.74635767  0.41550515  1
  O  O44  1  0.51149338  0.49424340  0.16327495  1
  O  O45  1  0.52383111  0.87155095  0.44817906  1
  O  O46  1  0.27220557  0.62261536  0.19575568  1
  O  O47  1  0.22446677  0.88365063  0.29951121  1
  O  O48  1  0.97599709  0.63301719  0.05074476  1
  O  O49  1  0.73763489  0.75527712  0.08789669  1
  O  O50  1  0.52963893  0.87012415  0.11147960  1
