# generated using pymatgen
data_Dy2SiO5
_symmetry_space_group_name_H-M   'P 1'
_cell_length_a   8.00179389
_cell_length_b   10.62738405
_cell_length_c   8.00179389
_cell_angle_alpha   61.59917309
_cell_angle_beta   129.41513010
_cell_angle_gamma   118.40082691
_symmetry_Int_Tables_number   1
_chemical_formula_structural   Dy2SiO5
_chemical_formula_sum   'Dy8 Si4 O20'
_cell_volume   447.07686232
_cell_formula_units_Z   4
loop_
 _symmetry_equiv_pos_site_id
 _symmetry_equiv_pos_as_xyz
  1  'x, y, z'
loop_
 _atom_site_type_symbol
 _atom_site_label
 _atom_site_symmetry_multiplicity
 _atom_site_fract_x
 _atom_site_fract_y
 _atom_site_fract_z
 _atom_site_occupancy
  Dy  Dy0  1  0.46677107  0.65893149  0.75498835  1
  Dy  Dy1  1  0.29598703  0.97607861  0.21449676  1
  Dy  Dy2  1  0.21449676  0.52392139  0.29598703  1
  Dy  Dy3  1  0.24501165  0.15893149  0.53322893  1
  Dy  Dy4  1  0.75498835  0.84106851  0.46677107  1
  Dy  Dy5  1  0.78550324  0.47607861  0.70401297  1
  Dy  Dy6  1  0.70401297  0.02392139  0.78550324  1
  Dy  Dy7  1  0.53322893  0.34106851  0.24501165  1
  Si  Si8  1  0.27189106  0.80592357  0.90886232  1
  Si  Si9  1  0.09113768  0.30592357  0.72810894  1
  Si  Si10  1  0.90886232  0.69407643  0.27189106  1
  Si  Si11  1  0.72810894  0.19407643  0.09113768  1
  O  O12  1  0.12232197  0.92676644  0.71723078  1
  O  O13  1  0.10796988  0.63714356  0.92904836  1
  O  O14  1  0.44659081  0.81917842  0.85470134  1
  O  O15  1  0.28276922  0.42676644  0.87767803  1
  O  O16  1  0.07095164  0.13714356  0.89203012  1
  O  O17  1  0.15415154  0.66106874  0.40625368  1
  O  O18  1  0.14529866  0.31917842  0.55340919  1
  O  O19  1  0.60164550  0.89231637  0.57390511  1
  O  O20  1  0.57390511  0.60768363  0.60164550  1
  O  O21  1  0.59374632  0.16106874  0.84584846  1
  O  O22  1  0.40625368  0.83893126  0.15415154  1
  O  O23  1  0.42609489  0.39231637  0.39835450  1
  O  O24  1  0.39835450  0.10768363  0.42609489  1
  O  O25  1  0.85470134  0.68082158  0.44659081  1
  O  O26  1  0.84584846  0.33893126  0.59374632  1
  O  O27  1  0.92904836  0.86285644  0.10796988  1
  O  O28  1  0.71723078  0.57323356  0.12232197  1
  O  O29  1  0.55340919  0.18082158  0.14529866  1
  O  O30  1  0.89203012  0.36285644  0.07095164  1
  O  O31  1  0.87767803  0.07323356  0.28276922  1
