# generated using pymatgen
data_Y3ReB7
_symmetry_space_group_name_H-M   'P 1'
_cell_length_a   3.54412462
_cell_length_b   8.11120137
_cell_length_c   9.37083055
_cell_angle_alpha   90.00000000
_cell_angle_beta   90.00000000
_cell_angle_gamma   102.61924359
_symmetry_Int_Tables_number   1
_chemical_formula_structural   Y3ReB7
_chemical_formula_sum   'Y6 Re2 B14'
_cell_volume   262.87688481
_cell_formula_units_Z   2
loop_
 _symmetry_equiv_pos_site_id
 _symmetry_equiv_pos_as_xyz
  1  'x, y, z'
loop_
 _atom_site_type_symbol
 _atom_site_label
 _atom_site_symmetry_multiplicity
 _atom_site_fract_x
 _atom_site_fract_y
 _atom_site_fract_z
 _atom_site_occupancy
  B  B0  1  0.45768833  0.91537666  0.25000000  1
  B  B1  1  0.54231167  0.08462334  0.75000000  1
  B  B2  1  0.47936537  0.95873075  0.90450869  1
  B  B3  1  0.52063463  0.04126925  0.09549131  1
  B  B4  1  0.52063463  0.04126925  0.40450869  1
  B  B5  1  0.47936537  0.95873075  0.59549131  1
  B  B6  1  0.36820456  0.73640913  0.84922441  1
  B  B7  1  0.63179544  0.26359087  0.15077559  1
  B  B8  1  0.27300493  0.54600985  0.96627267  1
  B  B9  1  0.72699507  0.45399015  0.03372733  1
  B  B10  1  0.72699507  0.45399015  0.46627267  1
  B  B11  1  0.27300493  0.54600985  0.53372733  1
  B  B12  1  0.36820456  0.73640913  0.65077559  1
  B  B13  1  0.63179544  0.26359087  0.34922441  1
  Y  Y14  1  0.10515154  0.21030308  0.93993846  1
  Y  Y15  1  0.89484846  0.78969692  0.06006154  1
  Y  Y16  1  0.24196438  0.48392877  0.25000000  1
  Y  Y17  1  0.75803562  0.51607123  0.75000000  1
  Y  Y18  1  0.10515154  0.21030308  0.56006154  1
  Y  Y19  1  0.89484846  0.78969692  0.43993846  1
  Re  Re20  1  0.94698505  0.89397010  0.75000000  1
  Re  Re21  1  0.05301495  0.10602990  0.25000000  1
