# generated using pymatgen
data_Ti13(Fe5O14)3
_symmetry_space_group_name_H-M   'P 1'
_cell_length_a   9.17742381
_cell_length_b   8.91016840
_cell_length_c   9.96179576
_cell_angle_alpha   81.63652831
_cell_angle_beta   104.51312385
_cell_angle_gamma   80.72321237
_symmetry_Int_Tables_number   1
_chemical_formula_structural   Ti13(Fe5O14)3
_chemical_formula_sum   'Ti13 Fe15 O42'
_cell_volume   763.42554502
_cell_formula_units_Z   1
loop_
 _symmetry_equiv_pos_site_id
 _symmetry_equiv_pos_as_xyz
  1  'x, y, z'
loop_
 _atom_site_type_symbol
 _atom_site_label
 _atom_site_symmetry_multiplicity
 _atom_site_fract_x
 _atom_site_fract_y
 _atom_site_fract_z
 _atom_site_occupancy
  Ti  Ti0  1  0.93738111  0.98319215  0.18523796  1
  Ti  Ti1  1  0.79457176  0.26586083  0.61476868  1
  Ti  Ti2  1  0.92069873  0.30779081  0.24136320  1
  Ti  Ti3  1  0.77374443  0.59300069  0.66776705  1
  Ti  Ti4  1  0.36992599  0.12021328  0.90345108  1
  Ti  Ti5  1  0.49098917  0.16106527  0.52759428  1
  Ti  Ti6  1  0.63662221  0.87679133  0.09933703  1
  Ti  Ti7  1  0.65164748  0.54758590  0.04334550  1
  Ti  Ti8  1  0.34742688  0.44835418  0.95736995  1
  Ti  Ti9  1  0.07896452  0.69469034  0.75770525  1
  Ti  Ti10  1  0.22311520  0.40847674  0.33024519  1
  Ti  Ti11  1  0.06108394  0.02191784  0.81190837  1
  Ti  Ti12  1  0.20516148  0.73742975  0.38507565  1
  Fe  Fe13  1  0.84273558  0.95108097  0.45459495  1
  Fe  Fe14  1  0.70628158  0.23539445  0.88340443  1
  Fe  Fe15  1  0.72592102  0.90796621  0.83038292  1
  Fe  Fe16  1  0.86956547  0.62122154  0.40269573  1
  Fe  Fe17  1  0.98805730  0.66573581  0.02673953  1
  Fe  Fe18  1  0.51053546  0.83536560  0.47352744  1
  Fe  Fe19  1  0.42030154  0.80775257  0.74045054  1
  Fe  Fe20  1  0.58062080  0.19033488  0.25830660  1
  Fe  Fe21  1  0.43620980  0.48036404  0.68681986  1
  Fe  Fe22  1  0.56455601  0.52506330  0.31678743  1
  Fe  Fe23  1  0.14930512  0.05270989  0.54333073  1
  Fe  Fe24  1  0.29519381  0.76559385  0.11828046  1
  Fe  Fe25  1  0.27980756  0.09060549  0.17352055  1
  Fe  Fe26  1  0.00787448  0.34054299  0.97064593  1
  Fe  Fe27  1  0.13550593  0.37502625  0.60005477  1
  O  O28  1  0.95835336  0.85976730  0.84697107  1
  O  O29  1  0.94028814  0.55929588  0.84116536  1
  O  O30  1  0.92940545  0.19267294  0.83218411  1
  O  O31  1  0.93048909  0.09009472  0.59975534  1
  O  O32  1  0.92038194  0.72794157  0.59298081  1
  O  O33  1  0.90286858  0.42389571  0.58349777  1
  O  O34  1  0.81939817  0.14353042  0.27247114  1
  O  O35  1  0.67631059  0.42922897  0.70568030  1
  O  O36  1  0.65261118  0.13208019  0.69572483  1
  O  O37  1  0.79581177  0.84183106  0.26367909  1
  O  O38  1  0.64283366  0.76413308  0.69019474  1
  O  O39  1  0.78373278  0.48155250  0.25681457  1
  O  O40  1  0.65265870  0.65326310  0.45592851  1
  O  O41  1  0.50363273  0.94727766  0.88106555  1
  O  O42  1  0.78610720  0.37638615  0.02219602  1
  O  O43  1  0.63252318  0.30139558  0.44835435  1
  O  O44  1  0.77457969  0.01366393  0.02063510  1
  O  O45  1  0.48750209  0.58436477  0.87831710  1
  O  O46  1  0.61331801  0.00586731  0.43777279  1
  O  O47  1  0.46587892  0.28565817  0.86578348  1
  O  O48  1  0.74977746  0.71263664  0.01168524  1
  O  O49  1  0.24822886  0.28204656  0.99555109  1
  O  O50  1  0.52032742  0.71928765  0.13035440  1
  O  O51  1  0.38690369  0.00153886  0.56076939  1
  O  O52  1  0.36500338  0.69770933  0.55314290  1
  O  O53  1  0.23011575  0.97221580  0.98370830  1
  O  O54  1  0.51185953  0.41556071  0.12408550  1
  O  O55  1  0.35119638  0.33774690  0.54377124  1
  O  O56  1  0.50182998  0.05204915  0.11667999  1
  O  O57  1  0.22012358  0.62836956  0.98225656  1
  O  O58  1  0.21553014  0.51882278  0.74625304  1
  O  O59  1  0.35874019  0.23685062  0.31252251  1
  O  O60  1  0.33779767  0.86993018  0.29341245  1
  O  O61  1  0.20522235  0.15496590  0.73996786  1
  O  O62  1  0.17936319  0.85854461  0.72101910  1
  O  O63  1  0.32204427  0.57538928  0.28808191  1
  O  O64  1  0.10322615  0.57413752  0.41779006  1
  O  O65  1  0.08159708  0.26735867  0.40881818  1
  O  O66  1  0.06557529  0.90823238  0.39911953  1
  O  O67  1  0.07480969  0.80488822  0.16263176  1
  O  O68  1  0.05997511  0.44292111  0.16382120  1
  O  O69  1  0.03825923  0.14377061  0.14867873  1
