# generated using pymatgen
data_Sr(RhO2)2
_symmetry_space_group_name_H-M   'P 1'
_cell_length_a   6.28121132
_cell_length_b   5.44379577
_cell_length_c   11.37143720
_cell_angle_alpha   90.00030952
_cell_angle_beta   89.99996169
_cell_angle_gamma   89.99940936
_symmetry_Int_Tables_number   1
_chemical_formula_structural   Sr(RhO2)2
_chemical_formula_sum   'Sr4 Rh8 O16'
_cell_volume   388.83073453
_cell_formula_units_Z   4
loop_
 _symmetry_equiv_pos_site_id
 _symmetry_equiv_pos_as_xyz
  1  'x, y, z'
loop_
 _atom_site_type_symbol
 _atom_site_label
 _atom_site_symmetry_multiplicity
 _atom_site_fract_x
 _atom_site_fract_y
 _atom_site_fract_z
 _atom_site_occupancy
  Sr  Sr0  1  0.99999539  0.35847580  0.25000144  1
  Sr  Sr1  1  0.99999626  0.03441438  0.75000033  1
  Sr  Sr2  1  0.49999746  0.96561112  0.24999691  1
  Sr  Sr3  1  0.49999502  0.64155850  0.74999775  1
  Rh  Rh4  1  0.00000153  0.99788284  0.00607421  1
  Rh  Rh5  1  0.99998608  0.99791256  0.49393584  1
  Rh  Rh6  1  0.25000039  0.50000063  0.99999735  1
  Rh  Rh7  1  0.24999630  0.50002260  0.50000051  1
  Rh  Rh8  1  0.49999724  0.00210609  0.99392840  1
  Rh  Rh9  1  0.49998973  0.00211902  0.50606732  1
  Rh  Rh10  1  0.74998940  0.50001777  0.50000138  1
  Rh  Rh11  1  0.75000268  0.49999691  -0.00000097  1
  O  O12  1  0.99999296  0.32874297  0.58583343  1
  O  O13  1  0.00000170  0.66340302  0.09209351  1
  O  O14  1  0.99999252  0.66341872  0.40790693  1
  O  O15  1  0.99999754  0.32872010  0.91417076  1
  O  O16  1  0.24614802  0.83400600  0.59396493  1
  O  O17  1  0.25383515  0.16602765  0.40603544  1
  O  O18  1  0.25384873  0.16601093  0.09396305  1
  O  O19  1  0.24614867  0.83399403  0.90603589  1
  O  O20  1  0.49999361  0.33661267  0.59209188  1
  O  O21  1  0.50000242  0.33659819  0.90790505  1
  O  O22  1  0.49999135  0.67128973  0.41416674  1
  O  O23  1  0.49999669  0.67128036  0.08583191  1
  O  O24  1  0.75383445  0.83401041  0.59396159  1
  O  O25  1  0.74614386  0.16601984  0.40603602  1
  O  O26  1  0.74615036  0.16600780  0.09396583  1
  O  O27  1  0.75385147  0.83398936  0.90603855  1
