# generated using pymatgen
data_Sr16V12O39
_symmetry_space_group_name_H-M   'P 1'
_cell_length_a   14.42090689
_cell_length_b   7.85984754
_cell_length_c   8.78278518
_cell_angle_alpha   63.48039967
_cell_angle_beta   79.46602012
_cell_angle_gamma   82.13324699
_symmetry_Int_Tables_number   1
_chemical_formula_structural   Sr16V12O39
_chemical_formula_sum   'Sr16 V12 O39'
_cell_volume   874.00999866
_cell_formula_units_Z   1
loop_
 _symmetry_equiv_pos_site_id
 _symmetry_equiv_pos_as_xyz
  1  'x, y, z'
loop_
 _atom_site_type_symbol
 _atom_site_label
 _atom_site_symmetry_multiplicity
 _atom_site_fract_x
 _atom_site_fract_y
 _atom_site_fract_z
 _atom_site_occupancy
  Sr  Sr0  1  0.59832277  0.92467959  0.84743719  1
  Sr  Sr1  1  0.86358285  0.88889145  0.77808715  1
  Sr  Sr2  1  0.86299114  0.40142781  0.77809829  1
  Sr  Sr3  1  0.59457693  0.42876451  0.84854722  1
  Sr  Sr4  1  0.13406311  0.85307039  0.70959233  1
  Sr  Sr5  1  0.40437962  0.82061764  0.64616787  1
  Sr  Sr6  1  0.40455354  0.33025207  0.64721047  1
  Sr  Sr7  1  0.13376363  0.37027778  0.71004718  1
  Sr  Sr8  1  0.59544083  0.67330595  0.35250108  1
  Sr  Sr9  1  0.86326087  0.63304200  0.29003029  1
  Sr  Sr10  1  0.86339042  0.14464654  0.29049531  1
  Sr  Sr11  1  0.59538722  0.17513050  0.35536832  1
  Sr  Sr12  1  0.13392612  0.59589840  0.22341980  1
  Sr  Sr13  1  0.40549615  0.56767140  0.15123388  1
  Sr  Sr14  1  0.13391046  0.11367090  0.22304498  1
  Sr  Sr15  1  0.40537698  0.07881054  0.15038387  1
  V  V16  1  0.29263866  0.96352583  0.92678171  1
  V  V17  1  0.27687022  0.46517093  0.93084589  1
  V  V18  1  0.71802747  0.78655678  0.56644840  1
  V  V19  1  0.71793058  0.28395782  0.57391496  1
  V  V20  1  0.27916251  0.71560461  0.42848503  1
  V  V21  1  0.00066769  0.25001379  0.49969010  1
  V  V22  1  0.00056433  0.74968731  0.50017936  1
  V  V23  1  0.27938531  0.21424988  0.43138094  1
  V  V24  1  0.72043412  0.53424213  0.07011901  1
  V  V25  1  0.71759376  0.03562960  0.07077195  1
  V  V26  1  0.98735692  0.00165859  0.00311916  1
  V  V27  1  0.00006329  0.49993557  0.00006980  1
  O  O28  1  0.42355911  0.94684383  0.89448255  1
  O  O29  1  0.72586464  0.66277346  0.81115946  1
  O  O30  1  0.13346301  0.48337612  0.96664748  1
  O  O31  1  0.26694520  0.19816602  0.93318173  1
  O  O32  1  0.26719546  0.73517878  0.93310140  1
  O  O33  1  0.72149946  0.16520830  0.80913024  1
  O  O34  1  0.41887512  0.44766146  0.89513144  1
  O  O35  1  0.86841896  0.77026953  0.52302749  1
  O  O36  1  0.99802981  0.62718190  0.74785342  1
  O  O37  1  0.57833725  0.80107128  0.60762628  1
  O  O38  1  0.72425114  0.53448709  0.56892644  1
  O  O39  1  0.86880773  0.26137708  0.54344630  1
  O  O40  1  0.72433427  0.03457344  0.56877733  1
  O  O41  1  0.27222781  0.09114255  0.68273426  1
  O  O42  1  0.01426223  0.11525527  0.76259085  1
  O  O43  1  0.27575730  0.59121926  0.67858663  1
  O  O44  1  0.57835461  0.30543443  0.60129989  1
  O  O45  1  0.72176977  0.90493545  0.32989461  1
  O  O46  1  0.27657993  0.96692932  0.42975524  1
  O  O47  1  0.00214212  0.49989777  0.49947980  1
  O  O48  1  0.00326600  0.99923095  0.49927708  1
  O  O49  1  0.41798198  0.69803281  0.39394590  1
  O  O50  1  0.13693901  0.73299422  0.46663091  1
  O  O51  1  0.13661000  0.23288179  0.46524901  1
  O  O52  1  0.27645510  0.46447037  0.43178480  1
  O  O53  1  0.72616325  0.40560771  0.32599370  1
  O  O54  1  0.41818647  0.19777346  0.39651818  1
  O  O55  1  0.01376849  0.88131608  0.23071334  1
  O  O56  1  0.72347674  0.77530961  0.06911996  1
  O  O57  1  0.27191700  0.84175205  0.18198143  1
  O  O58  1  0.57882922  0.05288748  0.10645392  1
  O  O59  1  0.86610949  0.51679747  0.03350745  1
  O  O60  1  0.85909819  0.01793690  0.03478108  1
  O  O61  1  0.99796416  0.37341913  0.25328127  1
  O  O62  1  0.58076095  0.55136450  0.10564033  1
  O  O63  1  0.27581343  0.33985475  0.18245297  1
  O  O64  1  0.72366525  0.29371605  0.06938422  1
  O  O65  1  0.00543834  0.75364585  0.99883278  1
  O  O66  1  0.00566450  0.24489816  0.99867425  1
