# generated using pymatgen
data_Li10CoNi9O20
_symmetry_space_group_name_H-M   'P 1'
_cell_length_a   2.91070660
_cell_length_b   11.03449964
_cell_length_c   11.61165937
_cell_angle_alpha   113.75568904
_cell_angle_beta   90.45171158
_cell_angle_gamma   97.47688614
_symmetry_Int_Tables_number   1
_chemical_formula_structural   Li10CoNi9O20
_chemical_formula_sum   'Li10 Co1 Ni9 O20'
_cell_volume   337.69599141
_cell_formula_units_Z   1
loop_
 _symmetry_equiv_pos_site_id
 _symmetry_equiv_pos_as_xyz
  1  'x, y, z'
loop_
 _atom_site_type_symbol
 _atom_site_label
 _atom_site_symmetry_multiplicity
 _atom_site_fract_x
 _atom_site_fract_y
 _atom_site_fract_z
 _atom_site_occupancy
  Li  Li0  1  0.01096361  0.99865500  0.74987648  1
  Li  Li1  1  0.78899375  0.60013536  0.35098551  1
  Li  Li2  1  0.58599031  0.19911355  0.45136576  1
  Li  Li3  1  0.80011054  0.60000881  0.85190555  1
  Li  Li4  1  0.59903616  0.19920965  0.94941955  1
  Li  Li5  1  0.39391759  0.80076876  0.04929008  1
  Li  Li6  1  0.40506632  0.80035291  0.54948030  1
  Li  Li7  1  0.20060217  0.40120317  0.14772399  1
  Li  Li8  1  0.99561359  0.00033543  0.24888176  1
  Li  Li9  1  0.20836383  0.40085748  0.65070694  1
  Co  Co10  1  0.62232979  0.19968340  0.70038847  1
  Ni  Ni11  1  0.99979483  0.00069284  0.99961992  1
  Ni  Ni12  1  0.19950344  0.40059390  0.89852187  1
  Ni  Ni13  1  0.99217096  0.99934297  0.50204609  1
  Ni  Ni14  1  0.79744342  0.60104211  0.09948046  1
  Ni  Ni15  1  0.56914418  0.20055767  0.19974856  1
  Ni  Ni16  1  0.82421159  0.59981410  0.59985332  1
  Ni  Ni17  1  0.39327467  0.80062029  0.30040914  1
  Ni  Ni18  1  0.17327650  0.39871779  0.40041759  1
  Ni  Ni19  1  0.43055067  0.79982711  0.79984127  1
  O  O20  1  0.85214473  0.80685793  0.42083671  1
  O  O21  1  0.93428181  0.79260577  0.17886262  1
  O  O22  1  0.46790154  0.00968114  0.12215829  1
  O  O23  1  0.66123569  0.40871112  0.01997362  1
  O  O24  1  0.96761905  0.79072836  0.67825790  1
  O  O25  1  0.72686097  0.40763363  0.52273849  1
  O  O26  1  0.62508323  0.39043489  0.27877966  1
  O  O27  1  0.88706690  0.80954794  0.92265522  1
  O  O28  1  0.73838166  0.39151770  0.77803737  1
  O  O29  1  0.54601025  0.00778496  0.62233091  1
  O  O30  1  0.34810354  0.60925677  0.22036318  1
  O  O31  1  0.43761258  0.99260911  0.38128660  1
  O  O32  1  0.37724952  0.60898911  0.72147376  1
  O  O33  1  0.10938925  0.19189780  0.07651467  1
  O  O34  1  0.03221959  0.20805253  0.32193045  1
  O  O35  1  0.26705789  0.59024949  0.47743275  1
  O  O36  1  0.53419587  0.99181924  0.87701957  1
  O  O37  1  0.24739749  0.59362362  0.97905105  1
  O  O38  1  0.11923010  0.19292204  0.58622831  1
  O  O39  1  0.13325641  0.20674956  0.81462726  1
