# generated using pymatgen
data_GdTa3O9
_symmetry_space_group_name_H-M   'P 1'
_cell_length_a   5.36076465
_cell_length_b   7.56693113
_cell_length_c   8.31740890
_cell_angle_alpha   90.00000000
_cell_angle_beta   92.48838116
_cell_angle_gamma   90.00000000
_symmetry_Int_Tables_number   1
_chemical_formula_structural   GdTa3O9
_chemical_formula_sum   'Gd2 Ta6 O18'
_cell_volume   337.07369554
_cell_formula_units_Z   2
loop_
 _symmetry_equiv_pos_site_id
 _symmetry_equiv_pos_as_xyz
  1  'x, y, z'
loop_
 _atom_site_type_symbol
 _atom_site_label
 _atom_site_symmetry_multiplicity
 _atom_site_fract_x
 _atom_site_fract_y
 _atom_site_fract_z
 _atom_site_occupancy
  Gd  Gd0  1  0.03640503  0.75000000  0.43535606  1
  Gd  Gd1  1  0.96359497  0.25000000  0.56464394  1
  Ta  Ta2  1  0.00000000  0.00000000  0.00000000  1
  Ta  Ta3  1  0.00000000  0.50000000  0.00000000  1
  Ta  Ta4  1  0.47059419  0.99370392  0.69650775  1
  Ta  Ta5  1  0.47059419  0.50629608  0.69650775  1
  Ta  Ta6  1  0.52940581  0.00629608  0.30349225  1
  Ta  Ta7  1  0.52940581  0.49370392  0.30349225  1
  O  O8  1  0.08814934  0.75000000  0.97974390  1
  O  O9  1  0.15131257  0.06166108  0.78606222  1
  O  O10  1  0.15131257  0.43833892  0.78606222  1
  O  O11  1  0.26053555  0.04032404  0.46769737  1
  O  O12  1  0.26053555  0.45967596  0.46769737  1
  O  O13  1  0.34455873  0.75000000  0.65810428  1
  O  O14  1  0.32200705  0.04910871  0.12181044  1
  O  O15  1  0.32200705  0.45089129  0.12181044  1
  O  O16  1  0.42832160  0.75000000  0.31470248  1
  O  O17  1  0.57167840  0.25000000  0.68529752  1
  O  O18  1  0.67799295  0.95089129  0.87818956  1
  O  O19  1  0.67799295  0.54910871  0.87818956  1
  O  O20  1  0.65544127  0.25000000  0.34189572  1
  O  O21  1  0.73946445  0.95967596  0.53230263  1
  O  O22  1  0.73946445  0.54032404  0.53230263  1
  O  O23  1  0.84868743  0.93833892  0.21393778  1
  O  O24  1  0.84868743  0.56166108  0.21393778  1
  O  O25  1  0.91185066  0.25000000  0.02025610  1
