# generated using pymatgen
data_Rb4TiO4
_symmetry_space_group_name_H-M   'P 1'
_cell_length_a   11.24109244
_cell_length_b   6.91769443
_cell_length_c   11.12880391
_cell_angle_alpha   90.00000000
_cell_angle_beta   112.15884939
_cell_angle_gamma   90.00000000
_symmetry_Int_Tables_number   1
_chemical_formula_structural   Rb4TiO4
_chemical_formula_sum   'Rb16 Ti4 O16'
_cell_volume   801.48579666
_cell_formula_units_Z   4
loop_
 _symmetry_equiv_pos_site_id
 _symmetry_equiv_pos_as_xyz
  1  'x, y, z'
loop_
 _atom_site_type_symbol
 _atom_site_label
 _atom_site_symmetry_multiplicity
 _atom_site_fract_x
 _atom_site_fract_y
 _atom_site_fract_z
 _atom_site_occupancy
  Rb  Rb0  1  0.08373026  0.31747945  0.71454254  1
  Rb  Rb1  1  0.12447602  0.82511411  0.60688421  1
  Rb  Rb2  1  0.34414944  0.61513746  0.92590028  1
  Rb  Rb3  1  0.08373026  0.18252055  0.21454254  1
  Rb  Rb4  1  0.12447602  0.67488589  0.10688421  1
  Rb  Rb5  1  0.43203192  0.08188741  0.79562565  1
  Rb  Rb6  1  0.34414944  0.88486254  0.42590028  1
  Rb  Rb7  1  0.56796808  0.58188741  0.70437435  1
  Rb  Rb8  1  0.43203192  0.41811259  0.29562565  1
  Rb  Rb9  1  0.65585056  0.11513746  0.57409972  1
  Rb  Rb10  1  0.56796808  0.91811259  0.20437435  1
  Rb  Rb11  1  0.87552398  0.32511411  0.89311579  1
  Rb  Rb12  1  0.91626974  0.81747945  0.78545746  1
  Rb  Rb13  1  0.65585056  0.38486254  0.07409972  1
  Rb  Rb14  1  0.87552398  0.17488589  0.39311579  1
  Rb  Rb15  1  0.91626974  0.68252055  0.28545746  1
  Ti  Ti16  1  0.25965631  0.37634640  0.51319432  1
  Ti  Ti17  1  0.25965631  0.12365360  0.01319432  1
  Ti  Ti18  1  0.74034369  0.87634640  0.98680568  1
  Ti  Ti19  1  0.74034369  0.62365360  0.48680568  1
  O  O20  1  0.18796084  0.96585435  0.86806923  1
  O  O21  1  0.14768402  0.17274212  0.49953761  1
  O  O22  1  0.28878079  0.51182536  0.66551938  1
  O  O23  1  0.18796084  0.53414565  0.36806923  1
  O  O24  1  0.14768402  0.32725788  0.99953761  1
  O  O25  1  0.41325842  0.27259324  0.52204286  1
  O  O26  1  0.58674158  0.77259324  0.97795714  1
  O  O27  1  0.28878079  0.98817464  0.16551938  1
  O  O28  1  0.71121921  0.01182536  0.83448062  1
  O  O29  1  0.41325842  0.22740676  0.02204286  1
  O  O30  1  0.58674158  0.72740676  0.47795714  1
  O  O31  1  0.85231598  0.67274212  0.00046239  1
  O  O32  1  0.81203916  0.46585435  0.63193077  1
  O  O33  1  0.71121921  0.48817464  0.33448062  1
  O  O34  1  0.85231598  0.82725788  0.50046239  1
  O  O35  1  0.81203916  0.03414565  0.13193077  1
