# generated using pymatgen
data_Ho2(SeO4)3
_symmetry_space_group_name_H-M   'P 1'
_cell_length_a   9.91677305
_cell_length_b   9.91683727
_cell_length_c   9.91679440
_cell_angle_alpha   58.06667103
_cell_angle_beta   58.06657346
_cell_angle_gamma   58.06654827
_symmetry_Int_Tables_number   1
_chemical_formula_structural   Ho2(SeO4)3
_chemical_formula_sum   'Ho4 Se6 O24'
_cell_volume   659.03119110
_cell_formula_units_Z   2
loop_
 _symmetry_equiv_pos_site_id
 _symmetry_equiv_pos_as_xyz
  1  'x, y, z'
loop_
 _atom_site_type_symbol
 _atom_site_label
 _atom_site_symmetry_multiplicity
 _atom_site_fract_x
 _atom_site_fract_y
 _atom_site_fract_z
 _atom_site_occupancy
  Ho  Ho0  1  0.64400169  0.64401866  0.64402183  1
  Ho  Ho1  1  0.35598489  0.35599416  0.35597836  1
  Ho  Ho2  1  0.14399934  0.14400041  0.14401560  1
  Ho  Ho3  1  0.85599255  0.85600357  0.85599018  1
  Se  Se4  1  0.03834886  0.75011604  0.46172800  1
  Se  Se5  1  0.53827980  0.96164502  0.24988455  1
  Se  Se6  1  0.24988200  0.53827485  0.96163798  1
  Se  Se7  1  0.75011657  0.46172812  0.03835255  1
  Se  Se8  1  0.46172012  0.03835521  0.75011996  1
  Se  Se9  1  0.96163526  0.24989504  0.53827584  1
  O  O10  1  0.06411154  0.91857527  0.28922757  1
  O  O11  1  0.01062402  0.77376938  0.62977936  1
  O  O12  1  0.37022171  0.98937345  0.22623459  1
  O  O13  1  0.08142647  0.71077504  0.93587772  1
  O  O14  1  0.21076547  0.58119193  0.43627216  1
  O  O15  1  0.48953355  0.87002266  0.72657758  1
  O  O16  1  0.27343088  0.51046615  0.12997023  1
  O  O17  1  0.56373819  0.78923757  0.41880503  1
  O  O18  1  0.71077649  0.93588722  0.08142736  1
  O  O19  1  0.41880297  0.56373081  0.78922748  1
  O  O20  1  0.22623108  0.37021966  0.98937046  1
  O  O21  1  0.12997583  0.27343569  0.51045849  1
  O  O22  1  0.87001750  0.72657042  0.48954389  1
  O  O23  1  0.77376606  0.62978168  0.01062882  1
  O  O24  1  0.58119064  0.43626673  0.21076832  1
  O  O25  1  0.28922457  0.06411752  0.91857800  1
  O  O26  1  0.43625882  0.21076574  0.58119071  1
  O  O27  1  0.72656678  0.48954262  0.87002147  1
  O  O28  1  0.51046114  0.12998076  0.27343109  1
  O  O29  1  0.78922877  0.41881662  0.56373588  1
  O  O30  1  0.91857484  0.28922598  0.06411498  1
  O  O31  1  0.62977670  0.01063199  0.77376608  1
  O  O32  1  0.98936290  0.22624352  0.37021970  1
  O  O33  1  0.93587200  0.08144050  0.71077021  1
