# generated using pymatgen
data_CaLaMg14
_symmetry_space_group_name_H-M   'P 1'
_cell_length_a   6.65690760
_cell_length_b   6.62594990
_cell_length_c   10.56389659
_cell_angle_alpha   90.00000000
_cell_angle_beta   90.00000000
_cell_angle_gamma   119.84628858
_symmetry_Int_Tables_number   1
_chemical_formula_structural   CaLaMg14
_chemical_formula_sum   'Ca1 La1 Mg14'
_cell_volume   404.15322217
_cell_formula_units_Z   1
loop_
 _symmetry_equiv_pos_site_id
 _symmetry_equiv_pos_as_xyz
  1  'x, y, z'
loop_
 _atom_site_type_symbol
 _atom_site_label
 _atom_site_symmetry_multiplicity
 _atom_site_fract_x
 _atom_site_fract_y
 _atom_site_fract_z
 _atom_site_occupancy
  Ca  Ca0  1  0.17208865  0.33604383  0.12500000  1
  La  La1  1  0.17227875  0.83613887  0.12500000  1
  Mg  Mg2  1  0.16461842  0.33230871  0.62500000  1
  Mg  Mg3  1  0.16487404  0.83243652  0.62500000  1
  Mg  Mg4  1  0.66340384  0.33587404  0.12500000  1
  Mg  Mg5  1  0.66764769  0.33366882  0.62500000  1
  Mg  Mg6  1  0.66340384  0.82752879  0.12500000  1
  Mg  Mg7  1  0.66764769  0.83397787  0.62500000  1
  Mg  Mg8  1  0.33852264  0.16988156  0.38719393  1
  Mg  Mg9  1  0.33852264  0.16988156  0.86280607  1
  Mg  Mg10  1  0.33852264  0.66864207  0.38719393  1
  Mg  Mg11  1  0.33852264  0.66864207  0.86280607  1
  Mg  Mg12  1  0.82761920  0.16381010  0.37739809  1
  Mg  Mg13  1  0.82761920  0.16381010  0.87260191  1
  Mg  Mg14  1  0.82735406  0.66367753  0.38063388  1
  Mg  Mg15  1  0.82735406  0.66367753  0.86936612  1
