# generated using pymatgen
data_Na2CuAsCO7
_symmetry_space_group_name_H-M   'P 1'
_cell_length_a   9.19859537
_cell_length_b   6.65432599
_cell_length_c   5.29105695
_cell_angle_alpha   90.00000000
_cell_angle_beta   89.33511547
_cell_angle_gamma   90.00000000
_symmetry_Int_Tables_number   1
_chemical_formula_structural   Na2CuAsCO7
_chemical_formula_sum   'Na4 Cu2 As2 C2 O14'
_cell_volume   323.84618270
_cell_formula_units_Z   2
loop_
 _symmetry_equiv_pos_site_id
 _symmetry_equiv_pos_as_xyz
  1  'x, y, z'
loop_
 _atom_site_type_symbol
 _atom_site_label
 _atom_site_symmetry_multiplicity
 _atom_site_fract_x
 _atom_site_fract_y
 _atom_site_fract_z
 _atom_site_occupancy
  Na  Na0  1  0.23437926  0.49574255  0.23059503  1
  Na  Na1  1  0.23437926  0.00425745  0.23059503  1
  Na  Na2  1  0.76562074  0.50425745  0.76940497  1
  Na  Na3  1  0.76562074  0.99574255  0.76940497  1
  Cu  Cu4  1  0.35046655  0.75000000  0.78263035  1
  Cu  Cu5  1  0.64953345  0.25000000  0.21736965  1
  As  As6  1  0.42599214  0.25000000  0.70350084  1
  As  As7  1  0.57400786  0.75000000  0.29649916  1
  C  C8  1  0.07369756  0.75000000  0.72695907  1
  C  C9  1  0.92630244  0.25000000  0.27304093  1
  O  O10  1  0.06357715  0.25000000  0.28303215  1
  O  O11  1  0.14174511  0.75000000  0.94084709  1
  O  O12  1  0.15798786  0.75000000  0.52781537  1
  O  O13  1  0.32080677  0.04783376  0.79373084  1
  O  O14  1  0.32080677  0.45216624  0.79373084  1
  O  O15  1  0.40571753  0.75000000  0.16171496  1
  O  O16  1  0.44798722  0.25000000  0.37655340  1
  O  O17  1  0.55201278  0.75000000  0.62344660  1
  O  O18  1  0.59428247  0.25000000  0.83828504  1
  O  O19  1  0.67919323  0.54783376  0.20626916  1
  O  O20  1  0.67919323  0.95216624  0.20626916  1
  O  O21  1  0.84201214  0.25000000  0.47218463  1
  O  O22  1  0.85825489  0.25000000  0.05915291  1
  O  O23  1  0.93642285  0.75000000  0.71696785  1
