# generated using pymatgen
data_K5YO4
_symmetry_space_group_name_H-M   'P 1'
_cell_length_a   12.42717482
_cell_length_b   12.27728051
_cell_length_c   11.98465863
_cell_angle_alpha   90.00000000
_cell_angle_beta   90.00000000
_cell_angle_gamma   90.00000000
_symmetry_Int_Tables_number   1
_chemical_formula_structural   K5YO4
_chemical_formula_sum   'K40 Y8 O32'
_cell_volume   1828.52227240
_cell_formula_units_Z   8
loop_
 _symmetry_equiv_pos_site_id
 _symmetry_equiv_pos_as_xyz
  1  'x, y, z'
loop_
 _atom_site_type_symbol
 _atom_site_label
 _atom_site_symmetry_multiplicity
 _atom_site_fract_x
 _atom_site_fract_y
 _atom_site_fract_z
 _atom_site_occupancy
  K  K0  1  0.10003015  0.61376123  0.14595911  1
  K  K1  1  0.10003015  0.88623877  0.64595911  1
  K  K2  1  0.11349804  0.10587469  0.83045884  1
  K  K3  1  0.11349804  0.39412531  0.33045884  1
  K  K4  1  0.12140748  0.84731500  0.36504966  1
  K  K5  1  0.12140748  0.65268500  0.86504966  1
  K  K6  1  0.14697700  0.87279794  0.08905968  1
  K  K7  1  0.14697700  0.62720206  0.58905968  1
  K  K8  1  0.16299657  0.12037190  0.40342154  1
  K  K9  1  0.16299657  0.37962810  0.90342154  1
  K  K10  1  0.33700343  0.87962810  0.90342154  1
  K  K11  1  0.33700343  0.62037190  0.40342154  1
  K  K12  1  0.35302300  0.12720206  0.58905968  1
  K  K13  1  0.35302300  0.37279794  0.08905968  1
  K  K14  1  0.37859252  0.34731500  0.36504966  1
  K  K15  1  0.37859252  0.15268500  0.86504966  1
  K  K16  1  0.38650196  0.60587469  0.83045884  1
  K  K17  1  0.38650196  0.89412531  0.33045884  1
  K  K18  1  0.39996985  0.11376123  0.14595911  1
  K  K19  1  0.39996985  0.38623877  0.64595911  1
  K  K20  1  0.60003015  0.61376123  0.35404089  1
  K  K21  1  0.60003015  0.88623877  0.85404089  1
  K  K22  1  0.61349804  0.39412531  0.16954116  1
  K  K23  1  0.61349804  0.10587469  0.66954116  1
  K  K24  1  0.62140748  0.65268500  0.63495034  1
  K  K25  1  0.62140748  0.84731500  0.13495034  1
  K  K26  1  0.64697700  0.62720206  0.91094032  1
  K  K27  1  0.64697700  0.87279794  0.41094032  1
  K  K28  1  0.66299657  0.12037190  0.09657846  1
  K  K29  1  0.66299657  0.37962810  0.59657846  1
  K  K30  1  0.83700343  0.62037190  0.09657846  1
  K  K31  1  0.83700343  0.87962810  0.59657846  1
  K  K32  1  0.85302300  0.37279794  0.41094032  1
  K  K33  1  0.85302300  0.12720206  0.91094032  1
  K  K34  1  0.87859252  0.15268500  0.63495034  1
  K  K35  1  0.87859252  0.34731500  0.13495034  1
  K  K36  1  0.88650196  0.60587469  0.66954116  1
  K  K37  1  0.88650196  0.89412531  0.16954116  1
  K  K38  1  0.89996985  0.11376123  0.35404089  1
  K  K39  1  0.89996985  0.38623877  0.85404089  1
  Y  Y40  1  0.12623989  0.14543975  0.11627585  1
  Y  Y41  1  0.12623989  0.35456025  0.61627585  1
  Y  Y42  1  0.37376011  0.64543975  0.11627585  1
  Y  Y43  1  0.37376011  0.85456025  0.61627585  1
  Y  Y44  1  0.62623989  0.14543975  0.38372415  1
  Y  Y45  1  0.62623989  0.35456025  0.88372415  1
  Y  Y46  1  0.87376011  0.64543975  0.38372415  1
  Y  Y47  1  0.87376011  0.85456025  0.88372415  1
  O  O48  1  0.02042512  0.26029311  0.50433793  1
  O  O49  1  0.02042512  0.23970689  0.00433793  1
  O  O50  1  0.05452669  0.02409578  0.22882819  1
  O  O51  1  0.05452669  0.47590422  0.72882819  1
  O  O52  1  0.23666486  0.05617598  0.00852843  1
  O  O53  1  0.23666486  0.44382402  0.50852843  1
  O  O54  1  0.23278451  0.24052749  0.22278572  1
  O  O55  1  0.23278451  0.25947251  0.72278572  1
  O  O56  1  0.26721549  0.75947251  0.72278572  1
  O  O57  1  0.26721549  0.74052749  0.22278572  1
  O  O58  1  0.26333514  0.55617598  0.00852843  1
  O  O59  1  0.26333514  0.94382402  0.50852843  1
  O  O60  1  0.44547331  0.52409578  0.22882819  1
  O  O61  1  0.44547331  0.97590422  0.72882819  1
  O  O62  1  0.47957488  0.76029311  0.50433793  1
  O  O63  1  0.47957488  0.73970689  0.00433793  1
  O  O64  1  0.52042512  0.26029311  0.99566207  1
  O  O65  1  0.52042512  0.23970689  0.49566207  1
  O  O66  1  0.55452669  0.02409578  0.27117181  1
  O  O67  1  0.55452669  0.47590422  0.77117181  1
  O  O68  1  0.73666486  0.44382402  0.99147157  1
  O  O69  1  0.73666486  0.05617598  0.49147157  1
  O  O70  1  0.73278451  0.24052749  0.27721428  1
  O  O71  1  0.73278451  0.25947251  0.77721428  1
  O  O72  1  0.76721549  0.74052749  0.27721428  1
  O  O73  1  0.76721549  0.75947251  0.77721428  1
  O  O74  1  0.76333514  0.55617598  0.49147157  1
  O  O75  1  0.76333514  0.94382402  0.99147157  1
  O  O76  1  0.94547331  0.52409578  0.27117181  1
  O  O77  1  0.94547331  0.97590422  0.77117181  1
  O  O78  1  0.97957488  0.76029311  0.99566207  1
  O  O79  1  0.97957488  0.73970689  0.49566207  1
