# generated using pymatgen
data_Cs4Zr3Se14
_symmetry_space_group_name_H-M   'P 1'
_cell_length_a   12.47192675
_cell_length_b   12.47192675
_cell_length_c   14.99201073
_cell_angle_alpha   69.17193277
_cell_angle_beta   110.82806723
_cell_angle_gamma   137.10016957
_symmetry_Int_Tables_number   1
_chemical_formula_structural   Cs4Zr3Se14
_chemical_formula_sum   'Cs8 Zr6 Se28'
_cell_volume   1467.02700096
_cell_formula_units_Z   2
loop_
 _symmetry_equiv_pos_site_id
 _symmetry_equiv_pos_as_xyz
  1  'x, y, z'
loop_
 _atom_site_type_symbol
 _atom_site_label
 _atom_site_symmetry_multiplicity
 _atom_site_fract_x
 _atom_site_fract_y
 _atom_site_fract_z
 _atom_site_occupancy
  Cs  Cs0  1  0.02519745  0.62121135  0.61015489  1
  Cs  Cs1  1  0.37878865  0.97480255  0.11015489  1
  Cs  Cs2  1  0.18997596  0.31647135  0.84884862  1
  Cs  Cs3  1  0.68352865  0.81002404  0.34884862  1
  Cs  Cs4  1  0.31647135  0.18997596  0.65115138  1
  Cs  Cs5  1  0.81002404  0.68352865  0.15115138  1
  Cs  Cs6  1  0.62121135  0.02519745  0.88984511  1
  Cs  Cs7  1  0.97480255  0.37878865  0.38984511  1
  Zr  Zr8  1  0.58866418  0.92368783  0.58431297  1
  Zr  Zr9  1  0.07631217  0.41133582  0.08431297  1
  Zr  Zr10  1  0.76030850  0.76030850  0.75000000  1
  Zr  Zr11  1  0.23969150  0.23969150  0.25000000  1
  Zr  Zr12  1  0.92368783  0.58866418  0.91568703  1
  Zr  Zr13  1  0.41133582  0.07631217  0.41568703  1
  Se  Se14  1  0.06074980  0.89850828  0.86811550  1
  Se  Se15  1  0.18821668  0.83984781  0.83640297  1
  Se  Se16  1  0.10149172  0.93925020  0.36811550  1
  Se  Se17  1  0.43750987  0.99744032  0.60109164  1
  Se  Se18  1  0.16015219  0.81178332  0.33640297  1
  Se  Se19  1  0.00255968  0.56249013  0.10109164  1
  Se  Se20  1  0.31531709  0.60546708  0.60949327  1
  Se  Se21  1  0.54864150  0.74812682  0.77878550  1
  Se  Se22  1  0.79681877  0.87080237  0.89598550  1
  Se  Se23  1  0.53635281  0.66485545  0.58164890  1
  Se  Se24  1  0.39453292  0.68468291  0.10949327  1
  Se  Se25  1  0.25187318  0.45135850  0.27878550  1
  Se  Se26  1  0.66485545  0.53635281  0.91835110  1
  Se  Se27  1  0.12919763  0.20318123  0.39598550  1
  Se  Se28  1  0.87080237  0.79681877  0.60401450  1
  Se  Se29  1  0.33514455  0.46364719  0.08164890  1
  Se  Se30  1  0.74812682  0.54864150  0.72121450  1
  Se  Se31  1  0.60546708  0.31531709  0.89050673  1
  Se  Se32  1  0.46364719  0.33514455  0.41835110  1
  Se  Se33  1  0.20318123  0.12919763  0.10401450  1
  Se  Se34  1  0.45135850  0.25187318  0.22121450  1
  Se  Se35  1  0.68468291  0.39453292  0.39050673  1
  Se  Se36  1  0.99744032  0.43750987  0.89890836  1
  Se  Se37  1  0.83984781  0.18821668  0.66359703  1
  Se  Se38  1  0.56249013  0.00255968  0.39890836  1
  Se  Se39  1  0.89850828  0.06074980  0.63188450  1
  Se  Se40  1  0.81178332  0.16015219  0.16359703  1
  Se  Se41  1  0.93925020  0.10149172  0.13188450  1
