# generated using pymatgen
data_Ba2B2O5
_symmetry_space_group_name_H-M   'P 1'
_cell_length_a   12.52261445
_cell_length_b   5.61339418
_cell_length_c   8.47475512
_cell_angle_alpha   90.00000000
_cell_angle_beta   90.84827907
_cell_angle_gamma   90.00000000
_symmetry_Int_Tables_number   1
_chemical_formula_structural   Ba2B2O5
_chemical_formula_sum   'Ba8 B8 O20'
_cell_volume   595.66229150
_cell_formula_units_Z   4
loop_
 _symmetry_equiv_pos_site_id
 _symmetry_equiv_pos_as_xyz
  1  'x, y, z'
loop_
 _atom_site_type_symbol
 _atom_site_label
 _atom_site_symmetry_multiplicity
 _atom_site_fract_x
 _atom_site_fract_y
 _atom_site_fract_z
 _atom_site_occupancy
  Ba  Ba0  1  0.13411626  0.04822797  0.38369982  1
  Ba  Ba1  1  0.15596329  0.08271406  0.87873624  1
  Ba  Ba2  1  0.34403671  0.58271406  0.12126376  1
  Ba  Ba3  1  0.36588374  0.54822797  0.61630018  1
  Ba  Ba4  1  0.63411626  0.45177203  0.38369982  1
  Ba  Ba5  1  0.65596329  0.41728594  0.87873624  1
  Ba  Ba6  1  0.84403671  0.91728594  0.12126376  1
  Ba  Ba7  1  0.86588374  0.95177203  0.61630018  1
  B  B8  1  0.08119380  0.54299095  0.66309787  1
  B  B9  1  0.09258287  0.56554986  0.16308321  1
  B  B10  1  0.40741713  0.06554986  0.83691679  1
  B  B11  1  0.41880620  0.04299095  0.33690213  1
  B  B12  1  0.58119380  0.95700905  0.66309787  1
  B  B13  1  0.59258287  0.93445014  0.16308321  1
  B  B14  1  0.90741713  0.43445014  0.83691679  1
  B  B15  1  0.91880620  0.45700905  0.33690213  1
  O  O16  1  0.00465850  0.40394229  0.75196226  1
  O  O17  1  0.07205472  0.78479330  0.64714767  1
  O  O18  1  0.13819315  0.77559229  0.11406918  1
  O  O19  1  0.14082172  0.34980220  0.14204080  1
  O  O20  1  0.16247498  0.40498602  0.60588434  1
  O  O21  1  0.33752502  0.90498602  0.39411566  1
  O  O22  1  0.35917828  0.84980220  0.85795920  1
  O  O23  1  0.36180685  0.27559229  0.88593082  1
  O  O24  1  0.42794528  0.28479330  0.35285233  1
  O  O25  1  0.50465850  0.09605771  0.75196226  1
  O  O26  1  0.49534150  0.90394229  0.24803774  1
  O  O27  1  0.57205472  0.71520670  0.64714767  1
  O  O28  1  0.63819315  0.72440771  0.11406918  1
  O  O29  1  0.64082172  0.15019780  0.14204080  1
  O  O30  1  0.66247498  0.09501398  0.60588434  1
  O  O31  1  0.83752502  0.59501398  0.39411566  1
  O  O32  1  0.85917828  0.65019780  0.85795920  1
  O  O33  1  0.86180685  0.22440771  0.88593082  1
  O  O34  1  0.92794528  0.21520670  0.35285233  1
  O  O35  1  0.99534150  0.59605771  0.24803774  1
