# generated using pymatgen
data_SnGeO3
_symmetry_space_group_name_H-M   'P 1'
_cell_length_a   11.73844563
_cell_length_b   13.42094682
_cell_length_c   7.25551126
_cell_angle_alpha   90.00000000
_cell_angle_beta   90.00000000
_cell_angle_gamma   118.89111086
_symmetry_Int_Tables_number   1
_chemical_formula_structural   SnGeO3
_chemical_formula_sum   'Sn12 Ge12 O36'
_cell_volume   1000.77744829
_cell_formula_units_Z   12
loop_
 _symmetry_equiv_pos_site_id
 _symmetry_equiv_pos_as_xyz
  1  'x, y, z'
loop_
 _atom_site_type_symbol
 _atom_site_label
 _atom_site_symmetry_multiplicity
 _atom_site_fract_x
 _atom_site_fract_y
 _atom_site_fract_z
 _atom_site_occupancy
  Sn  Sn0  1  0.20890942  0.90034347  0.69496162  1
  Sn  Sn1  1  0.13129632  0.68158872  0.03887964  1
  Sn  Sn2  1  0.20890942  0.40034347  0.30503838  1
  Sn  Sn3  1  0.13129632  0.18158872  0.96112036  1
  Sn  Sn4  1  0.41673320  0.83575953  0.38806993  1
  Sn  Sn5  1  0.41673320  0.33575953  0.61193007  1
  Sn  Sn6  1  0.58326680  0.66424047  0.38806993  1
  Sn  Sn7  1  0.58326680  0.16424047  0.61193007  1
  Sn  Sn8  1  0.86870368  0.81841128  0.03887964  1
  Sn  Sn9  1  0.79109058  0.59965653  0.69496162  1
  Sn  Sn10  1  0.86870368  0.31841128  0.96112036  1
  Sn  Sn11  1  0.79109058  0.09965653  0.30503838  1
  Ge  Ge12  1  0.25212174  0.96014064  0.17429086  1
  Ge  Ge13  1  0.14225438  0.61285926  0.59490549  1
  Ge  Ge14  1  0.25212174  0.46014064  0.82570914  1
  Ge  Ge15  1  0.45505745  0.84585099  0.88192226  1
  Ge  Ge16  1  0.14225438  0.11285926  0.40509451  1
  Ge  Ge17  1  0.54494255  0.65414901  0.88192226  1
  Ge  Ge18  1  0.45505745  0.34585099  0.11807774  1
  Ge  Ge19  1  0.85774562  0.88714074  0.59490549  1
  Ge  Ge20  1  0.54494255  0.15414901  0.11807774  1
  Ge  Ge21  1  0.74787826  0.53985936  0.17429086  1
  Ge  Ge22  1  0.85774562  0.38714074  0.40509451  1
  Ge  Ge23  1  0.74787826  0.03985936  0.82570914  1
  O  O24  1  0.14354788  0.85118434  0.02575823  1
  O  O25  1  0.00000000  0.50000000  0.50000000  1
  O  O26  1  0.11057096  0.70958489  0.72690958  1
  O  O27  1  0.28042373  0.90684761  0.38068573  1
  O  O28  1  0.18901482  0.55624930  0.78848402  1
  O  O29  1  0.25291711  0.67272138  0.41761190  1
  O  O30  1  0.14354788  0.35118434  0.97424177  1
  O  O31  1  0.00000000  0.00000000  0.50000000  1
  O  O32  1  0.38503258  0.88360026  0.69722482  1
  O  O33  1  0.34672347  0.78519933  0.06734953  1
  O  O34  1  0.11057096  0.20958489  0.27309042  1
  O  O35  1  0.28042373  0.40684761  0.61931427  1
  O  O36  1  0.39638128  0.53631860  0.96219130  1
  O  O37  1  0.18901482  0.05624930  0.21151598  1
  O  O38  1  0.50000000  0.75000000  0.77297162  1
  O  O39  1  0.25291711  0.17272138  0.58238810  1
  O  O40  1  0.60361872  0.96368140  0.96219130  1
  O  O41  1  0.38503258  0.38360026  0.30277518  1
  O  O42  1  0.34672347  0.28519933  0.93265047  1
  O  O43  1  0.65327653  0.71480067  0.06734953  1
  O  O44  1  0.61496742  0.61639974  0.69722482  1
  O  O45  1  0.39638128  0.03631860  0.03780870  1
  O  O46  1  0.74708289  0.82727862  0.41761190  1
  O  O47  1  0.50000000  0.25000000  0.22702838  1
  O  O48  1  0.81098518  0.94375070  0.78848402  1
  O  O49  1  0.60361872  0.46368140  0.03780870  1
  O  O50  1  0.71957627  0.59315239  0.38068573  1
  O  O51  1  0.88942904  0.79041511  0.72690958  1
  O  O52  1  0.65327653  0.21480067  0.93265047  1
  O  O53  1  0.61496742  0.11639974  0.30277518  1
  O  O54  1  0.85645212  0.64881566  0.02575823  1
  O  O55  1  0.74708289  0.32727862  0.58238810  1
  O  O56  1  0.81098518  0.44375070  0.21151598  1
  O  O57  1  0.71957627  0.09315239  0.61931427  1
  O  O58  1  0.88942904  0.29041511  0.27309042  1
  O  O59  1  0.85645212  0.14881566  0.97424177  1
