# generated using pymatgen
data_SbBrO
_symmetry_space_group_name_H-M   'P 1'
_cell_length_a   9.75269233
_cell_length_b   11.63302403
_cell_length_c   8.45548248
_cell_angle_alpha   90.00000000
_cell_angle_beta   102.38268756
_cell_angle_gamma   90.00000000
_symmetry_Int_Tables_number   1
_chemical_formula_structural   SbBrO
_chemical_formula_sum   'Sb12 Br12 O12'
_cell_volume   936.98628766
_cell_formula_units_Z   12
loop_
 _symmetry_equiv_pos_site_id
 _symmetry_equiv_pos_as_xyz
  1  'x, y, z'
loop_
 _atom_site_type_symbol
 _atom_site_label
 _atom_site_symmetry_multiplicity
 _atom_site_fract_x
 _atom_site_fract_y
 _atom_site_fract_z
 _atom_site_occupancy
  Sb  Sb0  1  0.06529007  0.53137010  0.70770442  1
  Sb  Sb1  1  0.10924098  0.24796271  0.10785854  1
  Sb  Sb2  1  0.24146152  0.17358284  0.52406403  1
  Sb  Sb3  1  0.25853848  0.67358284  0.47593597  1
  Sb  Sb4  1  0.39075902  0.74796271  0.89214146  1
  Sb  Sb5  1  0.43470993  0.03137010  0.29229558  1
  Sb  Sb6  1  0.56529007  0.96862990  0.70770442  1
  Sb  Sb7  1  0.60924098  0.25203729  0.10785854  1
  Sb  Sb8  1  0.74146152  0.32641716  0.52406403  1
  Sb  Sb9  1  0.75853848  0.82641716  0.47593597  1
  Sb  Sb10  1  0.89075902  0.75203729  0.89214146  1
  Sb  Sb11  1  0.93470993  0.46862990  0.29229558  1
  Br  Br12  1  0.08790558  0.90128639  0.87500400  1
  Br  Br13  1  0.12400806  0.86552374  0.40247262  1
  Br  Br14  1  0.14707438  0.61243015  0.10339519  1
  Br  Br15  1  0.35292562  0.11243015  0.89660481  1
  Br  Br16  1  0.37599194  0.36552374  0.59752738  1
  Br  Br17  1  0.41209442  0.40128639  0.12499600  1
  Br  Br18  1  0.58790558  0.59871361  0.87500400  1
  Br  Br19  1  0.62400806  0.63447626  0.40247262  1
  Br  Br20  1  0.64707438  0.88756985  0.10339519  1
  Br  Br21  1  0.85292562  0.38756985  0.89660481  1
  Br  Br22  1  0.87599194  0.13447626  0.59752738  1
  Br  Br23  1  0.91209442  0.09871361  0.12499600  1
  O  O24  1  0.08620903  0.57219859  0.47133740  1
  O  O25  1  0.07000192  0.33996996  0.29462505  1
  O  O26  1  0.24913290  0.66164329  0.71566911  1
  O  O27  1  0.25086710  0.16164329  0.28433089  1
  O  O28  1  0.42999808  0.83996996  0.70537495  1
  O  O29  1  0.41379097  0.07219859  0.52866260  1
  O  O30  1  0.58620903  0.92780141  0.47133740  1
  O  O31  1  0.57000192  0.16003004  0.29462505  1
  O  O32  1  0.74913290  0.83835671  0.71566911  1
  O  O33  1  0.75086710  0.33835671  0.28433089  1
  O  O34  1  0.92999808  0.66003004  0.70537495  1
  O  O35  1  0.91379097  0.42780141  0.52866260  1
