# generated using pymatgen
data_Lu2TiO5
_symmetry_space_group_name_H-M   'P 1'
_cell_length_a   10.29169499
_cell_length_b   11.09708923
_cell_length_c   3.63521712
_cell_angle_alpha   90.00000000
_cell_angle_beta   90.00000000
_cell_angle_gamma   90.00000000
_symmetry_Int_Tables_number   1
_chemical_formula_structural   Lu2TiO5
_chemical_formula_sum   'Lu8 Ti4 O20'
_cell_volume   415.17035930
_cell_formula_units_Z   4
loop_
 _symmetry_equiv_pos_site_id
 _symmetry_equiv_pos_as_xyz
  1  'x, y, z'
loop_
 _atom_site_type_symbol
 _atom_site_label
 _atom_site_symmetry_multiplicity
 _atom_site_fract_x
 _atom_site_fract_y
 _atom_site_fract_z
 _atom_site_occupancy
  Lu  Lu0  1  0.11499398  0.72432281  0.25000000  1
  Lu  Lu1  1  0.13466981  0.05708069  0.25000000  1
  Lu  Lu2  1  0.36533019  0.55708069  0.75000000  1
  Lu  Lu3  1  0.38500602  0.22432281  0.75000000  1
  Lu  Lu4  1  0.61499398  0.77567719  0.25000000  1
  Lu  Lu5  1  0.63466981  0.44291931  0.25000000  1
  Lu  Lu6  1  0.86533019  0.94291931  0.75000000  1
  Lu  Lu7  1  0.88500602  0.27567719  0.75000000  1
  Ti  Ti8  1  0.17606164  0.38043896  0.25000000  1
  Ti  Ti9  1  0.32393836  0.88043896  0.75000000  1
  Ti  Ti10  1  0.67606164  0.11956104  0.25000000  1
  Ti  Ti11  1  0.82393836  0.61956104  0.75000000  1
  O  O12  1  0.00742076  0.10449814  0.75000000  1
  O  O13  1  0.00710328  0.34115404  0.25000000  1
  O  O14  1  0.22592993  0.54585831  0.25000000  1
  O  O15  1  0.24443136  0.38403892  0.75000000  1
  O  O16  1  0.24005082  0.72676008  0.75000000  1
  O  O17  1  0.25994918  0.22676008  0.25000000  1
  O  O18  1  0.25556864  0.88403892  0.25000000  1
  O  O19  1  0.27407007  0.04585831  0.75000000  1
  O  O20  1  0.49289672  0.84115404  0.75000000  1
  O  O21  1  0.49257924  0.60449814  0.25000000  1
  O  O22  1  0.50742076  0.39550186  0.75000000  1
  O  O23  1  0.50710328  0.15884596  0.25000000  1
  O  O24  1  0.72592993  0.95414169  0.25000000  1
  O  O25  1  0.74443136  0.11596108  0.75000000  1
  O  O26  1  0.74005082  0.77323992  0.75000000  1
  O  O27  1  0.75994918  0.27323992  0.25000000  1
  O  O28  1  0.75556864  0.61596108  0.25000000  1
  O  O29  1  0.77407007  0.45414169  0.75000000  1
  O  O30  1  0.99289672  0.65884596  0.75000000  1
  O  O31  1  0.99257924  0.89550186  0.25000000  1
