# generated using pymatgen
data_LiFeBO3
_symmetry_space_group_name_H-M   'P 1'
_cell_length_a   10.48650572
_cell_length_b   9.02972336
_cell_length_c   10.34733211
_cell_angle_alpha   90.00000000
_cell_angle_beta   88.64205509
_cell_angle_gamma   90.00000000
_symmetry_Int_Tables_number   1
_chemical_formula_structural   LiFeBO3
_chemical_formula_sum   'Li16 Fe16 B16 O48'
_cell_volume   979.51624816
_cell_formula_units_Z   16
loop_
 _symmetry_equiv_pos_site_id
 _symmetry_equiv_pos_as_xyz
  1  'x, y, z'
loop_
 _atom_site_type_symbol
 _atom_site_label
 _atom_site_symmetry_multiplicity
 _atom_site_fract_x
 _atom_site_fract_y
 _atom_site_fract_z
 _atom_site_occupancy
  Li  Li0  1  0.08277408  0.50979789  0.33915319  1
  Li  Li1  1  0.08277791  0.49020074  0.83915627  1
  Li  Li2  1  0.16722592  0.00979789  0.16084681  1
  Li  Li3  1  0.16722209  0.99020074  0.66084373  1
  Li  Li4  1  0.33023494  0.99406011  0.40879154  1
  Li  Li5  1  0.33023533  0.00593086  0.90879858  1
  Li  Li6  1  0.41850678  0.50844381  0.16132944  1
  Li  Li7  1  0.41851755  0.49155692  0.66133523  1
  Li  Li8  1  0.57998395  0.49324193  0.41034472  1
  Li  Li9  1  0.57997740  0.50675438  0.91032244  1
  Li  Li10  1  0.67001605  0.99324193  0.08965528  1
  Li  Li11  1  0.67002260  0.00675438  0.58967756  1
  Li  Li12  1  0.83149322  0.00844381  0.33867056  1
  Li  Li13  1  0.83148245  0.99155692  0.83866477  1
  Li  Li14  1  0.91976506  0.49406011  0.09120846  1
  Li  Li15  1  0.91976467  0.50593086  0.59120142  1
  Fe  Fe16  1  0.07432437  0.83632493  0.37975309  1
  Fe  Fe17  1  0.07432419  0.16364727  0.87978170  1
  Fe  Fe18  1  0.17567563  0.33632493  0.12024691  1
  Fe  Fe19  1  0.17567581  0.66364727  0.62021830  1
  Fe  Fe20  1  0.32584701  0.33436413  0.37801803  1
  Fe  Fe21  1  0.32583900  0.66566098  0.87801970  1
  Fe  Fe22  1  0.41932479  0.83936232  0.12473230  1
  Fe  Fe23  1  0.41931606  0.16063277  0.62472443  1
  Fe  Fe24  1  0.58044769  0.83408506  0.36984762  1
  Fe  Fe25  1  0.58040339  0.16600483  0.86983547  1
  Fe  Fe26  1  0.66955231  0.33408506  0.13015238  1
  Fe  Fe27  1  0.66959661  0.66600483  0.63016453  1
  Fe  Fe28  1  0.83067521  0.33936232  0.37526770  1
  Fe  Fe29  1  0.83068394  0.66063277  0.87527557  1
  Fe  Fe30  1  0.92415299  0.83436413  0.12198197  1
  Fe  Fe31  1  0.92416100  0.16566098  0.62198030  1
  B  B32  1  0.08180525  0.16622786  0.37103296  1
  B  B33  1  0.08180524  0.83376743  0.87103090  1
  B  B34  1  0.16819475  0.66622786  0.12896704  1
  B  B35  1  0.16819476  0.33376743  0.62896910  1
  B  B36  1  0.33309087  0.66700561  0.37009206  1
  B  B37  1  0.33308858  0.33299789  0.87009488  1
  B  B38  1  0.41796996  0.16649081  0.12074199  1
  B  B39  1  0.41796050  0.83350043  0.62073729  1
  B  B40  1  0.58329393  0.16607148  0.37891236  1
  B  B41  1  0.58330821  0.83393663  0.87892285  1
  B  B42  1  0.66670607  0.66607148  0.12108764  1
  B  B43  1  0.66669179  0.33393663  0.62107715  1
  B  B44  1  0.83203004  0.66649081  0.37925801  1
  B  B45  1  0.83203950  0.33350043  0.87926271  1
  B  B46  1  0.91690913  0.16700561  0.12990794  1
  B  B47  1  0.91691142  0.83299789  0.62990512  1
  O  O48  1  0.04526188  0.16274364  0.09115736  1
  O  O49  1  0.04526142  0.83724702  0.59116079  1
  O  O50  1  0.09549766  0.53814460  0.14158424  1
  O  O51  1  0.09549915  0.46184951  0.64158489  1
  O  O52  1  0.11134401  0.80268806  0.15724376  1
  O  O53  1  0.11134383  0.19731088  0.65724413  1
  O  O54  1  0.13865599  0.30268806  0.34275624  1
  O  O55  1  0.13865617  0.69731088  0.84275587  1
  O  O56  1  0.15450234  0.03814460  0.35841576  1
  O  O57  1  0.15450085  0.96184951  0.85841511  1
  O  O58  1  0.20473812  0.66274364  0.40884264  1
  O  O59  1  0.20473858  0.33724702  0.90883921  1
  O  O60  1  0.29693767  0.65916468  0.09187306  1
  O  O61  1  0.29693748  0.34083362  0.59187530  1
  O  O62  1  0.34167121  0.04111155  0.10804551  1
  O  O63  1  0.34167720  0.95888950  0.60805250  1
  O  O64  1  0.36161163  0.30025120  0.15841225  1
  O  O65  1  0.36160476  0.69974807  0.65841396  1
  O  O66  1  0.39083896  0.80333971  0.34000078  1
  O  O67  1  0.39083462  0.19665098  0.84000152  1
  O  O68  1  0.40459048  0.53843433  0.35822950  1
  O  O69  1  0.40459270  0.46156094  0.85822956  1
  O  O70  1  0.45326360  0.16178471  0.41004783  1
  O  O71  1  0.45326995  0.83821510  0.91004466  1
  O  O72  1  0.54754019  0.15936808  0.09075768  1
  O  O73  1  0.54752744  0.84061002  0.59072910  1
  O  O74  1  0.59238005  0.53991533  0.10924397  1
  O  O75  1  0.59237368  0.46008524  0.60922725  1
  O  O76  1  0.60967958  0.80036277  0.15879028  1
  O  O77  1  0.60968706  0.19962343  0.65878645  1
  O  O78  1  0.64032042  0.30036277  0.34120972  1
  O  O79  1  0.64031294  0.69962343  0.84121355  1
  O  O80  1  0.65761995  0.03991533  0.39075603  1
  O  O81  1  0.65762632  0.96008524  0.89077275  1
  O  O82  1  0.70245981  0.65936808  0.40924232  1
  O  O83  1  0.70247256  0.34061002  0.90927090  1
  O  O84  1  0.79673640  0.66178471  0.08995217  1
  O  O85  1  0.79673005  0.33821510  0.58995534  1
  O  O86  1  0.84540952  0.03843433  0.14177050  1
  O  O87  1  0.84540730  0.96156094  0.64177044  1
  O  O88  1  0.85916104  0.30333971  0.15999922  1
  O  O89  1  0.85916538  0.69665098  0.65999848  1
  O  O90  1  0.88838837  0.80025120  0.34158775  1
  O  O91  1  0.88839524  0.19974807  0.84158604  1
  O  O92  1  0.90832879  0.54111155  0.39195449  1
  O  O93  1  0.90832280  0.45888950  0.89194750  1
  O  O94  1  0.95306233  0.15916468  0.40812694  1
  O  O95  1  0.95306252  0.84083362  0.90812470  1
