# generated using pymatgen
data_Cr3(FeO6)2
_symmetry_space_group_name_H-M   'P 1'
_cell_length_a   8.76839603
_cell_length_b   12.40461183
_cell_length_c   9.15171650
_cell_angle_alpha   90.00000000
_cell_angle_beta   90.00000000
_cell_angle_gamma   90.61749381
_symmetry_Int_Tables_number   1
_chemical_formula_structural   Cr3(FeO6)2
_chemical_formula_sum   'Cr12 Fe8 O48'
_cell_volume   995.36111638
_cell_formula_units_Z   4
loop_
 _symmetry_equiv_pos_site_id
 _symmetry_equiv_pos_as_xyz
  1  'x, y, z'
loop_
 _atom_site_type_symbol
 _atom_site_label
 _atom_site_symmetry_multiplicity
 _atom_site_fract_x
 _atom_site_fract_y
 _atom_site_fract_z
 _atom_site_occupancy
  Cr  Cr0  1  0.03717746  0.49122646  0.24748082  1
  Cr  Cr1  1  0.10844020  0.85088615  0.37817779  1
  Cr  Cr2  1  0.11331980  0.14233860  0.11313010  1
  Cr  Cr3  1  0.39155980  0.64911385  0.87817779  1
  Cr  Cr4  1  0.38668020  0.35766140  0.61313010  1
  Cr  Cr5  1  0.46282254  0.00877354  0.74748082  1
  Cr  Cr6  1  0.53717746  0.99122646  0.25251918  1
  Cr  Cr7  1  0.61331980  0.64233860  0.38686990  1
  Cr  Cr8  1  0.60844020  0.35088615  0.12182221  1
  Cr  Cr9  1  0.88668020  0.85766140  0.88686990  1
  Cr  Cr10  1  0.89155980  0.14911385  0.62182221  1
  Cr  Cr11  1  0.96282254  0.50877354  0.75251918  1
  Fe  Fe12  1  0.25263572  0.88428689  0.02635093  1
  Fe  Fe13  1  0.24736428  0.61571311  0.52635093  1
  Fe  Fe14  1  0.25204715  0.38037362  0.96838632  1
  Fe  Fe15  1  0.24795285  0.11962638  0.46838632  1
  Fe  Fe16  1  0.75204815  0.88037362  0.53161368  1
  Fe  Fe17  1  0.74795185  0.61962638  0.03161368  1
  Fe  Fe18  1  0.75263572  0.38428689  0.47364907  1
  Fe  Fe19  1  0.74736428  0.11571311  0.97364907  1
  O  O20  1  0.06936415  0.44619470  0.87599272  1
  O  O21  1  0.06736171  0.90026193  0.89075414  1
  O  O22  1  0.06662461  0.60438392  0.66960012  1
  O  O23  1  0.06814175  0.18305032  0.57212480  1
  O  O24  1  0.10028292  0.58282340  0.36691041  1
  O  O25  1  0.12581488  0.83850668  0.19657773  1
  O  O26  1  0.13916863  0.97875130  0.42356571  1
  O  O27  1  0.13126549  0.24675883  0.99989761  1
  O  O28  1  0.16512688  0.17950647  0.28131346  1
  O  O29  1  0.18637728  0.43603821  0.16469483  1
  O  O30  1  0.23136466  0.77151042  0.46588531  1
  O  O31  1  0.26863534  0.72848958  0.96588531  1
  O  O32  1  0.22899832  0.04377288  0.06080618  1
  O  O33  1  0.27100168  0.45622712  0.56080618  1
  O  O34  1  0.31362272  0.06396179  0.66469483  1
  O  O35  1  0.33487312  0.32049353  0.78131346  1
  O  O36  1  0.36083137  0.52124870  0.92356571  1
  O  O37  1  0.36873451  0.25324117  0.49989761  1
  O  O38  1  0.37418512  0.66149332  0.69657773  1
  O  O39  1  0.39971708  0.91717660  0.86691041  1
  O  O40  1  0.43337539  0.89561608  0.16960012  1
  O  O41  1  0.43263829  0.59973807  0.39075414  1
  O  O42  1  0.43185825  0.31694968  0.07212480  1
  O  O43  1  0.43063585  0.05380530  0.37599272  1
  O  O44  1  0.56936415  0.94619470  0.62400728  1
  O  O45  1  0.56814175  0.68305032  0.92787520  1
  O  O46  1  0.56736171  0.40026193  0.60924586  1
  O  O47  1  0.56662461  0.10438392  0.83039988  1
  O  O48  1  0.60028292  0.08282340  0.13308959  1
  O  O49  1  0.62581488  0.33850668  0.30342227  1
  O  O50  1  0.63126549  0.74675883  0.50010239  1
  O  O51  1  0.63916863  0.47875130  0.07643429  1
  O  O52  1  0.66512688  0.67950647  0.21868654  1
  O  O53  1  0.68637728  0.93603821  0.33530517  1
  O  O54  1  0.72899832  0.54377288  0.43919382  1
  O  O55  1  0.77100168  0.95622712  0.93919382  1
  O  O56  1  0.73136466  0.27151042  0.03411469  1
  O  O57  1  0.76863534  0.22848958  0.53411469  1
  O  O58  1  0.81362272  0.56396179  0.83530517  1
  O  O59  1  0.83487312  0.82049353  0.71868654  1
  O  O60  1  0.86873451  0.75324117  0.00010239  1
  O  O61  1  0.86083137  0.02124870  0.57643429  1
  O  O62  1  0.87418512  0.16149332  0.80342227  1
  O  O63  1  0.89971708  0.41717660  0.63308959  1
  O  O64  1  0.93185825  0.81694968  0.42787520  1
  O  O65  1  0.93337539  0.39561608  0.33039988  1
  O  O66  1  0.93263829  0.09973807  0.10924586  1
  O  O67  1  0.93063585  0.55380530  0.12400728  1
