# generated using pymatgen
data_Na2SnO2
_symmetry_space_group_name_H-M   'P 1'
_cell_length_a   17.01531869
_cell_length_b   6.87972279
_cell_length_c   5.85194707
_cell_angle_alpha   90.00000000
_cell_angle_beta   90.00000000
_cell_angle_gamma   90.00000000
_symmetry_Int_Tables_number   1
_chemical_formula_structural   Na2SnO2
_chemical_formula_sum   'Na16 Sn8 O16'
_cell_volume   685.03287859
_cell_formula_units_Z   8
loop_
 _symmetry_equiv_pos_site_id
 _symmetry_equiv_pos_as_xyz
  1  'x, y, z'
loop_
 _atom_site_type_symbol
 _atom_site_label
 _atom_site_symmetry_multiplicity
 _atom_site_fract_x
 _atom_site_fract_y
 _atom_site_fract_z
 _atom_site_occupancy
  Na  Na0  1  0.00000000  0.12119136  0.25000000  1
  Na  Na1  1  0.00000000  0.62709759  0.25000000  1
  Na  Na2  1  0.00000000  0.37290241  0.75000000  1
  Na  Na3  1  0.00000000  0.87880864  0.75000000  1
  Na  Na4  1  0.14699198  0.12455140  0.58092059  1
  Na  Na5  1  0.14699198  0.87544860  0.08092059  1
  Na  Na6  1  0.35300802  0.37544860  0.08092059  1
  Na  Na7  1  0.35300802  0.62455140  0.58092059  1
  Na  Na8  1  0.50000000  0.12709759  0.25000000  1
  Na  Na9  1  0.50000000  0.37880864  0.75000000  1
  Na  Na10  1  0.50000000  0.62119136  0.25000000  1
  Na  Na11  1  0.50000000  0.87290241  0.75000000  1
  Na  Na12  1  0.64699198  0.37544860  0.41907941  1
  Na  Na13  1  0.64699198  0.62455140  0.91907941  1
  Na  Na14  1  0.85300802  0.12455140  0.91907941  1
  Na  Na15  1  0.85300802  0.87544860  0.41907941  1
  Sn  Sn16  1  0.15916878  0.36843537  0.06688917  1
  Sn  Sn17  1  0.15916878  0.63156463  0.56688917  1
  Sn  Sn18  1  0.34083122  0.13156463  0.56688917  1
  Sn  Sn19  1  0.34083122  0.86843537  0.06688917  1
  Sn  Sn20  1  0.65916878  0.13156463  0.93311083  1
  Sn  Sn21  1  0.65916878  0.86843537  0.43311083  1
  Sn  Sn22  1  0.84083122  0.36843537  0.43311083  1
  Sn  Sn23  1  0.84083122  0.63156463  0.93311083  1
  O  O24  1  0.08878658  0.84707734  0.44051242  1
  O  O25  1  0.08878658  0.15292266  0.94051242  1
  O  O26  1  0.09885208  0.40254250  0.38571778  1
  O  O27  1  0.09885208  0.59745750  0.88571778  1
  O  O28  1  0.40114792  0.09745750  0.88571778  1
  O  O29  1  0.40114792  0.90254250  0.38571778  1
  O  O30  1  0.41121342  0.34707734  0.44051242  1
  O  O31  1  0.41121342  0.65292266  0.94051242  1
  O  O32  1  0.58878658  0.34707734  0.05948758  1
  O  O33  1  0.58878658  0.65292266  0.55948758  1
  O  O34  1  0.59885208  0.09745750  0.61428222  1
  O  O35  1  0.59885208  0.90254250  0.11428222  1
  O  O36  1  0.90114792  0.40254250  0.11428222  1
  O  O37  1  0.90114792  0.59745750  0.61428222  1
  O  O38  1  0.91121342  0.15292266  0.55948758  1
  O  O39  1  0.91121342  0.84707734  0.05948758  1
