# generated using pymatgen
data_La2WO6
_symmetry_space_group_name_H-M   'P 1'
_cell_length_a   5.52686006
_cell_length_b   9.54162249
_cell_length_c   10.47634947
_cell_angle_alpha   90.00000000
_cell_angle_beta   90.00000000
_cell_angle_gamma   90.00000000
_symmetry_Int_Tables_number   1
_chemical_formula_structural   La2WO6
_chemical_formula_sum   'La8 W4 O24'
_cell_volume   552.47251288
_cell_formula_units_Z   4
loop_
 _symmetry_equiv_pos_site_id
 _symmetry_equiv_pos_as_xyz
  1  'x, y, z'
loop_
 _atom_site_type_symbol
 _atom_site_label
 _atom_site_symmetry_multiplicity
 _atom_site_fract_x
 _atom_site_fract_y
 _atom_site_fract_z
 _atom_site_occupancy
  La  La0  1  0.02331240  0.39545950  0.03568817  1
  La  La1  1  0.03151215  0.28136967  0.63274183  1
  La  La2  1  0.46848785  0.71863033  0.13274183  1
  La  La3  1  0.47668760  0.60454050  0.53568817  1
  La  La4  1  0.52331240  0.10454050  0.96431183  1
  La  La5  1  0.53151215  0.21863033  0.36725817  1
  La  La6  1  0.96848785  0.78136967  0.86725817  1
  La  La7  1  0.97668760  0.89545950  0.46431183  1
  W  W8  1  0.04045654  0.00267393  0.15002388  1
  W  W9  1  0.45954346  0.99732607  0.65002388  1
  W  W10  1  0.54045654  0.49732607  0.84997612  1
  W  W11  1  0.95954346  0.50267393  0.34997612  1
  O  O12  1  0.07554034  0.65002555  0.46791170  1
  O  O13  1  0.16726036  0.54837181  0.21064003  1
  O  O14  1  0.19589644  0.86579240  0.67936630  1
  O  O15  1  0.18668460  0.86477840  0.25992058  1
  O  O16  1  0.22138345  0.38906806  0.43058578  1
  O  O17  1  0.25517815  0.08823887  0.51219605  1
  O  O18  1  0.24482185  0.91176113  0.01219605  1
  O  O19  1  0.27861655  0.61093194  0.93058578  1
  O  O20  1  0.31331540  0.13522160  0.75992058  1
  O  O21  1  0.30410356  0.13420760  0.17936630  1
  O  O22  1  0.33273964  0.45162819  0.71064003  1
  O  O23  1  0.42445966  0.34997445  0.96791170  1
  O  O24  1  0.57554034  0.84997445  0.53208830  1
  O  O25  1  0.66726036  0.95162819  0.78935997  1
  O  O26  1  0.69589644  0.63420760  0.32063370  1
  O  O27  1  0.68668460  0.63522160  0.74007942  1
  O  O28  1  0.72138345  0.11093194  0.56941422  1
  O  O29  1  0.75517815  0.41176113  0.48780395  1
  O  O30  1  0.74482185  0.58823887  0.98780395  1
  O  O31  1  0.77861655  0.88906806  0.06941422  1
  O  O32  1  0.81331540  0.36477840  0.24007942  1
  O  O33  1  0.80410356  0.36579240  0.82063370  1
  O  O34  1  0.83273964  0.04837181  0.28935997  1
  O  O35  1  0.92445966  0.15002555  0.03208830  1
