# generated using pymatgen
data_Cr3S4
_symmetry_space_group_name_H-M   'P 1'
_cell_length_a   3.44326928
_cell_length_b   5.94757195
_cell_length_c   11.09505703
_cell_angle_alpha   88.76586690
_cell_angle_beta   89.99999375
_cell_angle_gamma   90.00000746
_symmetry_Int_Tables_number   1
_chemical_formula_structural   Cr3S4
_chemical_formula_sum   'Cr6 S8'
_cell_volume   227.16398381
_cell_formula_units_Z   2
loop_
 _symmetry_equiv_pos_site_id
 _symmetry_equiv_pos_as_xyz
  1  'x, y, z'
loop_
 _atom_site_type_symbol
 _atom_site_label
 _atom_site_symmetry_multiplicity
 _atom_site_fract_x
 _atom_site_fract_y
 _atom_site_fract_z
 _atom_site_occupancy
  Cr  Cr0  1  0.00000000  0.99780258  0.00017195  1
  Cr  Cr1  1  0.50000000  0.50308941  0.50386908  1
  Cr  Cr2  1  0.50000000  0.46839590  0.23873716  1
  Cr  Cr3  1  0.00000000  0.98582887  0.74173366  1
  Cr  Cr4  1  1.00000000  0.03154898  0.25738436  1
  Cr  Cr5  1  0.50000000  0.51392984  0.75722544  1
  S  S6  1  0.00000000  0.33186867  0.11831500  1
  S  S7  1  0.50000000  0.83201921  0.62535930  1
  S  S8  1  0.50000000  0.84316227  0.13753760  1
  S  S9  1  1.00000000  0.34122802  0.63612306  1
  S  S10  1  1.00000000  0.65902650  0.36455325  1
  S  S11  1  0.50000000  0.15784795  0.86465687  1
  S  S12  1  0.50000000  0.16600830  0.38007824  1
  S  S13  1  1.00000000  0.66824350  0.87425504  1
