# generated using pymatgen
data_Li8V3P8O29
_symmetry_space_group_name_H-M   'P 1'
_cell_length_a   9.90597600
_cell_length_b   9.90413579
_cell_length_c   13.85928170
_cell_angle_alpha   90.03768705
_cell_angle_beta   89.94567622
_cell_angle_gamma   60.01228871
_symmetry_Int_Tables_number   1
_chemical_formula_structural   Li8V3P8O29
_chemical_formula_sum   'Li16 V6 P16 O58'
_cell_volume   1177.71012960
_cell_formula_units_Z   2
loop_
 _symmetry_equiv_pos_site_id
 _symmetry_equiv_pos_as_xyz
  1  'x, y, z'
loop_
 _atom_site_type_symbol
 _atom_site_label
 _atom_site_symmetry_multiplicity
 _atom_site_fract_x
 _atom_site_fract_y
 _atom_site_fract_z
 _atom_site_occupancy
  Li  Li0  1  0.09121369  0.22464545  0.93649846  1
  Li  Li1  1  0.22519680  0.09198749  0.43960927  1
  Li  Li2  1  0.09127117  0.68409537  0.43649703  1
  Li  Li3  1  0.33255089  0.33753001  0.12018056  1
  Li  Li4  1  0.33244205  0.32997388  0.62015137  1
  Li  Li5  1  0.22518568  0.68280910  0.93961668  1
  Li  Li6  1  0.31630951  0.77525024  0.56060187  1
  Li  Li7  1  0.68111211  0.09249162  0.93682297  1
  Li  Li8  1  0.31648401  0.90833954  0.06061651  1
  Li  Li9  1  0.68112883  0.22640682  0.43683299  1
  Li  Li10  1  0.77614078  0.31557770  0.06346230  1
  Li  Li11  1  0.66505617  0.66442550  0.37984031  1
  Li  Li12  1  0.66502157  0.67054890  0.87984364  1
  Li  Li13  1  0.90795411  0.31915369  0.56302260  1
  Li  Li14  1  0.77593930  0.90837628  0.56348053  1
  Li  Li15  1  0.90798768  0.77279793  0.06296108  1
  V  V16  1  0.00089786  0.43032264  0.75038222  1
  V  V17  1  0.00084525  0.56882750  0.25034745  1
  V  V18  1  0.43148789  0.99995249  0.24987455  1
  V  V19  1  0.57015765  0.99915601  0.74975172  1
  V  V20  1  0.43145513  0.56856364  0.74984634  1
  V  V21  1  0.57029200  0.43056154  0.24988440  1
  P  P22  1  0.09159460  0.23397842  0.15649861  1
  P  P23  1  0.23481215  0.08928327  0.65733249  1
  P  P24  1  0.09150907  0.67442051  0.65637148  1
  P  P25  1  0.33522918  0.33026673  0.37762667  1
  P  P26  1  0.33512600  0.33470666  0.87760069  1
  P  P27  1  0.23487657  0.67581533  0.15727346  1
  P  P28  1  0.32433386  0.76666998  0.34281114  1
  P  P29  1  0.67706334  0.08869906  0.15637980  1
  P  P30  1  0.32435953  0.90905032  0.84283332  1
  P  P31  1  0.67703391  0.23415059  0.65638636  1
  P  P32  1  0.76536837  0.32400169  0.84390778  1
  P  P33  1  0.66645353  0.66928938  0.12238036  1
  P  P34  1  0.66651730  0.66411012  0.62242876  1
  P  P35  1  0.91068915  0.32459035  0.34311284  1
  P  P36  1  0.76535252  0.91069505  0.34386030  1
  P  P37  1  0.91064633  0.76477760  0.84307421  1
  O  O38  1  0.00308925  0.21934113  0.25019719  1
  O  O39  1  0.00492819  0.24924767  0.43245809  1
  O  O40  1  0.08135453  0.24584897  0.65717327  1
  O  O41  1  0.24547661  0.00311075  0.93182207  1
  O  O42  1  0.25056633  0.08013492  0.15613587  1
  O  O43  1  0.12089914  0.37108493  0.17132123  1
  O  O44  1  0.18660886  0.33368648  0.84187694  1
  O  O45  1  0.12078092  0.50806560  0.67104646  1
  O  O46  1  0.00494167  0.74589461  0.93241950  1
  O  O47  1  0.00294273  0.77755045  0.75013463  1
  O  O48  1  0.08135100  0.67273023  0.15714400  1
  O  O49  1  0.33588783  0.17932374  0.33124449  1
  O  O50  1  0.18664106  0.47981312  0.34205359  1
  O  O51  1  0.37113536  0.11951191  0.67544064  1
  O  O52  1  0.33529987  0.31358243  0.48545445  1
  O  O53  1  0.33483110  0.35145877  0.98547015  1
  O  O54  1  0.50970143  0.11486777  0.17189853  1
  O  O55  1  0.33580783  0.48492054  0.83124847  1
  O  O56  1  0.48506477  0.18712275  0.84202915  1
  O  O57  1  0.25048498  0.66937714  0.65603405  1
  O  O58  1  0.22011089  0.78263634  0.24961346  1
  O  O59  1  0.24548501  0.75157131  0.43179035  1
  O  O60  1  0.37114357  0.50936827  0.17541365  1
  O  O61  1  0.25440414  0.75098820  0.06800724  1
  O  O62  1  0.48519747  0.32778962  0.34197700  1
  O  O63  1  0.50966426  0.37539053  0.67189376  1
  O  O64  1  0.32976859  0.74998369  0.84341610  1
  O  O65  1  0.67080010  0.08268509  0.65585435  1
  O  O66  1  0.22011047  0.99732171  0.74961696  1
  O  O67  1  0.25434362  0.99459174  0.56795574  1
  O  O68  1  0.74801745  0.00474247  0.43299997  1
  O  O69  1  0.77938290  0.99923293  0.25006048  1
  O  O70  1  0.32995169  0.92019808  0.34348777  1
  O  O71  1  0.67090808  0.24640429  0.15594936  1
  O  O72  1  0.49029228  0.62941227  0.32705573  1
  O  O73  1  0.51583423  0.66352901  0.66835917  1
  O  O74  1  0.62387057  0.49096258  0.82812755  1
  O  O75  1  0.74793882  0.24737787  0.93298599  1
  O  O76  1  0.75377398  0.25099820  0.56719071  1
  O  O77  1  0.77936424  0.22134381  0.75008152  1
  O  O78  1  0.75446184  0.32673829  0.34284236  1
  O  O79  1  0.51584271  0.82058858  0.16840884  1
  O  O80  1  0.66735501  0.51980168  0.15780137  1
  O  O81  1  0.49032382  0.88021171  0.82711021  1
  O  O82  1  0.65093871  0.68593166  0.01452348  1
  O  O83  1  0.65116002  0.66279954  0.51453671  1
  O  O84  1  0.62389954  0.88512084  0.32808820  1
  O  O85  1  0.81351452  0.51444932  0.65871430  1
  O  O86  1  0.66743035  0.81283527  0.65783623  1
  O  O87  1  0.91638887  0.33094477  0.84515683  1
  O  O88  1  0.99816974  0.24806040  0.06747861  1
  O  O89  1  0.87945827  0.49180867  0.32601807  1
  O  O90  1  0.81356331  0.67199553  0.15862931  1
  O  O91  1  0.87945187  0.62872042  0.82597367  1
  O  O92  1  0.75435440  0.91877361  0.84281887  1
  O  O93  1  0.75378335  0.99512108  0.06713864  1
  O  O94  1  0.91637089  0.75275225  0.34508261  1
  O  O95  1  0.99797740  0.75384709  0.56739898  1
