# generated using pymatgen
data_PaInCu2
_symmetry_space_group_name_H-M   'P 1'
_cell_length_a   4.73839211
_cell_length_b   4.73976839
_cell_length_c   4.73975294
_cell_angle_alpha   59.94347805
_cell_angle_beta   59.94818926
_cell_angle_gamma   59.90523912
_symmetry_Int_Tables_number   1
_chemical_formula_structural   PaInCu2
_chemical_formula_sum   'Pa1 In1 Cu2'
_cell_volume   75.15559060
_cell_formula_units_Z   1
loop_
 _symmetry_equiv_pos_site_id
 _symmetry_equiv_pos_as_xyz
  1  'x, y, z'
loop_
 _atom_site_type_symbol
 _atom_site_label
 _atom_site_symmetry_multiplicity
 _atom_site_fract_x
 _atom_site_fract_y
 _atom_site_fract_z
 _atom_site_occupancy
  Pa  Pa0  1  0.74998161  0.75001557  0.74998304  1
  In  In1  1  0.25001582  0.24999148  0.25001093  1
  Cu  Cu2  1  0.49999653  0.49999411  0.49995142  1
  Cu  Cu3  1  0.00000704  -0.00000017  0.00005561  1
