# generated using pymatgen
data_PaB3
_symmetry_space_group_name_H-M   'P 1'
_cell_length_a   5.45251378
_cell_length_b   5.45249969
_cell_length_c   3.43963235
_cell_angle_alpha   89.94580079
_cell_angle_beta   90.05356217
_cell_angle_gamma   119.99252087
_symmetry_Int_Tables_number   1
_chemical_formula_structural   PaB3
_chemical_formula_sum   'Pa2 B6'
_cell_volume   88.56610521
_cell_formula_units_Z   2
loop_
 _symmetry_equiv_pos_site_id
 _symmetry_equiv_pos_as_xyz
  1  'x, y, z'
loop_
 _atom_site_type_symbol
 _atom_site_label
 _atom_site_symmetry_multiplicity
 _atom_site_fract_x
 _atom_site_fract_y
 _atom_site_fract_z
 _atom_site_occupancy
  Pa  Pa0  1  0.66663228  0.33334747  0.24997828  1
  Pa  Pa1  1  0.33335430  0.66663588  0.75001138  1
  B  B2  1  0.88740786  0.11260068  0.75025851  1
  B  B3  1  0.22515542  0.11257552  0.74986955  1
  B  B4  1  0.88742871  0.77484853  0.74986750  1
  B  B5  1  0.11259116  0.88741289  0.24974352  1
  B  B6  1  0.77486184  0.88743263  0.25013449  1
  B  B7  1  0.11257243  0.22514540  0.25013276  1
