# generated using pymatgen
data_InH9(NCl)3
_symmetry_space_group_name_H-M   'P 1'
_cell_length_a   5.99813544
_cell_length_b   6.95178933
_cell_length_c   10.00562271
_cell_angle_alpha   86.24036898
_cell_angle_beta   86.70085882
_cell_angle_gamma   85.39740311
_symmetry_Int_Tables_number   1
_chemical_formula_structural   InH9(NCl)3
_chemical_formula_sum   'In2 H18 N6 Cl6'
_cell_volume   414.39800648
_cell_formula_units_Z   2
loop_
 _symmetry_equiv_pos_site_id
 _symmetry_equiv_pos_as_xyz
  1  'x, y, z'
loop_
 _atom_site_type_symbol
 _atom_site_label
 _atom_site_symmetry_multiplicity
 _atom_site_fract_x
 _atom_site_fract_y
 _atom_site_fract_z
 _atom_site_occupancy
  In  In0  1  0.00000000  0.50000000  0.00000000  1
  In  In1  1  0.50000000  0.00000000  0.50000000  1
  H  H2  1  0.09614857  0.12202223  0.10757531  1
  H  H3  1  0.08610442  0.53074138  0.72103661  1
  H  H4  1  0.09514986  0.85001089  0.45347321  1
  H  H5  1  0.30894101  0.17380901  0.00116629  1
  H  H6  1  0.29307468  0.25383009  0.15404174  1
  H  H7  1  0.26194679  0.82434034  0.31631592  1
  H  H8  1  0.27219006  0.36278320  0.78245906  1
  H  H9  1  0.29318529  0.67054453  0.44833793  1
  H  H10  1  0.31053926  0.59694628  0.79029136  1
  H  H11  1  0.68946074  0.40305372  0.20970864  1
  H  H12  1  0.70681471  0.32945547  0.55166207  1
  H  H13  1  0.72780994  0.63721680  0.21754094  1
  H  H14  1  0.73805321  0.17565966  0.68368408  1
  H  H15  1  0.70692532  0.74616991  0.84595826  1
  H  H16  1  0.69105899  0.82619099  0.99883371  1
  H  H17  1  0.90485014  0.14998911  0.54652679  1
  H  H18  1  0.91389558  0.46925862  0.27896339  1
  H  H19  1  0.90385143  0.87797777  0.89242469  1
  N  N20  1  0.20022456  0.22705483  0.07507659  1
  N  N21  1  0.19348139  0.49728439  0.79690512  1
  N  N22  1  0.25652688  0.81381010  0.41958332  1
  N  N23  1  0.74347312  0.18618990  0.58041668  1
  N  N24  1  0.80651861  0.50271561  0.20309488  1
  N  N25  1  0.79977544  0.77294517  0.92492341  1
  Cl  Cl26  1  0.26189169  0.30914028  0.41734843  1
  Cl  Cl27  1  0.28448175  0.71104016  0.08813805  1
  Cl  Cl28  1  0.27129749  0.99747413  0.72661136  1
  Cl  Cl29  1  0.72870251  0.00252587  0.27338864  1
  Cl  Cl30  1  0.71551825  0.28895984  0.91186195  1
  Cl  Cl31  1  0.73810831  0.69085972  0.58265157  1
