# generated using pymatgen
data_Mg2ZnB2Ir5
_symmetry_space_group_name_H-M   'P 1'
_cell_length_a   9.49069203
_cell_length_b   9.49068158
_cell_length_c   2.94724483
_cell_angle_alpha   90.00003032
_cell_angle_beta   89.99999914
_cell_angle_gamma   90.00024438
_symmetry_Int_Tables_number   1
_chemical_formula_structural   Mg2ZnB2Ir5
_chemical_formula_sum   'Mg4 Zn2 B4 Ir10'
_cell_volume   265.46758449
_cell_formula_units_Z   2
loop_
 _symmetry_equiv_pos_site_id
 _symmetry_equiv_pos_as_xyz
  1  'x, y, z'
loop_
 _atom_site_type_symbol
 _atom_site_label
 _atom_site_symmetry_multiplicity
 _atom_site_fract_x
 _atom_site_fract_y
 _atom_site_fract_z
 _atom_site_occupancy
  Mg  Mg0  1  0.32322820  0.82322754  0.00000035  1
  Mg  Mg1  1  0.67677438  0.17677200  0.00000013  1
  Mg  Mg2  1  0.82322438  0.67677546  0.00000050  1
  Mg  Mg3  1  0.17677325  0.32322606  0.99999957  1
  Zn  Zn4  1  -0.00000167  0.99999966  0.99999971  1
  Zn  Zn5  1  0.50000134  0.50000064  0.99999988  1
  B  B6  1  0.12689503  0.62689483  0.00000044  1
  B  B7  1  0.87310515  0.37310676  0.99999974  1
  B  B8  1  0.62689453  0.87310501  0.99999970  1
  B  B9  1  0.37310443  0.12689665  0.99999956  1
  Ir  Ir10  1  0.21562867  0.07054153  0.50000075  1
  Ir  Ir11  1  0.78437378  0.92945793  0.49999976  1
  Ir  Ir12  1  0.71562837  0.42945763  0.50000026  1
  Ir  Ir13  1  0.28436914  0.57054087  0.49999979  1
  Ir  Ir14  1  0.42945757  0.28437154  0.50000043  1
  Ir  Ir15  1  0.57054156  0.71562840  0.49999919  1
  Ir  Ir16  1  0.07054239  0.78437230  0.49999963  1
  Ir  Ir17  1  0.92945963  0.21562960  0.49999980  1
  Ir  Ir18  1  -0.00000005  0.49999845  0.50000017  1
  Ir  Ir19  1  0.50000092  -0.00000184  0.50000064  1
