# generated using pymatgen
data_Mg2AlB2Ir5
_symmetry_space_group_name_H-M   'P 1'
_cell_length_a   9.48307191
_cell_length_b   9.48307810
_cell_length_c   2.92726612
_cell_angle_alpha   89.99999391
_cell_angle_beta   89.99999356
_cell_angle_gamma   90.00009407
_symmetry_Int_Tables_number   1
_chemical_formula_structural   Mg2AlB2Ir5
_chemical_formula_sum   'Mg4 Al2 B4 Ir10'
_cell_volume   263.24527054
_cell_formula_units_Z   2
loop_
 _symmetry_equiv_pos_site_id
 _symmetry_equiv_pos_as_xyz
  1  'x, y, z'
loop_
 _atom_site_type_symbol
 _atom_site_label
 _atom_site_symmetry_multiplicity
 _atom_site_fract_x
 _atom_site_fract_y
 _atom_site_fract_z
 _atom_site_occupancy
  Mg  Mg0  1  0.67631972  0.17631949  0.99999922  1
  Mg  Mg1  1  0.17631900  0.32367980  0.99999904  1
  Mg  Mg2  1  0.82368037  0.67631882  0.00000152  1
  Mg  Mg3  1  0.32368020  0.82368058  0.99999987  1
  Al  Al4  1  -0.00000041  0.00000215  0.00000010  1
  Al  Al5  1  0.50000046  0.49999994  0.99999993  1
  B  B6  1  0.37457405  0.12542717  0.00000056  1
  B  B7  1  0.87457342  0.37457471  0.00000007  1
  B  B8  1  0.12542719  0.62542611  0.00000021  1
  B  B9  1  0.62542531  0.87457356  0.99999933  1
  Ir  Ir10  1  0.49999959  -0.00000033  0.50000017  1
  Ir  Ir11  1  0.21361626  0.07127515  0.50000023  1
  Ir  Ir12  1  0.92872320  0.21361527  0.49999969  1
  Ir  Ir13  1  0.42872244  0.28638400  0.50000008  1
  Ir  Ir14  1  0.71361503  0.42872211  0.49999993  1
  Ir  Ir15  1  0.99999939  0.49999963  0.49999993  1
  Ir  Ir16  1  0.28638388  0.57127659  0.50000070  1
  Ir  Ir17  1  0.57127673  0.71361541  0.50000017  1
  Ir  Ir18  1  0.07127626  0.78638322  0.49999958  1
  Ir  Ir19  1  0.78638391  0.92872263  0.49999965  1
