# generated using pymatgen
data_Ce5Al2Ru3
_symmetry_space_group_name_H-M   'P 1'
_cell_length_a   8.38317113
_cell_length_b   8.38317113
_cell_length_c   8.38317109
_cell_angle_alpha   109.48439307
_cell_angle_beta   109.48439314
_cell_angle_gamma   109.48439362
_symmetry_Int_Tables_number   1
_chemical_formula_structural   Ce5Al2Ru3
_chemical_formula_sum   'Ce10 Al4 Ru6'
_cell_volume   453.30563115
_cell_formula_units_Z   2
loop_
 _symmetry_equiv_pos_site_id
 _symmetry_equiv_pos_as_xyz
  1  'x, y, z'
loop_
 _atom_site_type_symbol
 _atom_site_label
 _atom_site_symmetry_multiplicity
 _atom_site_fract_x
 _atom_site_fract_y
 _atom_site_fract_z
 _atom_site_occupancy
  Ce  Ce0  1  0.38167635  0.38167635  0.38167635  1
  Ce  Ce1  1  0.34257282  0.89943459  0.14937908  1
  Ce  Ce2  1  0.14937908  0.34257282  0.89943459  1
  Ce  Ce3  1  0.89943459  0.14938008  0.34257282  1
  Ce  Ce4  1  0.59263215  0.30347199  0.09275055  1
  Ce  Ce5  1  0.09275055  0.59263215  0.30347199  1
  Ce  Ce6  1  0.30347199  0.09275055  0.59263215  1
  Ce  Ce7  1  0.53541660  0.84254990  0.78556155  1
  Ce  Ce8  1  0.78556155  0.53541660  0.84254990  1
  Ce  Ce9  1  0.84255090  0.78556155  0.53541660  1
  Al  Al10  1  0.99528424  0.99528424  0.99528424  1
  Al  Al11  1  0.59255206  0.68948222  0.09227521  1
  Al  Al12  1  0.09227521  0.59255206  0.68948222  1
  Al  Al13  1  0.68948322  0.09227521  0.59255106  1
  Ru  Ru14  1  0.34233587  0.46665643  0.71607430  1
  Ru  Ru15  1  0.71607430  0.34233487  0.46665743  1
  Ru  Ru16  1  0.46665643  0.71607530  0.34233587  1
  Ru  Ru17  1  0.96883151  0.84245789  0.21860568  1
  Ru  Ru18  1  0.21860668  0.96883051  0.84245789  1
  Ru  Ru19  1  0.84245789  0.21860568  0.96883151  1
