# generated using pymatgen
data_Gd2(Ga3Co)3
_symmetry_space_group_name_H-M   'P 1'
_cell_length_a   7.40002852
_cell_length_b   7.40002852
_cell_length_c   9.45714643
_cell_angle_alpha   90.00000000
_cell_angle_beta   90.00000000
_cell_angle_gamma   119.70860083
_symmetry_Int_Tables_number   1
_chemical_formula_structural   Gd2(Ga3Co)3
_chemical_formula_sum   'Gd4 Ga18 Co6'
_cell_volume   449.80604752
_cell_formula_units_Z   2
loop_
 _symmetry_equiv_pos_site_id
 _symmetry_equiv_pos_as_xyz
  1  'x, y, z'
loop_
 _atom_site_type_symbol
 _atom_site_label
 _atom_site_symmetry_multiplicity
 _atom_site_fract_x
 _atom_site_fract_y
 _atom_site_fract_z
 _atom_site_occupancy
  Gd  Gd0  1  0.33142367  0.00306681  0.25000000  1
  Gd  Gd1  1  0.66857633  0.99693319  0.75000000  1
  Gd  Gd2  1  0.99693319  0.66857633  0.75000000  1
  Gd  Gd3  1  0.00306681  0.33142367  0.25000000  1
  Ga  Ga4  1  0.45016703  0.66328123  0.25000000  1
  Ga  Ga5  1  0.54983297  0.33671877  0.75000000  1
  Ga  Ga6  1  0.33671877  0.54983297  0.75000000  1
  Ga  Ga7  1  0.66328123  0.45016703  0.25000000  1
  Ga  Ga8  1  0.12199051  0.12199051  0.75000000  1
  Ga  Ga9  1  0.87801049  0.87801049  0.25000000  1
  Ga  Ga10  1  0.66585041  0.66585041  0.55703986  1
  Ga  Ga11  1  0.33415059  0.33415059  0.05703886  1
  Ga  Ga12  1  0.33415059  0.33415059  0.44296114  1
  Ga  Ga13  1  0.66585041  0.66585041  0.94296114  1
  Ga  Ga14  1  0.33434397  0.00093338  0.57219984  1
  Ga  Ga15  1  0.66565603  0.99906762  0.07219984  1
  Ga  Ga16  1  0.99906762  0.66565603  0.42780016  1
  Ga  Ga17  1  0.00093338  0.33434397  0.92780016  1
  Ga  Ga18  1  0.66565603  0.99906762  0.42780016  1
  Ga  Ga19  1  0.33434397  0.00093338  0.92780016  1
  Ga  Ga20  1  0.00093338  0.33434397  0.57219984  1
  Ga  Ga21  1  0.99906762  0.66565603  0.07219984  1
  Co  Co22  1  0.00000000  0.00000000  0.50000000  1
  Co  Co23  1  0.00000000  0.00000000  0.00000000  1
  Co  Co24  1  0.32893419  0.67106581  0.50000000  1
  Co  Co25  1  0.67106581  0.32893419  0.00000000  1
  Co  Co26  1  0.67106581  0.32893419  0.50000000  1
  Co  Co27  1  0.32893419  0.67106581  0.00000000  1
