# generated using pymatgen
data_Ti13Si31Ni40
_symmetry_space_group_name_H-M   'P 1'
_cell_length_a   17.18233727
_cell_length_b   17.18379445
_cell_length_c   7.88108331
_cell_angle_alpha   90.00000000
_cell_angle_beta   90.00000000
_cell_angle_gamma   120.00627476
_symmetry_Int_Tables_number   1
_chemical_formula_structural   Ti13Si31Ni40
_chemical_formula_sum   'Ti26 Si62 Ni80'
_cell_volume   2015.07119758
_cell_formula_units_Z   2
loop_
 _symmetry_equiv_pos_site_id
 _symmetry_equiv_pos_as_xyz
  1  'x, y, z'
loop_
 _atom_site_type_symbol
 _atom_site_label
 _atom_site_symmetry_multiplicity
 _atom_site_fract_x
 _atom_site_fract_y
 _atom_site_fract_z
 _atom_site_occupancy
  Ti  Ti0  1  0.00001104  0.00000389  0.32848941  1
  Ti  Ti1  1  0.00001104  0.00000389  0.67151159  1
  Ti  Ti2  1  0.27016957  0.99999460  0.30547215  1
  Ti  Ti3  1  0.72981421  0.00000254  0.30510680  1
  Ti  Ti4  1  0.00001019  0.27018563  0.30517829  1
  Ti  Ti5  1  0.72981050  0.72979225  0.30513571  1
  Ti  Ti6  1  0.27019729  0.27017773  0.30531462  1
  Ti  Ti7  1  0.00002110  0.72982937  0.30541054  1
  Ti  Ti8  1  0.27016957  0.99999460  0.69452885  1
  Ti  Ti9  1  0.72981050  0.72979225  0.69486229  1
  Ti  Ti10  1  0.00001019  0.27018563  0.69482271  1
  Ti  Ti11  1  0.00002110  0.72982937  0.69459046  1
  Ti  Ti12  1  0.27019729  0.27017773  0.69468338  1
  Ti  Ti13  1  0.72981421  0.00000254  0.69489420  1
  Ti  Ti14  1  0.57687396  0.15377251  0.50000000  1
  Ti  Ti15  1  0.42310093  0.84622767  0.50000000  1
  Ti  Ti16  1  0.84624159  0.42312942  0.50000000  1
  Ti  Ti17  1  0.57688831  0.42310035  0.50000000  1
  Ti  Ti18  1  0.42309801  0.57687990  0.50000000  1
  Ti  Ti19  1  0.15375877  0.57688446  0.50000000  1
  Ti  Ti20  1  0.24380356  0.48757835  0.00000000  1
  Ti  Ti21  1  0.75618710  0.51242508  0.00000000  1
  Ti  Ti22  1  0.51242034  0.75619626  0.00000000  1
  Ti  Ti23  1  0.24378563  0.75621555  0.00000000  1
  Ti  Ti24  1  0.75620797  0.24378467  0.00000000  1
  Ti  Ti25  1  0.48756854  0.24380429  0.00000000  1
  Si  Si26  1  0.60561136  0.21124709  0.18226681  1
  Si  Si27  1  0.39436249  0.78875336  0.18226666  1
  Si  Si28  1  0.78875640  0.39438760  0.18227182  1
  Si  Si29  1  0.60563015  0.39436354  0.18225938  1
  Si  Si30  1  0.39435951  0.60562419  0.18225192  1
  Si  Si31  1  0.21124467  0.60562853  0.18228409  1
  Si  Si32  1  0.39436249  0.78875336  0.81773434  1
  Si  Si33  1  0.39435951  0.60562419  0.81774908  1
  Si  Si34  1  0.21124467  0.60562853  0.81771691  1
  Si  Si35  1  0.78875640  0.39438760  0.81772918  1
  Si  Si36  1  0.60563015  0.39436354  0.81774162  1
  Si  Si37  1  0.60561136  0.21124709  0.81773419  1
  Si  Si38  1  0.17786856  0.35568730  0.23437408  1
  Si  Si39  1  0.82223197  0.64431659  0.23437176  1
  Si  Si40  1  0.64427715  0.82213781  0.23435401  1
  Si  Si41  1  0.17782479  0.82219504  0.23439139  1
  Si  Si42  1  0.82216731  0.17787235  0.23436107  1
  Si  Si43  1  0.35565016  0.17778524  0.23438731  1
  Si  Si44  1  0.82223197  0.64431659  0.76562924  1
  Si  Si45  1  0.82216731  0.17787235  0.76563893  1
  Si  Si46  1  0.35565016  0.17778524  0.76561369  1
  Si  Si47  1  0.64427715  0.82213781  0.76564699  1
  Si  Si48  1  0.17782479  0.82219504  0.76560861  1
  Si  Si49  1  0.17786856  0.35568730  0.76562692  1
  Si  Si50  1  0.12800995  0.41216920  0.50000000  1
  Si  Si51  1  0.87208267  0.58792918  0.50000000  1
  Si  Si52  1  0.58781742  0.71586239  0.50000000  1
  Si  Si53  1  0.28412871  0.87206652  0.50000000  1
  Si  Si54  1  0.71586338  0.12804357  0.50000000  1
  Si  Si55  1  0.41213092  0.28412692  0.50000000  1
  Si  Si56  1  0.71586635  0.58780647  0.50000000  1
  Si  Si57  1  0.87199393  0.28414256  0.50000000  1
  Si  Si58  1  0.41205604  0.12791876  0.50000000  1
  Si  Si59  1  0.58781298  0.87196696  0.50000000  1
  Si  Si60  1  0.12794220  0.71585781  0.50000000  1
  Si  Si61  1  0.28413297  0.41212631  0.50000000  1
  Si  Si62  1  0.49998968  0.00000091  0.26031527  1
  Si  Si63  1  0.00000178  0.50000882  0.26034872  1
  Si  Si64  1  0.49999562  0.49999569  0.26027635  1
  Si  Si65  1  0.49998968  0.00000091  0.73968373  1
  Si  Si66  1  0.49999562  0.49999569  0.73972465  1
  Si  Si67  1  0.00000178  0.50000882  0.73965028  1
  Si  Si68  1  0.38568505  0.00000784  0.00000000  1
  Si  Si69  1  0.61429239  0.99999216  0.00000000  1
  Si  Si70  1  0.00000794  0.38570268  0.00000000  1
  Si  Si71  1  0.61426558  0.61426646  0.00000000  1
  Si  Si72  1  0.38572048  0.38572168  0.00000000  1
  Si  Si73  1  0.99999147  0.61431212  0.00000000  1
  Si  Si74  1  0.16004048  0.00001054  0.00000000  1
  Si  Si75  1  0.83999404  0.99999216  0.00000000  1
  Si  Si76  1  0.00001418  0.16001740  0.00000000  1
  Si  Si77  1  0.83997860  0.83997267  0.00000000  1
  Si  Si78  1  0.16004314  0.16003701  0.00000000  1
  Si  Si79  1  -0.00000422  0.83996240  0.00000000  1
  Si  Si80  1  0.14463418  0.00000006  0.50000000  1
  Si  Si81  1  0.85551523  0.00000305  0.50000000  1
  Si  Si82  1  0.00001198  0.14452089  0.50000000  1
  Si  Si83  1  0.85552655  0.85551233  0.50000000  1
  Si  Si84  1  0.14456385  0.14454852  0.50000000  1
  Si  Si85  1  0.00001573  0.85539668  0.50000000  1
  Si  Si86  1  0.33331337  0.66667061  0.50000000  1
  Si  Si87  1  0.66666966  0.33333135  0.50000000  1
  Ni  Ni88  1  0.33333088  0.66666825  0.00000000  1
  Ni  Ni89  1  0.66667136  0.33333223  0.00000000  1
  Ni  Ni90  1  0.08459630  0.31879739  0.00000000  1
  Ni  Ni91  1  0.91542378  0.68121928  0.00000000  1
  Ni  Ni92  1  0.68118633  0.76575684  0.00000000  1
  Ni  Ni93  1  0.23422270  0.91543680  0.00000000  1
  Ni  Ni94  1  0.76577428  0.08457204  0.00000000  1
  Ni  Ni95  1  0.31882289  0.23424278  0.00000000  1
  Ni  Ni96  1  0.76575748  0.68117345  0.00000000  1
  Ni  Ni97  1  0.91543209  0.23422306  0.00000000  1
  Ni  Ni98  1  0.31878263  0.08457968  0.00000000  1
  Ni  Ni99  1  0.68120766  0.91541402  0.00000000  1
  Ni  Ni100  1  0.08456956  0.76577698  0.00000000  1
  Ni  Ni101  1  0.23424435  0.31881159  0.00000000  1
  Ni  Ni102  1  0.08932126  0.17861745  0.23868525  1
  Ni  Ni103  1  0.91070837  0.82137979  0.23869121  1
  Ni  Ni104  1  0.82138035  0.91068319  0.23868274  1
  Ni  Ni105  1  0.08928987  0.91071593  0.23869381  1
  Ni  Ni106  1  0.91072086  0.08928752  0.23867121  1
  Ni  Ni107  1  0.17861937  0.08929779  0.23869947  1
  Ni  Ni108  1  0.91070837  0.82137979  0.76130979  1
  Ni  Ni109  1  0.91072086  0.08928752  0.76132779  1
  Ni  Ni110  1  0.17861937  0.08929779  0.76130153  1
  Ni  Ni111  1  0.82138035  0.91068319  0.76131826  1
  Ni  Ni112  1  0.08928987  0.91071593  0.76130519  1
  Ni  Ni113  1  0.08932126  0.17861745  0.76131575  1
  Ni  Ni114  1  0.10545997  0.44664761  0.22442348  1
  Ni  Ni115  1  0.89454686  0.55336546  0.22441238  1
  Ni  Ni116  1  0.55332942  0.65878527  0.22443493  1
  Ni  Ni117  1  0.34119053  0.89454842  0.22439530  1
  Ni  Ni118  1  0.65879935  0.10545771  0.22441729  1
  Ni  Ni119  1  0.44666694  0.34121284  0.22443021  1
  Ni  Ni120  1  0.65878891  0.55332717  0.77556342  1
  Ni  Ni121  1  0.89454461  0.34120486  0.77558564  1
  Ni  Ni122  1  0.44663003  0.10545194  0.77559185  1
  Ni  Ni123  1  0.55335619  0.89454140  0.77557281  1
  Ni  Ni124  1  0.10545300  0.65880700  0.77559529  1
  Ni  Ni125  1  0.34121342  0.44666900  0.77558153  1
  Ni  Ni126  1  0.89454686  0.55336546  0.77558662  1
  Ni  Ni127  1  0.10545997  0.44664761  0.77557552  1
  Ni  Ni128  1  0.44666694  0.34121284  0.77556979  1
  Ni  Ni129  1  0.65879935  0.10545771  0.77558371  1
  Ni  Ni130  1  0.34119053  0.89454842  0.77560570  1
  Ni  Ni131  1  0.55332942  0.65878527  0.77556507  1
  Ni  Ni132  1  0.34121342  0.44666900  0.22441847  1
  Ni  Ni133  1  0.10545300  0.65880700  0.22440571  1
  Ni  Ni134  1  0.55335619  0.89454140  0.22442619  1
  Ni  Ni135  1  0.44663003  0.10545194  0.22440715  1
  Ni  Ni136  1  0.89454461  0.34120486  0.22441536  1
  Ni  Ni137  1  0.65878891  0.55332717  0.22443658  1
  Ni  Ni138  1  0.54338855  0.08679002  0.00000000  1
  Ni  Ni139  1  0.45660400  0.91321074  0.00000000  1
  Ni  Ni140  1  0.91321685  0.45661740  0.00000000  1
  Ni  Ni141  1  0.54341592  0.45658622  0.00000000  1
  Ni  Ni142  1  0.45658641  0.54340995  0.00000000  1
  Ni  Ni143  1  0.08678743  0.54339269  0.00000000  1
  Ni  Ni144  1  0.41940961  0.99998980  0.50000000  1
  Ni  Ni145  1  0.58059500  0.00001249  0.50000000  1
  Ni  Ni146  1  0.99998933  0.41940540  0.50000000  1
  Ni  Ni147  1  0.58057639  0.58057499  0.50000000  1
  Ni  Ni148  1  0.41943619  0.41943613  0.50000000  1
  Ni  Ni149  1  0.00000955  0.58060438  0.50000000  1
  Ni  Ni150  1  0.26229018  0.52459976  0.34478856  1
  Ni  Ni151  1  0.73771059  0.47540242  0.34478691  1
  Ni  Ni152  1  0.47539138  0.73770564  0.34478438  1
  Ni  Ni153  1  0.26229105  0.73770642  0.34477535  1
  Ni  Ni154  1  0.73769946  0.26230262  0.34477814  1
  Ni  Ni155  1  0.52459021  0.26228831  0.34478601  1
  Ni  Ni156  1  0.73771059  0.47540242  0.65521309  1
  Ni  Ni157  1  0.73769946  0.26230262  0.65522186  1
  Ni  Ni158  1  0.52459021  0.26228831  0.65521399  1
  Ni  Ni159  1  0.47539138  0.73770564  0.65521562  1
  Ni  Ni160  1  0.26229105  0.73770642  0.65522465  1
  Ni  Ni161  1  0.26229018  0.52459976  0.65521144  1
  Ni  Ni162  1  0.14228286  0.28458986  0.50000000  1
  Ni  Ni163  1  0.85765884  0.71541092  0.50000000  1
  Ni  Ni164  1  0.71541441  0.85770571  0.50000000  1
  Ni  Ni165  1  0.14227908  0.85771032  0.50000000  1
  Ni  Ni166  1  0.85769356  0.14226406  0.50000000  1
  Ni  Ni167  1  0.28459140  0.14231159  0.50000000  1
