# generated using pymatgen
data_Te2MoWSeS
_symmetry_space_group_name_H-M   'P 1'
_cell_length_a   3.39930016
_cell_length_b   3.39930297
_cell_length_c   38.72283669
_cell_angle_alpha   89.99978216
_cell_angle_beta   90.00000000
_cell_angle_gamma   119.99997264
_symmetry_Int_Tables_number   1
_chemical_formula_structural   Te2MoWSeS
_chemical_formula_sum   'Te4 Mo2 W2 Se2 S2'
_cell_volume   387.50499466
_cell_formula_units_Z   2
loop_
 _symmetry_equiv_pos_site_id
 _symmetry_equiv_pos_as_xyz
  1  'x, y, z'
loop_
 _atom_site_type_symbol
 _atom_site_label
 _atom_site_symmetry_multiplicity
 _atom_site_fract_x
 _atom_site_fract_y
 _atom_site_fract_z
 _atom_site_occupancy
  Te  Te0  1  0.33335893  0.66671886  0.33019477  1
  Te  Te1  1  0.33334929  0.66669958  0.70620466  1
  Te  Te2  1  0.33337346  0.66674791  0.23343786  1
  Te  Te3  1  0.33335651  0.66671402  0.60884140  1
  Mo  Mo4  1  0.33330001  0.66660002  0.46966808  1
  Mo  Mo5  1  0.66670021  0.33340041  0.28181981  1
  W  W6  1  0.33330299  0.66660598  0.09389587  1
  W  W7  1  0.66669038  0.33338077  0.65754604  1
  Se  Se8  1  0.66662062  0.33324024  0.05114970  1
  Se  Se9  1  0.66664766  0.33329432  0.13665742  1
  S  S10  1  0.66665042  0.33329985  0.43088226  1
  S  S11  1  0.66664952  0.33329803  0.50845015  1
