# generated using pymatgen
data_Gd4Ga16Co3
_symmetry_space_group_name_H-M   'P 1'
_cell_length_a   6.04378283
_cell_length_b   6.04378283
_cell_length_c   11.13110083
_cell_angle_alpha   90.00000000
_cell_angle_beta   90.00000000
_cell_angle_gamma   90.00000000
_symmetry_Int_Tables_number   1
_chemical_formula_structural   Gd4Ga16Co3
_chemical_formula_sum   'Gd4 Ga16 Co3'
_cell_volume   406.58918063
_cell_formula_units_Z   1
loop_
 _symmetry_equiv_pos_site_id
 _symmetry_equiv_pos_as_xyz
  1  'x, y, z'
loop_
 _atom_site_type_symbol
 _atom_site_label
 _atom_site_symmetry_multiplicity
 _atom_site_fract_x
 _atom_site_fract_y
 _atom_site_fract_z
 _atom_site_occupancy
  Gd  Gd0  1  0.00000000  0.50000000  0.19390835  1
  Gd  Gd1  1  0.00000000  0.50000000  0.80609165  1
  Gd  Gd2  1  0.50000000  0.00000000  0.80609165  1
  Gd  Gd3  1  0.50000000  0.00000000  0.19390835  1
  Ga  Ga4  1  0.00000000  0.00000000  0.78101191  1
  Ga  Ga5  1  0.00000000  0.00000000  0.21898809  1
  Ga  Ga6  1  0.50000000  0.50000000  0.19666185  1
  Ga  Ga7  1  0.50000000  0.50000000  0.80333815  1
  Ga  Ga8  1  0.28067076  0.28067076  0.00000000  1
  Ga  Ga9  1  0.71932924  0.71932924  0.00000000  1
  Ga  Ga10  1  0.28067076  0.71932924  0.00000000  1
  Ga  Ga11  1  0.71932924  0.28067076  0.00000000  1
  Ga  Ga12  1  0.25026037  0.25026037  0.38434955  1
  Ga  Ga13  1  0.74974063  0.74974063  0.38434955  1
  Ga  Ga14  1  0.25026037  0.74974063  0.61564945  1
  Ga  Ga15  1  0.74974063  0.25026037  0.61564945  1
  Ga  Ga16  1  0.74974063  0.74974063  0.61564945  1
  Ga  Ga17  1  0.25026037  0.25026037  0.61564945  1
  Ga  Ga18  1  0.25026037  0.74974063  0.38434955  1
  Ga  Ga19  1  0.74974063  0.25026037  0.38434955  1
  Co  Co20  1  0.00000000  0.00000000  0.00000000  1
  Co  Co21  1  0.50000000  0.00000000  0.50000000  1
  Co  Co22  1  0.00000000  0.50000000  0.50000000  1
