# generated using pymatgen
data_YbB4Os
_symmetry_space_group_name_H-M   'P 1'
_cell_length_a   5.95407231
_cell_length_b   11.52428175
_cell_length_c   3.53630873
_cell_angle_alpha   90.00011190
_cell_angle_beta   90.00001290
_cell_angle_gamma   90.00432098
_symmetry_Int_Tables_number   1
_chemical_formula_structural   YbB4Os
_chemical_formula_sum   'Yb4 B16 Os4'
_cell_volume   242.64879805
_cell_formula_units_Z   4
loop_
 _symmetry_equiv_pos_site_id
 _symmetry_equiv_pos_as_xyz
  1  'x, y, z'
loop_
 _atom_site_type_symbol
 _atom_site_label
 _atom_site_symmetry_multiplicity
 _atom_site_fract_x
 _atom_site_fract_y
 _atom_site_fract_z
 _atom_site_occupancy
  Yb  Yb0  1  0.12918753  0.15000686  0.00000098  1
  Yb  Yb1  1  0.87083772  0.84998854  0.00000085  1
  Yb  Yb2  1  0.62917385  0.34997741  0.00000184  1
  Yb  Yb3  1  0.37082366  0.65004010  0.00000177  1
  B  B4  1  0.47516288  0.19187315  0.50000015  1
  B  B5  1  0.52483139  0.80811965  0.50000226  1
  B  B6  1  0.97516459  0.30811483  0.50000254  1
  B  B7  1  0.02484368  0.69188698  0.50000064  1
  B  B8  1  0.28641185  0.31502065  0.50000155  1
  B  B9  1  0.71357867  0.68498121  0.50000170  1
  B  B10  1  0.78639880  0.18497135  0.50000246  1
  B  B11  1  0.21359858  0.81502950  0.50000104  1
  B  B12  1  0.36406782  0.46944166  0.50000103  1
  B  B13  1  0.63592774  0.53056203  0.50000194  1
  B  B14  1  0.86405235  0.03055085  0.50000220  1
  B  B15  1  0.13594087  0.96943816  0.50000167  1
  B  B16  1  0.38650737  0.04745189  0.49999987  1
  B  B17  1  0.61348424  0.95254025  0.50000218  1
  B  B18  1  0.88651041  0.45254377  0.50000098  1
  B  B19  1  0.11348942  0.54745847  0.50000183  1
  Os  Os20  1  0.13589125  0.41164454  0.00000172  1
  Os  Os21  1  0.86410663  0.58835891  0.00000209  1
  Os  Os22  1  0.63595501  0.08839002  -0.00000050  1
  Os  Os23  1  0.36405769  0.91161121  -0.00000076  1
