# generated using pymatgen
data_EuMgGe
_symmetry_space_group_name_H-M   'P 1'
_cell_length_a   7.66810297
_cell_length_b   4.54708499
_cell_length_c   8.50153268
_cell_angle_alpha   90.00196711
_cell_angle_beta   89.99984677
_cell_angle_gamma   90.00001591
_symmetry_Int_Tables_number   1
_chemical_formula_structural   EuMgGe
_chemical_formula_sum   'Eu4 Mg4 Ge4'
_cell_volume   296.42732595
_cell_formula_units_Z   4
loop_
 _symmetry_equiv_pos_site_id
 _symmetry_equiv_pos_as_xyz
  1  'x, y, z'
loop_
 _atom_site_type_symbol
 _atom_site_label
 _atom_site_symmetry_multiplicity
 _atom_site_fract_x
 _atom_site_fract_y
 _atom_site_fract_z
 _atom_site_occupancy
  Eu  Eu0  1  0.48257473  0.74999852  0.18219267  1
  Eu  Eu1  1  0.98257651  0.74999915  0.31780372  1
  Eu  Eu2  1  0.01742054  0.25000052  0.68220895  1
  Eu  Eu3  1  0.51741544  0.25000902  0.81777154  1
  Mg  Mg4  1  0.14438296  0.24999971  0.06435801  1
  Mg  Mg5  1  0.64437905  0.25000094  0.43565210  1
  Mg  Mg6  1  0.35562847  0.74999967  0.56437578  1
  Mg  Mg7  1  0.85562213  0.74999915  0.93563649  1
  Ge  Ge8  1  0.77373861  0.25000227  0.11228099  1
  Ge  Ge9  1  0.27373749  0.24999839  0.38771107  1
  Ge  Ge10  1  0.72624822  0.75000093  0.61230940  1
  Ge  Ge11  1  0.22627585  0.74999772  0.88769729  1
