# generated using pymatgen
data_Th2Ni7
_symmetry_space_group_name_H-M   'P 1'
_cell_length_a   4.97419174
_cell_length_b   4.97433856
_cell_length_c   24.76198765
_cell_angle_alpha   89.99969545
_cell_angle_beta   89.99910957
_cell_angle_gamma   120.00553135
_symmetry_Int_Tables_number   1
_chemical_formula_structural   Th2Ni7
_chemical_formula_sum   'Th8 Ni28'
_cell_volume   530.57867045
_cell_formula_units_Z   4
loop_
 _symmetry_equiv_pos_site_id
 _symmetry_equiv_pos_as_xyz
  1  'x, y, z'
loop_
 _atom_site_type_symbol
 _atom_site_label
 _atom_site_symmetry_multiplicity
 _atom_site_fract_x
 _atom_site_fract_y
 _atom_site_fract_z
 _atom_site_occupancy
  Th  Th0  1  0.33330671  0.66664810  0.17566506  1
  Th  Th1  1  0.66663309  0.33333047  0.67567106  1
  Th  Th2  1  0.66660649  0.33332988  0.82433514  1
  Th  Th3  1  0.33332301  0.66665563  0.32434513  1
  Th  Th4  1  0.33331181  0.66666737  0.03195176  1
  Th  Th5  1  0.66666073  0.33333862  0.53197824  1
  Th  Th6  1  0.66663060  0.33333773  0.96801773  1
  Th  Th7  1  0.33333494  0.66667090  0.46802867  1
  Ni  Ni8  1  0.83344694  0.66682054  0.24998663  1
  Ni  Ni9  1  0.16661553  0.33322428  0.75001970  1
  Ni  Ni10  1  0.33322357  0.16664556  0.24998360  1
  Ni  Ni11  1  0.83344641  0.16662830  0.24999779  1
  Ni  Ni12  1  0.16661303  0.83341294  0.75001121  1
  Ni  Ni13  1  0.66674394  0.83342131  0.75000962  1
  Ni  Ni14  1  0.83276223  0.66554127  0.08553923  1
  Ni  Ni15  1  0.16724786  0.33445240  0.58556308  1
  Ni  Ni16  1  0.33443140  0.16729971  0.08554496  1
  Ni  Ni17  1  0.83267598  0.16720012  0.08553938  1
  Ni  Ni18  1  0.16724005  0.83276756  0.58557906  1
  Ni  Ni19  1  0.66556003  0.83276535  0.58556548  1
  Ni  Ni20  1  0.16716859  0.33440962  0.91444145  1
  Ni  Ni21  1  0.16706160  0.83271958  0.91443201  1
  Ni  Ni22  1  0.66546153  0.83282614  0.91446186  1
  Ni  Ni23  1  0.33446365  0.16723857  0.41445721  1
  Ni  Ni24  1  0.83279067  0.16723405  0.41443499  1
  Ni  Ni25  1  0.83278634  0.66555927  0.41445463  1
  Ni  Ni26  1  0.00015633  0.00001546  0.00001457  1
  Ni  Ni27  1  0.99992034  0.00004051  0.49998917  1
  Ni  Ni28  1  0.99997535  0.99994666  0.16737594  1
  Ni  Ni29  1  0.99996032  0.00001691  0.66742435  1
  Ni  Ni30  1  0.99988511  0.99995733  0.83258052  1
  Ni  Ni31  1  0.00009128  0.99990766  0.33257712  1
  Ni  Ni32  1  0.33335981  0.66665386  0.83247536  1
  Ni  Ni33  1  0.66672874  0.33330972  0.33245625  1
  Ni  Ni34  1  0.66671903  0.33334680  0.16753876  1
  Ni  Ni35  1  0.33335699  0.66665081  0.66755427  1
