# generated using pymatgen
data_YbB2C
_symmetry_space_group_name_H-M   'P 1'
_cell_length_a   6.73912182
_cell_length_b   6.73910810
_cell_length_c   7.64514551
_cell_angle_alpha   90.00005250
_cell_angle_beta   89.99987372
_cell_angle_gamma   90.00004914
_symmetry_Int_Tables_number   1
_chemical_formula_structural   YbB2C
_chemical_formula_sum   'Yb8 B16 C8'
_cell_volume   347.20940898
_cell_formula_units_Z   8
loop_
 _symmetry_equiv_pos_site_id
 _symmetry_equiv_pos_as_xyz
  1  'x, y, z'
loop_
 _atom_site_type_symbol
 _atom_site_label
 _atom_site_symmetry_multiplicity
 _atom_site_fract_x
 _atom_site_fract_y
 _atom_site_fract_z
 _atom_site_occupancy
  Yb  Yb0  1  0.31482487  0.81482426  0.25000091  1
  Yb  Yb1  1  0.68517641  0.18517766  0.24999939  1
  Yb  Yb2  1  0.81482467  0.68517556  0.75000320  1
  Yb  Yb3  1  0.18517617  0.31482304  0.75000143  1
  Yb  Yb4  1  0.68517582  0.18517699  0.75000018  1
  Yb  Yb5  1  0.31482240  0.81482226  0.75000024  1
  Yb  Yb6  1  0.18517425  0.31482481  0.25000002  1
  Yb  Yb7  1  0.81482400  0.68517676  0.25000072  1
  B  B8  1  0.40467035  0.09715496  0.00000035  1
  B  B9  1  0.59532899  0.90284395  0.00000055  1
  B  B10  1  0.90467087  0.40284639  0.00000023  1
  B  B11  1  0.09533027  0.59715246  0.99999926  1
  B  B12  1  0.90284522  0.40467280  0.49999985  1
  B  B13  1  0.09715597  0.59532913  0.49999979  1
  B  B14  1  0.59715401  0.90467047  0.50000008  1
  B  B15  1  0.40284563  0.09532909  0.49999928  1
  B  B16  1  0.14991217  0.03505572  0.00000011  1
  B  B17  1  0.85008669  0.96494238  0.00000043  1
  B  B18  1  0.64991363  0.46494352  0.00000006  1
  B  B19  1  0.35008785  0.53505607  -0.00000030  1
  B  B20  1  0.46494428  0.35008662  0.49999995  1
  B  B21  1  0.53505716  0.64991318  0.50000048  1
  B  B22  1  0.03505532  0.85008873  0.50000002  1
  B  B23  1  0.96494374  0.14991300  0.50000112  1
  C  C24  1  0.45900142  0.32264210  0.00000052  1
  C  C25  1  0.54099989  0.67735498  -0.00000073  1
  C  C26  1  0.95899990  0.17735291  0.00000150  1
  C  C27  1  0.04099800  0.82264596  -0.00000128  1
  C  C28  1  0.17735518  0.04099943  0.49999933  1
  C  C29  1  0.82264537  0.95900348  0.50000143  1
  C  C30  1  0.32264198  0.54100028  0.50000050  1
  C  C31  1  0.67735652  0.45900006  0.49999939  1
