# generated using pymatgen
data_SmPb3
_symmetry_space_group_name_H-M   'P 1'
_cell_length_a   4.99804852
_cell_length_b   4.98824638
_cell_length_c   4.99699009
_cell_angle_alpha   89.96279056
_cell_angle_beta   89.76900100
_cell_angle_gamma   89.65090481
_symmetry_Int_Tables_number   1
_chemical_formula_structural   SmPb3
_chemical_formula_sum   'Sm1 Pb3'
_cell_volume   124.57909626
_cell_formula_units_Z   1
loop_
 _symmetry_equiv_pos_site_id
 _symmetry_equiv_pos_as_xyz
  1  'x, y, z'
loop_
 _atom_site_type_symbol
 _atom_site_label
 _atom_site_symmetry_multiplicity
 _atom_site_fract_x
 _atom_site_fract_y
 _atom_site_fract_z
 _atom_site_occupancy
  Sm  Sm0  1  0.99980417  0.00011315  0.00028735  1
  Pb  Pb1  1  0.00023806  0.50028119  0.49938333  1
  Pb  Pb2  1  0.50009029  0.99984670  0.50001345  1
  Pb  Pb3  1  0.49987048  0.49976195  0.00031887  1
