# generated using pymatgen
data_Te2MoWSeS
_symmetry_space_group_name_H-M   'P 1'
_cell_length_a   3.39765559
_cell_length_b   3.39762231
_cell_length_c   40.44843016
_cell_angle_alpha   89.99609642
_cell_angle_beta   89.99969289
_cell_angle_gamma   119.99981223
_symmetry_Int_Tables_number   1
_chemical_formula_structural   Te2MoWSeS
_chemical_formula_sum   'Te4 Mo2 W2 Se2 S2'
_cell_volume   404.37805274
_cell_formula_units_Z   2
loop_
 _symmetry_equiv_pos_site_id
 _symmetry_equiv_pos_as_xyz
  1  'x, y, z'
loop_
 _atom_site_type_symbol
 _atom_site_label
 _atom_site_symmetry_multiplicity
 _atom_site_fract_x
 _atom_site_fract_y
 _atom_site_fract_z
 _atom_site_occupancy
  Te  Te0  1  0.33329551  0.66659141  0.70613111  1
  Te  Te1  1  0.66675428  0.33350270  0.42141972  1
  Te  Te2  1  0.66671461  0.33344699  0.51414795  1
  Te  Te3  1  0.33349670  0.66701263  0.61293356  1
  Mo  Mo4  1  0.33338349  0.66677480  0.46777215  1
  Mo  Mo5  1  0.66669091  0.33336997  0.28167895  1
  W  W6  1  0.33318630  0.66636147  0.09389614  1
  W  W7  1  0.66676093  0.33351947  0.65954451  1
  Se  Se8  1  0.66650263  0.33296954  0.05298003  1
  Se  Se9  1  0.66655194  0.33310526  0.13484048  1
  S  S10  1  0.33330727  0.66663464  0.31884102  1
  S  S11  1  0.33335545  0.66671111  0.24456238  1
