# generated using pymatgen
data_CsTi6O12
_symmetry_space_group_name_H-M   'P 1'
_cell_length_a   8.61064863
_cell_length_b   8.61064863
_cell_length_c   8.61064863
_cell_angle_alpha   105.67626177
_cell_angle_beta   117.36109672
_cell_angle_gamma   105.67626177
_symmetry_Int_Tables_number   1
_chemical_formula_structural   CsTi6O12
_chemical_formula_sum   'Cs2 Ti12 O24'
_cell_volume   484.37805351
_cell_formula_units_Z   2
loop_
 _symmetry_equiv_pos_site_id
 _symmetry_equiv_pos_as_xyz
  1  'x, y, z'
loop_
 _atom_site_type_symbol
 _atom_site_label
 _atom_site_symmetry_multiplicity
 _atom_site_fract_x
 _atom_site_fract_y
 _atom_site_fract_z
 _atom_site_occupancy
  Cs  Cs0  1  0.87534725  0.00000000  0.87534725  1
  Cs  Cs1  1  0.45798575  0.00000000  0.45798575  1
  Ti  Ti2  1  0.83315902  0.51486848  0.01504246  1
  Ti  Ti3  1  0.98457472  0.81639509  0.49725167  1
  Ti  Ti4  1  0.65247742  0.81639509  0.16515436  1
  Ti  Ti5  1  0.68085658  0.18360491  0.16817864  1
  Ti  Ti6  1  0.83608233  0.48732306  0.65247742  1
  Ti  Ti7  1  0.50017398  0.48513152  0.31829054  1
  Ti  Ti8  1  0.49725167  0.51267694  0.68085658  1
  Ti  Ti9  1  0.16515436  0.51267694  0.34875928  1
  Ti  Ti10  1  0.31829054  0.81811656  0.83315902  1
  Ti  Ti11  1  0.34875928  0.18360491  0.83608233  1
  Ti  Ti12  1  0.01504246  0.18188344  0.50017398  1
  Ti  Ti13  1  0.16817864  0.48732306  0.98457472  1
  O  O14  1  0.83267500  0.70413922  0.20479722  1
  O  O15  1  0.49114741  0.94867394  0.12311283  1
  O  O16  1  0.82353600  0.94874442  0.45854243  1
  O  O17  1  0.87156675  0.37091331  0.16665597  1
  O  O18  1  0.79574267  0.62908669  0.50065445  1
  O  O19  1  0.46176625  0.62908669  0.16667803  1
  O  O20  1  0.84218659  0.05132606  0.21022017  1
  O  O21  1  0.83267955  0.29508822  0.46176625  1
  O  O22  1  0.50065800  0.29586078  0.12853578  1
  O  O23  1  0.79086053  0.63196642  0.84218659  1
  O  O24  1  0.45854243  0.63500643  0.50979800  1
  O  O25  1  0.12311283  0.63196642  0.17443889  1
  O  O26  1  0.54247347  0.36803358  0.49114741  1
  O  O27  1  0.21022017  0.36803358  0.15889411  1
  O  O28  1  0.87479157  0.36499357  0.82353600  1
  O  O29  1  0.50065445  0.70491178  0.87156675  1
  O  O30  1  0.16667803  0.70491178  0.53759033  1
  O  O31  1  0.15889411  0.94867394  0.79086053  1
  O  O32  1  0.53759033  0.37091331  0.83267955  1
  O  O33  1  0.20479722  0.37212221  0.50065800  1
  O  O34  1  0.12853578  0.62787779  0.83267500  1
  O  O35  1  0.50979800  0.05125558  0.87479157  1
  O  O36  1  0.17443889  0.05132606  0.54247347  1
  O  O37  1  0.16665597  0.29508822  0.79574267  1
