# generated using pymatgen
data_Sc3OsC4
_symmetry_space_group_name_H-M   'P 1'
_cell_length_a   4.48400990
_cell_length_b   6.71752355
_cell_length_c   6.80742455
_cell_angle_alpha   104.30891175
_cell_angle_beta   109.22915116
_cell_angle_gamma   90.00000000
_symmetry_Int_Tables_number   1
_chemical_formula_structural   Sc3OsC4
_chemical_formula_sum   'Sc6 Os2 C8'
_cell_volume   186.85928807
_cell_formula_units_Z   2
loop_
 _symmetry_equiv_pos_site_id
 _symmetry_equiv_pos_as_xyz
  1  'x, y, z'
loop_
 _atom_site_type_symbol
 _atom_site_label
 _atom_site_symmetry_multiplicity
 _atom_site_fract_x
 _atom_site_fract_y
 _atom_site_fract_z
 _atom_site_occupancy
  Sc  Sc0  1  0.49999900  0.00000000  0.00000000  1
  Sc  Sc1  1  0.50000000  0.50000100  0.00000100  1
  Sc  Sc2  1  0.18952252  0.09441617  0.37904505  1
  Sc  Sc3  1  0.19175819  0.59631035  0.38351637  1
  Sc  Sc4  1  0.80824181  0.40368965  0.61648463  1
  Sc  Sc5  1  0.81047748  0.90558383  0.62095595  1
  Os  Os6  1  0.00029567  0.73618202  0.00059134  1
  Os  Os7  1  0.99970433  0.26381798  0.99940866  1
  C  C8  1  0.46651634  0.31469802  0.25467778  1
  C  C9  1  0.78816244  0.31469802  0.25467778  1
  C  C10  1  0.46789934  0.81325146  0.25655831  1
  C  C11  1  0.78865698  0.81325146  0.25655831  1
  C  C12  1  0.21134202  0.18674854  0.74344269  1
  C  C13  1  0.53209966  0.18674854  0.74344269  1
  C  C14  1  0.21183856  0.68529998  0.74532022  1
  C  C15  1  0.53348266  0.68529998  0.74532022  1
