# generated using pymatgen
data_KNpCuS3
_symmetry_space_group_name_H-M   'P 1'
_cell_length_a   3.97502892
_cell_length_b   7.25251362
_cell_length_c   10.19044161
_cell_angle_alpha   90.00000000
_cell_angle_beta   90.00000000
_cell_angle_gamma   74.09489883
_symmetry_Int_Tables_number   1
_chemical_formula_structural   KNpCuS3
_chemical_formula_sum   'K2 Np2 Cu2 S6'
_cell_volume   282.53295057
_cell_formula_units_Z   2
loop_
 _symmetry_equiv_pos_site_id
 _symmetry_equiv_pos_as_xyz
  1  'x, y, z'
loop_
 _atom_site_type_symbol
 _atom_site_label
 _atom_site_symmetry_multiplicity
 _atom_site_fract_x
 _atom_site_fract_y
 _atom_site_fract_z
 _atom_site_occupancy
  K  K0  1  0.74298693  0.51402614  0.25000000  1
  K  K1  1  0.25701307  0.48597386  0.75000000  1
  Np  Np2  1  0.00000000  0.00000000  0.00000000  1
  Np  Np3  1  0.00000000  0.00000000  0.50000000  1
  Cu  Cu4  1  0.46579467  0.06841167  0.25000000  1
  Cu  Cu5  1  0.53420633  0.93158933  0.75000000  1
  S  S6  1  0.37644973  0.24710155  0.06068651  1
  S  S7  1  0.06097891  0.87804217  0.25000000  1
  S  S8  1  0.37644973  0.24710155  0.43931249  1
  S  S9  1  0.62355027  0.75289945  0.56068651  1
  S  S10  1  0.93902109  0.12195883  0.75000000  1
  S  S11  1  0.62355027  0.75289945  0.93931349  1
