# generated using pymatgen
data_Pr3MnAlS7
_symmetry_space_group_name_H-M   'P 1'
_cell_length_a   10.09304223
_cell_length_b   10.09286274
_cell_length_c   6.10901121
_cell_angle_alpha   90.00009337
_cell_angle_beta   89.99991294
_cell_angle_gamma   120.00813340
_symmetry_Int_Tables_number   1
_chemical_formula_structural   Pr3MnAlS7
_chemical_formula_sum   'Pr6 Mn2 Al2 S14'
_cell_volume   538.89283763
_cell_formula_units_Z   2
loop_
 _symmetry_equiv_pos_site_id
 _symmetry_equiv_pos_as_xyz
  1  'x, y, z'
loop_
 _atom_site_type_symbol
 _atom_site_label
 _atom_site_symmetry_multiplicity
 _atom_site_fract_x
 _atom_site_fract_y
 _atom_site_fract_z
 _atom_site_occupancy
  Pr  Pr0  1  0.14468727  0.37614385  0.24277738  1
  Pr  Pr1  1  0.85531304  0.62385628  0.74277953  1
  Pr  Pr2  1  0.62384299  0.76850341  0.24286725  1
  Pr  Pr3  1  0.23144094  0.85527877  0.24286413  1
  Pr  Pr4  1  0.76855883  0.14472026  0.74286389  1
  Pr  Pr5  1  0.37615709  0.23149683  0.74286714  1
  Mn  Mn6  1  0.00000865  0.99986818  0.01872257  1
  Mn  Mn7  1  0.99998819  0.00012817  0.51872289  1
  Al  Al8  1  0.33326460  0.66663632  0.66431904  1
  Al  Al9  1  0.66673494  0.33336397  0.16431879  1
  S  S10  1  0.33335324  0.66668613  0.02929015  1
  S  S11  1  0.66664635  0.33331465  0.52928967  1
  S  S12  1  0.09314717  0.23785118  0.79151977  1
  S  S13  1  0.90685335  0.76214843  0.29152071  1
  S  S14  1  0.76206305  0.85525861  0.79141467  1
  S  S15  1  0.14473924  0.90682969  0.79137750  1
  S  S16  1  0.85526007  0.09317051  0.29137541  1
  S  S17  1  0.23793796  0.14474321  0.29141568  1
  S  S18  1  0.42138764  0.52056433  0.51728936  1
  S  S19  1  0.57861251  0.47943627  0.01729016  1
  S  S20  1  0.47939868  0.90083671  0.51724424  1
  S  S21  1  0.09911142  0.57848692  0.51731229  1
  S  S22  1  0.90088755  0.42151301  0.01731084  1
  S  S23  1  0.52060123  0.09916432  0.01724393  1
