# generated using pymatgen
data_Ba2SrIrO6
_symmetry_space_group_name_H-M   'P 1'
_cell_length_a   6.13383187
_cell_length_b   6.13383187
_cell_length_c   6.13383187
_cell_angle_alpha   59.98273821
_cell_angle_beta   59.98273829
_cell_angle_gamma   59.98273819
_symmetry_Int_Tables_number   1
_chemical_formula_structural   Ba2SrIrO6
_chemical_formula_sum   'Ba2 Sr1 Ir1 O6'
_cell_volume   163.12126637
_cell_formula_units_Z   1
loop_
 _symmetry_equiv_pos_site_id
 _symmetry_equiv_pos_as_xyz
  1  'x, y, z'
loop_
 _atom_site_type_symbol
 _atom_site_label
 _atom_site_symmetry_multiplicity
 _atom_site_fract_x
 _atom_site_fract_y
 _atom_site_fract_z
 _atom_site_occupancy
  O  O0  1  0.27522506  0.27522506  0.72488036  1
  O  O1  1  0.27522506  0.72488036  0.27522506  1
  O  O2  1  0.72488036  0.27522506  0.27522506  1
  O  O3  1  0.27511964  0.72477494  0.72477494  1
  O  O4  1  0.72477494  0.27511964  0.72477494  1
  O  O5  1  0.72477494  0.72477494  0.27511964  1
  Sr  Sr6  1  0.00000000  0.00000000  0.00000000  1
  Ba  Ba7  1  0.24990286  0.24990286  0.24990286  1
  Ba  Ba8  1  0.75009714  0.75009714  0.75009714  1
  Ir  Ir9  1  0.50000000  0.50000000  0.50000000  1
