# generated using pymatgen
data_Te2MoWSeS
_symmetry_space_group_name_H-M   'P 1'
_cell_length_a   3.39817298
_cell_length_b   3.39826300
_cell_length_c   38.71046090
_cell_angle_alpha   90.00031211
_cell_angle_beta   90.00000000
_cell_angle_gamma   119.99912375
_symmetry_Int_Tables_number   1
_chemical_formula_structural   Te2MoWSeS
_chemical_formula_sum   'Te4 Mo2 W2 Se2 S2'
_cell_volume   387.13753237
_cell_formula_units_Z   2
loop_
 _symmetry_equiv_pos_site_id
 _symmetry_equiv_pos_as_xyz
  1  'x, y, z'
loop_
 _atom_site_type_symbol
 _atom_site_label
 _atom_site_symmetry_multiplicity
 _atom_site_fract_x
 _atom_site_fract_y
 _atom_site_fract_z
 _atom_site_occupancy
  Te  Te0  1  0.33335315  0.66670729  0.70620152  1
  Te  Te1  1  0.66664920  0.33329741  0.04553535  1
  Te  Te2  1  0.66664732  0.33329364  0.14228293  1
  Te  Te3  1  0.33335186  0.66670473  0.60884206  1
  Mo  Mo4  1  0.33331228  0.66662456  0.09389607  1
  Mo  Mo5  1  0.33330900  0.66661800  0.46965996  1
  W  W6  1  0.66668734  0.33337468  0.28182389  1
  W  W7  1  0.66668942  0.33337884  0.65754581  1
  Se  Se8  1  0.33335195  0.66670490  0.32459989  1
  Se  Se9  1  0.33334936  0.66669972  0.23903791  1
  S  S10  1  0.66664882  0.33329665  0.43082437  1
  S  S11  1  0.66665029  0.33329958  0.50849824  1
