# generated using pymatgen
data_Te2MoWSeS
_symmetry_space_group_name_H-M   'P 1'
_cell_length_a   3.39799923
_cell_length_b   3.39804003
_cell_length_c   39.18178240
_cell_angle_alpha   89.99945273
_cell_angle_beta   90.00000000
_cell_angle_gamma   119.99960272
_symmetry_Int_Tables_number   1
_chemical_formula_structural   Te2MoWSeS
_chemical_formula_sum   'Te4 Mo2 W2 Se2 S2'
_cell_volume   391.80351286
_cell_formula_units_Z   2
loop_
 _symmetry_equiv_pos_site_id
 _symmetry_equiv_pos_as_xyz
  1  'x, y, z'
loop_
 _atom_site_type_symbol
 _atom_site_label
 _atom_site_symmetry_multiplicity
 _atom_site_fract_x
 _atom_site_fract_y
 _atom_site_fract_z
 _atom_site_occupancy
  Te  Te0  1  0.33333257  0.66666614  0.33034767  1
  Te  Te1  1  0.66666555  0.33333011  0.04557231  1
  Te  Te2  1  0.66667079  0.33334058  0.14122069  1
  Te  Te3  1  0.33333827  0.66667753  0.23419866  1
  Mo  Mo4  1  0.33331681  0.66663361  0.09337517  1
  Mo  Mo5  1  0.33330444  0.66660888  0.46964740  1
  W  W6  1  0.66668921  0.33337843  0.28231531  1
  W  W7  1  0.66668476  0.33336951  0.65757012  1
  Se  Se8  1  0.33333384  0.66666868  0.69980808  1
  Se  Se9  1  0.33332952  0.66666005  0.61536467  1
  S  S10  1  0.66666978  0.33333857  0.43131351  1
  S  S11  1  0.66666445  0.33332790  0.50801440  1
