# generated using pymatgen
data_Te2MoWSeS
_symmetry_space_group_name_H-M   'P 1'
_cell_length_a   3.39958348
_cell_length_b   3.39958300
_cell_length_c   38.72243436
_cell_angle_alpha   90.00022722
_cell_angle_beta   89.99999533
_cell_angle_gamma   120.00000468
_symmetry_Int_Tables_number   1
_chemical_formula_structural   Te2MoWSeS
_chemical_formula_sum   'Te4 Mo2 W2 Se2 S2'
_cell_volume   387.56506435
_cell_formula_units_Z   2
loop_
 _symmetry_equiv_pos_site_id
 _symmetry_equiv_pos_as_xyz
  1  'x, y, z'
loop_
 _atom_site_type_symbol
 _atom_site_label
 _atom_site_symmetry_multiplicity
 _atom_site_fract_x
 _atom_site_fract_y
 _atom_site_fract_z
 _atom_site_occupancy
  Te  Te0  1  0.33335469  0.66670974  0.70620876  1
  Te  Te1  1  0.66664586  0.33329118  0.04553935  1
  Te  Te2  1  0.66664565  0.33329092  0.14233547  1
  Te  Te3  1  0.33334754  0.66669532  0.60889110  1
  Mo  Mo4  1  0.33330942  0.66661790  0.09390257  1
  Mo  Mo5  1  0.66669491  0.33339073  0.28178830  1
  W  W6  1  0.33330882  0.66661665  0.46964735  1
  W  W7  1  0.66669058  0.33338207  0.65757806  1
  Se  Se8  1  0.66664746  0.33329459  0.42684650  1
  Se  Se9  1  0.66664496  0.33328957  0.51243187  1
  S  S10  1  0.33335645  0.66671327  0.32053768  1
  S  S11  1  0.33335367  0.66670806  0.24304099  1
