# generated using pymatgen
data_TbMgNi
_symmetry_space_group_name_H-M   'P 1'
_cell_length_a   3.68086574
_cell_length_b   3.95898212
_cell_length_c   9.00798382
_cell_angle_alpha   90.00000000
_cell_angle_beta   101.78918332
_cell_angle_gamma   90.00000000
_symmetry_Int_Tables_number   1
_chemical_formula_structural   TbMgNi
_chemical_formula_sum   'Tb2 Mg2 Ni2'
_cell_volume   128.49969444
_cell_formula_units_Z   2
loop_
 _symmetry_equiv_pos_site_id
 _symmetry_equiv_pos_as_xyz
  1  'x, y, z'
loop_
 _atom_site_type_symbol
 _atom_site_label
 _atom_site_symmetry_multiplicity
 _atom_site_fract_x
 _atom_site_fract_y
 _atom_site_fract_z
 _atom_site_occupancy
  Tb  Tb0  1  0.58665512  0.75000000  0.17331025  1
  Tb  Tb1  1  0.41334488  0.25000000  0.82668975  1
  Mg  Mg2  1  0.79771853  0.75000000  0.59543706  1
  Mg  Mg3  1  0.20228147  0.25000000  0.40456294  1
  Ni  Ni4  1  0.95724910  0.75000000  0.91449820  1
  Ni  Ni5  1  0.04275090  0.25000000  0.08550180  1
