# generated using pymatgen
data_V3GeN
_symmetry_space_group_name_H-M   'P 1'
_cell_length_a   3.04801438
_cell_length_b   5.30173458
_cell_length_c   7.73047372
_cell_angle_alpha   90.00000000
_cell_angle_beta   90.00000000
_cell_angle_gamma   106.70561252
_symmetry_Int_Tables_number   1
_chemical_formula_structural   V3GeN
_chemical_formula_sum   'V6 Ge2 N2'
_cell_volume   119.65018325
_cell_formula_units_Z   2
loop_
 _symmetry_equiv_pos_site_id
 _symmetry_equiv_pos_as_xyz
  1  'x, y, z'
loop_
 _atom_site_type_symbol
 _atom_site_label
 _atom_site_symmetry_multiplicity
 _atom_site_fract_x
 _atom_site_fract_y
 _atom_site_fract_z
 _atom_site_occupancy
  V  V0  1  0.03964298  0.07928597  0.25000000  1
  V  V1  1  0.96035702  0.92071403  0.75000000  1
  V  V2  1  0.37442623  0.74885246  0.45469447  1
  V  V3  1  0.62557377  0.25114754  0.54530553  1
  V  V4  1  0.37442623  0.74885246  0.04530553  1
  V  V5  1  0.62557377  0.25114754  0.95469447  1
  Ge  Ge6  1  0.74358387  0.48716773  0.25000000  1
  Ge  Ge7  1  0.25641613  0.51283227  0.75000000  1
  N  N8  1  0.00000000  -0.00000000  0.50000000  1
  N  N9  1  0.00000000  -0.00000000  0.00000000  1
