# generated using pymatgen
data_NdAl2Pt3
_symmetry_space_group_name_H-M   'P 1'
_cell_length_a   3.98679553
_cell_length_b   5.61977328
_cell_length_c   5.61977311
_cell_angle_alpha   59.96906351
_cell_angle_beta   90.00000000
_cell_angle_gamma   90.00000000
_symmetry_Int_Tables_number   1
_chemical_formula_structural   NdAl2Pt3
_chemical_formula_sum   'Nd1 Al2 Pt3'
_cell_volume   109.00758079
_cell_formula_units_Z   1
loop_
 _symmetry_equiv_pos_site_id
 _symmetry_equiv_pos_as_xyz
  1  'x, y, z'
loop_
 _atom_site_type_symbol
 _atom_site_label
 _atom_site_symmetry_multiplicity
 _atom_site_fract_x
 _atom_site_fract_y
 _atom_site_fract_z
 _atom_site_occupancy
  Nd  Nd0  1  0.00000000  0.99996214  0.00003786  1
  Al  Al1  1  0.00000000  0.33324956  0.33331473  1
  Al  Al2  1  -0.00000000  0.66668527  0.66675044  1
  Pt  Pt3  1  0.50000000  0.50000327  0.49999673  1
  Pt  Pt4  1  0.50000000  0.50000110  0.00000134  1
  Pt  Pt5  1  0.50000000  -0.00000134  0.49999890  1
