# generated using pymatgen
data_Np(PS3)4
_symmetry_space_group_name_H-M   'P 1'
_cell_length_a   9.87589106
_cell_length_b   10.58747371
_cell_length_c   10.58747371
_cell_angle_alpha   77.43633177
_cell_angle_beta   62.19945408
_cell_angle_gamma   62.19945408
_symmetry_Int_Tables_number   1
_chemical_formula_structural   Np(PS3)4
_chemical_formula_sum   'Np2 P8 S24'
_cell_volume   866.22718041
_cell_formula_units_Z   2
loop_
 _symmetry_equiv_pos_site_id
 _symmetry_equiv_pos_as_xyz
  1  'x, y, z'
loop_
 _atom_site_type_symbol
 _atom_site_label
 _atom_site_symmetry_multiplicity
 _atom_site_fract_x
 _atom_site_fract_y
 _atom_site_fract_z
 _atom_site_occupancy
  Np  Np0  1  0.62500000  0.25000000  0.25000000  1
  Np  Np1  1  0.37500000  0.75000000  0.75000000  1
  P  P2  1  0.88690134  0.05970954  0.42761467  1
  P  P3  1  0.87422555  0.44029046  0.07238533  1
  P  P4  1  0.81451601  0.57238533  0.55970954  1
  P  P5  1  0.44661089  0.92761467  0.94029046  1
  P  P6  1  0.11309866  0.94029046  0.57238533  1
  P  P7  1  0.12577445  0.55970954  0.92761467  1
  P  P8  1  0.18548399  0.42761467  0.44029046  1
  P  P9  1  0.55338911  0.07238533  0.05970954  1
  S  S10  1  0.00616291  0.48423996  0.35524633  1
  S  S11  1  0.34564920  0.01576004  0.14475367  1
  S  S12  1  0.86140923  0.64475367  0.98423996  1
  S  S13  1  0.99040287  0.85524633  0.51576004  1
  S  S14  1  0.99383709  0.51576004  0.64475367  1
  S  S15  1  0.65435080  0.98423996  0.85524633  1
  S  S16  1  0.13859077  0.35524633  0.01576004  1
  S  S17  1  0.00959713  0.14475367  0.48423996  1
  S  S18  1  0.67798830  0.78353282  0.55145806  1
  S  S19  1  0.51297918  0.71646718  0.94854194  1
  S  S20  1  0.72944636  0.44854194  0.28353282  1
  S  S21  1  0.96152112  0.05145806  0.21646718  1
  S  S22  1  0.32201170  0.21646718  0.44854194  1
  S  S23  1  0.48702082  0.28353282  0.05145806  1
  S  S24  1  0.27055364  0.55145806  0.71646718  1
  S  S25  1  0.03847888  0.94854194  0.78353282  1
  S  S26  1  0.63418018  0.16351619  0.51928979  1
  S  S27  1  0.81698616  0.33648381  0.98071021  1
  S  S28  1  0.65346996  0.48071021  0.66351619  1
  S  S29  1  0.29769637  0.01928979  0.83648381  1
  S  S30  1  0.36581982  0.83648381  0.48071021  1
  S  S31  1  0.18301384  0.66351619  0.01928979  1
  S  S32  1  0.34653004  0.51928979  0.33648381  1
  S  S33  1  0.70230363  0.98071021  0.16351619  1
