# generated using pymatgen
data_HfCrGe2
_symmetry_space_group_name_H-M   'P 1'
_cell_length_a   8.16733701
_cell_length_b   9.26422435
_cell_length_c   10.00192261
_cell_angle_alpha   90.00000000
_cell_angle_beta   90.00000000
_cell_angle_gamma   90.00000000
_symmetry_Int_Tables_number   1
_chemical_formula_structural   HfCrGe2
_chemical_formula_sum   'Hf12 Cr12 Ge24'
_cell_volume   756.78589647
_cell_formula_units_Z   12
loop_
 _symmetry_equiv_pos_site_id
 _symmetry_equiv_pos_as_xyz
  1  'x, y, z'
loop_
 _atom_site_type_symbol
 _atom_site_label
 _atom_site_symmetry_multiplicity
 _atom_site_fract_x
 _atom_site_fract_y
 _atom_site_fract_z
 _atom_site_occupancy
  Hf  Hf0  1  0.74528331  0.82874397  0.04729736  1
  Hf  Hf1  1  0.74528331  0.17125603  0.95270264  1
  Hf  Hf2  1  0.25471669  0.67125603  0.54729736  1
  Hf  Hf3  1  0.25471669  0.32874397  0.45270264  1
  Hf  Hf4  1  0.25471669  0.17125603  0.95270264  1
  Hf  Hf5  1  0.25471669  0.82874397  0.04729736  1
  Hf  Hf6  1  0.74528331  0.32874397  0.45270264  1
  Hf  Hf7  1  0.74528331  0.67125603  0.54729736  1
  Hf  Hf8  1  0.50000000  0.83429166  0.32134228  1
  Hf  Hf9  1  0.50000000  0.16570834  0.67865772  1
  Hf  Hf10  1  0.50000000  0.66570834  0.82134228  1
  Hf  Hf11  1  0.50000000  0.33429166  0.17865772  1
  Cr  Cr12  1  0.74878441  0.58517178  0.24757242  1
  Cr  Cr13  1  0.74878441  0.41482822  0.75242758  1
  Cr  Cr14  1  0.25121559  0.91482822  0.74757242  1
  Cr  Cr15  1  0.25121559  0.08517178  0.25242758  1
  Cr  Cr16  1  0.25121559  0.41482822  0.75242758  1
  Cr  Cr17  1  0.25121559  0.58517178  0.24757242  1
  Cr  Cr18  1  0.74878441  0.08517178  0.25242758  1
  Cr  Cr19  1  0.74878441  0.91482822  0.74757242  1
  Cr  Cr20  1  0.74345120  -0.00000000  0.50000000  1
  Cr  Cr21  1  0.25654880  0.50000000  0.00000000  1
  Cr  Cr22  1  0.25654880  -0.00000000  0.50000000  1
  Cr  Cr23  1  0.74345120  0.50000000  0.00000000  1
  Ge  Ge24  1  0.84251849  0.83490479  0.31787711  1
  Ge  Ge25  1  0.84251849  0.16509521  0.68212289  1
  Ge  Ge26  1  0.15748151  0.66509521  0.81787711  1
  Ge  Ge27  1  0.15748151  0.33490479  0.18212289  1
  Ge  Ge28  1  0.15748151  0.16509521  0.68212289  1
  Ge  Ge29  1  0.15748151  0.83490479  0.31787711  1
  Ge  Ge30  1  0.84251849  0.33490479  0.18212289  1
  Ge  Ge31  1  0.84251849  0.66509521  0.81787711  1
  Ge  Ge32  1  0.50000000  0.54082876  0.37863659  1
  Ge  Ge33  1  0.50000000  0.45917124  0.62136341  1
  Ge  Ge34  1  0.50000000  0.95917124  0.87863659  1
  Ge  Ge35  1  0.50000000  0.04082876  0.12136341  1
  Ge  Ge36  1  0.00000000  0.54778667  0.37770785  1
  Ge  Ge37  1  0.00000000  0.45221333  0.62229215  1
  Ge  Ge38  1  -0.00000000  0.95221333  0.87770785  1
  Ge  Ge39  1  -0.00000000  0.04778667  0.12229215  1
  Ge  Ge40  1  0.50000000  0.63401182  0.10132599  1
  Ge  Ge41  1  0.50000000  0.36598818  0.89867401  1
  Ge  Ge42  1  0.50000000  0.86598818  0.60132599  1
  Ge  Ge43  1  0.50000000  0.13401182  0.39867401  1
  Ge  Ge44  1  -0.00000000  0.62704112  0.09689750  1
  Ge  Ge45  1  -0.00000000  0.37295888  0.90310250  1
  Ge  Ge46  1  -0.00000000  0.87295888  0.59689750  1
  Ge  Ge47  1  0.00000000  0.12704112  0.40310250  1
