# generated using pymatgen
data_Te4Mo3W(SeS)2
_symmetry_space_group_name_H-M   'P 1'
_cell_length_a   3.40094163
_cell_length_b   3.40102015
_cell_length_c   38.65235837
_cell_angle_alpha   90.00090182
_cell_angle_beta   90.00003671
_cell_angle_gamma   120.00005199
_symmetry_Int_Tables_number   1
_chemical_formula_structural   Te4Mo3W(SeS)2
_chemical_formula_sum   'Te4 Mo3 W1 Se2 S2'
_cell_volume   387.18166649
_cell_formula_units_Z   1
loop_
 _symmetry_equiv_pos_site_id
 _symmetry_equiv_pos_as_xyz
  1  'x, y, z'
loop_
 _atom_site_type_symbol
 _atom_site_label
 _atom_site_symmetry_multiplicity
 _atom_site_fract_x
 _atom_site_fract_y
 _atom_site_fract_z
 _atom_site_occupancy
  Te  Te0  1  0.33336175  0.66672470  0.70622546  1
  Te  Te1  1  0.66664473  0.33328911  0.04554585  1
  Te  Te2  1  0.66664774  0.33329498  0.14227406  1
  Te  Te3  1  0.33336198  0.66672490  0.60881026  1
  Mo  Mo4  1  0.33330942  0.66661890  0.09390461  1
  Mo  Mo5  1  0.33329722  0.66660721  0.46967878  1
  Mo  Mo6  1  0.66668933  0.33337948  0.28181387  1
  W  W7  1  0.66669038  0.33338175  0.65755706  1
  Se  Se8  1  0.33335518  0.66671137  0.32437698  1
  Se  Se9  1  0.33334872  0.66669772  0.23923251  1
  S  S10  1  0.66665177  0.33329498  0.43077252  1
  S  S11  1  0.66664178  0.33327491  0.50855605  1
