# generated using pymatgen
data_Sc19(RuBr7)4
_symmetry_space_group_name_H-M   'P 1'
_cell_length_a   11.23520333
_cell_length_b   11.23520333
_cell_length_c   11.23520333
_cell_angle_alpha   90.71328388
_cell_angle_beta   89.28671612
_cell_angle_gamma   90.71328388
_symmetry_Int_Tables_number   1
_chemical_formula_structural   Sc19(RuBr7)4
_chemical_formula_sum   'Sc19 Ru4 Br28'
_cell_volume   1417.89042072
_cell_formula_units_Z   1
loop_
 _symmetry_equiv_pos_site_id
 _symmetry_equiv_pos_as_xyz
  1  'x, y, z'
loop_
 _atom_site_type_symbol
 _atom_site_label
 _atom_site_symmetry_multiplicity
 _atom_site_fract_x
 _atom_site_fract_y
 _atom_site_fract_z
 _atom_site_occupancy
  Sc  Sc0  1  0.88176588  0.11823412  0.67415580  1
  Sc  Sc1  1  0.88176588  0.32584420  0.88176588  1
  Sc  Sc2  1  0.67415580  0.11823412  0.88176588  1
  Sc  Sc3  1  0.11402206  0.88597794  0.67679034  1
  Sc  Sc4  1  0.11355043  0.67574016  0.88441183  1
  Sc  Sc5  1  0.32425984  0.88644957  0.88441183  1
  Sc  Sc6  1  0.88441183  0.88644957  0.32425984  1
  Sc  Sc7  1  0.88441183  0.67574016  0.11355043  1
  Sc  Sc8  1  0.67679034  0.88597794  0.11402206  1
  Sc  Sc9  1  0.11355043  0.11558817  0.32425984  1
  Sc  Sc10  1  0.11402206  0.32320966  0.11402206  1
  Sc  Sc11  1  0.32425984  0.11558817  0.11355043  1
  Sc  Sc12  1  0.13488213  0.86511787  0.13488213  1
  Sc  Sc13  1  0.86582319  0.13417681  0.13360793  1
  Sc  Sc14  1  0.13360793  0.13417681  0.86582319  1
  Sc  Sc15  1  0.86582319  0.86639207  0.86582319  1
  Sc  Sc16  1  0.37875662  0.62124338  0.62097593  1
  Sc  Sc17  1  0.62097593  0.62124338  0.37875662  1
  Sc  Sc18  1  0.37875662  0.37902407  0.37875662  1
  Ru  Ru19  1  0.90147851  0.09852149  0.90147851  1
  Ru  Ru20  1  0.09989746  0.90010254  0.90203145  1
  Ru  Ru21  1  0.90203145  0.90010254  0.09989746  1
  Ru  Ru22  1  0.09989746  0.09796855  0.09989746  1
  Br  Br23  1  0.87389757  0.12610243  0.39435243  1
  Br  Br24  1  0.87389757  0.60564757  0.87389757  1
  Br  Br25  1  0.39435243  0.12610243  0.87389757  1
  Br  Br26  1  0.12541869  0.87458131  0.39306535  1
  Br  Br27  1  0.12640469  0.39352706  0.87733134  1
  Br  Br28  1  0.60647294  0.87359531  0.87733134  1
  Br  Br29  1  0.87733134  0.87359531  0.60647294  1
  Br  Br30  1  0.87733134  0.39352706  0.12640469  1
  Br  Br31  1  0.39306535  0.87458131  0.12541869  1
  Br  Br32  1  0.12640469  0.12266866  0.60647294  1
  Br  Br33  1  0.12541869  0.60693465  0.12541869  1
  Br  Br34  1  0.60647294  0.12266866  0.12640469  1
  Br  Br35  1  0.37481434  0.62518566  0.37481434  1
  Br  Br36  1  0.61545463  0.38454537  0.36788973  1
  Br  Br37  1  0.36788973  0.38454537  0.61545463  1
  Br  Br38  1  0.61545463  0.63211027  0.61545463  1
  Br  Br39  1  0.64544236  0.35455764  0.88899822  1
  Br  Br40  1  0.64544236  0.11100178  0.64544236  1
  Br  Br41  1  0.88899822  0.35455764  0.64544236  1
  Br  Br42  1  0.36220658  0.63779342  0.86726033  1
  Br  Br43  1  0.36285475  0.86831963  0.63624754  1
  Br  Br44  1  0.13168037  0.63714525  0.63624754  1
  Br  Br45  1  0.63624754  0.63714525  0.13168037  1
  Br  Br46  1  0.63624754  0.86831963  0.36285475  1
  Br  Br47  1  0.86726033  0.63779342  0.36220658  1
  Br  Br48  1  0.36285475  0.36375246  0.13168037  1
  Br  Br49  1  0.36220658  0.13273967  0.36220658  1
  Br  Br50  1  0.13168037  0.36375246  0.36285475  1
