# generated using pymatgen
data_Sc44Ir7
_symmetry_space_group_name_H-M   'P 1'
_cell_length_a   14.66711276
_cell_length_b   14.66711276
_cell_length_c   14.66711276
_cell_angle_alpha   60.00000000
_cell_angle_beta   60.00000000
_cell_angle_gamma   60.00000000
_symmetry_Int_Tables_number   1
_chemical_formula_structural   Sc44Ir7
_chemical_formula_sum   'Sc88 Ir14'
_cell_volume   2231.09927086
_cell_formula_units_Z   2
loop_
 _symmetry_equiv_pos_site_id
 _symmetry_equiv_pos_as_xyz
  1  'x, y, z'
loop_
 _atom_site_type_symbol
 _atom_site_label
 _atom_site_symmetry_multiplicity
 _atom_site_fract_x
 _atom_site_fract_y
 _atom_site_fract_z
 _atom_site_occupancy
  Sc  Sc0  1  0.16923519  0.94358827  0.94358827  1
  Sc  Sc1  1  0.94358827  0.16923519  0.94358827  1
  Sc  Sc2  1  0.94358827  0.94358827  0.16923519  1
  Sc  Sc3  1  0.94358827  0.94358827  0.94358827  1
  Sc  Sc4  1  0.92425760  0.69191413  0.69191413  1
  Sc  Sc5  1  0.69191413  0.92425760  0.69191413  1
  Sc  Sc6  1  0.69191413  0.69191413  0.92425760  1
  Sc  Sc7  1  0.69191413  0.69191413  0.69191413  1
  Sc  Sc8  1  0.48636546  0.83787818  0.83787818  1
  Sc  Sc9  1  0.83787818  0.48636546  0.83787818  1
  Sc  Sc10  1  0.83787818  0.83787818  0.48636546  1
  Sc  Sc11  1  0.83787818  0.83787818  0.83787818  1
  Sc  Sc12  1  0.32042449  0.55985850  0.55985850  1
  Sc  Sc13  1  0.55985850  0.32042449  0.55985850  1
  Sc  Sc14  1  0.55985850  0.55985850  0.32042449  1
  Sc  Sc15  1  0.55985850  0.55985850  0.55985850  1
  Sc  Sc16  1  0.19051489  0.80948511  0.80948511  1
  Sc  Sc17  1  0.19051489  0.80948511  0.19051489  1
  Sc  Sc18  1  0.19051489  0.19051489  0.80948511  1
  Sc  Sc19  1  0.80948511  0.19051489  0.19051489  1
  Sc  Sc20  1  0.80948511  0.19051489  0.80948511  1
  Sc  Sc21  1  0.80948511  0.80948511  0.19051489  1
  Sc  Sc22  1  0.35618438  0.14381562  0.14381562  1
  Sc  Sc23  1  0.35618438  0.14381562  0.35618438  1
  Sc  Sc24  1  0.35618438  0.35618438  0.14381562  1
  Sc  Sc25  1  0.14381562  0.35618438  0.35618438  1
  Sc  Sc26  1  0.14381562  0.35618438  0.14381562  1
  Sc  Sc27  1  0.14381562  0.14381562  0.35618438  1
  Sc  Sc28  1  0.34121279  0.70087468  0.97895627  1
  Sc  Sc29  1  0.34121279  0.97895627  0.97895627  1
  Sc  Sc30  1  0.34121279  0.97895627  0.70087468  1
  Sc  Sc31  1  0.70087468  0.34121279  0.97895627  1
  Sc  Sc32  1  0.97895627  0.34121279  0.70087468  1
  Sc  Sc33  1  0.97895627  0.34121279  0.97895627  1
  Sc  Sc34  1  0.97895627  0.97895627  0.34121279  1
  Sc  Sc35  1  0.97895627  0.70087468  0.34121279  1
  Sc  Sc36  1  0.70087468  0.97895627  0.34121279  1
  Sc  Sc37  1  0.97895627  0.97895627  0.70087468  1
  Sc  Sc38  1  0.70087468  0.97895627  0.97895627  1
  Sc  Sc39  1  0.97895627  0.70087468  0.97895627  1
  Sc  Sc40  1  0.10801040  0.46408829  0.71395065  1
  Sc  Sc41  1  0.10801040  0.71395065  0.71395065  1
  Sc  Sc42  1  0.10801040  0.71395065  0.46408829  1
  Sc  Sc43  1  0.46408829  0.10801040  0.71395065  1
  Sc  Sc44  1  0.71395065  0.10801040  0.46408829  1
  Sc  Sc45  1  0.71395065  0.10801040  0.71395065  1
  Sc  Sc46  1  0.71395065  0.71395065  0.10801040  1
  Sc  Sc47  1  0.71395065  0.46408829  0.10801040  1
  Sc  Sc48  1  0.46408829  0.71395065  0.10801040  1
  Sc  Sc49  1  0.71395065  0.71395065  0.46408829  1
  Sc  Sc50  1  0.46408829  0.71395065  0.71395065  1
  Sc  Sc51  1  0.71395065  0.46408829  0.71395065  1
  Sc  Sc52  1  0.77468190  0.55162149  0.33684830  1
  Sc  Sc53  1  0.77468190  0.33684830  0.33684830  1
  Sc  Sc54  1  0.77468190  0.33684830  0.55162149  1
  Sc  Sc55  1  0.55162149  0.77468190  0.33684830  1
  Sc  Sc56  1  0.33684830  0.77468190  0.55162149  1
  Sc  Sc57  1  0.33684830  0.77468190  0.33684830  1
  Sc  Sc58  1  0.33684830  0.33684830  0.77468190  1
  Sc  Sc59  1  0.33684830  0.55162149  0.77468190  1
  Sc  Sc60  1  0.55162149  0.33684830  0.77468190  1
  Sc  Sc61  1  0.33684830  0.33684830  0.55162149  1
  Sc  Sc62  1  0.55162149  0.33684830  0.33684830  1
  Sc  Sc63  1  0.33684830  0.55162149  0.33684830  1
  Sc  Sc64  1  0.90891640  0.12102724  0.48502818  1
  Sc  Sc65  1  0.90891640  0.48502818  0.48502818  1
  Sc  Sc66  1  0.90891640  0.48502818  0.12102724  1
  Sc  Sc67  1  0.12102724  0.90891640  0.48502818  1
  Sc  Sc68  1  0.48502818  0.90891640  0.12102724  1
  Sc  Sc69  1  0.48502818  0.90891640  0.48502818  1
  Sc  Sc70  1  0.48502818  0.48502818  0.90891640  1
  Sc  Sc71  1  0.48502818  0.12102724  0.90891640  1
  Sc  Sc72  1  0.12102724  0.48502818  0.90891640  1
  Sc  Sc73  1  0.48502818  0.48502818  0.12102724  1
  Sc  Sc74  1  0.12102724  0.48502818  0.48502818  1
  Sc  Sc75  1  0.48502818  0.12102724  0.48502818  1
  Sc  Sc76  1  0.57348540  0.00244466  0.21203497  1
  Sc  Sc77  1  0.57348540  0.21203497  0.21203497  1
  Sc  Sc78  1  0.57348540  0.21203497  0.00244466  1
  Sc  Sc79  1  0.00244466  0.57348540  0.21203497  1
  Sc  Sc80  1  0.21203497  0.57348540  0.00244466  1
  Sc  Sc81  1  0.21203497  0.57348540  0.21203497  1
  Sc  Sc82  1  0.21203497  0.21203497  0.57348540  1
  Sc  Sc83  1  0.21203497  0.00244466  0.57348540  1
  Sc  Sc84  1  0.00244466  0.21203497  0.57348540  1
  Sc  Sc85  1  0.21203497  0.21203497  0.00244466  1
  Sc  Sc86  1  0.00244466  0.21203497  0.21203497  1
  Sc  Sc87  1  0.21203497  0.00244466  0.21203497  1
  Ir  Ir88  1  0.75598310  0.08133897  0.08133897  1
  Ir  Ir89  1  0.08133897  0.75598310  0.08133897  1
  Ir  Ir90  1  0.08133897  0.08133897  0.75598310  1
  Ir  Ir91  1  0.08133897  0.08133897  0.08133897  1
  Ir  Ir92  1  0.95296361  0.34901213  0.34901213  1
  Ir  Ir93  1  0.34901213  0.95296361  0.34901213  1
  Ir  Ir94  1  0.34901213  0.34901213  0.95296361  1
  Ir  Ir95  1  0.34901213  0.34901213  0.34901213  1
  Ir  Ir96  1  0.90940732  0.59059268  0.59059268  1
  Ir  Ir97  1  0.90940732  0.59059268  0.90940732  1
  Ir  Ir98  1  0.90940732  0.90940732  0.59059268  1
  Ir  Ir99  1  0.59059268  0.90940732  0.90940732  1
  Ir  Ir100  1  0.59059268  0.90940732  0.59059268  1
  Ir  Ir101  1  0.59059268  0.59059268  0.90940732  1
