# generated using pymatgen
data_Cs2ErSi4O10F
_symmetry_space_group_name_H-M   'P 1'
_cell_length_a   9.03726146
_cell_length_b   12.13398617
_cell_length_c   22.65508776
_cell_angle_alpha   90.00000000
_cell_angle_beta   90.00000000
_cell_angle_gamma   90.00000000
_symmetry_Int_Tables_number   1
_chemical_formula_structural   Cs2ErSi4O10F
_chemical_formula_sum   'Cs16 Er8 Si32 O80 F8'
_cell_volume   2484.31173978
_cell_formula_units_Z   8
loop_
 _symmetry_equiv_pos_site_id
 _symmetry_equiv_pos_as_xyz
  1  'x, y, z'
loop_
 _atom_site_type_symbol
 _atom_site_label
 _atom_site_symmetry_multiplicity
 _atom_site_fract_x
 _atom_site_fract_y
 _atom_site_fract_z
 _atom_site_occupancy
  Cs  Cs0  1  0.25000000  0.55715567  0.95613391  1
  Cs  Cs1  1  0.25000000  0.94284433  0.45613391  1
  Cs  Cs2  1  0.75000000  0.44284433  0.04386609  1
  Cs  Cs3  1  0.75000000  0.05715567  0.54386609  1
  Cs  Cs4  1  0.25000000  0.95294957  0.98396824  1
  Cs  Cs5  1  0.25000000  0.54705043  0.48396824  1
  Cs  Cs6  1  0.75000000  0.04705043  0.01603176  1
  Cs  Cs7  1  0.75000000  0.45294957  0.51603176  1
  Cs  Cs8  1  0.25000000  0.82186630  0.77174486  1
  Cs  Cs9  1  0.25000000  0.67813370  0.27174486  1
  Cs  Cs10  1  0.75000000  0.17813370  0.22825514  1
  Cs  Cs11  1  0.75000000  0.32186630  0.72825514  1
  Cs  Cs12  1  0.25000000  0.37742244  0.76274129  1
  Cs  Cs13  1  0.25000000  0.12257756  0.26274129  1
  Cs  Cs14  1  0.75000000  0.62257756  0.23725871  1
  Cs  Cs15  1  0.75000000  0.87742244  0.73725871  1
  Er  Er16  1  0.50010705  0.09685329  0.84897209  1
  Er  Er17  1  0.99989295  0.40314671  0.34897209  1
  Er  Er18  1  0.00010705  0.90314671  0.15102791  1
  Er  Er19  1  0.49989295  0.59685329  0.65102791  1
  Er  Er20  1  0.49989295  0.90314671  0.15102791  1
  Er  Er21  1  0.00010705  0.59685329  0.65102791  1
  Er  Er22  1  0.99989295  0.09685329  0.84897209  1
  Er  Er23  1  0.50010705  0.40314671  0.34897209  1
  Si  Si24  1  0.07034107  0.30495342  0.61177360  1
  Si  Si25  1  0.42965893  0.19504658  0.11177360  1
  Si  Si26  1  0.57034107  0.69504658  0.38822640  1
  Si  Si27  1  0.92965893  0.80495342  0.88822640  1
  Si  Si28  1  0.92965893  0.69504658  0.38822640  1
  Si  Si29  1  0.57034107  0.80495342  0.88822640  1
  Si  Si30  1  0.42965893  0.30495342  0.61177360  1
  Si  Si31  1  0.07034107  0.19504658  0.11177360  1
  Si  Si32  1  0.07043108  0.08923543  0.68990994  1
  Si  Si33  1  0.42956892  0.41076457  0.18990994  1
  Si  Si34  1  0.57043108  0.91076457  0.31009006  1
  Si  Si35  1  0.92956892  0.58923543  0.81009006  1
  Si  Si36  1  0.92956892  0.91076457  0.31009006  1
  Si  Si37  1  0.57043108  0.58923543  0.81009006  1
  Si  Si38  1  0.42956892  0.08923543  0.68990994  1
  Si  Si39  1  0.07043108  0.41076457  0.18990994  1
  Si  Si40  1  0.07313706  0.24921299  0.97918409  1
  Si  Si41  1  0.42686294  0.25078701  0.47918409  1
  Si  Si42  1  0.57313706  0.75078701  0.02081591  1
  Si  Si43  1  0.92686294  0.74921299  0.52081591  1
  Si  Si44  1  0.92686294  0.75078701  0.02081591  1
  Si  Si45  1  0.57313706  0.74921299  0.52081591  1
  Si  Si46  1  0.42686294  0.24921299  0.97918409  1
  Si  Si47  1  0.07313706  0.25078701  0.47918409  1
  Si  Si48  1  0.07210151  0.87563494  0.61753546  1
  Si  Si49  1  0.42789849  0.62436506  0.11753546  1
  Si  Si50  1  0.57210151  0.12436506  0.38246454  1
  Si  Si51  1  0.92789849  0.37563494  0.88246454  1
  Si  Si52  1  0.92789849  0.12436506  0.38246454  1
  Si  Si53  1  0.57210151  0.37563494  0.88246454  1
  Si  Si54  1  0.42789849  0.87563494  0.61753546  1
  Si  Si55  1  0.07210151  0.62436506  0.11753546  1
  O  O56  1  0.25000000  0.31833450  0.60854151  1
  O  O57  1  0.25000000  0.18166550  0.10854151  1
  O  O58  1  0.75000000  0.68166550  0.39145849  1
  O  O59  1  0.75000000  0.81833450  0.89145849  1
  O  O60  1  0.25000000  0.07754925  0.69533583  1
  O  O61  1  0.25000000  0.42245075  0.19533583  1
  O  O62  1  0.75000000  0.92245075  0.30466417  1
  O  O63  1  0.75000000  0.57754925  0.80466417  1
  O  O64  1  0.25000000  0.27625776  0.98238637  1
  O  O65  1  0.25000000  0.22374224  0.48238637  1
  O  O66  1  0.75000000  0.72374224  0.01761363  1
  O  O67  1  0.75000000  0.77625776  0.51761363  1
  O  O68  1  0.25000000  0.88638728  0.60626367  1
  O  O69  1  0.25000000  0.61361272  0.10626367  1
  O  O70  1  0.75000000  0.11361272  0.39373633  1
  O  O71  1  0.75000000  0.38638728  0.89373633  1
  O  O72  1  0.03091102  0.21164699  0.66249822  1
  O  O73  1  0.46908898  0.28835301  0.16249822  1
  O  O74  1  0.53091102  0.78835301  0.33750178  1
  O  O75  1  0.96908898  0.71164699  0.83750178  1
  O  O76  1  0.96908898  0.78835301  0.33750178  1
  O  O77  1  0.53091102  0.71164699  0.83750178  1
  O  O78  1  0.46908898  0.21164699  0.66249822  1
  O  O79  1  0.03091102  0.28835301  0.16249822  1
  O  O80  1  0.01202899  0.25279779  0.54819862  1
  O  O81  1  0.48797101  0.24720221  0.04819862  1
  O  O82  1  0.51202899  0.74720221  0.45180138  1
  O  O83  1  0.98797101  0.75279779  0.95180138  1
  O  O84  1  0.98797101  0.74720221  0.45180138  1
  O  O85  1  0.51202899  0.75279779  0.95180138  1
  O  O86  1  0.48797101  0.25279779  0.54819862  1
  O  O87  1  0.01202899  0.24720221  0.04819862  1
  O  O88  1  0.01340553  0.99806185  0.64014420  1
  O  O89  1  0.48659447  0.50193815  0.14014420  1
  O  O90  1  0.51340553  0.00193815  0.35985580  1
  O  O91  1  0.98659447  0.49806185  0.85985580  1
  O  O92  1  0.98659447  0.00193815  0.35985580  1
  O  O93  1  0.51340553  0.49806185  0.85985580  1
  O  O94  1  0.48659447  0.99806185  0.64014420  1
  O  O95  1  0.01340553  0.50193815  0.14014420  1
  O  O96  1  0.00944468  0.91831794  0.87163826  1
  O  O97  1  0.49055532  0.58168206  0.37163826  1
  O  O98  1  0.50944468  0.08168206  0.12836174  1
  O  O99  1  0.99055532  0.41831794  0.62836174  1
  O  O100  1  0.99055532  0.08168206  0.12836174  1
  O  O101  1  0.50944468  0.41831794  0.62836174  1
  O  O102  1  0.49055532  0.91831794  0.87163826  1
  O  O103  1  0.00944468  0.58168206  0.37163826  1
  O  O104  1  0.00941180  0.57213814  0.74787643  1
  O  O105  1  0.49058820  0.92786186  0.24787643  1
  O  O106  1  0.50941180  0.42786186  0.25212357  1
  O  O107  1  0.99058820  0.07213814  0.75212357  1
  O  O108  1  0.99058820  0.42786186  0.25212357  1
  O  O109  1  0.50941180  0.07213814  0.75212357  1
  O  O110  1  0.49058820  0.57213814  0.74787643  1
  O  O111  1  0.00941180  0.92786186  0.24787643  1
  O  O112  1  0.02951969  0.13955260  0.94436007  1
  O  O113  1  0.47048031  0.36044740  0.44436007  1
  O  O114  1  0.52951969  0.86044740  0.05563993  1
  O  O115  1  0.97048031  0.63955260  0.55563993  1
  O  O116  1  0.97048031  0.86044740  0.05563993  1
  O  O117  1  0.52951969  0.63955260  0.55563993  1
  O  O118  1  0.47048031  0.13955260  0.94436007  1
  O  O119  1  0.02951969  0.36044740  0.44436007  1
  O  O120  1  0.02438337  0.77976390  0.66204353  1
  O  O121  1  0.47561663  0.72023610  0.16204353  1
  O  O122  1  0.52438337  0.22023610  0.33795647  1
  O  O123  1  0.97561663  0.27976390  0.83795647  1
  O  O124  1  0.97561663  0.22023610  0.33795647  1
  O  O125  1  0.52438337  0.27976390  0.83795647  1
  O  O126  1  0.47561663  0.77976390  0.66204353  1
  O  O127  1  0.02438337  0.72023610  0.16204353  1
  O  O128  1  0.00087560  0.86197077  0.55024469  1
  O  O129  1  0.49912440  0.63802923  0.05024469  1
  O  O130  1  0.50087560  0.13802923  0.44975531  1
  O  O131  1  0.99912440  0.36197077  0.94975531  1
  O  O132  1  0.99912440  0.13802923  0.44975531  1
  O  O133  1  0.50087560  0.36197077  0.94975531  1
  O  O134  1  0.49912440  0.86197077  0.55024469  1
  O  O135  1  0.00087560  0.63802923  0.05024469  1
  F  F136  1  0.25000000  0.58622579  0.64514687  1
  F  F137  1  0.25000000  0.91377421  0.14514687  1
  F  F138  1  0.75000000  0.41377421  0.35485313  1
  F  F139  1  0.75000000  0.08622579  0.85485313  1
  F  F140  1  0.25000000  0.10114521  0.84182091  1
  F  F141  1  0.25000000  0.39885479  0.34182091  1
  F  F142  1  0.75000000  0.89885479  0.15817909  1
  F  F143  1  0.75000000  0.60114521  0.65817909  1
