# generated using pymatgen
data_Ba3GaAs3
_symmetry_space_group_name_H-M   'P 1'
_cell_length_a   6.87407490
_cell_length_b   13.59061049
_cell_length_c   20.23640229
_cell_angle_alpha   90.00000000
_cell_angle_beta   90.00000000
_cell_angle_gamma   90.00000000
_symmetry_Int_Tables_number   1
_chemical_formula_structural   Ba3GaAs3
_chemical_formula_sum   'Ba24 Ga8 As24'
_cell_volume   1890.54287036
_cell_formula_units_Z   8
loop_
 _symmetry_equiv_pos_site_id
 _symmetry_equiv_pos_as_xyz
  1  'x, y, z'
loop_
 _atom_site_type_symbol
 _atom_site_label
 _atom_site_symmetry_multiplicity
 _atom_site_fract_x
 _atom_site_fract_y
 _atom_site_fract_z
 _atom_site_occupancy
  Ba  Ba0  1  0.22548382  0.51125839  0.57483342  1
  Ba  Ba1  1  0.27451618  0.01125839  0.92516658  1
  Ba  Ba2  1  0.77451618  0.48874161  0.07483342  1
  Ba  Ba3  1  0.72548382  0.98874161  0.42516658  1
  Ba  Ba4  1  0.77451618  0.48874161  0.42516658  1
  Ba  Ba5  1  0.72548382  0.98874161  0.07483342  1
  Ba  Ba6  1  0.22548382  0.51125839  0.92516658  1
  Ba  Ba7  1  0.27451618  0.01125839  0.57483342  1
  Ba  Ba8  1  0.18834117  0.76598710  0.07418451  1
  Ba  Ba9  1  0.31165883  0.26598710  0.42581549  1
  Ba  Ba10  1  0.81165883  0.23401290  0.57418451  1
  Ba  Ba11  1  0.68834117  0.73401290  0.92581549  1
  Ba  Ba12  1  0.81165883  0.23401290  0.92581549  1
  Ba  Ba13  1  0.68834117  0.73401290  0.57418451  1
  Ba  Ba14  1  0.18834117  0.76598710  0.42581549  1
  Ba  Ba15  1  0.31165883  0.26598710  0.07418451  1
  Ba  Ba16  1  0.81391306  0.76848447  0.25000000  1
  Ba  Ba17  1  0.68608694  0.26848447  0.25000000  1
  Ba  Ba18  1  0.18608694  0.23151553  0.75000000  1
  Ba  Ba19  1  0.31391306  0.73151553  0.75000000  1
  Ba  Ba20  1  0.33682452  0.97920434  0.25000000  1
  Ba  Ba21  1  0.16317548  0.47920434  0.25000000  1
  Ba  Ba22  1  0.66317548  0.02079566  0.75000000  1
  Ba  Ba23  1  0.83682452  0.52079566  0.75000000  1
  Ga  Ga24  1  0.48297060  0.62736392  0.16506234  1
  Ga  Ga25  1  0.01702940  0.12736392  0.33493766  1
  Ga  Ga26  1  0.51702940  0.37263608  0.66506234  1
  Ga  Ga27  1  0.98297060  0.87263608  0.83493766  1
  Ga  Ga28  1  0.51702940  0.37263608  0.83493766  1
  Ga  Ga29  1  0.98297060  0.87263608  0.66506234  1
  Ga  Ga30  1  0.48297060  0.62736392  0.33493766  1
  Ga  Ga31  1  0.01702940  0.12736392  0.16506234  1
  As  As32  1  0.29372030  0.72924119  0.25000000  1
  As  As33  1  0.20627970  0.22924119  0.25000000  1
  As  As34  1  0.70627970  0.27075881  0.75000000  1
  As  As35  1  0.79372030  0.77075881  0.75000000  1
  As  As36  1  0.67416332  0.52241599  0.25000000  1
  As  As37  1  0.82583668  0.02241599  0.25000000  1
  As  As38  1  0.32583668  0.47758401  0.75000000  1
  As  As39  1  0.17416332  0.97758401  0.75000000  1
  As  As40  1  0.27358282  0.51651654  0.09153469  1
  As  As41  1  0.22641718  0.01651654  0.40846531  1
  As  As42  1  0.72641718  0.48348346  0.59153469  1
  As  As43  1  0.77358282  0.98348346  0.90846531  1
  As  As44  1  0.72641718  0.48348346  0.90846531  1
  As  As45  1  0.77358282  0.98348346  0.59153469  1
  As  As46  1  0.27358282  0.51651654  0.40846531  1
  As  As47  1  0.22641718  0.01651654  0.09153469  1
  As  As48  1  0.19229639  0.75956295  0.59251289  1
  As  As49  1  0.30770361  0.25956295  0.90748711  1
  As  As50  1  0.80770361  0.24043705  0.09251289  1
  As  As51  1  0.69229639  0.74043705  0.40748711  1
  As  As52  1  0.80770361  0.24043705  0.40748711  1
  As  As53  1  0.69229639  0.74043705  0.09251289  1
  As  As54  1  0.19229639  0.75956295  0.90748711  1
  As  As55  1  0.30770361  0.25956295  0.59251289  1
