# generated using pymatgen
data_KVO3
_symmetry_space_group_name_H-M   'P 1'
_cell_length_a   5.37268036
_cell_length_b   5.78657077
_cell_length_c   10.91278431
_cell_angle_alpha   90.00000000
_cell_angle_beta   90.00000000
_cell_angle_gamma   90.00000000
_symmetry_Int_Tables_number   1
_chemical_formula_structural   KVO3
_chemical_formula_sum   'K4 V4 O12'
_cell_volume   339.27186336
_cell_formula_units_Z   4
loop_
 _symmetry_equiv_pos_site_id
 _symmetry_equiv_pos_as_xyz
  1  'x, y, z'
loop_
 _atom_site_type_symbol
 _atom_site_label
 _atom_site_symmetry_multiplicity
 _atom_site_fract_x
 _atom_site_fract_y
 _atom_site_fract_z
 _atom_site_occupancy
  O  O0  1  0.38194419  0.75000000  0.47626176  1
  O  O1  1  0.38194419  0.25000000  0.02373824  1
  O  O2  1  0.61805581  0.25000000  0.52373824  1
  O  O3  1  0.61805581  0.75000000  0.97626176  1
  O  O4  1  0.82971654  0.75000000  0.35273378  1
  O  O5  1  0.82971654  0.25000000  0.14726622  1
  O  O6  1  0.17028346  0.25000000  0.64726622  1
  O  O7  1  0.17028346  0.75000000  0.85273378  1
  O  O8  1  0.59030031  0.00000000  0.75000000  1
  O  O9  1  0.40969969  0.50000000  0.25000000  1
  O  O10  1  0.40969969  0.00000000  0.25000000  1
  O  O11  1  0.59030031  0.50000000  0.75000000  1
  K  K12  1  0.05769166  0.75000000  0.10522001  1
  K  K13  1  0.05769166  0.25000000  0.39477999  1
  K  K14  1  0.94230834  0.25000000  0.89477999  1
  K  K15  1  0.94230834  0.75000000  0.60522001  1
  V  V16  1  0.48232560  0.75000000  0.83879700  1
  V  V17  1  0.48232560  0.25000000  0.66120300  1
  V  V18  1  0.51767440  0.25000000  0.16120300  1
  V  V19  1  0.51767440  0.75000000  0.33879700  1
