# generated using pymatgen
data_Ba2Ge2Te5
_symmetry_space_group_name_H-M   'P 1'
_cell_length_a   9.36486245
_cell_length_b   10.10031814
_cell_length_c   13.61946872
_cell_angle_alpha   90.00000000
_cell_angle_beta   90.00000000
_cell_angle_gamma   90.00000000
_symmetry_Int_Tables_number   1
_chemical_formula_structural   Ba2Ge2Te5
_chemical_formula_sum   'Ba8 Ge8 Te20'
_cell_volume   1288.23953416
_cell_formula_units_Z   4
loop_
 _symmetry_equiv_pos_site_id
 _symmetry_equiv_pos_as_xyz
  1  'x, y, z'
loop_
 _atom_site_type_symbol
 _atom_site_label
 _atom_site_symmetry_multiplicity
 _atom_site_fract_x
 _atom_site_fract_y
 _atom_site_fract_z
 _atom_site_occupancy
  Ge  Ge0  1  0.17844469  0.73006935  0.52232787  1
  Ge  Ge1  1  0.82155531  0.23006935  0.47767213  1
  Ge  Ge2  1  0.32155531  0.73006935  0.02232787  1
  Ge  Ge3  1  0.67844469  0.23006935  0.97767213  1
  Ge  Ge4  1  0.02442330  0.56324696  0.43505391  1
  Ge  Ge5  1  0.97557670  0.06324696  0.56494609  1
  Ge  Ge6  1  0.47557670  0.56324696  0.93505391  1
  Ge  Ge7  1  0.52442330  0.06324696  0.06494609  1
  Te  Te8  1  0.20122949  0.36431492  0.41700109  1
  Te  Te9  1  0.79877051  0.86431492  0.58299891  1
  Te  Te10  1  0.29877051  0.36431492  0.91700109  1
  Te  Te11  1  0.70122949  0.86431492  0.08299891  1
  Te  Te12  1  0.17788635  0.97336911  0.44648204  1
  Te  Te13  1  0.82211365  0.47336911  0.55351796  1
  Te  Te14  1  0.32211365  0.97336911  0.94648204  1
  Te  Te15  1  0.67788635  0.47336911  0.05351796  1
  Te  Te16  1  0.87595539  0.65675857  0.28658265  1
  Te  Te17  1  0.12404461  0.15675857  0.71341735  1
  Te  Te18  1  0.62404461  0.65675857  0.78658265  1
  Te  Te19  1  0.37595539  0.15675857  0.21341735  1
  Te  Te20  1  0.15761920  0.70173887  0.71481504  1
  Te  Te21  1  0.84238080  0.20173887  0.28518496  1
  Te  Te22  1  0.34238080  0.70173887  0.21481504  1
  Te  Te23  1  0.65761920  0.20173887  0.78518496  1
  Te  Te24  1  0.45347566  0.68188011  0.49539442  1
  Te  Te25  1  0.54652434  0.18188011  0.50460558  1
  Te  Te26  1  0.04652434  0.68188011  0.99539442  1
  Te  Te27  1  0.95347566  0.18188011  0.00460558  1
  Ba  Ba28  1  0.60342349  0.91953349  0.33429233  1
  Ba  Ba29  1  0.39657651  0.41953349  0.66570767  1
  Ba  Ba30  1  0.89657651  0.91953349  0.83429233  1
  Ba  Ba31  1  0.10342349  0.41953349  0.16570767  1
  Ba  Ba32  1  0.56012139  0.43658862  0.31809845  1
  Ba  Ba33  1  0.43987861  0.93658862  0.68190155  1
  Ba  Ba34  1  0.93987861  0.43658862  0.81809845  1
  Ba  Ba35  1  0.06012139  0.93658862  0.18190155  1
