# generated using pymatgen
data_Ba2MnWO6
_symmetry_space_group_name_H-M   'P 1'
_cell_length_a   5.90095770
_cell_length_b   5.90095770
_cell_length_c   5.90095770
_cell_angle_alpha   59.99999997
_cell_angle_beta   59.99999998
_cell_angle_gamma   59.99999995
_symmetry_Int_Tables_number   1
_chemical_formula_structural   Ba2MnWO6
_chemical_formula_sum   'Ba2 Mn1 W1 O6'
_cell_volume   145.29561436
_cell_formula_units_Z   1
loop_
 _symmetry_equiv_pos_site_id
 _symmetry_equiv_pos_as_xyz
  1  'x, y, z'
loop_
 _atom_site_type_symbol
 _atom_site_label
 _atom_site_symmetry_multiplicity
 _atom_site_fract_x
 _atom_site_fract_y
 _atom_site_fract_z
 _atom_site_occupancy
  O  O0  1  0.26478761  0.73521310  0.73521196  1
  O  O1  1  0.26478761  0.73521310  0.26478751  1
  O  O2  1  0.73521230  0.26478802  0.73521215  1
  O  O3  1  0.26478780  0.26478802  0.73521133  1
  O  O4  1  0.73521230  0.26478802  0.26478771  1
  O  O5  1  0.73521210  0.73521310  0.26478664  1
  Mn  Mn6  1  0.00000000  0.00000000  0.00000000  1
  Ba  Ba7  1  0.25000015  0.24999976  0.25000052  1
  Ba  Ba8  1  0.75000045  0.74999928  0.74999984  1
  W  W9  1  0.50000030  0.49999952  0.49999933  1
