# generated using pymatgen
data_Te2MoWSeS
_symmetry_space_group_name_H-M   'P 1'
_cell_length_a   3.40130402
_cell_length_b   3.40130121
_cell_length_c   38.71129277
_cell_angle_alpha   90.00021119
_cell_angle_beta   90.00000000
_cell_angle_gamma   120.00002735
_symmetry_Int_Tables_number   1
_chemical_formula_structural   Te2MoWSeS
_chemical_formula_sum   'Te4 Mo2 W2 Se2 S2'
_cell_volume   387.84547827
_cell_formula_units_Z   2
loop_
 _symmetry_equiv_pos_site_id
 _symmetry_equiv_pos_as_xyz
  1  'x, y, z'
loop_
 _atom_site_type_symbol
 _atom_site_label
 _atom_site_symmetry_multiplicity
 _atom_site_fract_x
 _atom_site_fract_y
 _atom_site_fract_z
 _atom_site_occupancy
  Te  Te0  1  0.66664409  0.33328718  0.04551337  1
  Te  Te1  1  0.66664330  0.33328560  0.42090956  1
  Te  Te2  1  0.66664509  0.33328917  0.14235758  1
  Te  Te3  1  0.66665005  0.33329909  0.51832592  1
  Mo  Mo4  1  0.33330660  0.66661320  0.09390996  1
  Mo  Mo5  1  0.66669243  0.33338486  0.28179467  1
  W  W6  1  0.33331188  0.66662376  0.46963152  1
  W  W7  1  0.66668956  0.33337912  0.65758686  1
  Se  Se8  1  0.33335229  0.66670558  0.70034665  1
  Se  Se9  1  0.33335050  0.66670200  0.61478991  1
  S  S10  1  0.33335966  0.66672032  0.32055452  1
  S  S11  1  0.33335456  0.66671013  0.24302749  1
