# generated using pymatgen
data_La3Ni2Sn7
_symmetry_space_group_name_H-M   'P 1'
_cell_length_a   4.65598140
_cell_length_b   4.65422597
_cell_length_c   14.09251717
_cell_angle_alpha   90.00000000
_cell_angle_beta   99.50846915
_cell_angle_gamma   90.00000000
_symmetry_Int_Tables_number   1
_chemical_formula_structural   La3Ni2Sn7
_chemical_formula_sum   'La3 Ni2 Sn7'
_cell_volume   301.18907856
_cell_formula_units_Z   1
loop_
 _symmetry_equiv_pos_site_id
 _symmetry_equiv_pos_as_xyz
  1  'x, y, z'
loop_
 _atom_site_type_symbol
 _atom_site_label
 _atom_site_symmetry_multiplicity
 _atom_site_fract_x
 _atom_site_fract_y
 _atom_site_fract_z
 _atom_site_occupancy
  Ni  Ni0  1  0.37200896  0.50000000  0.74401792  1
  Ni  Ni1  1  0.62799104  0.50000000  0.25598208  1
  Sn  Sn2  1  0.08934974  0.50000000  0.17869949  1
  Sn  Sn3  1  0.91065026  0.50000000  0.82130051  1
  Sn  Sn4  1  0.28151034  0.50000000  0.56302069  1
  Sn  Sn5  1  0.71848966  0.50000000  0.43697931  1
  Sn  Sn6  1  0.00000000  0.00000000  0.00000000  1
  Sn  Sn7  1  0.58920833  0.00000000  0.17841666  1
  Sn  Sn8  1  0.41079167  0.00000000  0.82158334  1
  La  La9  1  0.18434876  0.00000000  0.36869753  1
  La  La10  1  0.81565124  0.00000000  0.63130247  1
  La  La11  1  0.50000000  0.50000000  0.00000000  1
