# generated using pymatgen
data_PuH2
_symmetry_space_group_name_H-M   'P 1'
_cell_length_a   3.78809146
_cell_length_b   3.78809146
_cell_length_c   3.78809146
_cell_angle_alpha   60.00000003
_cell_angle_beta   60.00000003
_cell_angle_gamma   60.00000007
_symmetry_Int_Tables_number   1
_chemical_formula_structural   PuH2
_chemical_formula_sum   'Pu1 H2'
_cell_volume   38.43672457
_cell_formula_units_Z   1
loop_
 _symmetry_equiv_pos_site_id
 _symmetry_equiv_pos_as_xyz
  1  'x, y, z'
loop_
 _atom_site_type_symbol
 _atom_site_label
 _atom_site_symmetry_multiplicity
 _atom_site_fract_x
 _atom_site_fract_y
 _atom_site_fract_z
 _atom_site_occupancy
  H  H0  1  0.75000000  0.75000000  0.75000000  1
  H  H1  1  0.25000000  0.25000000  0.25000000  1
  Pu  Pu2  1  0.00000000  0.00000000  0.00000000  1
