# generated using pymatgen
data_Zr4Pd2O
_symmetry_space_group_name_H-M   'P 1'
_cell_length_a   8.89205107
_cell_length_b   8.89205108
_cell_length_c   8.89205108
_cell_angle_alpha   59.99999998
_cell_angle_beta   59.99999998
_cell_angle_gamma   59.99999999
_symmetry_Int_Tables_number   1
_chemical_formula_structural   Zr4Pd2O
_chemical_formula_sum   'Zr16 Pd8 O4'
_cell_volume   497.15389694
_cell_formula_units_Z   4
loop_
 _symmetry_equiv_pos_site_id
 _symmetry_equiv_pos_as_xyz
  1  'x, y, z'
loop_
 _atom_site_type_symbol
 _atom_site_label
 _atom_site_symmetry_multiplicity
 _atom_site_fract_x
 _atom_site_fract_y
 _atom_site_fract_z
 _atom_site_occupancy
  O  O0  1  0.00000000  0.50000000  0.00000000  1
  O  O1  1  0.50000000  0.00000000  0.00000000  1
  O  O2  1  0.00000000  0.00000000  0.50000000  1
  O  O3  1  0.00000000  0.00000000  0.00000000  1
  Zr  Zr4  1  0.30618592  0.94381408  0.30618592  1
  Zr  Zr5  1  0.69381408  0.05618592  0.69381408  1
  Zr  Zr6  1  0.94381408  0.30618592  0.94381408  1
  Zr  Zr7  1  0.94381408  0.94381408  0.30618592  1
  Zr  Zr8  1  0.30618592  0.30618592  0.94381408  1
  Zr  Zr9  1  0.00000000  0.50000000  0.50000000  1
  Zr  Zr10  1  0.69381408  0.05618592  0.05618592  1
  Zr  Zr11  1  0.94381408  0.30618592  0.30618592  1
  Zr  Zr12  1  0.50000000  0.50000000  0.50000000  1
  Zr  Zr13  1  0.50000000  0.50000000  0.00000000  1
  Zr  Zr14  1  0.30618592  0.94381408  0.94381408  1
  Zr  Zr15  1  0.50000000  0.00000000  0.50000000  1
  Zr  Zr16  1  0.05618592  0.69381408  0.69381408  1
  Zr  Zr17  1  0.05618592  0.05618592  0.69381408  1
  Zr  Zr18  1  0.69381408  0.69381408  0.05618592  1
  Zr  Zr19  1  0.05618592  0.69381408  0.05618592  1
  Pd  Pd20  1  0.35513728  0.71495424  0.71495424  1
  Pd  Pd21  1  0.71495424  0.35513728  0.71495424  1
  Pd  Pd22  1  0.71495424  0.71495424  0.35513728  1
  Pd  Pd23  1  0.28504576  0.28504576  0.28504576  1
  Pd  Pd24  1  0.28504576  0.64486272  0.28504576  1
  Pd  Pd25  1  0.64486272  0.28504576  0.28504576  1
  Pd  Pd26  1  0.28504576  0.28504576  0.64486272  1
  Pd  Pd27  1  0.71495424  0.71495424  0.71495424  1
