# generated using pymatgen
data_Te4Mo3W(SeS)2
_symmetry_space_group_name_H-M   'P 1'
_cell_length_a   3.39978417
_cell_length_b   3.39980600
_cell_length_c   38.66554562
_cell_angle_alpha   90.00001448
_cell_angle_beta   90.00000000
_cell_angle_gamma   119.99978749
_symmetry_Int_Tables_number   1
_chemical_formula_structural   Te4Mo3W(SeS)2
_chemical_formula_sum   'Te4 Mo3 W1 Se2 S2'
_cell_volume   387.04475655
_cell_formula_units_Z   1
loop_
 _symmetry_equiv_pos_site_id
 _symmetry_equiv_pos_as_xyz
  1  'x, y, z'
loop_
 _atom_site_type_symbol
 _atom_site_label
 _atom_site_symmetry_multiplicity
 _atom_site_fract_x
 _atom_site_fract_y
 _atom_site_fract_z
 _atom_site_occupancy
  Te  Te0  1  0.33335727  0.66671553  0.70622649  1
  Te  Te1  1  0.66663998  0.33327896  0.04550275  1
  Te  Te2  1  0.66664840  0.33329580  0.14237139  1
  Te  Te3  1  0.33334979  0.66670059  0.60884294  1
  Mo  Mo4  1  0.33331029  0.66662058  0.09390143  1
  Mo  Mo5  1  0.33330924  0.66661848  0.46965684  1
  Mo  Mo6  1  0.66670257  0.33340514  0.28178553  1
  W  W7  1  0.66669118  0.33338236  0.65757756  1
  Se  Se8  1  0.66664758  0.33329417  0.42701439  1
  Se  Se9  1  0.66664914  0.33329728  0.51228157  1
  S  S10  1  0.33334730  0.66669560  0.32065433  1
  S  S11  1  0.33334726  0.66669551  0.24293279  1
