# generated using pymatgen
data_KAs4IO6
_symmetry_space_group_name_H-M   'P 1'
_cell_length_a   5.36329652
_cell_length_b   5.36329652
_cell_length_c   9.56356328
_cell_angle_alpha   90.00000000
_cell_angle_beta   90.00000000
_cell_angle_gamma   119.99999997
_symmetry_Int_Tables_number   1
_chemical_formula_structural   KAs4IO6
_chemical_formula_sum   'K1 As4 I1 O6'
_cell_volume   238.23961847
_cell_formula_units_Z   1
loop_
 _symmetry_equiv_pos_site_id
 _symmetry_equiv_pos_as_xyz
  1  'x, y, z'
loop_
 _atom_site_type_symbol
 _atom_site_label
 _atom_site_symmetry_multiplicity
 _atom_site_fract_x
 _atom_site_fract_y
 _atom_site_fract_z
 _atom_site_occupancy
  O  O0  1  0.50000000  0.50000000  0.31908323  1
  O  O1  1  0.00000000  0.50000000  0.68091677  1
  O  O2  1  0.50000000  0.50000000  0.68091677  1
  O  O3  1  0.50000000  0.00000000  0.68091677  1
  O  O4  1  0.00000000  0.50000000  0.31908323  1
  O  O5  1  0.50000000  0.00000000  0.31908323  1
  K  K6  1  0.00000000  0.00000000  0.50000000  1
  As  As7  1  0.33333333  0.66666667  0.78527866  1
  As  As8  1  0.66666667  0.33333333  0.78527866  1
  As  As9  1  0.66666667  0.33333333  0.21472134  1
  As  As10  1  0.33333333  0.66666667  0.21472134  1
  I  I11  1  0.00000000  0.00000000  0.00000000  1
