# generated using pymatgen
data_Ba2TlCuHgO6
_symmetry_space_group_name_H-M   'P 1'
_cell_length_a   3.90053822
_cell_length_b   4.28645531
_cell_length_c   11.20673163
_cell_angle_alpha   78.97456790
_cell_angle_beta   79.97798285
_cell_angle_gamma   90.00000000
_symmetry_Int_Tables_number   1
_chemical_formula_structural   Ba2TlCuHgO6
_chemical_formula_sum   'Ba2 Tl1 Cu1 Hg1 O6'
_cell_volume   180.99861921
_cell_formula_units_Z   1
loop_
 _symmetry_equiv_pos_site_id
 _symmetry_equiv_pos_as_xyz
  1  'x, y, z'
loop_
 _atom_site_type_symbol
 _atom_site_label
 _atom_site_symmetry_multiplicity
 _atom_site_fract_x
 _atom_site_fract_y
 _atom_site_fract_z
 _atom_site_occupancy
  Ba  Ba0  1  0.41303401  0.41303401  0.17393198  1
  Ba  Ba1  1  0.58643852  0.58643852  0.82712295  1
  Tl  Tl2  1  0.79574462  0.79574462  0.40851077  1
  Cu  Cu3  1  0.00171512  0.00171512  0.99656976  1
  Hg  Hg4  1  0.20168015  0.20168016  0.59663969  1
  O  O5  1  0.09778921  0.09778921  0.80442157  1
  O  O6  1  0.89666183  0.89666183  0.20667634  1
  O  O7  1  0.49696938  0.99696938  0.00606125  1
  O  O8  1  0.00107782  0.50107782  0.99784436  1
  O  O9  1  0.77648096  0.27648096  0.44703809  1
  O  O10  1  0.23240838  0.73240838  0.53518325  1
