# generated using pymatgen
data_Cs2SbBr6
_symmetry_space_group_name_H-M   'P 1'
_cell_length_a   13.81551223
_cell_length_b   13.81551223
_cell_length_c   13.81551223
_cell_angle_alpha   131.95330284
_cell_angle_beta   131.95330284
_cell_angle_gamma   70.30278997
_symmetry_Int_Tables_number   1
_chemical_formula_structural   Cs2SbBr6
_chemical_formula_sum   'Cs8 Sb4 Br24'
_cell_volume   1429.35750185
_cell_formula_units_Z   4
loop_
 _symmetry_equiv_pos_site_id
 _symmetry_equiv_pos_as_xyz
  1  'x, y, z'
loop_
 _atom_site_type_symbol
 _atom_site_label
 _atom_site_symmetry_multiplicity
 _atom_site_fract_x
 _atom_site_fract_y
 _atom_site_fract_z
 _atom_site_occupancy
  Cs  Cs0  1  0.50000000  0.25008079  0.75008079  1
  Cs  Cs1  1  0.00000000  0.74991821  0.74991821  1
  Cs  Cs2  1  0.74991921  0.50000000  0.74991921  1
  Cs  Cs3  1  0.25007979  -0.00000000  0.75008079  1
  Cs  Cs4  1  0.50000000  0.74991921  0.24991921  1
  Cs  Cs5  1  0.00000000  0.25008079  0.25008079  1
  Cs  Cs6  1  0.25008079  0.50000000  0.25008079  1
  Cs  Cs7  1  0.74992021  -0.00000000  0.24991921  1
  Sb  Sb8  1  0.62500000  0.37500000  0.25000000  1
  Sb  Sb9  1  0.37500000  0.62500000  0.75000000  1
  Sb  Sb10  1  0.12500000  0.87500000  0.24999900  1
  Sb  Sb11  1  0.87500000  0.12500000  0.75000000  1
  Br  Br12  1  0.75444383  0.00444383  0.75000000  1
  Br  Br13  1  0.00444383  0.75444383  0.24999900  1
  Br  Br14  1  0.99555517  0.24555617  0.75000000  1
  Br  Br15  1  0.24555617  0.99555517  0.25000000  1
  Br  Br16  1  0.50469075  0.25469075  0.25000000  1
  Br  Br17  1  0.49530925  0.74530925  0.75000000  1
  Br  Br18  1  0.74530925  0.49530925  0.25000000  1
  Br  Br19  1  0.25469175  0.50469075  0.75000000  1
  Br  Br20  1  0.36644421  0.87491066  0.49153354  1
  Br  Br21  1  0.88337912  0.87491066  0.00846846  1
  Br  Br22  1  0.63355779  0.12508934  0.50846746  1
  Br  Br23  1  0.11662288  0.12508934  0.99153254  1
  Br  Br24  1  0.12509034  0.63355679  0.00846846  1
  Br  Br25  1  0.12509034  0.11662288  0.49153354  1
  Br  Br26  1  0.87491066  0.36644321  0.99153154  1
  Br  Br27  1  0.87491066  0.88337812  0.50846746  1
  Br  Br28  1  0.86583855  0.37487486  0.49096368  1
  Br  Br29  1  0.38391218  0.37487486  0.00903732  1
  Br  Br30  1  0.13416145  0.62512414  0.50903632  1
  Br  Br31  1  0.61608882  0.62512514  0.99096268  1
  Br  Br32  1  0.62512614  0.13416045  0.00903732  1
  Br  Br33  1  0.62512514  0.61608882  0.49096368  1
  Br  Br34  1  0.37487486  0.86583855  0.99096268  1
  Br  Br35  1  0.37487586  0.38391118  0.50903632  1
