# generated using pymatgen
data_Ba8Ga7
_symmetry_space_group_name_H-M   'P 1'
_cell_length_a   13.08646460
_cell_length_b   13.08646460
_cell_length_c   13.08646460
_cell_angle_alpha   90.00000000
_cell_angle_beta   90.00000000
_cell_angle_gamma   90.00000000
_symmetry_Int_Tables_number   1
_chemical_formula_structural   Ba8Ga7
_chemical_formula_sum   'Ba32 Ga28'
_cell_volume   2241.12976758
_cell_formula_units_Z   4
loop_
 _symmetry_equiv_pos_site_id
 _symmetry_equiv_pos_as_xyz
  1  'x, y, z'
loop_
 _atom_site_type_symbol
 _atom_site_label
 _atom_site_symmetry_multiplicity
 _atom_site_fract_x
 _atom_site_fract_y
 _atom_site_fract_z
 _atom_site_occupancy
  Ga  Ga0  1  0.43202376  0.43202376  0.43202376  1
  Ga  Ga1  1  0.06797624  0.56797624  0.93202376  1
  Ga  Ga2  1  0.93202376  0.06797624  0.56797624  1
  Ga  Ga3  1  0.56797624  0.93202376  0.06797624  1
  Ga  Ga4  1  0.76009380  0.19371011  0.57559930  1
  Ga  Ga5  1  0.57559930  0.76009380  0.19371011  1
  Ga  Ga6  1  0.19371011  0.57559930  0.76009380  1
  Ga  Ga7  1  0.30628989  0.42440070  0.26009380  1
  Ga  Ga8  1  0.07559930  0.73990620  0.80628989  1
  Ga  Ga9  1  0.80628989  0.07559930  0.73990620  1
  Ga  Ga10  1  0.92440070  0.23990620  0.69371011  1
  Ga  Ga11  1  0.42440070  0.26009380  0.30628989  1
  Ga  Ga12  1  0.69371011  0.92440070  0.23990620  1
  Ga  Ga13  1  0.26009380  0.30628989  0.42440070  1
  Ga  Ga14  1  0.23990620  0.69371011  0.92440070  1
  Ga  Ga15  1  0.73990620  0.80628989  0.07559930  1
  Ga  Ga16  1  0.74657316  0.68740552  0.58230660  1
  Ga  Ga17  1  0.58230660  0.74657316  0.68740552  1
  Ga  Ga18  1  0.68740552  0.58230660  0.74657316  1
  Ga  Ga19  1  0.81259448  0.41769340  0.24657316  1
  Ga  Ga20  1  0.08230660  0.75342684  0.31259448  1
  Ga  Ga21  1  0.31259448  0.08230660  0.75342684  1
  Ga  Ga22  1  0.91769340  0.25342684  0.18740552  1
  Ga  Ga23  1  0.41769340  0.24657316  0.81259448  1
  Ga  Ga24  1  0.18740552  0.91769340  0.25342684  1
  Ga  Ga25  1  0.24657316  0.81259448  0.41769340  1
  Ga  Ga26  1  0.25342684  0.18740552  0.91769340  1
  Ga  Ga27  1  0.75342684  0.31259448  0.08230660  1
  Ba  Ba28  1  0.81322628  0.81322628  0.81322628  1
  Ba  Ba29  1  0.68677372  0.18677372  0.31322628  1
  Ba  Ba30  1  0.31322628  0.68677372  0.18677372  1
  Ba  Ba31  1  0.18677372  0.31322628  0.68677372  1
  Ba  Ba32  1  0.18761453  0.18761453  0.18761453  1
  Ba  Ba33  1  0.31238547  0.81238547  0.68761453  1
  Ba  Ba34  1  0.68761453  0.31238547  0.81238547  1
  Ba  Ba35  1  0.81238547  0.68761453  0.31238547  1
  Ba  Ba36  1  0.79798016  0.55723669  0.00102225  1
  Ba  Ba37  1  0.00102225  0.79798016  0.55723669  1
  Ba  Ba38  1  0.55723669  0.00102225  0.79798016  1
  Ba  Ba39  1  0.94276331  0.99897775  0.29798016  1
  Ba  Ba40  1  0.50102225  0.70201984  0.44276331  1
  Ba  Ba41  1  0.44276331  0.50102225  0.70201984  1
  Ba  Ba42  1  0.49897775  0.20201984  0.05723669  1
  Ba  Ba43  1  0.99897775  0.29798016  0.94276331  1
  Ba  Ba44  1  0.05723669  0.49897775  0.20201984  1
  Ba  Ba45  1  0.29798016  0.94276331  0.99897775  1
  Ba  Ba46  1  0.20201984  0.05723669  0.49897775  1
  Ba  Ba47  1  0.70201984  0.44276331  0.50102225  1
  Ba  Ba48  1  0.51961538  0.70307663  0.93848644  1
  Ba  Ba49  1  0.93848644  0.51961538  0.70307663  1
  Ba  Ba50  1  0.70307663  0.93848644  0.51961538  1
  Ba  Ba51  1  0.79692337  0.06151356  0.01961538  1
  Ba  Ba52  1  0.43848644  0.98038462  0.29692337  1
  Ba  Ba53  1  0.29692337  0.43848644  0.98038462  1
  Ba  Ba54  1  0.56151356  0.48038462  0.20307663  1
  Ba  Ba55  1  0.06151356  0.01961538  0.79692337  1
  Ba  Ba56  1  0.20307663  0.56151356  0.48038462  1
  Ba  Ba57  1  0.01961538  0.79692337  0.06151356  1
  Ba  Ba58  1  0.48038462  0.20307663  0.56151356  1
  Ba  Ba59  1  0.98038462  0.29692337  0.43848644  1
