# generated using pymatgen
data_CaVNiP2O9
_symmetry_space_group_name_H-M   'P 1'
_cell_length_a   6.47149491
_cell_length_b   7.49245242
_cell_length_c   14.26355575
_cell_angle_alpha   90.00000000
_cell_angle_beta   90.00000000
_cell_angle_gamma   90.00000000
_symmetry_Int_Tables_number   1
_chemical_formula_structural   CaVNiP2O9
_chemical_formula_sum   'Ca4 V4 Ni4 P8 O36'
_cell_volume   691.60227235
_cell_formula_units_Z   4
loop_
 _symmetry_equiv_pos_site_id
 _symmetry_equiv_pos_as_xyz
  1  'x, y, z'
loop_
 _atom_site_type_symbol
 _atom_site_label
 _atom_site_symmetry_multiplicity
 _atom_site_fract_x
 _atom_site_fract_y
 _atom_site_fract_z
 _atom_site_occupancy
  O  O0  1  0.05191541  0.60691066  0.36789139  1
  O  O1  1  0.55191541  0.39308934  0.63210861  1
  O  O2  1  0.94808459  0.10691066  0.13210861  1
  O  O3  1  0.44808459  0.89308934  0.86789139  1
  O  O4  1  0.94808459  0.39308934  0.63210861  1
  O  O5  1  0.44808459  0.60691066  0.36789139  1
  O  O6  1  0.05191541  0.89308934  0.86789139  1
  O  O7  1  0.55191541  0.10691066  0.13210861  1
  O  O8  1  0.25000000  0.33442489  0.48418207  1
  O  O9  1  0.75000000  0.66557511  0.51581793  1
  O  O10  1  0.75000000  0.83442489  0.01581793  1
  O  O11  1  0.25000000  0.16557511  0.98418207  1
  O  O12  1  0.75000000  0.14321431  0.93923666  1
  O  O13  1  0.25000000  0.85678569  0.06076334  1
  O  O14  1  0.25000000  0.64321431  0.56076334  1
  O  O15  1  0.75000000  0.35678569  0.43923666  1
  O  O16  1  0.75000000  0.21315814  0.75450636  1
  O  O17  1  0.25000000  0.78684186  0.24549364  1
  O  O18  1  0.25000000  0.71315814  0.74549364  1
  O  O19  1  0.75000000  0.28684186  0.25450636  1
  O  O20  1  0.43790528  0.13086536  0.37000757  1
  O  O21  1  0.93790528  0.86913464  0.62999243  1
  O  O22  1  0.56209472  0.63086536  0.12999243  1
  O  O23  1  0.06209472  0.36913464  0.87000757  1
  O  O24  1  0.56209472  0.86913464  0.62999243  1
  O  O25  1  0.06209472  0.13086536  0.37000757  1
  O  O26  1  0.43790528  0.36913464  0.87000757  1
  O  O27  1  0.93790528  0.63086536  0.12999243  1
  O  O28  1  0.75000000  0.96535301  0.26996251  1
  O  O29  1  0.25000000  0.03464699  0.73003749  1
  O  O30  1  0.25000000  0.46535301  0.23003749  1
  O  O31  1  0.75000000  0.53464699  0.76996251  1
  O  O32  1  0.75000000  0.99251208  0.48586553  1
  O  O33  1  0.25000000  0.00748792  0.51413447  1
  O  O34  1  0.25000000  0.49251208  0.01413447  1
  O  O35  1  0.75000000  0.50748792  0.98586553  1
  P  P36  1  0.25000000  0.35131490  0.93769087  1
  P  P37  1  0.75000000  0.64868510  0.06230913  1
  P  P38  1  0.75000000  0.85131490  0.56230913  1
  P  P39  1  0.25000000  0.14868510  0.43769087  1
  P  P40  1  0.75000000  0.38574873  0.69181383  1
  P  P41  1  0.25000000  0.61425127  0.30818617  1
  P  P42  1  0.25000000  0.88574873  0.80818617  1
  P  P43  1  0.75000000  0.11425127  0.19181383  1
  Ca  Ca44  1  0.75000000  0.88029216  0.77981191  1
  Ca  Ca45  1  0.75000000  0.61970784  0.27981191  1
  Ca  Ca46  1  0.25000000  0.11970784  0.22018809  1
  Ca  Ca47  1  0.25000000  0.38029216  0.72018809  1
  V  V48  1  0.75000000  0.34579676  0.88243080  1
  V  V49  1  0.25000000  0.65420324  0.11756920  1
  V  V50  1  0.25000000  0.84579676  0.61756920  1
  V  V51  1  0.75000000  0.15420324  0.38243080  1
  Ni  Ni52  1  0.50000000  0.00000000  0.00000000  1
  Ni  Ni53  1  0.50000000  0.50000000  0.50000000  1
  Ni  Ni54  1  0.00000000  0.50000000  0.50000000  1
  Ni  Ni55  1  0.00000000  0.00000000  0.00000000  1
