# generated using pymatgen
data_Ba(AsRu)2
_symmetry_space_group_name_H-M   'P 1'
_cell_length_a   4.20566960
_cell_length_b   4.20566972
_cell_length_c   6.88919429
_cell_angle_alpha   107.77239724
_cell_angle_beta   107.77239786
_cell_angle_gamma   89.99999663
_symmetry_Int_Tables_number   1
_chemical_formula_structural   Ba(AsRu)2
_chemical_formula_sum   'Ba1 As2 Ru2'
_cell_volume   109.91591287
_cell_formula_units_Z   1
loop_
 _symmetry_equiv_pos_site_id
 _symmetry_equiv_pos_as_xyz
  1  'x, y, z'
loop_
 _atom_site_type_symbol
 _atom_site_label
 _atom_site_symmetry_multiplicity
 _atom_site_fract_x
 _atom_site_fract_y
 _atom_site_fract_z
 _atom_site_occupancy
  Ba  Ba0  1  0.00000000  0.00000000  -0.00000000  1
  As  As1  1  0.34973749  0.34973749  0.69947497  1
  As  As2  1  0.65026251  0.65026251  0.30052503  1
  Ru  Ru3  1  0.25000000  0.75000000  0.50000000  1
  Ru  Ru4  1  0.75000000  0.25000000  0.50000000  1
