# generated using pymatgen
data_Cs2Zn3S4
_symmetry_space_group_name_H-M   'P 1'
_cell_length_a   5.92120679
_cell_length_b   9.58083746
_cell_length_c   9.58083809
_cell_angle_alpha   73.87349323
_cell_angle_beta   72.00028062
_cell_angle_gamma   72.00028558
_symmetry_Int_Tables_number   1
_chemical_formula_structural   Cs2Zn3S4
_chemical_formula_sum   'Cs4 Zn6 S8'
_cell_volume   481.53675169
_cell_formula_units_Z   2
loop_
 _symmetry_equiv_pos_site_id
 _symmetry_equiv_pos_as_xyz
  1  'x, y, z'
loop_
 _atom_site_type_symbol
 _atom_site_label
 _atom_site_symmetry_multiplicity
 _atom_site_fract_x
 _atom_site_fract_y
 _atom_site_fract_z
 _atom_site_occupancy
  Cs  Cs0  1  0.76571808  0.87909423  0.12090601  1
  Cs  Cs1  1  0.26571819  0.62090599  0.37909424  1
  Cs  Cs2  1  0.73428181  0.37909401  0.62090576  1
  Cs  Cs3  1  0.23428192  0.12090577  0.87909399  1
  Zn  Zn4  1  0.24999999  0.25000129  0.24999871  1
  Zn  Zn5  1  0.75000001  0.74999871  0.75000129  1
  Zn  Zn6  1  0.75000001  0.02449870  0.47550130  1
  Zn  Zn7  1  0.75000000  0.47550199  0.02449802  1
  Zn  Zn8  1  0.24999999  0.97550130  0.52449870  1
  Zn  Zn9  1  0.25000000  0.52449801  0.97550198  1
  S  S10  1  0.62347382  0.79233445  0.52366974  1
  S  S11  1  0.43948931  0.70766320  0.97632697  1
  S  S12  1  0.87652616  0.97633030  0.70766554  1
  S  S13  1  0.06051075  0.52367304  0.79233679  1
  S  S14  1  0.37652618  0.20766555  0.47633026  1
  S  S15  1  0.56051069  0.29233680  0.02367303  1
  S  S16  1  0.12347384  0.02366970  0.29233446  1
  S  S17  1  0.93948925  0.47632696  0.20766321  1
