# generated using pymatgen
data_Ta2CoO6
_symmetry_space_group_name_H-M   'P 1'
_cell_length_a   4.80322842
_cell_length_b   4.80322842
_cell_length_c   9.19997717
_cell_angle_alpha   90.00000000
_cell_angle_beta   90.00000000
_cell_angle_gamma   90.00000000
_symmetry_Int_Tables_number   1
_chemical_formula_structural   Ta2CoO6
_chemical_formula_sum   'Ta4 Co2 O12'
_cell_volume   212.25270323
_cell_formula_units_Z   2
loop_
 _symmetry_equiv_pos_site_id
 _symmetry_equiv_pos_as_xyz
  1  'x, y, z'
loop_
 _atom_site_type_symbol
 _atom_site_label
 _atom_site_symmetry_multiplicity
 _atom_site_fract_x
 _atom_site_fract_y
 _atom_site_fract_z
 _atom_site_occupancy
  O  O0  1  0.70468798  0.70468798  0.67667760  1
  O  O1  1  0.29531219  0.29531219  0.67667760  1
  O  O2  1  0.70468798  0.70468798  0.32332187  1
  O  O3  1  0.20468686  0.79531332  0.17667786  1
  O  O4  1  0.79531332  0.20468686  0.17667786  1
  O  O5  1  0.79531332  0.20468686  0.82332161  1
  O  O6  1  0.31145692  0.31145692  0.00000000  1
  O  O7  1  0.18854212  0.81145805  0.49999974  1
  O  O8  1  0.81145805  0.18854212  0.49999974  1
  O  O9  1  0.20468686  0.79531332  0.82332161  1
  O  O10  1  0.29531219  0.29531219  0.32332187  1
  O  O11  1  0.68854325  0.68854325  0.00000000  1
  Co  Co12  1  0.00000000  0.00000000  0.00000000  1
  Co  Co13  1  0.49999905  0.49999905  0.49999974  1
  Ta  Ta14  1  0.00000000  0.00000000  0.33061467  1
  Ta  Ta15  1  0.49999905  0.49999905  0.83061550  1
  Ta  Ta16  1  0.49999905  0.49999905  0.16938507  1
  Ta  Ta17  1  0.00000000  0.00000000  0.66938481  1
