# generated using pymatgen
data_K2CO3
_symmetry_space_group_name_H-M   'P 1'
_cell_length_a   5.73175924
_cell_length_b   7.14730839
_cell_length_c   9.87039588
_cell_angle_alpha   90.00000000
_cell_angle_beta   90.00000000
_cell_angle_gamma   97.32860826
_symmetry_Int_Tables_number   1
_chemical_formula_structural   K2CO3
_chemical_formula_sum   'K8 C4 O12'
_cell_volume   401.05381871
_cell_formula_units_Z   4
loop_
 _symmetry_equiv_pos_site_id
 _symmetry_equiv_pos_as_xyz
  1  'x, y, z'
loop_
 _atom_site_type_symbol
 _atom_site_label
 _atom_site_symmetry_multiplicity
 _atom_site_fract_x
 _atom_site_fract_y
 _atom_site_fract_z
 _atom_site_occupancy
  C  C0  1  0.74890329  0.74417619  0.58411175  1
  C  C1  1  0.74890329  0.24417619  0.91588825  1
  C  C2  1  0.25109671  0.25582381  0.41588825  1
  C  C3  1  0.25109671  0.75582381  0.08411175  1
  O  O4  1  0.93752707  0.22419306  0.84573445  1
  O  O5  1  0.06247293  0.27580694  0.34573445  1
  O  O6  1  0.06247293  0.77580694  0.15426555  1
  O  O7  1  0.93752707  0.72419306  0.65426555  1
  O  O8  1  0.57176758  0.31078721  0.85901516  1
  O  O9  1  0.57176758  0.81078721  0.64098484  1
  O  O10  1  0.42823242  0.68921279  0.14098484  1
  O  O11  1  0.42823242  0.18921279  0.35901516  1
  O  O12  1  0.26191450  0.80641429  0.95669639  1
  O  O13  1  0.73808550  0.69358571  0.45669639  1
  O  O14  1  0.73808550  0.19358571  0.04330361  1
  O  O15  1  0.26191450  0.30641429  0.54330361  1
  K  K16  1  0.25795806  0.52463732  0.76817650  1
  K  K17  1  0.74204194  0.97536268  0.26817650  1
  K  K18  1  0.74204194  0.47536268  0.23182350  1
  K  K19  1  0.25795806  0.02463732  0.73182350  1
  K  K20  1  0.75846199  0.30643977  0.58155830  1
  K  K21  1  0.24153801  0.19356023  0.08155830  1
  K  K22  1  0.24153801  0.69356023  0.41844170  1
  K  K23  1  0.75846199  0.80643977  0.91844170  1
