# generated using pymatgen
data_Bi6P4PbO20
_symmetry_space_group_name_H-M   'P 1'
_cell_length_a   7.05320264
_cell_length_b   7.73982654
_cell_length_c   9.29843840
_cell_angle_alpha   107.11819848
_cell_angle_beta   93.19232968
_cell_angle_gamma   111.95732307
_symmetry_Int_Tables_number   1
_chemical_formula_structural   Bi6P4PbO20
_chemical_formula_sum   'Bi6 P4 Pb1 O20'
_cell_volume   441.99410796
_cell_formula_units_Z   1
loop_
 _symmetry_equiv_pos_site_id
 _symmetry_equiv_pos_as_xyz
  1  'x, y, z'
loop_
 _atom_site_type_symbol
 _atom_site_label
 _atom_site_symmetry_multiplicity
 _atom_site_fract_x
 _atom_site_fract_y
 _atom_site_fract_z
 _atom_site_occupancy
  Bi  Bi0  1  0.19360887  0.69565883  0.67460800  1
  Bi  Bi1  1  0.80639113  0.30434117  0.32539200  1
  Bi  Bi2  1  0.56098337  0.20728911  0.91182916  1
  Bi  Bi3  1  0.43901663  0.79271089  0.08817084  1
  Bi  Bi4  1  0.66848235  0.87386590  0.49024889  1
  Bi  Bi5  1  0.33151765  0.12613410  0.50975111  1
  Pb  Pb6  1  0.00000000  0.00000000  0.00000000  1
  P  P7  1  0.95305750  0.73006980  0.24395908  1
  P  P8  1  0.04694250  0.26993020  0.75604092  1
  P  P9  1  0.34958932  0.40078730  0.25847208  1
  P  P10  1  0.65041068  0.59921270  0.74152792  1
  O  O11  1  0.12336484  0.82576744  0.15771496  1
  O  O12  1  0.87663516  0.17423256  0.84228504  1
  O  O13  1  0.13447805  0.26755096  0.28323643  1
  O  O14  1  0.86552195  0.73244904  0.71676357  1
  O  O15  1  0.78602193  0.81749039  0.24126201  1
  O  O16  1  0.21397807  0.18250961  0.75873799  1
  O  O17  1  0.67640731  0.09393231  0.09736432  1
  O  O18  1  0.32359269  0.90606769  0.90263568  1
  O  O19  1  0.37789874  0.62099297  0.31289071  1
  O  O20  1  0.62210126  0.37900703  0.68710929  1
  O  O21  1  0.35656306  0.32952112  0.08540467  1
  O  O22  1  0.64343694  0.67047888  0.91459533  1
  O  O23  1  0.55420298  0.02793478  0.36289980  1
  O  O24  1  0.44579702  0.97206522  0.63710020  1
  O  O25  1  0.52202713  0.38006817  0.35588688  1
  O  O26  1  0.47797287  0.61993183  0.64411312  1
  O  O27  1  0.04830554  0.79021317  0.41649649  1
  O  O28  1  0.95169446  0.20978683  0.58350351  1
  O  O29  1  0.85562491  0.50039519  0.16891014  1
  O  O30  1  0.14437509  0.49960481  0.83108986  1
