# generated using pymatgen
data_Hg2MoO4
_symmetry_space_group_name_H-M   'P 1'
_cell_length_a   5.28948513
_cell_length_b   9.43828829
_cell_length_c   11.19714553
_cell_angle_alpha   90.00000000
_cell_angle_beta   99.28829720
_cell_angle_gamma   90.00000000
_symmetry_Int_Tables_number   1
_chemical_formula_structural   Hg2MoO4
_chemical_formula_sum   'Hg8 Mo4 O16'
_cell_volume   551.67352229
_cell_formula_units_Z   4
loop_
 _symmetry_equiv_pos_site_id
 _symmetry_equiv_pos_as_xyz
  1  'x, y, z'
loop_
 _atom_site_type_symbol
 _atom_site_label
 _atom_site_symmetry_multiplicity
 _atom_site_fract_x
 _atom_site_fract_y
 _atom_site_fract_z
 _atom_site_occupancy
  O  O0  1  0.28883755  0.09316704  0.71647920  1
  O  O1  1  0.71116245  0.59316704  0.78352080  1
  O  O2  1  0.71116245  0.90683296  0.28352080  1
  O  O3  1  0.28883755  0.40683296  0.21647920  1
  O  O4  1  0.21230166  0.48647784  0.91014828  1
  O  O5  1  0.78769834  0.98647784  0.58985172  1
  O  O6  1  0.78769834  0.51352216  0.08985172  1
  O  O7  1  0.21230166  0.01352216  0.41014828  1
  O  O8  1  0.16403999  0.79031944  0.71057699  1
  O  O9  1  0.83596001  0.29031944  0.78942301  1
  O  O10  1  0.83596001  0.20968056  0.28942301  1
  O  O11  1  0.16403999  0.70968056  0.21057699  1
  O  O12  1  0.10117640  0.02840680  0.14233256  1
  O  O13  1  0.89882360  0.52840680  0.35766744  1
  O  O14  1  0.89882360  0.97159320  0.85766744  1
  O  O15  1  0.10117640  0.47159320  0.64233256  1
  Mo  Mo16  1  0.03144160  0.96263306  0.71659049  1
  Mo  Mo17  1  0.96855840  0.46263306  0.78340951  1
  Mo  Mo18  1  0.96855840  0.03736694  0.28340951  1
  Mo  Mo19  1  0.03144160  0.53736694  0.21659049  1
  Hg  Hg20  1  0.66469730  0.12810140  0.93646152  1
  Hg  Hg21  1  0.33530270  0.62810140  0.56353848  1
  Hg  Hg22  1  0.33530270  0.87189860  0.06353848  1
  Hg  Hg23  1  0.66469730  0.37189860  0.43646152  1
  Hg  Hg24  1  0.44914463  0.20641440  0.57646568  1
  Hg  Hg25  1  0.55085537  0.70641440  0.92353432  1
  Hg  Hg26  1  0.55085537  0.79358560  0.42353432  1
  Hg  Hg27  1  0.44914463  0.29358560  0.07646568  1
