# generated using pymatgen
data_Rb3Ti3Te11
_symmetry_space_group_name_H-M   'P 1'
_cell_length_a   10.81737391
_cell_length_b   15.04308731
_cell_length_c   15.67103680
_cell_angle_alpha   90.00000000
_cell_angle_beta   90.00000000
_cell_angle_gamma   91.71365299
_symmetry_Int_Tables_number   1
_chemical_formula_structural   Rb3Ti3Te11
_chemical_formula_sum   'Rb12 Ti12 Te44'
_cell_volume   2548.95560959
_cell_formula_units_Z   4
loop_
 _symmetry_equiv_pos_site_id
 _symmetry_equiv_pos_as_xyz
  1  'x, y, z'
loop_
 _atom_site_type_symbol
 _atom_site_label
 _atom_site_symmetry_multiplicity
 _atom_site_fract_x
 _atom_site_fract_y
 _atom_site_fract_z
 _atom_site_occupancy
  Rb  Rb0  1  0.42449263  0.85163116  0.52582615  1
  Rb  Rb1  1  0.57550737  0.14836884  0.47417385  1
  Rb  Rb2  1  0.73201195  0.44290092  0.62207674  1
  Rb  Rb3  1  0.05016494  0.12374444  0.61065477  1
  Rb  Rb4  1  0.44983506  0.37625556  0.11065477  1
  Rb  Rb5  1  0.92449263  0.35163116  0.97417385  1
  Rb  Rb6  1  0.94983506  0.87625556  0.38934523  1
  Rb  Rb7  1  0.76798805  0.05709908  0.12207674  1
  Rb  Rb8  1  0.23201195  0.94290092  0.87792326  1
  Rb  Rb9  1  0.07550737  0.64836884  0.02582615  1
  Rb  Rb10  1  0.26798805  0.55709908  0.37792326  1
  Rb  Rb11  1  0.55016494  0.62374444  0.88934523  1
  Ti  Ti12  1  0.72264880  0.67599890  0.18857982  1
  Ti  Ti13  1  0.67989209  0.02210460  0.71514760  1
  Ti  Ti14  1  0.96966960  0.31920587  0.29894490  1
  Ti  Ti15  1  0.17989209  0.52210460  0.78485240  1
  Ti  Ti16  1  0.82010791  0.47789540  0.21514760  1
  Ti  Ti17  1  0.46966960  0.81920587  0.20105510  1
  Ti  Ti18  1  0.22264880  0.17599890  0.31142018  1
  Ti  Ti19  1  0.27735120  0.32400110  0.81142018  1
  Ti  Ti20  1  0.53033040  0.18079413  0.79894490  1
  Ti  Ti21  1  0.77735120  0.82400110  0.68857982  1
  Ti  Ti22  1  0.03033040  0.68079413  0.70105510  1
  Ti  Ti23  1  0.32010791  0.97789540  0.28485240  1
  Te  Te24  1  0.66344268  0.80890143  0.07122590  1
  Te  Te25  1  0.44192795  0.13064292  0.21853623  1
  Te  Te26  1  0.26231537  0.04557602  0.43574615  1
  Te  Te27  1  0.55807205  0.86935708  0.78146377  1
  Te  Te28  1  0.74753372  0.19388849  0.70966608  1
  Te  Te29  1  0.03558936  0.86787803  0.66498963  1
  Te  Te30  1  0.83655732  0.69109857  0.57122590  1
  Te  Te31  1  0.60147029  0.68867283  0.65329926  1
  Te  Te32  1  0.88878085  0.47373421  0.38965326  1
  Te  Te33  1  0.16344268  0.30890143  0.42877410  1
  Te  Te34  1  0.11121915  0.52626579  0.61034674  1
  Te  Te35  1  0.39852971  0.31132717  0.34670074  1
  Te  Te36  1  0.58549931  0.94904237  0.30374062  1
  Te  Te37  1  0.46441064  0.63212197  0.16498963  1
  Te  Te38  1  0.08549931  0.44904237  0.19625938  1
  Te  Te39  1  0.12604782  0.72190625  0.53726769  1
  Te  Te40  1  0.94192795  0.63064292  0.28146377  1
  Te  Te41  1  0.62604782  0.22190625  0.96273231  1
  Te  Te42  1  0.05807205  0.36935708  0.71853623  1
  Te  Te43  1  0.10147029  0.18867283  0.84670074  1
  Te  Te44  1  0.41450069  0.05095763  0.69625938  1
  Te  Te45  1  0.39273376  0.45641545  0.70425333  1
  Te  Te46  1  0.37802840  0.23624981  0.66391760  1
  Te  Te47  1  0.12197160  0.26375019  0.16391760  1
  Te  Te48  1  0.25246628  0.80611151  0.29033392  1
  Te  Te49  1  0.87802840  0.73624981  0.83608240  1
  Te  Te50  1  0.75246628  0.30611151  0.20966608  1
  Te  Te51  1  0.76231537  0.54557602  0.06425385  1
  Te  Te52  1  0.10726624  0.04358455  0.20425333  1
  Te  Te53  1  0.23768463  0.45442398  0.93574615  1
  Te  Te54  1  0.33655732  0.19109857  0.92877410  1
  Te  Te55  1  0.87395218  0.27809375  0.46273231  1
  Te  Te56  1  0.60726624  0.54358455  0.29574667  1
  Te  Te57  1  0.89273376  0.95641545  0.79574667  1
  Te  Te58  1  0.61121915  0.02626579  0.88965326  1
  Te  Te59  1  0.96441064  0.13212197  0.33501037  1
  Te  Te60  1  0.38878085  0.97373421  0.11034674  1
  Te  Te61  1  0.73768463  0.95442398  0.56425385  1
  Te  Te62  1  0.37395218  0.77809375  0.03726769  1
  Te  Te63  1  0.91450069  0.55095763  0.80374062  1
  Te  Te64  1  0.24753372  0.69388849  0.79033392  1
  Te  Te65  1  0.62197160  0.76375019  0.33608240  1
  Te  Te66  1  0.53558936  0.36787803  0.83501037  1
  Te  Te67  1  0.89852971  0.81132717  0.15329926  1
