# generated using pymatgen
data_HfV2O7
_symmetry_space_group_name_H-M   'P 1'
_cell_length_a   8.98861954
_cell_length_b   8.98861954
_cell_length_c   8.98861954
_cell_angle_alpha   90.00000000
_cell_angle_beta   90.00000000
_cell_angle_gamma   90.00000000
_symmetry_Int_Tables_number   1
_chemical_formula_structural   HfV2O7
_chemical_formula_sum   'Hf4 V8 O28'
_cell_volume   726.23804365
_cell_formula_units_Z   4
loop_
 _symmetry_equiv_pos_site_id
 _symmetry_equiv_pos_as_xyz
  1  'x, y, z'
loop_
 _atom_site_type_symbol
 _atom_site_label
 _atom_site_symmetry_multiplicity
 _atom_site_fract_x
 _atom_site_fract_y
 _atom_site_fract_z
 _atom_site_occupancy
  O  O0  1  0.50000000  0.00000000  0.00000000  1
  O  O1  1  0.00000000  0.00000000  0.50000000  1
  O  O2  1  0.00000000  0.50000000  0.00000000  1
  O  O3  1  0.50000000  0.50000000  0.50000000  1
  O  O4  1  0.93657143  0.20233349  0.09069782  1
  O  O5  1  0.43657143  0.29766651  0.90930218  1
  O  O6  1  0.06342857  0.70233349  0.40930218  1
  O  O7  1  0.29766651  0.90930218  0.43657143  1
  O  O8  1  0.40930218  0.06342857  0.70233349  1
  O  O9  1  0.90930218  0.43657143  0.29766651  1
  O  O10  1  0.20233349  0.09069782  0.93657143  1
  O  O11  1  0.09069782  0.93657143  0.20233349  1
  O  O12  1  0.43657143  0.20233349  0.40930218  1
  O  O13  1  0.40930218  0.43657143  0.20233349  1
  O  O14  1  0.20233349  0.40930218  0.43657143  1
  O  O15  1  0.29766651  0.59069782  0.93657143  1
  O  O16  1  0.90930218  0.06342857  0.79766651  1
  O  O17  1  0.79766651  0.90930218  0.06342857  1
  O  O18  1  0.09069782  0.56342857  0.70233349  1
  O  O19  1  0.59069782  0.93657143  0.29766651  1
  O  O20  1  0.70233349  0.09069782  0.56342857  1
  O  O21  1  0.93657143  0.29766651  0.59069782  1
  O  O22  1  0.56342857  0.70233349  0.09069782  1
  O  O23  1  0.06342857  0.79766651  0.90930218  1
  O  O24  1  0.56342857  0.79766651  0.59069782  1
  O  O25  1  0.59069782  0.56342857  0.79766651  1
  O  O26  1  0.79766651  0.59069782  0.56342857  1
  O  O27  1  0.70233349  0.40930218  0.06342857  1
  V  V28  1  0.38497528  0.11502472  0.88497528  1
  V  V29  1  0.11502472  0.88497528  0.38497528  1
  V  V30  1  0.88497528  0.38497528  0.11502472  1
  V  V31  1  0.61502472  0.61502472  0.61502472  1
  V  V32  1  0.61502472  0.88497528  0.11502472  1
  V  V33  1  0.88497528  0.11502472  0.61502472  1
  V  V34  1  0.11502472  0.61502472  0.88497528  1
  V  V35  1  0.38497528  0.38497528  0.38497528  1
  Hf  Hf36  1  0.00000000  0.50000000  0.50000000  1
  Hf  Hf37  1  0.50000000  0.50000000  0.00000000  1
  Hf  Hf38  1  0.50000000  0.00000000  0.50000000  1
  Hf  Hf39  1  0.00000000  0.00000000  0.00000000  1
