# generated using pymatgen
data_Dy2Te
_symmetry_space_group_name_H-M   'P 1'
_cell_length_a   4.06698735
_cell_length_b   11.54166612
_cell_length_c   22.20945229
_cell_angle_alpha   90.00000000
_cell_angle_beta   90.00000000
_cell_angle_gamma   90.00000000
_symmetry_Int_Tables_number   1
_chemical_formula_structural   Dy2Te
_chemical_formula_sum   'Dy24 Te12'
_cell_volume   1042.50747309
_cell_formula_units_Z   12
loop_
 _symmetry_equiv_pos_site_id
 _symmetry_equiv_pos_as_xyz
  1  'x, y, z'
loop_
 _atom_site_type_symbol
 _atom_site_label
 _atom_site_symmetry_multiplicity
 _atom_site_fract_x
 _atom_site_fract_y
 _atom_site_fract_z
 _atom_site_occupancy
  Dy  Dy0  1  0.25000000  0.15175658  0.39140984  1
  Dy  Dy1  1  0.75000000  0.84824342  0.60859016  1
  Dy  Dy2  1  0.75000000  0.65175658  0.10859016  1
  Dy  Dy3  1  0.25000000  0.34824342  0.89140984  1
  Dy  Dy4  1  0.25000000  0.45595476  0.33996357  1
  Dy  Dy5  1  0.75000000  0.54404524  0.66003643  1
  Dy  Dy6  1  0.75000000  0.95595476  0.16003643  1
  Dy  Dy7  1  0.25000000  0.04404524  0.83996357  1
  Dy  Dy8  1  0.25000000  0.73462737  0.23339884  1
  Dy  Dy9  1  0.75000000  0.26537263  0.76660116  1
  Dy  Dy10  1  0.75000000  0.23462737  0.26660116  1
  Dy  Dy11  1  0.25000000  0.76537263  0.73339884  1
  Dy  Dy12  1  0.25000000  0.11612364  0.03424713  1
  Dy  Dy13  1  0.75000000  0.88387636  0.96575287  1
  Dy  Dy14  1  0.75000000  0.61612364  0.46575287  1
  Dy  Dy15  1  0.25000000  0.38387636  0.53424713  1
  Dy  Dy16  1  0.25000000  0.41513943  0.14672894  1
  Dy  Dy17  1  0.75000000  0.58486057  0.85327106  1
  Dy  Dy18  1  0.75000000  0.91513943  0.35327106  1
  Dy  Dy19  1  0.25000000  0.08486057  0.64672894  1
  Dy  Dy20  1  0.25000000  0.61309328  0.98310072  1
  Dy  Dy21  1  0.75000000  0.38690672  0.01689928  1
  Dy  Dy22  1  0.75000000  0.11309328  0.51689928  1
  Dy  Dy23  1  0.25000000  0.88690672  0.48310072  1
  Te  Te24  1  0.25000000  0.85069398  0.06888361  1
  Te  Te25  1  0.75000000  0.14930602  0.93111639  1
  Te  Te26  1  0.75000000  0.35069398  0.43111639  1
  Te  Te27  1  0.25000000  0.64930602  0.56888361  1
  Te  Te28  1  0.25000000  0.71193849  0.37263150  1
  Te  Te29  1  0.75000000  0.28806151  0.62736850  1
  Te  Te30  1  0.75000000  0.21193849  0.12736850  1
  Te  Te31  1  0.25000000  0.78806151  0.87263150  1
  Te  Te32  1  0.25000000  0.02036829  0.26083737  1
  Te  Te33  1  0.75000000  0.97963171  0.73916263  1
  Te  Te34  1  0.75000000  0.52036829  0.23916263  1
  Te  Te35  1  0.25000000  0.47963171  0.76083737  1
