# generated using pymatgen
data_Mg2GeB2Rh5
_symmetry_space_group_name_H-M   'P 1'
_cell_length_a   2.93730291
_cell_length_b   9.42012054
_cell_length_c   9.42012054
_cell_angle_alpha   90.00000000
_cell_angle_beta   90.00000000
_cell_angle_gamma   90.00000000
_symmetry_Int_Tables_number   1
_chemical_formula_structural   Mg2GeB2Rh5
_chemical_formula_sum   'Mg4 Ge2 B4 Rh10'
_cell_volume   260.65235652
_cell_formula_units_Z   2
loop_
 _symmetry_equiv_pos_site_id
 _symmetry_equiv_pos_as_xyz
  1  'x, y, z'
loop_
 _atom_site_type_symbol
 _atom_site_label
 _atom_site_symmetry_multiplicity
 _atom_site_fract_x
 _atom_site_fract_y
 _atom_site_fract_z
 _atom_site_occupancy
  Rh  Rh0  1  0.50000000  0.21361559  0.07206651  1
  Rh  Rh1  1  0.50000000  0.92793349  0.21361559  1
  Rh  Rh2  1  0.50000000  0.07206651  0.78638441  1
  Rh  Rh3  1  0.50000000  0.78638441  0.92793349  1
  Rh  Rh4  1  0.50000000  0.71361559  0.42793349  1
  Rh  Rh5  1  0.50000000  0.28638441  0.57206651  1
  Rh  Rh6  1  0.50000000  0.57206651  0.71361559  1
  Rh  Rh7  1  0.50000000  0.42793349  0.28638441  1
  Rh  Rh8  1  0.50000000  0.00000000  0.50000000  1
  Rh  Rh9  1  0.50000000  0.50000000  0.00000000  1
  Mg  Mg10  1  0.00000000  0.32533459  0.82533459  1
  Mg  Mg11  1  0.00000000  0.17466541  0.32533459  1
  Mg  Mg12  1  0.00000000  0.82533459  0.67466541  1
  Mg  Mg13  1  0.00000000  0.67466541  0.17466541  1
  B  B14  1  0.00000000  0.12525428  0.62525428  1
  B  B15  1  0.00000000  0.37474572  0.12525428  1
  B  B16  1  0.00000000  0.62525428  0.87474572  1
  B  B17  1  0.00000000  0.87474572  0.37474572  1
  Ge  Ge18  1  0.00000000  0.00000000  0.00000000  1
  Ge  Ge19  1  0.00000000  0.50000000  0.50000000  1
