# generated using pymatgen
data_CsTi2Cl7
_symmetry_space_group_name_H-M   'P 1'
_cell_length_a   6.81124730
_cell_length_b   7.58204545
_cell_length_c   11.41582631
_cell_angle_alpha   90.00000000
_cell_angle_beta   90.00000000
_cell_angle_gamma   94.83466543
_symmetry_Int_Tables_number   1
_chemical_formula_structural   CsTi2Cl7
_chemical_formula_sum   'Cs2 Ti4 Cl14'
_cell_volume   587.45205992
_cell_formula_units_Z   2
loop_
 _symmetry_equiv_pos_site_id
 _symmetry_equiv_pos_as_xyz
  1  'x, y, z'
loop_
 _atom_site_type_symbol
 _atom_site_label
 _atom_site_symmetry_multiplicity
 _atom_site_fract_x
 _atom_site_fract_y
 _atom_site_fract_z
 _atom_site_occupancy
  Cs  Cs0  1  0.94100797  0.62921617  0.75000000  1
  Cs  Cs1  1  0.05899203  0.37078383  0.25000000  1
  Cl  Cl2  1  0.43984878  0.89529920  0.75000000  1
  Cl  Cl3  1  0.56015122  0.10470080  0.25000000  1
  Cl  Cl4  1  0.45202192  0.33943437  0.75000000  1
  Cl  Cl5  1  0.54797808  0.66056563  0.25000000  1
  Cl  Cl6  1  0.86737413  0.13018477  0.75000000  1
  Cl  Cl7  1  0.13262587  0.86981523  0.25000000  1
  Ti  Ti8  1  0.58295438  0.12588432  0.88560673  1
  Ti  Ti9  1  0.41704562  0.87411568  0.38560673  1
  Ti  Ti10  1  0.41704562  0.87411568  0.11439327  1
  Ti  Ti11  1  0.58295438  0.12588432  0.61439327  1
  Cl  Cl12  1  0.72055777  0.89425498  0.00180308  1
  Cl  Cl13  1  0.27944223  0.10574502  0.50180308  1
  Cl  Cl14  1  0.27944223  0.10574502  0.99819692  1
  Cl  Cl15  1  0.72055777  0.89425498  0.49819692  1
  Cl  Cl16  1  0.73970082  0.35154831  0.99529379  1
  Cl  Cl17  1  0.26029918  0.64845169  0.49529379  1
  Cl  Cl18  1  0.26029918  0.64845169  0.00470621  1
  Cl  Cl19  1  0.73970082  0.35154831  0.50470621  1
