# generated using pymatgen
data_U4As6Ru7
_symmetry_space_group_name_H-M   'P 1'
_cell_length_a   7.23445331
_cell_length_b   7.23445261
_cell_length_c   7.23445345
_cell_angle_alpha   109.47122011
_cell_angle_beta   109.47121813
_cell_angle_gamma   109.47122115
_symmetry_Int_Tables_number   1
_chemical_formula_structural   U4As6Ru7
_chemical_formula_sum   'U4 As6 Ru7'
_cell_volume   291.47092783
_cell_formula_units_Z   1
loop_
 _symmetry_equiv_pos_site_id
 _symmetry_equiv_pos_as_xyz
  1  'x, y, z'
loop_
 _atom_site_type_symbol
 _atom_site_label
 _atom_site_symmetry_multiplicity
 _atom_site_fract_x
 _atom_site_fract_y
 _atom_site_fract_z
 _atom_site_occupancy
  U  U0  1  0.50000000  0.50000000  0.50000000  1
  U  U1  1  0.50000000  0.00000000  0.00000000  1
  U  U2  1  0.00000000  0.50000000  0.00000000  1
  U  U3  1  0.00000000  0.00000000  0.50000000  1
  Ru  Ru4  1  0.50000000  0.75000000  0.25000000  1
  Ru  Ru5  1  0.75000000  0.50000000  0.25000000  1
  Ru  Ru6  1  0.25000000  0.50000000  0.75000000  1
  Ru  Ru7  1  0.75000000  0.25000000  0.50000000  1
  Ru  Ru8  1  0.25000000  0.75000000  0.50000000  1
  Ru  Ru9  1  0.50000000  0.25000000  0.75000000  1
  Ru  Ru10  1  0.00000000  0.00000000  0.00000000  1
  As  As11  1  1.00000000  0.30941049  0.30941049  1
  As  As12  1  0.30941049  1.00000000  0.30941049  1
  As  As13  1  0.69058951  0.00000000  0.69058951  1
  As  As14  1  0.69058951  0.69058951  1.00000000  1
  As  As15  1  0.30941049  0.30941049  0.00000000  1
  As  As16  1  0.00000000  0.69058951  0.69058951  1
