# generated using pymatgen
data_SmH18(IO3)3
_symmetry_space_group_name_H-M   'P 1'
_cell_length_a   8.07613286
_cell_length_b   8.97714341
_cell_length_c   11.59979384
_cell_angle_alpha   90.00000000
_cell_angle_beta   90.00000000
_cell_angle_gamma   90.00000000
_symmetry_Int_Tables_number   1
_chemical_formula_structural   SmH18(IO3)3
_chemical_formula_sum   'Sm2 H36 I6 O18'
_cell_volume   840.99204671
_cell_formula_units_Z   2
loop_
 _symmetry_equiv_pos_site_id
 _symmetry_equiv_pos_as_xyz
  1  'x, y, z'
loop_
 _atom_site_type_symbol
 _atom_site_label
 _atom_site_symmetry_multiplicity
 _atom_site_fract_x
 _atom_site_fract_y
 _atom_site_fract_z
 _atom_site_occupancy
  Sm  Sm0  1  0.75000000  0.66411897  0.25000000  1
  Sm  Sm1  1  0.25000000  0.33588103  0.75000000  1
  I  I2  1  0.25000000  0.82852967  0.48725555  1
  I  I3  1  0.75000000  0.17147033  0.51274445  1
  I  I4  1  0.25000000  0.82852967  0.01274445  1
  I  I5  1  0.75000000  0.17147033  0.98725555  1
  I  I6  1  0.75000000  0.69318270  0.75000000  1
  I  I7  1  0.25000000  0.30681730  0.25000000  1
  O  O8  1  0.53555089  0.56225344  0.37922171  1
  O  O9  1  0.03555089  0.43774656  0.62077829  1
  O  O10  1  0.96444911  0.56225344  0.12077829  1
  O  O11  1  0.46444911  0.43774656  0.87922171  1
  O  O12  1  0.46444911  0.43774656  0.62077829  1
  O  O13  1  0.96444911  0.56225344  0.37922171  1
  O  O14  1  0.03555089  0.43774656  0.87922171  1
  O  O15  1  0.53555089  0.56225344  0.12077829  1
  O  O16  1  0.75000000  0.38392397  0.25000000  1
  O  O17  1  0.25000000  0.61607603  0.75000000  1
  O  O18  1  0.95720144  0.87084055  0.25000000  1
  O  O19  1  0.45720144  0.12915945  0.75000000  1
  O  O20  1  0.54279856  0.87084055  0.25000000  1
  O  O21  1  0.04279856  0.12915945  0.75000000  1
  O  O22  1  0.75000000  0.79580790  0.43887420  1
  O  O23  1  0.25000000  0.20419210  0.56112580  1
  O  O24  1  0.75000000  0.79580790  0.06112580  1
  O  O25  1  0.25000000  0.20419210  0.93887420  1
  H  H26  1  0.46477662  0.48065933  0.35029369  1
  H  H27  1  0.96477662  0.51934067  0.64970631  1
  H  H28  1  0.03522338  0.48065933  0.14970631  1
  H  H29  1  0.53522338  0.51934067  0.85029369  1
  H  H30  1  0.53522338  0.51934067  0.64970631  1
  H  H31  1  0.03522338  0.48065933  0.35029369  1
  H  H32  1  0.96477662  0.51934067  0.85029369  1
  H  H33  1  0.46477662  0.48065933  0.14970631  1
  H  H34  1  0.45983829  0.63060619  0.42023515  1
  H  H35  1  0.95983829  0.36939381  0.57976485  1
  H  H36  1  0.04016171  0.63060619  0.07976485  1
  H  H37  1  0.54016171  0.36939381  0.92023515  1
  H  H38  1  0.54016171  0.36939381  0.57976485  1
  H  H39  1  0.04016171  0.63060619  0.42023515  1
  H  H40  1  0.95983829  0.36939381  0.92023515  1
  H  H41  1  0.45983829  0.63060619  0.07976485  1
  H  H42  1  0.75000000  0.31881954  0.18153644  1
  H  H43  1  0.25000000  0.68118046  0.81846356  1
  H  H44  1  0.75000000  0.31881954  0.31846356  1
  H  H45  1  0.25000000  0.68118046  0.68153644  1
  H  H46  1  0.02959081  0.88362695  0.18235963  1
  H  H47  1  0.52959081  0.11637305  0.81764037  1
  H  H48  1  0.47040919  0.88362695  0.31764037  1
  H  H49  1  0.97040919  0.11637305  0.68235963  1
  H  H50  1  0.97040919  0.11637305  0.81764037  1
  H  H51  1  0.47040919  0.88362695  0.18235963  1
  H  H52  1  0.52959081  0.11637305  0.68235963  1
  H  H53  1  0.02959081  0.88362695  0.31764037  1
  H  H54  1  0.75000000  0.90496242  0.45103119  1
  H  H55  1  0.25000000  0.09503758  0.54896881  1
  H  H56  1  0.75000000  0.90496242  0.04896881  1
  H  H57  1  0.25000000  0.09503758  0.95103119  1
  H  H58  1  0.75000000  0.75190186  0.51642704  1
  H  H59  1  0.25000000  0.24809814  0.48357296  1
  H  H60  1  0.75000000  0.75190186  0.98357296  1
  H  H61  1  0.25000000  0.24809814  0.01642704  1
