# generated using pymatgen
data_Tb2Mo4O15
_symmetry_space_group_name_H-M   'P 1'
_cell_length_a   6.95517323
_cell_length_b   9.74701022
_cell_length_c   10.83996385
_cell_angle_alpha   90.00000000
_cell_angle_beta   105.00047242
_cell_angle_gamma   90.00000000
_symmetry_Int_Tables_number   1
_chemical_formula_structural   Tb2Mo4O15
_chemical_formula_sum   'Tb4 Mo8 O30'
_cell_volume   709.82293121
_cell_formula_units_Z   2
loop_
 _symmetry_equiv_pos_site_id
 _symmetry_equiv_pos_as_xyz
  1  'x, y, z'
loop_
 _atom_site_type_symbol
 _atom_site_label
 _atom_site_symmetry_multiplicity
 _atom_site_fract_x
 _atom_site_fract_y
 _atom_site_fract_z
 _atom_site_occupancy
  O  O0  1  0.11438284  0.83372575  0.10033789  1
  O  O1  1  0.88561716  0.33372575  0.39966211  1
  O  O2  1  0.88561716  0.16627425  0.89966211  1
  O  O3  1  0.11438284  0.66627425  0.60033789  1
  O  O4  1  0.54415898  0.02700904  0.28906428  1
  O  O5  1  0.45584102  0.52700904  0.21093572  1
  O  O6  1  0.45584102  0.97299096  0.71093572  1
  O  O7  1  0.54415898  0.47299096  0.78906428  1
  O  O8  1  0.02739033  0.62757444  0.89921897  1
  O  O9  1  0.97260967  0.12757444  0.60078103  1
  O  O10  1  0.97260967  0.37242556  0.10078103  1
  O  O11  1  0.02739033  0.87242556  0.39921897  1
  O  O12  1  0.50000000  0.50000000  0.50000000  1
  O  O13  1  0.50000000  0.00000000  0.00000000  1
  O  O14  1  0.75879511  0.63642347  0.38346661  1
  O  O15  1  0.24120489  0.13642347  0.11653339  1
  O  O16  1  0.24120489  0.36357653  0.61653339  1
  O  O17  1  0.75879511  0.86357653  0.88346661  1
  O  O18  1  0.61447666  0.22396301  0.65065730  1
  O  O19  1  0.38552334  0.72396301  0.84934270  1
  O  O20  1  0.38552334  0.77603699  0.34934270  1
  O  O21  1  0.61447666  0.27603699  0.15065730  1
  O  O22  1  0.78133736  0.85014189  0.58096795  1
  O  O23  1  0.21866264  0.35014189  0.91903205  1
  O  O24  1  0.21866264  0.14985811  0.41903205  1
  O  O25  1  0.78133736  0.64985811  0.08096795  1
  O  O26  1  0.87284123  0.44813644  0.68490543  1
  O  O27  1  0.12715877  0.94813644  0.81509457  1
  O  O28  1  0.12715877  0.55186356  0.31509457  1
  O  O29  1  0.87284123  0.05186356  0.18490543  1
  Mo  Mo30  1  0.91960554  0.74285454  0.99004514  1
  Mo  Mo31  1  0.08039446  0.24285454  0.50995486  1
  Mo  Mo32  1  0.08039446  0.25714546  0.00995486  1
  Mo  Mo33  1  0.91960554  0.75714546  0.49004514  1
  Mo  Mo34  1  0.61696322  0.09423863  0.15550510  1
  Mo  Mo35  1  0.38303678  0.59423863  0.34449490  1
  Mo  Mo36  1  0.38303678  0.90576137  0.84449490  1
  Mo  Mo37  1  0.61696322  0.40576137  0.65550510  1
  Tb  Tb38  1  0.79322142  0.47647336  0.22534344  1
  Tb  Tb39  1  0.20677858  0.97647336  0.27465656  1
  Tb  Tb40  1  0.20677858  0.52352664  0.77465656  1
  Tb  Tb41  1  0.79322142  0.02352664  0.72534344  1
