# generated using pymatgen
data_NClO
_symmetry_space_group_name_H-M   'P 1'
_cell_length_a   4.23503248
_cell_length_b   5.49458601
_cell_length_c   11.52728638
_cell_angle_alpha   90.00000000
_cell_angle_beta   90.00000000
_cell_angle_gamma   90.00000000
_symmetry_Int_Tables_number   1
_chemical_formula_structural   NClO
_chemical_formula_sum   'N4 Cl4 O4'
_cell_volume   268.23707474
_cell_formula_units_Z   4
loop_
 _symmetry_equiv_pos_site_id
 _symmetry_equiv_pos_as_xyz
  1  'x, y, z'
loop_
 _atom_site_type_symbol
 _atom_site_label
 _atom_site_symmetry_multiplicity
 _atom_site_fract_x
 _atom_site_fract_y
 _atom_site_fract_z
 _atom_site_occupancy
  Cl  Cl0  1  0.55211374  0.25000000  0.15023556  1
  Cl  Cl1  1  0.05211374  0.75000000  0.34976444  1
  Cl  Cl2  1  0.44788626  0.75000000  0.84976444  1
  Cl  Cl3  1  0.94788626  0.25000000  0.65023556  1
  N  N4  1  0.67292861  0.25000000  0.32846635  1
  N  N5  1  0.17292861  0.75000000  0.17153365  1
  N  N6  1  0.32707139  0.75000000  0.67153365  1
  N  N7  1  0.82707139  0.25000000  0.82846635  1
  O  O8  1  0.45824572  0.25000000  0.38851739  1
  O  O9  1  0.95824572  0.75000000  0.11148261  1
  O  O10  1  0.54175428  0.75000000  0.61148261  1
  O  O11  1  0.04175428  0.25000000  0.88851739  1
