# generated using pymatgen
data_NaP2H5O8
_symmetry_space_group_name_H-M   'P 1'
_cell_length_a   7.82523017
_cell_length_b   8.68703371
_cell_length_c   10.50566577
_cell_angle_alpha   89.80122425
_cell_angle_beta   90.00000000
_cell_angle_gamma   90.00000000
_symmetry_Int_Tables_number   1
_chemical_formula_structural   NaP2H5O8
_chemical_formula_sum   'Na4 P8 H20 O32'
_cell_volume   714.15025190
_cell_formula_units_Z   4
loop_
 _symmetry_equiv_pos_site_id
 _symmetry_equiv_pos_as_xyz
  1  'x, y, z'
loop_
 _atom_site_type_symbol
 _atom_site_label
 _atom_site_symmetry_multiplicity
 _atom_site_fract_x
 _atom_site_fract_y
 _atom_site_fract_z
 _atom_site_occupancy
  Na  Na0  1  0.41215766  0.77892376  0.33775465  1
  Na  Na1  1  0.91215766  0.22107624  0.16224535  1
  Na  Na2  1  0.58784234  0.22107624  0.66224535  1
  Na  Na3  1  0.08784234  0.77892376  0.83775465  1
  P  P4  1  0.98714440  0.58584332  0.30760307  1
  P  P5  1  0.48714440  0.41415668  0.19239693  1
  P  P6  1  0.01285560  0.41415668  0.69239693  1
  P  P7  1  0.51285560  0.58584332  0.80760307  1
  P  P8  1  0.25986968  0.96087295  0.07123744  1
  P  P9  1  0.75986968  0.03912705  0.42876256  1
  P  P10  1  0.74013032  0.03912705  0.92876256  1
  P  P11  1  0.24013032  0.96087295  0.57123744  1
  O  O12  1  0.84307495  0.51470273  0.38597678  1
  O  O13  1  0.34307495  0.48529727  0.11402322  1
  O  O14  1  0.15692505  0.48529727  0.61402322  1
  O  O15  1  0.65692505  0.51470273  0.88597678  1
  O  O16  1  0.93794039  0.73981723  0.24599217  1
  O  O17  1  0.43794039  0.26018277  0.25400783  1
  O  O18  1  0.06205961  0.26018277  0.75400783  1
  O  O19  1  0.56205961  0.73981723  0.74599217  1
  O  O20  1  0.15234374  0.61387591  0.39192021  1
  O  O21  1  0.65234374  0.38612409  0.10807979  1
  O  O22  1  0.84765626  0.38612409  0.60807979  1
  O  O23  1  0.34765626  0.61387591  0.89192021  1
  O  O24  1  0.04002643  0.46661632  0.20061676  1
  O  O25  1  0.54002643  0.53338368  0.29938324  1
  O  O26  1  0.95997357  0.53338368  0.79938324  1
  O  O27  1  0.45997357  0.46661632  0.70061676  1
  O  O28  1  0.41719186  0.89621345  0.13530636  1
  O  O29  1  0.91719186  0.10378655  0.36469364  1
  O  O30  1  0.58280814  0.10378655  0.86469364  1
  O  O31  1  0.08280814  0.89621345  0.63530636  1
  O  O32  1  0.10331320  0.84988088  0.06287447  1
  O  O33  1  0.60331320  0.15011912  0.43712553  1
  O  O34  1  0.89668680  0.15011912  0.93712553  1
  O  O35  1  0.39668680  0.84988088  0.56287447  1
  O  O36  1  0.19642645  0.11092203  0.14201900  1
  O  O37  1  0.69642645  0.88907797  0.35798100  1
  O  O38  1  0.80357355  0.88907797  0.85798100  1
  O  O39  1  0.30357355  0.11092203  0.64201900  1
  O  O40  1  0.28603056  0.99655413  0.92545511  1
  O  O41  1  0.78603056  0.00344587  0.57454489  1
  O  O42  1  0.71396944  0.00344587  0.07454489  1
  O  O43  1  0.21396944  0.99655413  0.42545511  1
  H  H44  1  0.15265392  0.55986451  0.47892632  1
  H  H45  1  0.65265392  0.44013549  0.02107368  1
  H  H46  1  0.84734608  0.44013549  0.52107368  1
  H  H47  1  0.34734608  0.55986451  0.97892632  1
  H  H48  1  0.16322875  0.47728110  0.16520600  1
  H  H49  1  0.66322875  0.52271890  0.33479400  1
  H  H50  1  0.83677125  0.52271890  0.83479400  1
  H  H51  1  0.33677125  0.47728110  0.66520600  1
  H  H52  1  0.03642794  0.80872020  0.14318439  1
  H  H53  1  0.53642794  0.19127980  0.35681561  1
  H  H54  1  0.96357206  0.19127980  0.85681561  1
  H  H55  1  0.46357206  0.80872020  0.64318439  1
  H  H56  1  0.29318437  0.16793100  0.18957167  1
  H  H57  1  0.79318437  0.83206900  0.31042833  1
  H  H58  1  0.70681563  0.83206900  0.81042833  1
  H  H59  1  0.20681563  0.16793100  0.68957167  1
  H  H60  1  0.40360499  0.04047000  0.90015678  1
  H  H61  1  0.90360499  0.95953000  0.59984322  1
  H  H62  1  0.59639501  0.95953000  0.09984322  1
  H  H63  1  0.09639501  0.04047000  0.40015678  1
