# generated using pymatgen
data_Rb3VS4
_symmetry_space_group_name_H-M   'P 1'
_cell_length_a   9.57516822
_cell_length_b   9.55534324
_cell_length_c   11.14378837
_cell_angle_alpha   90.00000000
_cell_angle_beta   90.00000000
_cell_angle_gamma   90.00000000
_symmetry_Int_Tables_number   1
_chemical_formula_structural   Rb3VS4
_chemical_formula_sum   'Rb12 V4 S16'
_cell_volume   1019.58998400
_cell_formula_units_Z   4
loop_
 _symmetry_equiv_pos_site_id
 _symmetry_equiv_pos_as_xyz
  1  'x, y, z'
loop_
 _atom_site_type_symbol
 _atom_site_label
 _atom_site_symmetry_multiplicity
 _atom_site_fract_x
 _atom_site_fract_y
 _atom_site_fract_z
 _atom_site_occupancy
  Rb  Rb0  1  0.20828439  0.95322800  0.45673149  1
  Rb  Rb1  1  0.70828439  0.54677200  0.54326851  1
  Rb  Rb2  1  0.29171561  0.45322800  0.04326851  1
  Rb  Rb3  1  0.79171561  0.04677200  0.95673149  1
  Rb  Rb4  1  0.79171561  0.04677200  0.54326851  1
  Rb  Rb5  1  0.29171561  0.45322800  0.45673149  1
  Rb  Rb6  1  0.70828439  0.54677200  0.95673149  1
  Rb  Rb7  1  0.20828439  0.95322800  0.04326851  1
  Rb  Rb8  1  0.41213994  0.85376033  0.75000000  1
  Rb  Rb9  1  0.91213994  0.64623967  0.25000000  1
  Rb  Rb10  1  0.08786006  0.35376033  0.75000000  1
  Rb  Rb11  1  0.58786006  0.14623967  0.25000000  1
  V  V12  1  0.01688285  0.21991065  0.25000000  1
  V  V13  1  0.51688285  0.28008935  0.75000000  1
  V  V14  1  0.48311715  0.71991065  0.25000000  1
  V  V15  1  0.98311715  0.78008935  0.75000000  1
  S  S16  1  0.24257269  0.20571993  0.25000000  1
  S  S17  1  0.74257269  0.29428007  0.75000000  1
  S  S18  1  0.25742731  0.70571993  0.25000000  1
  S  S19  1  0.75742731  0.79428007  0.75000000  1
  S  S20  1  0.07083867  0.98997186  0.75000000  1
  S  S21  1  0.57083867  0.51002814  0.25000000  1
  S  S22  1  0.42916133  0.48997186  0.75000000  1
  S  S23  1  0.92916133  0.01002814  0.25000000  1
  S  S24  1  0.04893707  0.67144504  0.58946218  1
  S  S25  1  0.54893707  0.82855496  0.41053782  1
  S  S26  1  0.45106293  0.17144504  0.91053782  1
  S  S27  1  0.95106293  0.32855496  0.08946218  1
  S  S28  1  0.95106293  0.32855496  0.41053782  1
  S  S29  1  0.45106293  0.17144504  0.58946218  1
  S  S30  1  0.54893707  0.82855496  0.08946218  1
  S  S31  1  0.04893707  0.67144504  0.91053782  1
