# generated using pymatgen
data_CsTmZnSe3
_symmetry_space_group_name_H-M   'P 1'
_cell_length_a   4.13927066
_cell_length_b   8.39624902
_cell_length_c   10.91196164
_cell_angle_alpha   90.00000000
_cell_angle_beta   90.00000000
_cell_angle_gamma   104.27021438
_symmetry_Int_Tables_number   1
_chemical_formula_structural   CsTmZnSe3
_chemical_formula_sum   'Cs2 Tm2 Zn2 Se6'
_cell_volume   367.53633458
_cell_formula_units_Z   2
loop_
 _symmetry_equiv_pos_site_id
 _symmetry_equiv_pos_as_xyz
  1  'x, y, z'
loop_
 _atom_site_type_symbol
 _atom_site_label
 _atom_site_symmetry_multiplicity
 _atom_site_fract_x
 _atom_site_fract_y
 _atom_site_fract_z
 _atom_site_occupancy
  Tm  Tm0  1  0.00000000  0.00000000  0.00000000  1
  Tm  Tm1  1  0.00000000  0.00000000  0.50000000  1
  Cs  Cs2  1  0.74230585  0.48461170  0.75000000  1
  Cs  Cs3  1  0.25769415  0.51538830  0.25000000  1
  Se  Se4  1  0.38478792  0.76957584  0.94399269  1
  Se  Se5  1  0.61521208  0.23042416  0.05600731  1
  Se  Se6  1  0.61521208  0.23042416  0.44399269  1
  Se  Se7  1  0.38478792  0.76957584  0.55600731  1
  Se  Se8  1  0.05398788  0.10797576  0.75000000  1
  Se  Se9  1  0.94601212  0.89202424  0.25000000  1
  Zn  Zn10  1  0.46041492  0.92082985  0.75000000  1
  Zn  Zn11  1  0.53958508  0.07917015  0.25000000  1
