# generated using pymatgen
data_KInSe2
_symmetry_space_group_name_H-M   'P 1'
_cell_length_a   8.25581870
_cell_length_b   8.25581893
_cell_length_c   15.95905288
_cell_angle_alpha   82.57018931
_cell_angle_beta   82.57018908
_cell_angle_gamma   89.97008721
_symmetry_Int_Tables_number   1
_chemical_formula_structural   KInSe2
_chemical_formula_sum   'K8 In8 Se16'
_cell_volume   1069.41193763
_cell_formula_units_Z   8
loop_
 _symmetry_equiv_pos_site_id
 _symmetry_equiv_pos_as_xyz
  1  'x, y, z'
loop_
 _atom_site_type_symbol
 _atom_site_label
 _atom_site_symmetry_multiplicity
 _atom_site_fract_x
 _atom_site_fract_y
 _atom_site_fract_z
 _atom_site_occupancy
  In  In0  1  0.28914517  0.91233153  0.84383357  1
  In  In1  1  0.08766847  0.71085483  0.65616643  1
  In  In2  1  0.71085483  0.08766847  0.15616643  1
  In  In3  1  0.91233153  0.28914517  0.34383357  1
  In  In4  1  0.58435766  0.71090476  0.65642223  1
  In  In5  1  0.28909524  0.41564234  0.84357777  1
  In  In6  1  0.41564234  0.28909524  0.34357777  1
  In  In7  1  0.71090476  0.58435766  0.15642223  1
  Se  Se8  1  0.57526867  0.95115522  0.74980156  1
  Se  Se9  1  0.04884478  0.42473133  0.75019844  1
  Se  Se10  1  0.42473133  0.04884478  0.25019844  1
  Se  Se11  1  0.95115522  0.57526867  0.24980156  1
  Se  Se12  1  0.26253210  0.13881085  0.94580769  1
  Se  Se13  1  0.86118915  0.73746790  0.55419231  1
  Se  Se14  1  0.73746790  0.86118915  0.05419231  1
  Se  Se15  1  0.13881085  0.26253210  0.44580769  1
  Se  Se16  1  0.04956890  0.95043110  0.75000000  1
  Se  Se17  1  0.95043110  0.04956890  0.25000000  1
  Se  Se18  1  0.26358804  0.63801454  0.94690575  1
  Se  Se19  1  0.36198546  0.73641196  0.55309425  1
  Se  Se20  1  0.73641196  0.36198546  0.05309425  1
  Se  Se21  1  0.63801454  0.26358804  0.44690575  1
  Se  Se22  1  0.57564604  0.42435396  0.75000000  1
  Se  Se23  1  0.42435396  0.57564604  0.25000000  1
  K  K24  1  0.78037713  0.15369668  0.88625737  1
  K  K25  1  0.84630332  0.21962287  0.61374263  1
  K  K26  1  0.21962287  0.84630332  0.11374263  1
  K  K27  1  0.15369668  0.78037713  0.38625737  1
  K  K28  1  0.34399786  0.22071430  0.61856653  1
  K  K29  1  0.77928570  0.65600214  0.88143347  1
  K  K30  1  0.65600214  0.77928570  0.38143347  1
  K  K31  1  0.22071430  0.34399786  0.11856653  1
