# generated using pymatgen
data_Ba2Co(PO4)2
_symmetry_space_group_name_H-M   'P 1'
_cell_length_a   5.38556878
_cell_length_b   9.01969433
_cell_length_c   16.32079188
_cell_angle_alpha   89.99915155
_cell_angle_beta   90.98807009
_cell_angle_gamma   89.99998405
_symmetry_Int_Tables_number   1
_chemical_formula_structural   Ba2Co(PO4)2
_chemical_formula_sum   'Ba8 Co4 P8 O32'
_cell_volume   792.68390792
_cell_formula_units_Z   4
loop_
 _symmetry_equiv_pos_site_id
 _symmetry_equiv_pos_as_xyz
  1  'x, y, z'
loop_
 _atom_site_type_symbol
 _atom_site_label
 _atom_site_symmetry_multiplicity
 _atom_site_fract_x
 _atom_site_fract_y
 _atom_site_fract_z
 _atom_site_occupancy
  O  O0  1  0.84961611  0.97516862  0.74334193  1
  O  O1  1  0.65039542  0.47517217  0.75664223  1
  O  O2  1  0.15038589  0.02483038  0.25665807  1
  O  O3  1  0.34960558  0.52482883  0.24335777  1
  O  O4  1  0.45894888  0.88792907  0.66571547  1
  O  O5  1  0.04104643  0.38793764  0.83427518  1
  O  O6  1  0.54105212  0.11206993  0.33428453  1
  O  O7  1  0.95895257  0.61206136  0.16572482  1
  O  O8  1  0.85647303  0.72900275  0.67027103  1
  O  O9  1  0.64351916  0.22901470  0.82971849  1
  O  O10  1  0.14352597  0.27099725  0.32972897  1
  O  O11  1  0.35648184  0.77098630  0.17028151  1
  O  O12  1  0.84672088  0.96906277  0.58825987  1
  O  O13  1  0.65327277  0.46908063  0.91172640  1
  O  O14  1  0.15327912  0.03093823  0.41173913  1
  O  O15  1  0.34672623  0.53092037  0.08827360  1
  O  O16  1  0.47917045  0.86726673  0.87476323  1
  O  O17  1  0.02083333  0.36727420  0.62522826  1
  O  O18  1  0.52083155  0.13273227  0.12523677  1
  O  O19  1  0.97916567  0.63272580  0.37477174  1
  O  O20  1  0.79856256  0.59881133  0.51545587  1
  O  O21  1  0.70142200  0.09882632  0.98454787  1
  O  O22  1  0.20143644  0.40118967  0.48454413  1
  O  O23  1  0.29857700  0.90117368  0.01545213  1
  O  O24  1  0.53304449  0.70756358  0.39958169  1
  O  O25  1  0.96696093  0.20757650  0.10042434  1
  O  O26  1  0.14310787  0.06152623  0.89292723  1
  O  O27  1  0.03304107  0.79242350  0.89957566  1
  O  O28  1  0.64309331  0.43846671  0.39292862  1
  O  O29  1  0.85689113  0.93847377  0.10707277  1
  O  O30  1  0.35690769  0.56153429  0.60707138  1
  O  O31  1  0.46695451  0.29243642  0.60041931  1
  P  P32  1  0.74819904  0.89039789  0.66612199  1
  P  P33  1  0.75179815  0.39040573  0.83386891  1
  P  P34  1  0.25179996  0.10960311  0.33387801  1
  P  P35  1  0.24820285  0.60959427  0.16613009  1
  P  P36  1  0.23803212  0.90665064  0.92340206  1
  P  P37  1  0.73802787  0.59333518  0.42340587  1
  P  P38  1  0.76196888  0.09334936  0.07659794  1
  P  P39  1  0.26197213  0.40666582  0.57659413  1
  Co  Co40  1  0.76886005  0.01711478  0.86445688  1
  Co  Co41  1  0.73113524  0.51711568  0.63553795  1
  Co  Co42  1  0.26886376  0.48288332  0.36446205  1
  Co  Co43  1  0.23113995  0.98288422  0.13554312  1
  Ba  Ba44  1  0.79184690  0.20221150  0.48135977  1
  Ba  Ba45  1  0.70815287  0.70220877  0.01864054  1
  Ba  Ba46  1  0.20815510  0.79778850  0.51864023  1
  Ba  Ba47  1  0.29184813  0.29779023  0.98135946  1
  Ba  Ba48  1  0.24827427  0.65595952  0.76942490  1
  Ba  Ba49  1  0.25172299  0.15595888  0.73056494  1
  Ba  Ba50  1  0.75172673  0.34404048  0.23057410  1
  Ba  Ba51  1  0.74827601  0.84404012  0.26943406  1
