# generated using pymatgen
data_Ho4NiB14
_symmetry_space_group_name_H-M   'P 1'
_cell_length_a   7.21023839
_cell_length_b   7.21023839
_cell_length_c   7.47217962
_cell_angle_alpha   90.00000000
_cell_angle_beta   90.00000000
_cell_angle_gamma   90.00000000
_symmetry_Int_Tables_number   1
_chemical_formula_structural   Ho4NiB14
_chemical_formula_sum   'Ho8 Ni2 B28'
_cell_volume   388.46021925
_cell_formula_units_Z   2
loop_
 _symmetry_equiv_pos_site_id
 _symmetry_equiv_pos_as_xyz
  1  'x, y, z'
loop_
 _atom_site_type_symbol
 _atom_site_label
 _atom_site_symmetry_multiplicity
 _atom_site_fract_x
 _atom_site_fract_y
 _atom_site_fract_z
 _atom_site_occupancy
  Ho  Ho0  1  0.19373435  0.33175221  0.00000000  1
  Ho  Ho1  1  0.66824779  0.19373435  0.00000000  1
  Ho  Ho2  1  0.33175221  0.80626565  0.00000000  1
  Ho  Ho3  1  0.69373435  0.16824779  0.50000000  1
  Ho  Ho4  1  0.30626565  0.83175221  0.50000000  1
  Ho  Ho5  1  0.80626565  0.66824779  0.00000000  1
  Ho  Ho6  1  0.83175221  0.69373435  0.50000000  1
  Ho  Ho7  1  0.16824779  0.30626565  0.50000000  1
  Ni  Ni8  1  0.00000000  0.00000000  0.00000000  1
  Ni  Ni9  1  0.50000000  0.50000000  0.50000000  1
  B  B10  1  0.17468926  0.03936051  0.23229087  1
  B  B11  1  0.96063949  0.17468926  0.23229087  1
  B  B12  1  0.03936051  0.82531074  0.23229087  1
  B  B13  1  0.67468926  0.46063949  0.26770913  1
  B  B14  1  0.32531074  0.53936051  0.26770913  1
  B  B15  1  0.82531074  0.96063949  0.23229087  1
  B  B16  1  0.53936051  0.67468926  0.26770913  1
  B  B17  1  0.46063949  0.32531074  0.26770913  1
  B  B18  1  0.82531074  0.96063949  0.76770913  1
  B  B19  1  0.03936051  0.82531074  0.76770913  1
  B  B20  1  0.96063949  0.17468926  0.76770913  1
  B  B21  1  0.32531074  0.53936051  0.73229087  1
  B  B22  1  0.67468926  0.46063949  0.73229087  1
  B  B23  1  0.17468926  0.03936051  0.76770913  1
  B  B24  1  0.46063949  0.32531074  0.73229087  1
  B  B25  1  0.53936051  0.67468926  0.73229087  1
  B  B26  1  0.08927943  0.58927943  0.25000000  1
  B  B27  1  0.41072057  0.08927943  0.25000000  1
  B  B28  1  0.58927943  0.91072057  0.25000000  1
  B  B29  1  0.91072057  0.41072057  0.25000000  1
  B  B30  1  0.91072057  0.41072057  0.75000000  1
  B  B31  1  0.58927943  0.91072057  0.75000000  1
  B  B32  1  0.41072057  0.08927943  0.75000000  1
  B  B33  1  0.08927943  0.58927943  0.75000000  1
  B  B34  1  0.00000000  0.00000000  0.38884965  1
  B  B35  1  0.50000000  0.50000000  0.11115035  1
  B  B36  1  0.00000000  0.00000000  0.61115035  1
  B  B37  1  0.50000000  0.50000000  0.88884965  1
