# generated using pymatgen
data_CsHoZnSe3
_symmetry_space_group_name_H-M   'P 1'
_cell_length_a   4.17171555
_cell_length_b   8.41101708
_cell_length_c   11.00256999
_cell_angle_alpha   90.00000000
_cell_angle_beta   90.00000000
_cell_angle_gamma   104.35867044
_symmetry_Int_Tables_number   1
_chemical_formula_structural   CsHoZnSe3
_chemical_formula_sum   'Cs2 Ho2 Zn2 Se6'
_cell_volume   374.00255750
_cell_formula_units_Z   2
loop_
 _symmetry_equiv_pos_site_id
 _symmetry_equiv_pos_as_xyz
  1  'x, y, z'
loop_
 _atom_site_type_symbol
 _atom_site_label
 _atom_site_symmetry_multiplicity
 _atom_site_fract_x
 _atom_site_fract_y
 _atom_site_fract_z
 _atom_site_occupancy
  Ho  Ho0  1  0.00000000  0.00000000  0.00000000  1
  Ho  Ho1  1  0.00000000  0.00000000  0.50000000  1
  Cs  Cs2  1  0.74210975  0.48421950  0.75000000  1
  Cs  Cs3  1  0.25789025  0.51578050  0.25000000  1
  Se  Se4  1  0.38421313  0.76842626  0.94232610  1
  Se  Se5  1  0.61578687  0.23157374  0.05767390  1
  Se  Se6  1  0.61578687  0.23157374  0.44232610  1
  Se  Se7  1  0.38421313  0.76842626  0.55767390  1
  Se  Se8  1  0.05366840  0.10733680  0.75000000  1
  Se  Se9  1  0.94633160  0.89266320  0.25000000  1
  Zn  Zn10  1  0.46033834  0.92067668  0.75000000  1
  Zn  Zn11  1  0.53966166  0.07932332  0.25000000  1
