# generated using pymatgen
data_Rb(SnSe2)2
_symmetry_space_group_name_H-M   'P 1'
_cell_length_a   7.79091459
_cell_length_b   13.03976389
_cell_length_c   20.04669185
_cell_angle_alpha   90.00000000
_cell_angle_beta   90.00000000
_cell_angle_gamma   94.81107207
_symmetry_Int_Tables_number   1
_chemical_formula_structural   Rb(SnSe2)2
_chemical_formula_sum   'Rb8 Sn16 Se32'
_cell_volume   2029.40170475
_cell_formula_units_Z   8
loop_
 _symmetry_equiv_pos_site_id
 _symmetry_equiv_pos_as_xyz
  1  'x, y, z'
loop_
 _atom_site_type_symbol
 _atom_site_label
 _atom_site_symmetry_multiplicity
 _atom_site_fract_x
 _atom_site_fract_y
 _atom_site_fract_z
 _atom_site_occupancy
  Rb  Rb0  1  0.75680703  0.41920107  0.44127076  1
  Rb  Rb1  1  0.24319297  0.58079893  0.55872924  1
  Rb  Rb2  1  0.82664383  0.41649312  0.80018958  1
  Rb  Rb3  1  0.67335617  0.08350688  0.30018958  1
  Rb  Rb4  1  0.32664383  0.91649312  0.69981042  1
  Rb  Rb5  1  0.25680703  0.91920107  0.05872924  1
  Rb  Rb6  1  0.17335617  0.58350688  0.19981042  1
  Rb  Rb7  1  0.74319297  0.08079893  0.94127076  1
  Sn  Sn8  1  0.31921864  0.17475740  0.46424040  1
  Sn  Sn9  1  0.86270740  0.75753384  0.36129919  1
  Sn  Sn10  1  0.16890613  0.28978802  0.32107097  1
  Sn  Sn11  1  0.86074974  0.30731859  0.12417936  1
  Sn  Sn12  1  0.63729260  0.74246616  0.86129919  1
  Sn  Sn13  1  0.36074974  0.80731859  0.37582064  1
  Sn  Sn14  1  0.18078136  0.32524260  0.96424040  1
  Sn  Sn15  1  0.13729260  0.24246616  0.63870081  1
  Sn  Sn16  1  0.13925026  0.69268141  0.87582064  1
  Sn  Sn17  1  0.68078136  0.82524260  0.53575960  1
  Sn  Sn18  1  0.63925026  0.19268141  0.62417936  1
  Sn  Sn19  1  0.33109387  0.21021198  0.82107097  1
  Sn  Sn20  1  0.81921864  0.67475740  0.03575960  1
  Sn  Sn21  1  0.66890613  0.78978802  0.17892903  1
  Sn  Sn22  1  0.36270740  0.25753384  0.13870081  1
  Sn  Sn23  1  0.83109387  0.71021198  0.67892903  1
  Se  Se24  1  0.88259085  0.33613551  0.28340573  1
  Se  Se25  1  0.13559751  0.66281574  0.02156334  1
  Se  Se26  1  0.75281924  0.86425868  0.06053698  1
  Se  Se27  1  0.92366162  0.85022583  0.86656122  1
  Se  Se28  1  0.38958348  0.85660805  0.87799214  1
  Se  Se29  1  0.87064178  0.91226613  0.44223071  1
  Se  Se30  1  0.57285016  0.63767472  0.75179553  1
  Se  Se31  1  0.61740915  0.16386449  0.78340573  1
  Se  Se32  1  0.25281924  0.36425868  0.43946302  1
  Se  Se33  1  0.57633838  0.64977417  0.36656122  1
  Se  Se34  1  0.37064178  0.41226613  0.05776929  1
  Se  Se35  1  0.36440249  0.83718426  0.52156334  1
  Se  Se36  1  0.11740915  0.66386449  0.71659427  1
  Se  Se37  1  0.42366162  0.35022583  0.63343878  1
  Se  Se38  1  0.70874076  0.59774075  0.14977965  1
  Se  Se39  1  0.24718076  0.13574132  0.93946302  1
  Se  Se40  1  0.12935822  0.08773387  0.55776929  1
  Se  Se41  1  0.92714984  0.86232528  0.25179553  1
  Se  Se42  1  0.63559751  0.16281574  0.47843666  1
  Se  Se43  1  0.29125924  0.40225925  0.85022035  1
  Se  Se44  1  0.20874076  0.09774075  0.35022035  1
  Se  Se45  1  0.86440249  0.33718426  0.97843666  1
  Se  Se46  1  0.74718076  0.63574132  0.56053698  1
  Se  Se47  1  0.62935822  0.58773387  0.94223071  1
  Se  Se48  1  0.79125924  0.90225925  0.64977965  1
  Se  Se49  1  0.07285016  0.13767472  0.74820447  1
  Se  Se50  1  0.42714984  0.36232528  0.24820447  1
  Se  Se51  1  0.07633838  0.14977417  0.13343878  1
  Se  Se52  1  0.38259085  0.83613551  0.21659427  1
  Se  Se53  1  0.88958348  0.35660805  0.62200786  1
  Se  Se54  1  0.61041652  0.14339195  0.12200786  1
  Se  Se55  1  0.11041652  0.64339195  0.37799214  1
