# generated using pymatgen
data_TlIn5S6
_symmetry_space_group_name_H-M   'P 1'
_cell_length_a   3.98442037
_cell_length_b   8.94111633
_cell_length_c   17.87615516
_cell_angle_alpha   94.94900698
_cell_angle_beta   90.00000000
_cell_angle_gamma   90.00000000
_symmetry_Int_Tables_number   1
_chemical_formula_structural   TlIn5S6
_chemical_formula_sum   'Tl2 In10 S12'
_cell_volume   634.46677115
_cell_formula_units_Z   2
loop_
 _symmetry_equiv_pos_site_id
 _symmetry_equiv_pos_as_xyz
  1  'x, y, z'
loop_
 _atom_site_type_symbol
 _atom_site_label
 _atom_site_symmetry_multiplicity
 _atom_site_fract_x
 _atom_site_fract_y
 _atom_site_fract_z
 _atom_site_occupancy
  Tl  Tl0  1  0.75000000  0.62475219  0.21551921  1
  Tl  Tl1  1  0.25000000  0.37524781  0.78448079  1
  In  In2  1  0.75000000  0.34249095  0.54438590  1
  In  In3  1  0.25000000  0.65750905  0.45561410  1
  In  In4  1  0.75000000  0.23408315  0.31468394  1
  In  In5  1  0.25000000  0.76591685  0.68531606  1
  In  In6  1  0.75000000  0.96549769  0.38335032  1
  In  In7  1  0.25000000  0.03450231  0.61664968  1
  In  In8  1  0.75000000  0.88647779  0.88585760  1
  In  In9  1  0.25000000  0.11352221  0.11414240  1
  In  In10  1  0.75000000  0.69539013  0.00448363  1
  In  In11  1  0.25000000  0.30460987  0.99551637  1
  S  S12  1  0.75000000  0.20232723  0.66759435  1
  S  S13  1  0.25000000  0.79767277  0.33240565  1
  S  S14  1  0.75000000  0.83684727  0.50496366  1
  S  S15  1  0.25000000  0.16315273  0.49503634  1
  S  S16  1  0.75000000  0.69408638  0.76510766  1
  S  S17  1  0.25000000  0.30591362  0.23489234  1
  S  S18  1  0.75000000  0.40528132  0.92596114  1
  S  S19  1  0.25000000  0.59471868  0.07403886  1
  S  S20  1  0.75000000  0.46640458  0.41362663  1
  S  S21  1  0.25000000  0.53359542  0.58637337  1
  S  S22  1  0.75000000  0.94795783  0.13182248  1
  S  S23  1  0.25000000  0.05204217  0.86817752  1
