# generated using pymatgen
data_K2NaH5(CO4)2
_symmetry_space_group_name_H-M   'P 1'
_cell_length_a   8.00471476
_cell_length_b   9.42343476
_cell_length_c   11.61246552
_cell_angle_alpha   90.00000000
_cell_angle_beta   90.00000000
_cell_angle_gamma   90.00000000
_symmetry_Int_Tables_number   1
_chemical_formula_structural   K2NaH5(CO4)2
_chemical_formula_sum   'K8 Na4 H20 C8 O32'
_cell_volume   875.95042278
_cell_formula_units_Z   4
loop_
 _symmetry_equiv_pos_site_id
 _symmetry_equiv_pos_as_xyz
  1  'x, y, z'
loop_
 _atom_site_type_symbol
 _atom_site_label
 _atom_site_symmetry_multiplicity
 _atom_site_fract_x
 _atom_site_fract_y
 _atom_site_fract_z
 _atom_site_occupancy
  Na  Na0  1  0.75000000  0.96068469  0.66359165  1
  Na  Na1  1  0.25000000  0.03931531  0.33640835  1
  Na  Na2  1  0.75000000  0.46068469  0.83640835  1
  Na  Na3  1  0.25000000  0.53931531  0.16359165  1
  K  K4  1  0.48837757  0.79923837  0.88258588  1
  K  K5  1  0.98837757  0.20076163  0.11741412  1
  K  K6  1  0.01162243  0.29923837  0.61741412  1
  K  K7  1  0.51162243  0.70076163  0.38258588  1
  K  K8  1  0.51162243  0.20076163  0.11741412  1
  K  K9  1  0.01162243  0.79923837  0.88258588  1
  K  K10  1  0.98837757  0.70076163  0.38258588  1
  K  K11  1  0.48837757  0.29923837  0.61741412  1
  O  O12  1  0.75000000  0.74472388  0.55677501  1
  O  O13  1  0.25000000  0.25527612  0.44322499  1
  O  O14  1  0.75000000  0.24472388  0.94322499  1
  O  O15  1  0.25000000  0.75527612  0.05677501  1
  O  O16  1  0.75000000  0.70030931  0.74857387  1
  O  O17  1  0.25000000  0.29969069  0.25142613  1
  O  O18  1  0.75000000  0.20030931  0.75142613  1
  O  O19  1  0.25000000  0.79969069  0.24857387  1
  O  O20  1  0.75000000  0.51862661  0.62428837  1
  O  O21  1  0.25000000  0.48137339  0.37571163  1
  O  O22  1  0.75000000  0.01862661  0.87571163  1
  O  O23  1  0.25000000  0.98137339  0.12428837  1
  C  C24  1  0.75000000  0.66185046  0.64326367  1
  C  C25  1  0.25000000  0.33814954  0.35673633  1
  C  C26  1  0.75000000  0.16185046  0.85673633  1
  C  C27  1  0.25000000  0.83814954  0.14326367  1
  O  O28  1  0.75000000  0.47586906  0.41346760  1
  O  O29  1  0.25000000  0.52413094  0.58653240  1
  O  O30  1  0.75000000  0.97586906  0.08653240  1
  O  O31  1  0.25000000  0.02413094  0.91346760  1
  O  O32  1  0.75000000  0.23779576  0.43912963  1
  O  O33  1  0.25000000  0.76220424  0.56087037  1
  O  O34  1  0.75000000  0.73779576  0.06087037  1
  O  O35  1  0.25000000  0.26220424  0.93912963  1
  O  O36  1  0.75000000  0.33269662  0.25951276  1
  O  O37  1  0.25000000  0.66730338  0.74048724  1
  O  O38  1  0.75000000  0.83269662  0.24048724  1
  O  O39  1  0.25000000  0.16730338  0.75951276  1
  C  C40  1  0.75000000  0.34709248  0.37102352  1
  C  C41  1  0.25000000  0.65290752  0.62897648  1
  C  C42  1  0.75000000  0.84709248  0.12897648  1
  C  C43  1  0.25000000  0.15290752  0.87102352  1
  O  O44  1  0.95943069  0.52750069  0.15736725  1
  O  O45  1  0.45943069  0.47249931  0.84263275  1
  O  O46  1  0.54056931  0.02750069  0.34263275  1
  O  O47  1  0.04056931  0.97249931  0.65736725  1
  O  O48  1  0.04056931  0.47249931  0.84263275  1
  O  O49  1  0.54056931  0.52750069  0.15736725  1
  O  O50  1  0.45943069  0.97249931  0.65736725  1
  O  O51  1  0.95943069  0.02750069  0.34263275  1
  H  H52  1  0.75000000  0.49748314  0.53257434  1
  H  H53  1  0.25000000  0.50251686  0.46742566  1
  H  H54  1  0.75000000  0.99748314  0.96742566  1
  H  H55  1  0.25000000  0.00251686  0.03257434  1
  H  H56  1  0.88867995  0.60038423  0.11953612  1
  H  H57  1  0.38867995  0.39961577  0.88046388  1
  H  H58  1  0.61132005  0.10038423  0.38046388  1
  H  H59  1  0.11132005  0.89961577  0.61953612  1
  H  H60  1  0.11132005  0.39961577  0.88046388  1
  H  H61  1  0.61132005  0.60038423  0.11953612  1
  H  H62  1  0.38867995  0.89961577  0.61953612  1
  H  H63  1  0.88867995  0.10038423  0.38046388  1
  H  H64  1  0.87982035  0.46503292  0.19937144  1
  H  H65  1  0.37982035  0.53496708  0.80062856  1
  H  H66  1  0.62017965  0.96503292  0.30062856  1
  H  H67  1  0.12017965  0.03496708  0.69937144  1
  H  H68  1  0.12017965  0.53496708  0.80062856  1
  H  H69  1  0.62017965  0.46503292  0.19937144  1
  H  H70  1  0.37982035  0.03496708  0.69937144  1
  H  H71  1  0.87982035  0.96503292  0.30062856  1
