# generated using pymatgen
data_Rb2NaH5(CO4)2
_symmetry_space_group_name_H-M   'P 1'
_cell_length_a   8.23053703
_cell_length_b   9.50468537
_cell_length_c   12.19345434
_cell_angle_alpha   90.00000000
_cell_angle_beta   90.00000000
_cell_angle_gamma   90.00000000
_symmetry_Int_Tables_number   1
_chemical_formula_structural   Rb2NaH5(CO4)2
_chemical_formula_sum   'Rb8 Na4 H20 C8 O32'
_cell_volume   953.87765349
_cell_formula_units_Z   4
loop_
 _symmetry_equiv_pos_site_id
 _symmetry_equiv_pos_as_xyz
  1  'x, y, z'
loop_
 _atom_site_type_symbol
 _atom_site_label
 _atom_site_symmetry_multiplicity
 _atom_site_fract_x
 _atom_site_fract_y
 _atom_site_fract_z
 _atom_site_occupancy
  Na  Na0  1  0.75000000  0.93926580  0.68381632  1
  Na  Na1  1  0.25000000  0.06073420  0.31618368  1
  Na  Na2  1  0.75000000  0.43926580  0.81618368  1
  Na  Na3  1  0.25000000  0.56073420  0.18381632  1
  Rb  Rb4  1  0.48920645  0.77848973  0.89198091  1
  Rb  Rb5  1  0.98920645  0.22151027  0.10801909  1
  Rb  Rb6  1  0.01079355  0.27848973  0.60801909  1
  Rb  Rb7  1  0.51079355  0.72151027  0.39198091  1
  Rb  Rb8  1  0.51079355  0.22151027  0.10801909  1
  Rb  Rb9  1  0.01079355  0.77848973  0.89198091  1
  Rb  Rb10  1  0.98920645  0.72151027  0.39198091  1
  Rb  Rb11  1  0.48920645  0.27848973  0.60801909  1
  O  O12  1  0.75000000  0.74029887  0.56676554  1
  O  O13  1  0.25000000  0.25970113  0.43323446  1
  O  O14  1  0.75000000  0.24029887  0.93323446  1
  O  O15  1  0.25000000  0.75970113  0.06676554  1
  O  O16  1  0.75000000  0.67929657  0.74618623  1
  O  O17  1  0.25000000  0.32070343  0.25381377  1
  O  O18  1  0.75000000  0.17929657  0.75381377  1
  O  O19  1  0.25000000  0.82070343  0.24618623  1
  O  O20  1  0.75000000  0.51043396  0.61779480  1
  O  O21  1  0.25000000  0.48956604  0.38220520  1
  O  O22  1  0.75000000  0.01043396  0.88220520  1
  O  O23  1  0.25000000  0.98956604  0.11779480  1
  C  C24  1  0.75000000  0.65013100  0.64386683  1
  C  C25  1  0.25000000  0.34986900  0.35613317  1
  C  C26  1  0.75000000  0.15013100  0.85613317  1
  C  C27  1  0.25000000  0.84986900  0.14386683  1
  O  O28  1  0.75000000  0.48340992  0.41564526  1
  O  O29  1  0.25000000  0.51659008  0.58435474  1
  O  O30  1  0.75000000  0.98340992  0.08435474  1
  O  O31  1  0.25000000  0.01659008  0.91564526  1
  O  O32  1  0.75000000  0.24555379  0.42701903  1
  O  O33  1  0.25000000  0.75444621  0.57298097  1
  O  O34  1  0.75000000  0.74555379  0.07298097  1
  O  O35  1  0.25000000  0.25444621  0.92701903  1
  O  O36  1  0.75000000  0.35467832  0.26168447  1
  O  O37  1  0.25000000  0.64532168  0.73831553  1
  O  O38  1  0.75000000  0.85467832  0.23831553  1
  O  O39  1  0.25000000  0.14532168  0.76168447  1
  C  C40  1  0.75000000  0.35969623  0.36835187  1
  C  C41  1  0.25000000  0.64030377  0.63164813  1
  C  C42  1  0.75000000  0.85969623  0.13164813  1
  C  C43  1  0.25000000  0.14030377  0.86835187  1
  O  O44  1  0.96053087  0.54562647  0.16924635  1
  O  O45  1  0.46053087  0.45437353  0.83075365  1
  O  O46  1  0.53946913  0.04562647  0.33075365  1
  O  O47  1  0.03946913  0.95437353  0.66924635  1
  O  O48  1  0.03946913  0.45437353  0.83075365  1
  O  O49  1  0.53946913  0.54562647  0.16924635  1
  O  O50  1  0.46053087  0.95437353  0.66924635  1
  O  O51  1  0.96053087  0.04562647  0.33075365  1
  H  H52  1  0.75000000  0.49605068  0.52871633  1
  H  H53  1  0.25000000  0.50394932  0.47128367  1
  H  H54  1  0.75000000  0.99605068  0.97128367  1
  H  H55  1  0.25000000  0.00394932  0.02871633  1
  H  H56  1  0.88990958  0.61710547  0.13363238  1
  H  H57  1  0.38990958  0.38289453  0.86636762  1
  H  H58  1  0.61009042  0.11710547  0.36636762  1
  H  H59  1  0.11009042  0.88289453  0.63363238  1
  H  H60  1  0.11009042  0.38289453  0.86636762  1
  H  H61  1  0.61009042  0.61710547  0.13363238  1
  H  H62  1  0.38990958  0.88289453  0.63363238  1
  H  H63  1  0.88990958  0.11710547  0.36636762  1
  H  H64  1  0.88296505  0.48323284  0.20912093  1
  H  H65  1  0.38296505  0.51676716  0.79087907  1
  H  H66  1  0.61703495  0.98323284  0.29087907  1
  H  H67  1  0.11703495  0.01676716  0.70912093  1
  H  H68  1  0.11703495  0.51676716  0.79087907  1
  H  H69  1  0.61703495  0.48323284  0.20912093  1
  H  H70  1  0.38296505  0.01676716  0.70912093  1
  H  H71  1  0.88296505  0.98323284  0.29087907  1
