# generated using pymatgen
data_K2NaInSb2
_symmetry_space_group_name_H-M   'P 1'
_cell_length_a   7.08939691
_cell_length_b   10.95154452
_cell_length_c   10.95154520
_cell_angle_alpha   98.90787924
_cell_angle_beta   90.00000000
_cell_angle_gamma   90.00000000
_symmetry_Int_Tables_number   1
_chemical_formula_structural   K2NaInSb2
_chemical_formula_sum   'K8 Na4 In4 Sb8'
_cell_volume   840.02074221
_cell_formula_units_Z   4
loop_
 _symmetry_equiv_pos_site_id
 _symmetry_equiv_pos_as_xyz
  1  'x, y, z'
loop_
 _atom_site_type_symbol
 _atom_site_label
 _atom_site_symmetry_multiplicity
 _atom_site_fract_x
 _atom_site_fract_y
 _atom_site_fract_z
 _atom_site_occupancy
  K  K0  1  0.75000000  0.42384435  0.07615565  1
  K  K1  1  0.25000000  0.07615565  0.42384435  1
  K  K2  1  0.25000000  0.57615565  0.92384435  1
  K  K3  1  0.75000000  0.92384435  0.57615565  1
  K  K4  1  0.77910007  0.32824223  0.67175777  1
  K  K5  1  0.27910007  0.17175777  0.82824223  1
  K  K6  1  0.22089993  0.67175777  0.32824223  1
  K  K7  1  0.72089993  0.82824223  0.17175777  1
  Na  Na8  1  0.00000000  0.38092362  0.38092362  1
  Na  Na9  1  0.50000000  0.11907638  0.11907638  1
  Na  Na10  1  0.00000000  0.61907638  0.61907638  1
  Na  Na11  1  0.50000000  0.88092362  0.88092362  1
  In  In12  1  0.00000000  0.13224155  0.13224155  1
  In  In13  1  0.50000000  0.36775845  0.36775845  1
  In  In14  1  0.00000000  0.86775845  0.86775845  1
  In  In15  1  0.50000000  0.63224155  0.63224155  1
  Sb  Sb16  1  0.75000000  0.64408850  0.85591150  1
  Sb  Sb17  1  0.25000000  0.85591150  0.64408850  1
  Sb  Sb18  1  0.25000000  0.35591150  0.14408850  1
  Sb  Sb19  1  0.75000000  0.14408850  0.35591150  1
  Sb  Sb20  1  0.79391301  0.10576846  0.89423154  1
  Sb  Sb21  1  0.29391301  0.39423154  0.60576846  1
  Sb  Sb22  1  0.20608699  0.89423154  0.10576846  1
  Sb  Sb23  1  0.70608699  0.60576846  0.39423154  1
