# generated using pymatgen
data_ScH6N2Cl3
_symmetry_space_group_name_H-M   'P 1'
_cell_length_a   6.98595080
_cell_length_b   9.96861544
_cell_length_c   11.27976033
_cell_angle_alpha   105.48116398
_cell_angle_beta   90.65250028
_cell_angle_gamma   109.75714404
_symmetry_Int_Tables_number   1
_chemical_formula_structural   ScH6N2Cl3
_chemical_formula_sum   'Sc4 H24 N8 Cl12'
_cell_volume   707.97636537
_cell_formula_units_Z   4
loop_
 _symmetry_equiv_pos_site_id
 _symmetry_equiv_pos_as_xyz
  1  'x, y, z'
loop_
 _atom_site_type_symbol
 _atom_site_label
 _atom_site_symmetry_multiplicity
 _atom_site_fract_x
 _atom_site_fract_y
 _atom_site_fract_z
 _atom_site_occupancy
  Sc  Sc0  1  0.31710331  0.22264142  0.30372859  1
  Sc  Sc1  1  0.68289669  0.77735858  0.69627141  1
  Sc  Sc2  1  0.16231722  0.80294466  0.19652305  1
  Sc  Sc3  1  0.83768278  0.19705534  0.80347695  1
  Cl  Cl4  1  0.99012197  0.99067911  0.24422757  1
  Cl  Cl5  1  0.00987803  0.00932089  0.75577243  1
  Cl  Cl6  1  0.14110833  0.40025127  0.34269350  1
  Cl  Cl7  1  0.85889167  0.59974873  0.65730650  1
  Cl  Cl8  1  0.49444012  0.02670294  0.25898548  1
  Cl  Cl9  1  0.50555988  0.97329706  0.74101452  1
  Cl  Cl10  1  0.86219397  0.58483952  0.13701170  1
  Cl  Cl11  1  0.13780603  0.41516048  0.86298830  1
  Cl  Cl12  1  0.33666777  0.22224923  0.52241490  1
  Cl  Cl13  1  0.66333223  0.77775077  0.47758510  1
  Cl  Cl14  1  0.34412789  0.22524180  0.08570116  1
  Cl  Cl15  1  0.65587211  0.77475820  0.91429884  1
  N  N16  1  0.63474117  0.40138945  0.35024086  1
  N  N17  1  0.36525883  0.59861055  0.64975914  1
  N  N18  1  0.18415498  0.82582728  -0.00037863  1
  N  N19  1  0.81584502  0.17417272  1.00037863  1
  N  N20  1  0.16643312  0.80266423  0.40061320  1
  N  N21  1  0.83356688  0.19733577  0.59938680  1
  N  N22  1  0.37665200  0.66866108  0.16545818  1
  N  N23  1  0.62334800  0.33133892  0.83454182  1
  H  H24  1  0.29528287  0.79288823  0.95505683  1
  H  H25  1  0.70471713  0.20711177  0.04494317  1
  H  H26  1  0.29697626  0.55640344  0.13303735  1
  H  H27  1  0.70302374  0.44359656  0.86696265  1
  H  H28  1  0.22588842  0.72821987  0.41861842  1
  H  H29  1  0.77411158  0.27178013  0.58138158  1
  H  H30  1  0.65874789  0.47302445  0.29670653  1
  H  H31  1  0.34125211  0.52697555  0.70329347  1
  H  H32  1  0.25019666  0.90507467  0.45974104  1
  H  H33  1  0.74980334  0.09492533  0.54025896  1
  H  H34  1  0.21720103  0.93502039  1.00110152  1
  H  H35  1  0.78279897  0.06497961  -0.00110152  1
  H  H36  1  0.66209225  0.46592392  0.44082401  1
  H  H37  1  0.33790775  0.53407608  0.55917599  1
  H  H38  1  0.46436523  0.68575424  0.24553651  1
  H  H39  1  0.53563477  0.31424576  0.75446349  1
  H  H40  1  0.04727561  0.76603624  0.94515409  1
  H  H41  1  0.95272439  0.23396376  0.05484591  1
  H  H42  1  0.47793250  0.69463956  0.10258295  1
  H  H43  1  0.52206750  0.30536044  0.89741705  1
  H  H44  1  0.75148450  0.35992085  0.33723657  1
  H  H45  1  0.24851550  0.64007915  0.66276343  1
  H  H46  1  0.02045369  0.77615229  0.42631097  1
  H  H47  1  0.97954631  0.22384771  0.57368903  1
