# generated using pymatgen
data_Na4MoO5
_symmetry_space_group_name_H-M   'P 1'
_cell_length_a   5.72892789
_cell_length_b   10.12541570
_cell_length_c   10.15651140
_cell_angle_alpha   113.34433594
_cell_angle_beta   96.54182961
_cell_angle_gamma   96.29815821
_symmetry_Int_Tables_number   1
_chemical_formula_structural   Na4MoO5
_chemical_formula_sum   'Na16 Mo4 O20'
_cell_volume   529.60620414
_cell_formula_units_Z   4
loop_
 _symmetry_equiv_pos_site_id
 _symmetry_equiv_pos_as_xyz
  1  'x, y, z'
loop_
 _atom_site_type_symbol
 _atom_site_label
 _atom_site_symmetry_multiplicity
 _atom_site_fract_x
 _atom_site_fract_y
 _atom_site_fract_z
 _atom_site_occupancy
  O  O0  1  0.80554605  0.39716145  0.81151266  1
  O  O1  1  0.93676597  0.64402334  0.65118762  1
  O  O2  1  0.06323203  0.35597566  0.34881238  1
  O  O3  1  0.19445295  0.60283855  0.18848834  1
  O  O4  1  0.88674307  0.04238372  0.22657393  1
  O  O5  1  0.11325693  0.95761628  0.77342607  1
  O  O6  1  0.86455974  0.22804182  0.06903675  1
  O  O7  1  0.13544026  0.77195718  0.93096325  1
  O  O8  1  0.40547272  0.46440477  0.71110978  1
  O  O9  1  0.59452828  0.53559523  0.28889022  1
  O  O10  1  0.19740874  0.18826323  0.59720320  1
  O  O11  1  0.80259226  0.81173777  0.40279680  1
  O  O12  1  0.37526757  0.32045816  0.90841476  1
  O  O13  1  0.62473243  0.67954184  0.09158524  1
  O  O14  1  0.66796573  0.27079224  0.42406619  1
  O  O15  1  0.33203327  0.72920676  0.57593281  1
  O  O16  1  0.60073399  0.11658664  0.68242518  1
  O  O17  1  0.53984352  0.84860697  0.85121832  1
  O  O18  1  0.46015748  0.15139403  0.14878168  1
  O  O19  1  0.39926701  0.88341436  0.31757482  1
  Na  Na20  1  0.73411592  0.64364038  0.84196850  1
  Na  Na21  1  0.78192703  0.45150310  0.06689161  1
  Na  Na22  1  0.21807297  0.54849690  0.93310839  1
  Na  Na23  1  0.75582160  0.05438871  0.46243792  1
  Na  Na24  1  0.00000000  0.00000000  0.00000000  1
  Na  Na25  1  0.50000000  0.50000000  0.50000000  1
  Na  Na26  1  0.50955640  0.10276231  0.91089919  1
  Na  Na27  1  0.49044360  0.89723669  0.08909981  1
  Na  Na28  1  0.00207112  0.39801378  0.59843347  1
  Na  Na29  1  0.99792888  0.60198622  0.40156653  1
  Na  Na30  1  0.28467390  0.15561448  0.36044731  1
  Na  Na31  1  0.71532610  0.84438552  0.63955269  1
  Na  Na32  1  0.98333411  0.19465733  0.80467258  1
  Na  Na33  1  0.01666589  0.80534267  0.19532742  1
  Na  Na34  1  0.26588408  0.35635962  0.15803150  1
  Na  Na35  1  0.24417840  0.94561229  0.53756208  1
  Mo  Mo36  1  0.52052339  0.70178178  0.26196947  1
  Mo  Mo37  1  0.47947761  0.29821822  0.73803053  1
  Mo  Mo38  1  0.21301638  0.78474906  0.75351912  1
  Mo  Mo39  1  0.78698462  0.21525194  0.24648088  1
