# generated using pymatgen
data_Cs2SiO3
_symmetry_space_group_name_H-M   'P 1'
_cell_length_a   6.95645944
_cell_length_b   14.08238431
_cell_length_c   16.56787545
_cell_angle_alpha   90.00000000
_cell_angle_beta   95.33217091
_cell_angle_gamma   90.00000000
_symmetry_Int_Tables_number   1
_chemical_formula_structural   Cs2SiO3
_chemical_formula_sum   'Cs24 Si12 O36'
_cell_volume   1616.02419891
_cell_formula_units_Z   12
loop_
 _symmetry_equiv_pos_site_id
 _symmetry_equiv_pos_as_xyz
  1  'x, y, z'
loop_
 _atom_site_type_symbol
 _atom_site_label
 _atom_site_symmetry_multiplicity
 _atom_site_fract_x
 _atom_site_fract_y
 _atom_site_fract_z
 _atom_site_occupancy
  Cs  Cs0  1  0.03803506  0.65611580  0.49201167  1
  Cs  Cs1  1  0.46196494  0.15611580  0.00798833  1
  Cs  Cs2  1  0.82693998  0.19150236  0.69170252  1
  Cs  Cs3  1  0.75172083  0.58568503  0.03296613  1
  Cs  Cs4  1  0.06942981  0.89406420  0.08552473  1
  Cs  Cs5  1  0.56942981  0.60593580  0.58552473  1
  Cs  Cs6  1  0.67306002  0.69150236  0.80829748  1
  Cs  Cs7  1  0.25796170  0.62268554  0.13575919  1
  Cs  Cs8  1  0.24827917  0.41431497  0.96703387  1
  Cs  Cs9  1  0.75796170  0.87731446  0.63575919  1
  Cs  Cs10  1  0.32693998  0.30849764  0.19170252  1
  Cs  Cs11  1  0.43624247  0.98802949  0.78165096  1
  Cs  Cs12  1  0.25172083  0.91431497  0.53296613  1
  Cs  Cs13  1  0.56375753  0.01197051  0.21834904  1
  Cs  Cs14  1  0.24203830  0.12268554  0.36424081  1
  Cs  Cs15  1  0.93057019  0.10593580  0.91447527  1
  Cs  Cs16  1  0.43057019  0.39406420  0.41447527  1
  Cs  Cs17  1  0.74203830  0.37731446  0.86424081  1
  Cs  Cs18  1  0.53803506  0.84388420  0.99201167  1
  Cs  Cs19  1  0.74827917  0.08568503  0.46703387  1
  Cs  Cs20  1  0.93624247  0.51197051  0.28165096  1
  Cs  Cs21  1  0.06375753  0.48802949  0.71834904  1
  Cs  Cs22  1  0.17306002  0.80849764  0.30829748  1
  Cs  Cs23  1  0.96196494  0.34388420  0.50798833  1
  Si  Si24  1  0.17018682  0.65500934  0.89357877  1
  Si  Si25  1  0.82677102  0.25350033  0.27816472  1
  Si  Si26  1  0.32981318  0.15500934  0.60642123  1
  Si  Si27  1  0.03578101  0.86571179  0.86553724  1
  Si  Si28  1  0.67322898  0.75350033  0.22183528  1
  Si  Si29  1  0.17322898  0.74649967  0.72183528  1
  Si  Si30  1  0.32677102  0.24649967  0.77816472  1
  Si  Si31  1  0.67018682  0.84499066  0.39357877  1
  Si  Si32  1  0.53578101  0.63428821  0.36553724  1
  Si  Si33  1  0.96421899  0.13428821  0.13446276  1
  Si  Si34  1  0.82981318  0.34499066  0.10642123  1
  Si  Si35  1  0.46421899  0.36571179  0.63446276  1
  O  O36  1  0.63847626  0.22683118  0.32476803  1
  O  O37  1  0.01120453  0.29725080  0.33362321  1
  O  O38  1  0.86193852  0.86125602  0.45582632  1
  O  O39  1  0.09894803  0.84465575  0.77052907  1
  O  O40  1  0.13847626  0.27316882  0.82476803  1
  O  O41  1  0.40105197  0.34465575  0.72947093  1
  O  O42  1  0.06076784  0.75916978  0.91366512  1
  O  O43  1  0.59894803  0.65534425  0.27052907  1
  O  O44  1  0.90105197  0.15534425  0.22947093  1
  O  O45  1  0.25911979  0.17107780  0.70086919  1
  O  O46  1  0.00901779  0.57113119  0.89181973  1
  O  O47  1  0.49098221  0.07113119  0.60818027  1
  O  O48  1  0.31390052  0.44040150  0.58795510  1
  O  O49  1  0.18959135  0.10279321  0.14013468  1
  O  O50  1  0.74088021  0.82892220  0.29913081  1
  O  O51  1  0.36152374  0.77316882  0.67523197  1
  O  O52  1  0.56076784  0.74083022  0.41366512  1
  O  O53  1  0.93923216  0.24083022  0.08633488  1
  O  O54  1  0.13806148  0.13874398  0.54417368  1
  O  O55  1  0.51120453  0.20274920  0.83362321  1
  O  O56  1  0.31040865  0.60279321  0.35986532  1
  O  O57  1  0.75911979  0.32892220  0.20086919  1
  O  O58  1  0.68959135  0.39720679  0.64013468  1
  O  O59  1  0.86152374  0.72683118  0.17523197  1
  O  O60  1  0.43923216  0.25916978  0.58633488  1
  O  O61  1  0.48879547  0.79725080  0.16637679  1
  O  O62  1  0.24088021  0.67107780  0.79913081  1
  O  O63  1  0.98879547  0.70274920  0.66637679  1
  O  O64  1  0.63806148  0.36125602  0.04417368  1
  O  O65  1  0.68609948  0.55959850  0.41204490  1
  O  O66  1  0.36193852  0.63874398  0.95582632  1
  O  O67  1  0.81040865  0.89720679  0.85986532  1
  O  O68  1  0.50901779  0.92886881  0.39181973  1
  O  O69  1  0.81390052  0.05959850  0.08795510  1
  O  O70  1  0.18609948  0.94040150  0.91204490  1
  O  O71  1  0.99098221  0.42886881  0.10818027  1
