# generated using pymatgen
data_Na4TiSe4
_symmetry_space_group_name_H-M   'P 1'
_cell_length_a   7.40681507
_cell_length_b   14.60421785
_cell_length_c   18.55260966
_cell_angle_alpha   80.85508545
_cell_angle_beta   78.48546777
_cell_angle_gamma   75.31025854
_symmetry_Int_Tables_number   1
_chemical_formula_structural   Na4TiSe4
_chemical_formula_sum   'Na32 Ti8 Se32'
_cell_volume   1889.72226085
_cell_formula_units_Z   8
loop_
 _symmetry_equiv_pos_site_id
 _symmetry_equiv_pos_as_xyz
  1  'x, y, z'
loop_
 _atom_site_type_symbol
 _atom_site_label
 _atom_site_symmetry_multiplicity
 _atom_site_fract_x
 _atom_site_fract_y
 _atom_site_fract_z
 _atom_site_occupancy
  Na  Na0  1  0.82649599  0.64441674  0.18451837  1
  Na  Na1  1  0.15543110  0.85558326  0.31548163  1
  Na  Na2  1  0.17350401  0.35558326  0.81548163  1
  Na  Na3  1  0.84456890  0.14441674  0.68451837  1
  Na  Na4  1  0.63287071  0.86296849  0.32633371  1
  Na  Na5  1  0.32217292  0.63703151  0.17366629  1
  Na  Na6  1  0.36712929  0.13703151  0.67366629  1
  Na  Na7  1  0.67782708  0.36296849  0.82633371  1
  Na  Na8  1  0.38163450  0.13476925  0.06332724  1
  Na  Na9  1  0.07973099  0.36523075  0.43667276  1
  Na  Na10  1  0.61836550  0.86523075  0.93667276  1
  Na  Na11  1  0.92026901  0.63476925  0.56332724  1
  Na  Na12  1  0.69739395  0.50619885  0.36402404  1
  Na  Na13  1  0.06761684  0.99380115  0.13597596  1
  Na  Na14  1  0.30260605  0.49380115  0.63597596  1
  Na  Na15  1  0.93238316  0.00619885  0.86402404  1
  Na  Na16  1  0.90703606  0.17955895  0.97988818  1
  Na  Na17  1  0.56648319  0.32044105  0.52011182  1
  Na  Na18  1  0.09296394  0.82044105  0.02011182  1
  Na  Na19  1  0.43351681  0.67955895  0.47988818  1
  Na  Na20  1  0.38483013  0.86841015  0.77678390  1
  Na  Na21  1  0.53002418  0.63158985  0.72321610  1
  Na  Na22  1  0.61516987  0.13158985  0.22321610  1
  Na  Na23  1  0.46997582  0.36841015  0.27678390  1
  Na  Na24  1  0.03939071  0.36571444  0.21102246  1
  Na  Na25  1  0.11612762  0.13428556  0.28897754  1
  Na  Na26  1  0.96060929  0.63428556  0.78897754  1
  Na  Na27  1  0.88387238  0.86571444  0.71102246  1
  Na  Na28  1  0.28508553  0.40929827  0.99287555  1
  Na  Na29  1  0.18725936  0.09070173  0.50712445  1
  Na  Na30  1  0.71491447  0.59070173  0.00712445  1
  Na  Na31  1  0.81274064  0.90929827  0.49287555  1
  Ti  Ti32  1  0.72528548  0.34646373  0.09680235  1
  Ti  Ti33  1  0.66855155  0.15353627  0.40319765  1
  Ti  Ti34  1  0.27471452  0.65353627  0.90319765  1
  Ti  Ti35  1  0.33144845  0.84646373  0.59680235  1
  Ti  Ti36  1  0.34511498  0.10826894  0.87193207  1
  Ti  Ti37  1  0.82531599  0.39173106  0.62806793  1
  Ti  Ti38  1  0.65488502  0.89173106  0.12806793  1
  Ti  Ti39  1  0.17468401  0.60826894  0.37193207  1
  Se  Se40  1  0.16041816  0.97972250  0.66295669  1
  Se  Se41  1  0.30309735  0.52027750  0.83704331  1
  Se  Se42  1  0.83958184  0.02027750  0.33704331  1
  Se  Se43  1  0.69690265  0.47972250  0.16295669  1
  Se  Se44  1  0.64379422  0.80065433  0.63021224  1
  Se  Se45  1  0.57466079  0.69934567  0.86978776  1
  Se  Se46  1  0.35620578  0.19934567  0.36978776  1
  Se  Se47  1  0.42533921  0.30065433  0.13021224  1
  Se  Se48  1  0.81097409  0.39062148  0.96721288  1
  Se  Se49  1  0.66880844  0.10937852  0.53278712  1
  Se  Se50  1  0.18902591  0.60937852  0.03278712  1
  Se  Se51  1  0.33119156  0.89062148  0.46721288  1
  Se  Se52  1  0.95891730  0.20827336  0.13746703  1
  Se  Se53  1  0.80465769  0.29172664  0.36253297  1
  Se  Se54  1  0.04108270  0.79172664  0.86253297  1
  Se  Se55  1  0.19534231  0.70827336  0.63746703  1
  Se  Se56  1  0.24562081  0.00274073  0.97558501  1
  Se  Se57  1  0.72394656  0.49725927  0.52441499  1
  Se  Se58  1  0.75437919  0.99725927  0.02441499  1
  Se  Se59  1  0.27605344  0.50274073  0.47558501  1
  Se  Se60  1  0.44014687  0.67767714  0.31280467  1
  Se  Se61  1  0.93062868  0.82232286  0.18719533  1
  Se  Se62  1  0.55985313  0.32232286  0.68719533  1
  Se  Se63  1  0.06937132  0.17767714  0.81280467  1
  Se  Se64  1  0.09586683  0.51614677  0.28853843  1
  Se  Se65  1  0.40055203  0.98385323  0.21146157  1
  Se  Se66  1  0.90413317  0.48385323  0.71146157  1
  Se  Se67  1  0.59944797  0.01614677  0.78853843  1
  Se  Se68  1  0.91248478  0.73174506  0.41284087  1
  Se  Se69  1  0.55707071  0.76825494  0.08715913  1
  Se  Se70  1  0.08751522  0.26825494  0.58715913  1
  Se  Se71  1  0.44292929  0.23174506  0.91284087  1
