# generated using pymatgen
data_P2Pb3O8
_symmetry_space_group_name_H-M   'P 1'
_cell_length_a   7.14278904
_cell_length_b   7.14278971
_cell_length_c   9.02647457
_cell_angle_alpha   71.96732649
_cell_angle_beta   71.96732483
_cell_angle_gamma   77.00946905
_symmetry_Int_Tables_number   1
_chemical_formula_structural   P2Pb3O8
_chemical_formula_sum   'P4 Pb6 O16'
_cell_volume   412.13765436
_cell_formula_units_Z   2
loop_
 _symmetry_equiv_pos_site_id
 _symmetry_equiv_pos_as_xyz
  1  'x, y, z'
loop_
 _atom_site_type_symbol
 _atom_site_label
 _atom_site_symmetry_multiplicity
 _atom_site_fract_x
 _atom_site_fract_y
 _atom_site_fract_z
 _atom_site_occupancy
  Pb  Pb0  1  0.41342265  0.58657735  0.75000000  1
  Pb  Pb1  1  0.58657735  0.41342265  0.25000000  1
  Pb  Pb2  1  0.89647941  0.80451925  0.43976778  1
  Pb  Pb3  1  0.19548075  0.10352059  0.06023222  1
  Pb  Pb4  1  0.10352059  0.19548075  0.56023222  1
  Pb  Pb5  1  0.80451925  0.89647941  0.93976778  1
  P  P6  1  0.91474981  0.50911243  0.80146175  1
  P  P7  1  0.49088757  0.08525019  0.69853825  1
  P  P8  1  0.08525019  0.49088757  0.19853825  1
  P  P9  1  0.50911243  0.91474981  0.30146175  1
  O  O10  1  0.74120245  0.57490321  0.93933451  1
  O  O11  1  0.42509679  0.25879755  0.56066549  1
  O  O12  1  0.25879755  0.42509679  0.06066549  1
  O  O13  1  0.57490321  0.74120245  0.43933451  1
  O  O14  1  0.48499323  0.17100831  0.84093328  1
  O  O15  1  0.82899169  0.51500677  0.65906672  1
  O  O16  1  0.51500677  0.82899169  0.15906672  1
  O  O17  1  0.17100831  0.48499323  0.34093328  1
  O  O18  1  0.01631467  0.29380763  0.85731690  1
  O  O19  1  0.70619237  0.98368533  0.64268310  1
  O  O20  1  0.98368533  0.70619237  0.14268310  1
  O  O21  1  0.29380763  0.01631467  0.35731690  1
  O  O22  1  0.33612720  0.93601515  0.76231162  1
  O  O23  1  0.06398485  0.66387280  0.73768838  1
  O  O24  1  0.66387280  0.06398485  0.23768838  1
  O  O25  1  0.93601515  0.33612720  0.26231162  1
