# generated using pymatgen
data_CsLa2CuSe4
_symmetry_space_group_name_H-M   'P 1'
_cell_length_a   4.34437134
_cell_length_b   7.89408621
_cell_length_c   14.89066270
_cell_angle_alpha   90.00000000
_cell_angle_beta   90.00000000
_cell_angle_gamma   105.97191857
_symmetry_Int_Tables_number   1
_chemical_formula_structural   CsLa2CuSe4
_chemical_formula_sum   'Cs2 La4 Cu2 Se8'
_cell_volume   490.95924978
_cell_formula_units_Z   2
loop_
 _symmetry_equiv_pos_site_id
 _symmetry_equiv_pos_as_xyz
  1  'x, y, z'
loop_
 _atom_site_type_symbol
 _atom_site_label
 _atom_site_symmetry_multiplicity
 _atom_site_fract_x
 _atom_site_fract_y
 _atom_site_fract_z
 _atom_site_occupancy
  Cs  Cs0  1  0.10535237  0.21070474  0.75000000  1
  Cs  Cs1  1  0.89464763  0.78929526  0.25000000  1
  La  La2  1  0.36536868  0.73073736  0.93903934  1
  La  La3  1  0.63463132  0.26926264  0.06096066  1
  La  La4  1  0.63463132  0.26926264  0.43903934  1
  La  La5  1  0.36536868  0.73073736  0.56096066  1
  Cu  Cu6  1  0.83463501  0.66927002  0.75000000  1
  Cu  Cu7  1  0.16536499  0.33072998  0.25000000  1
  Se  Se8  1  0.25903898  0.51807797  0.38803800  1
  Se  Se9  1  0.74096102  0.48192203  0.61196200  1
  Se  Se10  1  0.74096102  0.48192203  0.88803800  1
  Se  Se11  1  0.25903898  0.51807797  0.11196200  1
  Se  Se12  1  0.42048744  0.84097488  0.75000000  1
  Se  Se13  1  0.57951256  0.15902512  0.25000000  1
  Se  Se14  1  0.00000000  0.00000000  0.00000000  1
  Se  Se15  1  0.00000000  0.00000000  0.50000000  1
