# generated using pymatgen
data_Rb2CuH12(SeO7)2
_symmetry_space_group_name_H-M   'P 1'
_cell_length_a   6.40726379
_cell_length_b   9.52627964
_cell_length_c   12.82198281
_cell_angle_alpha   90.00000000
_cell_angle_beta   90.00000000
_cell_angle_gamma   104.09863818
_symmetry_Int_Tables_number   1
_chemical_formula_structural   Rb2CuH12(SeO7)2
_chemical_formula_sum   'Rb4 Cu2 H24 Se4 O28'
_cell_volume   759.04608030
_cell_formula_units_Z   2
loop_
 _symmetry_equiv_pos_site_id
 _symmetry_equiv_pos_as_xyz
  1  'x, y, z'
loop_
 _atom_site_type_symbol
 _atom_site_label
 _atom_site_symmetry_multiplicity
 _atom_site_fract_x
 _atom_site_fract_y
 _atom_site_fract_z
 _atom_site_occupancy
  Rb  Rb0  1  0.34343530  0.62221420  0.14819129  1
  Rb  Rb1  1  0.65656470  0.87778580  0.64819129  1
  Rb  Rb2  1  0.65656470  0.37778580  0.85180871  1
  Rb  Rb3  1  0.34343530  0.12221420  0.35180871  1
  Cu  Cu4  1  -0.00000000  0.50000000  0.50000000  1
  Cu  Cu5  1  -0.00000000  0.00000000  0.00000000  1
  H  H6  1  0.31206844  0.69112191  0.41062330  1
  H  H7  1  0.68793156  0.80887809  0.91062330  1
  H  H8  1  0.68793156  0.30887809  0.58937670  1
  H  H9  1  0.31206844  0.19112191  0.08937670  1
  H  H10  1  0.08819109  0.72811655  0.37604981  1
  H  H11  1  0.91180891  0.77188345  0.87604981  1
  H  H12  1  0.91180891  0.27188345  0.62395019  1
  H  H13  1  0.08819109  0.22811655  0.12395019  1
  H  H14  1  0.92523336  0.21344263  0.39822433  1
  H  H15  1  0.07476664  0.28655737  0.89822433  1
  H  H16  1  0.07476664  0.78655737  0.60177567  1
  H  H17  1  0.92523336  0.71344263  0.10177567  1
  H  H18  1  0.00499123  0.33270937  0.31241526  1
  H  H19  1  -0.00499123  0.16729063  0.81241526  1
  H  H20  1  -0.00499123  0.66729063  0.68758474  1
  H  H21  1  0.00499123  0.83270937  0.18758474  1
  H  H22  1  0.32115903  0.40201164  0.55935755  1
  H  H23  1  0.67884097  0.09798836  0.05935755  1
  H  H24  1  0.67884097  0.59798836  0.44064245  1
  H  H25  1  0.32115903  0.90201164  0.94064245  1
  H  H26  1  0.30922226  0.53408156  0.63478961  1
  H  H27  1  0.69077774  0.96591844  0.13478961  1
  H  H28  1  0.69077774  0.46591844  0.36521039  1
  H  H29  1  0.30922226  0.03408156  0.86521039  1
  Se  Se30  1  0.72894066  0.88912436  0.35705958  1
  Se  Se31  1  0.27105934  0.61087564  0.85705958  1
  Se  Se32  1  0.27105934  0.11087564  0.64294042  1
  Se  Se33  1  0.72894066  0.38912436  0.14294042  1
  O  O34  1  0.58389492  0.89786564  0.24941445  1
  O  O35  1  0.41610508  0.60213436  0.74941445  1
  O  O36  1  0.41610508  0.10213436  0.75058555  1
  O  O37  1  0.58389492  0.39786564  0.25058555  1
  O  O38  1  0.75764559  0.04054432  0.42670045  1
  O  O39  1  0.24235441  0.45945568  0.92670045  1
  O  O40  1  0.24235441  0.95945568  0.57329955  1
  O  O41  1  0.75764559  0.54054432  0.07329955  1
  O  O42  1  0.59113210  0.75045756  0.43067872  1
  O  O43  1  0.40886790  0.74954244  0.93067872  1
  O  O44  1  0.40886790  0.24954244  0.56932128  1
  O  O45  1  0.59113210  0.25045756  0.06932128  1
  O  O46  1  0.97024183  0.86131643  0.32412766  1
  O  O47  1  0.02975817  0.63868357  0.82412766  1
  O  O48  1  0.02975817  0.13868357  0.67587234  1
  O  O49  1  0.97024183  0.36131643  0.17587234  1
  O  O50  1  0.15871034  0.64781418  0.39137996  1
  O  O51  1  0.84128966  0.85218582  0.89137996  1
  O  O52  1  0.84128966  0.35218582  0.60862004  1
  O  O53  1  0.15871034  0.14781418  0.10862004  1
  O  O54  1  0.03229619  0.30603335  0.38490759  1
  O  O55  1  0.96770381  0.19396665  0.88490759  1
  O  O56  1  0.96770381  0.69396665  0.61509241  1
  O  O57  1  0.03229619  0.80603335  0.11509241  1
  O  O58  1  0.28000573  0.49703127  0.56173720  1
  O  O59  1  0.71999427  0.00296873  0.06173720  1
  O  O60  1  0.71999427  0.50296873  0.43826280  1
  O  O61  1  0.28000573  -0.00296873  0.93826280  1
