# generated using pymatgen
data_Pr2Ni7P4
_symmetry_space_group_name_H-M   'P 1'
_cell_length_a   3.77270867
_cell_length_b   9.26319628
_cell_length_c   10.47778153
_cell_angle_alpha   90.00000000
_cell_angle_beta   90.00000000
_cell_angle_gamma   90.00000000
_symmetry_Int_Tables_number   1
_chemical_formula_structural   Pr2Ni7P4
_chemical_formula_sum   'Pr4 Ni14 P8'
_cell_volume   366.17060319
_cell_formula_units_Z   2
loop_
 _symmetry_equiv_pos_site_id
 _symmetry_equiv_pos_as_xyz
  1  'x, y, z'
loop_
 _atom_site_type_symbol
 _atom_site_label
 _atom_site_symmetry_multiplicity
 _atom_site_fract_x
 _atom_site_fract_y
 _atom_site_fract_z
 _atom_site_occupancy
  Pr  Pr0  1  0.00000000  0.56308726  0.00038495  1
  Pr  Pr1  1  0.50000000  0.43691274  0.50038495  1
  Pr  Pr2  1  0.00000000  0.93942864  0.78341005  1
  Pr  Pr3  1  0.50000000  0.06057136  0.28341005  1
  Ni  Ni4  1  0.00000000  0.58280931  0.30389445  1
  Ni  Ni5  1  0.50000000  0.41719069  0.80389445  1
  Ni  Ni6  1  0.00000000  0.31820489  0.26026399  1
  Ni  Ni7  1  0.50000000  0.68179511  0.76026399  1
  Ni  Ni8  1  0.00000000  0.25298119  0.90258656  1
  Ni  Ni9  1  0.50000000  0.74701881  0.40258656  1
  Ni  Ni10  1  0.00000000  0.90359706  0.08590124  1
  Ni  Ni11  1  0.50000000  0.09640294  0.58590124  1
  Ni  Ni12  1  0.00000000  0.93888566  0.47975966  1
  Ni  Ni13  1  0.50000000  0.06111434  0.97975966  1
  Ni  Ni14  1  0.00000000  0.27474040  0.67235420  1
  Ni  Ni15  1  0.50000000  0.72525960  0.17235420  1
  Ni  Ni16  1  0.00000000  0.69514638  0.57464506  1
  Ni  Ni17  1  0.50000000  0.30485362  0.07464506  1
  P  P18  1  0.00000000  0.52403149  0.71784031  1
  P  P19  1  0.50000000  0.47596851  0.21784031  1
  P  P20  1  0.00000000  0.81566357  0.28839792  1
  P  P21  1  0.50000000  0.18433643  0.78839792  1
  P  P22  1  0.00000000  0.15736337  0.08925860  1
  P  P23  1  0.50000000  0.84263663  0.58925860  1
  P  P24  1  0.00000000  0.18496364  0.47250300  1
  P  P25  1  0.50000000  0.81503636  0.97250300  1
