# generated using pymatgen
data_Nd2Fe12P7
_symmetry_space_group_name_H-M   'P 1'
_cell_length_a   3.67660353
_cell_length_b   9.04901100
_cell_length_c   9.04224113
_cell_angle_alpha   119.99643005
_cell_angle_beta   90.00000000
_cell_angle_gamma   90.00000000
_symmetry_Int_Tables_number   1
_chemical_formula_structural   Nd2Fe12P7
_chemical_formula_sum   'Nd2 Fe12 P7'
_cell_volume   260.53750756
_cell_formula_units_Z   1
loop_
 _symmetry_equiv_pos_site_id
 _symmetry_equiv_pos_as_xyz
  1  'x, y, z'
loop_
 _atom_site_type_symbol
 _atom_site_label
 _atom_site_symmetry_multiplicity
 _atom_site_fract_x
 _atom_site_fract_y
 _atom_site_fract_z
 _atom_site_occupancy
  Nd  Nd0  1  0.00000000  0.66698874  0.33350494  1
  Nd  Nd1  1  0.50000000  0.33320052  0.66665959  1
  Fe  Fe2  1  -0.00000000  0.37114224  0.94551676  1
  Fe  Fe3  1  0.00000000  0.05448677  0.42611807  1
  Fe  Fe4  1  0.00000000  0.57402519  0.62852700  1
  Fe  Fe5  1  0.00000000  0.88013048  0.72715376  1
  Fe  Fe6  1  -0.00000000  0.27269202  0.15294100  1
  Fe  Fe7  1  -0.00000000  0.84753247  0.11982395  1
  Fe  Fe8  1  0.50000000  0.95246251  0.56941907  1
  Fe  Fe9  1  0.50000000  0.43036150  0.38297042  1
  Fe  Fe10  1  0.50000000  0.61714257  0.04752018  1
  Fe  Fe11  1  0.50000000  0.11892339  0.90306877  1
  Fe  Fe12  1  0.50000000  0.09684808  0.21567791  1
  Fe  Fe13  1  0.50000000  0.78430900  0.88105406  1
  P  P14  1  0.00000000  0.10908911  0.70336451  1
  P  P15  1  0.00000000  0.29677511  0.40620742  1
  P  P16  1  -0.00000000  0.59397474  0.89136035  1
  P  P17  1  0.50000000  0.71120245  0.60359966  1
  P  P18  1  0.50000000  0.39664323  0.10717076  1
  P  P19  1  0.50000000  0.89207476  0.28840576  1
  P  P20  1  0.00000000  -0.00000488  0.99993607  1
