# generated using pymatgen
data_Fe2Cu(P2O7)2
_symmetry_space_group_name_H-M   'P 1'
_cell_length_a   5.25675684
_cell_length_b   6.70243160
_cell_length_c   15.88052706
_cell_angle_alpha   92.16624229
_cell_angle_beta   90.00000000
_cell_angle_gamma   90.00000000
_symmetry_Int_Tables_number   1
_chemical_formula_structural   Fe2Cu(P2O7)2
_chemical_formula_sum   'Fe4 Cu2 P8 O28'
_cell_volume   559.11959967
_cell_formula_units_Z   2
loop_
 _symmetry_equiv_pos_site_id
 _symmetry_equiv_pos_as_xyz
  1  'x, y, z'
loop_
 _atom_site_type_symbol
 _atom_site_label
 _atom_site_symmetry_multiplicity
 _atom_site_fract_x
 _atom_site_fract_y
 _atom_site_fract_z
 _atom_site_occupancy
  O  O0  1  0.03766855  0.06045429  0.58847155  1
  O  O1  1  0.53766855  0.43954571  0.91152845  1
  O  O2  1  0.96233145  0.93954571  0.41152845  1
  O  O3  1  0.46233145  0.56045429  0.08847155  1
  O  O4  1  0.56747528  0.99759069  0.61747446  1
  O  O5  1  0.06747528  0.50240931  0.88252554  1
  O  O6  1  0.43252472  0.00240931  0.38252554  1
  O  O7  1  0.93252472  0.49759069  0.11747446  1
  O  O8  1  0.72257176  0.62767979  0.75803972  1
  O  O9  1  0.22257176  0.87232021  0.74196028  1
  O  O10  1  0.27742824  0.37232021  0.24196028  1
  O  O11  1  0.77742824  0.12767979  0.25803972  1
  O  O12  1  0.97666331  0.63354641  0.61961737  1
  O  O13  1  0.47666331  0.86645359  0.88038263  1
  O  O14  1  0.79614590  0.75578820  0.01192322  1
  O  O15  1  0.29614590  0.74421180  0.48807678  1
  O  O16  1  0.20385410  0.24421180  0.98807678  1
  O  O17  1  0.70385410  0.25578820  0.51192322  1
  O  O18  1  0.72233163  0.81425733  0.16957677  1
  O  O19  1  0.22233163  0.68574267  0.33042323  1
  O  O20  1  0.27766837  0.18574267  0.83042323  1
  O  O21  1  0.77766837  0.31425733  0.66957677  1
  O  O22  1  0.00140430  0.08582289  0.11822744  1
  O  O23  1  0.50140430  0.41417711  0.38177256  1
  O  O24  1  0.99859570  0.91417711  0.88177256  1
  O  O25  1  0.49859570  0.58582289  0.61822744  1
  O  O26  1  0.52333669  0.13354641  0.11961737  1
  O  O27  1  0.02333669  0.36645359  0.38038263  1
  P  P28  1  0.75280844  0.55374790  0.66805448  1
  P  P29  1  0.25280844  0.94625210  0.83194552  1
  P  P30  1  0.24719156  0.44625210  0.33194552  1
  P  P31  1  0.74719156  0.05374790  0.16805448  1
  P  P32  1  0.76996893  0.14518165  0.59432620  1
  P  P33  1  0.26996893  0.35481835  0.90567380  1
  P  P34  1  0.23003107  0.85481835  0.40567380  1
  P  P35  1  0.73003107  0.64518165  0.09432620  1
  Fe  Fe36  1  0.74806507  0.16310152  0.38013766  1
  Fe  Fe37  1  0.24806507  0.33689848  0.11986234  1
  Fe  Fe38  1  0.25193493  0.83689848  0.61986234  1
  Fe  Fe39  1  0.75193493  0.66310152  0.88013766  1
  Cu  Cu40  1  0.50000000  0.50000000  0.50000000  1
  Cu  Cu41  1  0.00000000  0.00000000  0.00000000  1
