# generated using pymatgen
data_HfMg30ZnO32
_symmetry_space_group_name_H-M   'P 1'
_cell_length_a   8.64394841
_cell_length_b   8.62032552
_cell_length_c   8.62032552
_cell_angle_alpha   90.00000000
_cell_angle_beta   90.00000000
_cell_angle_gamma   90.00000000
_symmetry_Int_Tables_number   1
_chemical_formula_structural   HfMg30ZnO32
_chemical_formula_sum   'Hf1 Mg30 Zn1 O32'
_cell_volume   642.33191069
_cell_formula_units_Z   1
loop_
 _symmetry_equiv_pos_site_id
 _symmetry_equiv_pos_as_xyz
  1  'x, y, z'
loop_
 _atom_site_type_symbol
 _atom_site_label
 _atom_site_symmetry_multiplicity
 _atom_site_fract_x
 _atom_site_fract_y
 _atom_site_fract_z
 _atom_site_occupancy
  Hf  Hf0  1  0.00000000  0.50000000  0.50000000  1
  Mg  Mg1  1  0.00000000  0.00000000  0.50000000  1
  Mg  Mg2  1  0.00000000  0.50000000  0.00000000  1
  Mg  Mg3  1  0.50000000  0.00000000  0.00000000  1
  Mg  Mg4  1  0.50000000  0.00000000  0.50000000  1
  Mg  Mg5  1  0.50000000  0.50000000  0.00000000  1
  Mg  Mg6  1  0.50000000  0.50000000  0.50000000  1
  Mg  Mg7  1  0.00000000  0.24041369  0.24041369  1
  Mg  Mg8  1  0.00000000  0.24041369  0.75958631  1
  Mg  Mg9  1  0.00000000  0.75958631  0.24041369  1
  Mg  Mg10  1  0.00000000  0.75958631  0.75958631  1
  Mg  Mg11  1  0.50000000  0.24773527  0.24773527  1
  Mg  Mg12  1  0.50000000  0.24773527  0.75226473  1
  Mg  Mg13  1  0.50000000  0.75226473  0.24773527  1
  Mg  Mg14  1  0.50000000  0.75226473  0.75226473  1
  Mg  Mg15  1  0.24985693  0.00000000  0.24694275  1
  Mg  Mg16  1  0.24985693  0.00000000  0.75305725  1
  Mg  Mg17  1  0.25654117  0.50000000  0.24197051  1
  Mg  Mg18  1  0.25654117  0.50000000  0.75802949  1
  Mg  Mg19  1  0.75014307  0.00000000  0.24694275  1
  Mg  Mg20  1  0.75014307  0.00000000  0.75305725  1
  Mg  Mg21  1  0.74345883  0.50000000  0.24197051  1
  Mg  Mg22  1  0.74345883  0.50000000  0.75802949  1
  Mg  Mg23  1  0.24985693  0.24694275  0.00000000  1
  Mg  Mg24  1  0.25654117  0.24197051  0.50000000  1
  Mg  Mg25  1  0.24985693  0.75305725  0.00000000  1
  Mg  Mg26  1  0.25654117  0.75802949  0.50000000  1
  Mg  Mg27  1  0.75014307  0.24694275  0.00000000  1
  Mg  Mg28  1  0.74345883  0.24197051  0.50000000  1
  Mg  Mg29  1  0.75014307  0.75305725  0.00000000  1
  Mg  Mg30  1  0.74345883  0.75802949  0.50000000  1
  Zn  Zn31  1  0.00000000  0.00000000  0.00000000  1
  O  O32  1  0.27180165  0.00000000  0.00000000  1
  O  O33  1  0.25381066  0.00000000  0.50000000  1
  O  O34  1  0.25381066  0.50000000  0.00000000  1
  O  O35  1  0.24482061  0.50000000  0.50000000  1
  O  O36  1  0.72819835  0.00000000  0.00000000  1
  O  O37  1  0.74618934  0.00000000  0.50000000  1
  O  O38  1  0.74618934  0.50000000  0.00000000  1
  O  O39  1  0.75517939  0.50000000  0.50000000  1
  O  O40  1  0.24950254  0.25192260  0.25192260  1
  O  O41  1  0.24950254  0.25192260  0.74807740  1
  O  O42  1  0.24950254  0.74807740  0.25192260  1
  O  O43  1  0.24950254  0.74807740  0.74807740  1
  O  O44  1  0.75049746  0.25192260  0.25192260  1
  O  O45  1  0.75049746  0.25192260  0.74807740  1
  O  O46  1  0.75049746  0.74807740  0.25192260  1
  O  O47  1  0.75049746  0.74807740  0.74807740  1
  O  O48  1  0.00000000  0.00000000  0.27337866  1
  O  O49  1  0.00000000  0.00000000  0.72662134  1
  O  O50  1  0.00000000  0.50000000  0.25795318  1
  O  O51  1  0.00000000  0.50000000  0.74204682  1
  O  O52  1  0.50000000  0.00000000  0.25521060  1
  O  O53  1  0.50000000  0.00000000  0.74478940  1
  O  O54  1  0.50000000  0.50000000  0.25343660  1
  O  O55  1  0.50000000  0.50000000  0.74656340  1
  O  O56  1  0.00000000  0.27337866  0.00000000  1
  O  O57  1  0.00000000  0.25795318  0.50000000  1
  O  O58  1  0.00000000  0.72662134  0.00000000  1
  O  O59  1  0.00000000  0.74204682  0.50000000  1
  O  O60  1  0.50000000  0.25521060  0.00000000  1
  O  O61  1  0.50000000  0.25343660  0.50000000  1
  O  O62  1  0.50000000  0.74478940  0.00000000  1
  O  O63  1  0.50000000  0.74656340  0.50000000  1
