# generated using pymatgen
data_Cs7Au5O2
_symmetry_space_group_name_H-M   'P 1'
_cell_length_a   6.15996717
_cell_length_b   9.79656499
_cell_length_c   10.60644424
_cell_angle_alpha   117.50470282
_cell_angle_beta   106.88118348
_cell_angle_gamma   89.99999916
_symmetry_Int_Tables_number   1
_chemical_formula_structural   Cs7Au5O2
_chemical_formula_sum   'Cs7 Au5 O2'
_cell_volume   536.42992091
_cell_formula_units_Z   1
loop_
 _symmetry_equiv_pos_site_id
 _symmetry_equiv_pos_as_xyz
  1  'x, y, z'
loop_
 _atom_site_type_symbol
 _atom_site_label
 _atom_site_symmetry_multiplicity
 _atom_site_fract_x
 _atom_site_fract_y
 _atom_site_fract_z
 _atom_site_occupancy
  Cs  Cs0  1  0.83298259  0.61273157  0.66596518  1
  Cs  Cs1  1  0.50000000  0.78987817  1.00000000  1
  Cs  Cs2  1  0.83298259  0.05323361  0.66596518  1
  Cs  Cs3  1  0.16701741  0.38726843  0.33403482  1
  Cs  Cs4  1  0.16701741  0.94676639  0.33403482  1
  Cs  Cs5  1  0.50000000  0.21012183  0.00000000  1
  Cs  Cs6  1  0.00000000  0.50000000  0.00000000  1
  Au  Au7  1  0.64941483  0.64941483  0.29882966  1
  Au  Au8  1  0.30896615  0.80896615  0.61793231  1
  Au  Au9  1  0.00000000  0.00000000  0.00000000  1
  Au  Au10  1  0.35058517  0.35058517  0.70117034  1
  Au  Au11  1  0.69103385  0.19103385  0.38206769  1
  O  O12  1  0.00000000  0.79128488  0.00000000  1
  O  O13  1  1.00000000  0.20871512  1.00000000  1
