# generated using pymatgen
data_DyNiSn
_symmetry_space_group_name_H-M   'P 1'
_cell_length_a   4.47766674
_cell_length_b   7.13285633
_cell_length_c   7.69137049
_cell_angle_alpha   90.00000000
_cell_angle_beta   90.00000000
_cell_angle_gamma   90.00000000
_symmetry_Int_Tables_number   1
_chemical_formula_structural   DyNiSn
_chemical_formula_sum   'Dy4 Ni4 Sn4'
_cell_volume   245.65124827
_cell_formula_units_Z   4
loop_
 _symmetry_equiv_pos_site_id
 _symmetry_equiv_pos_as_xyz
  1  'x, y, z'
loop_
 _atom_site_type_symbol
 _atom_site_label
 _atom_site_symmetry_multiplicity
 _atom_site_fract_x
 _atom_site_fract_y
 _atom_site_fract_z
 _atom_site_occupancy
  Dy  Dy0  1  0.75000000  0.01288140  0.29726598  1
  Dy  Dy1  1  0.25000000  0.98711860  0.70273402  1
  Dy  Dy2  1  0.75000000  0.51288140  0.20273402  1
  Dy  Dy3  1  0.25000000  0.48711860  0.79726598  1
  Ni  Ni4  1  0.75000000  0.79932766  0.91508347  1
  Ni  Ni5  1  0.25000000  0.20067234  0.08491653  1
  Ni  Ni6  1  0.75000000  0.29932766  0.58491653  1
  Ni  Ni7  1  0.25000000  0.70067234  0.41508347  1
  Sn  Sn8  1  0.75000000  0.69061171  0.58663977  1
  Sn  Sn9  1  0.25000000  0.30938829  0.41336023  1
  Sn  Sn10  1  0.75000000  0.19061171  0.91336023  1
  Sn  Sn11  1  0.25000000  0.80938829  0.08663977  1
