# generated using pymatgen
data_Er2Ti3Si4
_symmetry_space_group_name_H-M   'P 1'
_cell_length_a   7.02447991
_cell_length_b   7.02447991
_cell_length_c   12.89794026
_cell_angle_alpha   90.00000000
_cell_angle_beta   90.00000000
_cell_angle_gamma   90.00000000
_symmetry_Int_Tables_number   1
_chemical_formula_structural   Er2Ti3Si4
_chemical_formula_sum   'Er8 Ti12 Si16'
_cell_volume   636.42716787
_cell_formula_units_Z   4
loop_
 _symmetry_equiv_pos_site_id
 _symmetry_equiv_pos_as_xyz
  1  'x, y, z'
loop_
 _atom_site_type_symbol
 _atom_site_label
 _atom_site_symmetry_multiplicity
 _atom_site_fract_x
 _atom_site_fract_y
 _atom_site_fract_z
 _atom_site_occupancy
  Er  Er0  1  0.34152160  0.00213843  0.46639597  1
  Er  Er1  1  0.49786157  0.84152160  0.71639597  1
  Er  Er2  1  0.50213843  0.15847840  0.21639597  1
  Er  Er3  1  0.84152160  0.49786157  0.28360403  1
  Er  Er4  1  0.15847840  0.50213843  0.78360403  1
  Er  Er5  1  0.65847840  0.99786157  0.96639597  1
  Er  Er6  1  0.00213843  0.34152160  0.53360403  1
  Er  Er7  1  0.99786157  0.65847840  0.03360403  1
  Ti  Ti8  1  0.32767387  0.32767387  0.00000000  1
  Ti  Ti9  1  0.17232613  0.82767387  0.25000000  1
  Ti  Ti10  1  0.82767387  0.17232613  0.75000000  1
  Ti  Ti11  1  0.67232613  0.67232613  0.50000000  1
  Ti  Ti12  1  0.15144559  0.00676726  0.87557725  1
  Ti  Ti13  1  0.49323274  0.65144559  0.12557725  1
  Ti  Ti14  1  0.50676726  0.34855441  0.62557725  1
  Ti  Ti15  1  0.65144559  0.49323274  0.87442275  1
  Ti  Ti16  1  0.34855441  0.50676726  0.37442275  1
  Ti  Ti17  1  0.84855441  0.99323274  0.37557725  1
  Ti  Ti18  1  0.00676726  0.15144559  0.12442275  1
  Ti  Ti19  1  0.99323274  0.84855441  0.62442275  1
  Si  Si20  1  0.20305111  0.13237958  0.68353473  1
  Si  Si21  1  0.36762042  0.70305111  0.93353473  1
  Si  Si22  1  0.63237958  0.29694889  0.43353473  1
  Si  Si23  1  0.70305111  0.36762042  0.06646527  1
  Si  Si24  1  0.29694889  0.63237958  0.56646527  1
  Si  Si25  1  0.79694889  0.86762042  0.18353473  1
  Si  Si26  1  0.13237958  0.20305111  0.31646527  1
  Si  Si27  1  0.86762042  0.79694889  0.81646527  1
  Si  Si28  1  0.29104375  0.95333667  0.06449865  1
  Si  Si29  1  0.54666333  0.79104375  0.31449865  1
  Si  Si30  1  0.45333667  0.20895625  0.81449865  1
  Si  Si31  1  0.79104375  0.54666333  0.68550135  1
  Si  Si32  1  0.20895625  0.45333667  0.18550135  1
  Si  Si33  1  0.70895625  0.04666333  0.56449865  1
  Si  Si34  1  0.95333667  0.29104375  0.93550135  1
  Si  Si35  1  0.04666333  0.70895625  0.43550135  1
