# generated using pymatgen
data_RbLi(H2N)2
_symmetry_space_group_name_H-M   'P 1'
_cell_length_a   3.87830776
_cell_length_b   7.88232799
_cell_length_c   11.72569328
_cell_angle_alpha   90.00000000
_cell_angle_beta   90.00000000
_cell_angle_gamma   90.00000000
_symmetry_Int_Tables_number   1
_chemical_formula_structural   RbLi(H2N)2
_chemical_formula_sum   'Rb4 Li4 H16 N8'
_cell_volume   358.45554356
_cell_formula_units_Z   4
loop_
 _symmetry_equiv_pos_site_id
 _symmetry_equiv_pos_as_xyz
  1  'x, y, z'
loop_
 _atom_site_type_symbol
 _atom_site_label
 _atom_site_symmetry_multiplicity
 _atom_site_fract_x
 _atom_site_fract_y
 _atom_site_fract_z
 _atom_site_occupancy
  Rb  Rb0  1  0.75000000  0.87450801  0.25856882  1
  Rb  Rb1  1  0.25000000  0.12549199  0.74143118  1
  Rb  Rb2  1  0.75000000  0.37450801  0.24143118  1
  Rb  Rb3  1  0.25000000  0.62549199  0.75856882  1
  Li  Li4  1  0.75000000  0.61344627  0.99750375  1
  Li  Li5  1  0.25000000  0.38655373  0.00249625  1
  Li  Li6  1  0.75000000  0.11344627  0.50249625  1
  Li  Li7  1  0.25000000  0.88655373  0.49750375  1
  N  N8  1  0.75000000  0.88329016  0.58756426  1
  N  N9  1  0.25000000  0.11670984  0.41243574  1
  N  N10  1  0.75000000  0.38329016  0.91243574  1
  N  N11  1  0.25000000  0.61670984  0.08756426  1
  N  N12  1  0.75000000  0.83369043  0.88793656  1
  N  N13  1  0.25000000  0.16630957  0.11206344  1
  N  N14  1  0.75000000  0.33369043  0.61206344  1
  N  N15  1  0.25000000  0.66630957  0.38793656  1
  H  H16  1  0.75000000  0.87516318  0.67540496  1
  H  H17  1  0.25000000  0.12483682  0.32459504  1
  H  H18  1  0.75000000  0.37516318  0.82459504  1
  H  H19  1  0.25000000  0.62483682  0.17540496  1
  H  H20  1  0.75000000  0.75811268  0.56247436  1
  H  H21  1  0.25000000  0.24188732  0.43752564  1
  H  H22  1  0.75000000  0.25811268  0.93752564  1
  H  H23  1  0.25000000  0.74188732  0.06247436  1
  H  H24  1  0.95474406  0.89474552  0.92627626  1
  H  H25  1  0.45474406  0.10525448  0.07372374  1
  H  H26  1  0.54525594  0.39474552  0.57372374  1
  H  H27  1  0.04525594  0.60525448  0.42627626  1
  H  H28  1  0.04525594  0.10525448  0.07372374  1
  H  H29  1  0.54525594  0.89474552  0.92627626  1
  H  H30  1  0.45474406  0.60525448  0.42627626  1
  H  H31  1  0.95474406  0.39474552  0.57372374  1
