# generated using pymatgen
data_Tb2Ti3Si4
_symmetry_space_group_name_H-M   'P 1'
_cell_length_a   7.07153704
_cell_length_b   7.07153704
_cell_length_c   13.00082633
_cell_angle_alpha   90.00000000
_cell_angle_beta   90.00000000
_cell_angle_gamma   90.00000000
_symmetry_Int_Tables_number   1
_chemical_formula_structural   Tb2Ti3Si4
_chemical_formula_sum   'Tb8 Ti12 Si16'
_cell_volume   650.12759139
_cell_formula_units_Z   4
loop_
 _symmetry_equiv_pos_site_id
 _symmetry_equiv_pos_as_xyz
  1  'x, y, z'
loop_
 _atom_site_type_symbol
 _atom_site_label
 _atom_site_symmetry_multiplicity
 _atom_site_fract_x
 _atom_site_fract_y
 _atom_site_fract_z
 _atom_site_occupancy
  Tb  Tb0  1  0.33965361  0.00228307  0.46645325  1
  Tb  Tb1  1  0.49771693  0.83965361  0.71645325  1
  Tb  Tb2  1  0.50228307  0.16034639  0.21645325  1
  Tb  Tb3  1  0.83965361  0.49771693  0.28354675  1
  Tb  Tb4  1  0.16034639  0.50228307  0.78354675  1
  Tb  Tb5  1  0.66034639  0.99771693  0.96645325  1
  Tb  Tb6  1  0.00228307  0.33965361  0.53354675  1
  Tb  Tb7  1  0.99771693  0.66034639  0.03354675  1
  Ti  Ti8  1  0.32804450  0.32804450  0.00000000  1
  Ti  Ti9  1  0.17195550  0.82804450  0.25000000  1
  Ti  Ti10  1  0.82804450  0.17195550  0.75000000  1
  Ti  Ti11  1  0.67195550  0.67195550  0.50000000  1
  Ti  Ti12  1  0.15313259  0.00802894  0.87660788  1
  Ti  Ti13  1  0.49197106  0.65313259  0.12660788  1
  Ti  Ti14  1  0.50802894  0.34686741  0.62660788  1
  Ti  Ti15  1  0.65313259  0.49197106  0.87339212  1
  Ti  Ti16  1  0.34686741  0.50802894  0.37339212  1
  Ti  Ti17  1  0.84686741  0.99197106  0.37660788  1
  Ti  Ti18  1  0.00802894  0.15313259  0.12339212  1
  Ti  Ti19  1  0.99197106  0.84686741  0.62339212  1
  Si  Si20  1  0.20240892  0.12974380  0.68503572  1
  Si  Si21  1  0.37025620  0.70240892  0.93503572  1
  Si  Si22  1  0.62974380  0.29759108  0.43503572  1
  Si  Si23  1  0.70240892  0.37025620  0.06496428  1
  Si  Si24  1  0.29759108  0.62974380  0.56496428  1
  Si  Si25  1  0.79759108  0.87025620  0.18503572  1
  Si  Si26  1  0.12974380  0.20240892  0.31496428  1
  Si  Si27  1  0.87025620  0.79759108  0.81496428  1
  Si  Si28  1  0.29078297  0.95403024  0.06475624  1
  Si  Si29  1  0.54596976  0.79078297  0.31475624  1
  Si  Si30  1  0.45403024  0.20921703  0.81475624  1
  Si  Si31  1  0.79078297  0.54596976  0.68524376  1
  Si  Si32  1  0.20921703  0.45403024  0.18524376  1
  Si  Si33  1  0.70921703  0.04596976  0.56475624  1
  Si  Si34  1  0.95403024  0.29078297  0.93524376  1
  Si  Si35  1  0.04596976  0.70921703  0.43524376  1
