# generated using pymatgen
data_In3Au10
_symmetry_space_group_name_H-M   'P 1'
_cell_length_a   4.79678230
_cell_length_b   10.91298217
_cell_length_c   10.91214472
_cell_angle_alpha   120.06070016
_cell_angle_beta   90.00000000
_cell_angle_gamma   90.00000000
_symmetry_Int_Tables_number   1
_chemical_formula_structural   In3Au10
_chemical_formula_sum   'In6 Au20'
_cell_volume   494.38836272
_cell_formula_units_Z   2
loop_
 _symmetry_equiv_pos_site_id
 _symmetry_equiv_pos_as_xyz
  1  'x, y, z'
loop_
 _atom_site_type_symbol
 _atom_site_label
 _atom_site_symmetry_multiplicity
 _atom_site_fract_x
 _atom_site_fract_y
 _atom_site_fract_z
 _atom_site_occupancy
  In  In0  1  0.25000000  0.74400230  0.10551259  1
  In  In1  1  0.25000000  0.89444410  0.63847745  1
  In  In2  1  0.25000000  0.36138354  0.25586700  1
  In  In3  1  0.75000000  0.25599770  0.89448741  1
  In  In4  1  0.75000000  0.10555590  0.36152255  1
  In  In5  1  0.75000000  0.63861646  0.74413300  1
  Au  Au6  1  0.25000000  0.05813753  0.18077298  1
  Au  Au7  1  0.25000000  0.81903647  0.87735929  1
  Au  Au8  1  0.25000000  0.12260976  0.94174572  1
  Au  Au9  1  0.75000000  0.94186247  0.81922702  1
  Au  Au10  1  0.75000000  0.18096353  0.12264071  1
  Au  Au11  1  0.75000000  0.87739024  0.05825428  1
  Au  Au12  1  0.25000000  0.97423069  0.40984763  1
  Au  Au13  1  0.25000000  0.59011189  0.56426629  1
  Au  Au14  1  0.25000000  0.43548545  0.02565773  1
  Au  Au15  1  0.75000000  0.02576931  0.59015237  1
  Au  Au16  1  0.75000000  0.40988811  0.43573371  1
  Au  Au17  1  0.75000000  0.56451455  0.97434227  1
  Au  Au18  1  0.25000000  0.28444183  0.48858671  1
  Au  Au19  1  0.25000000  0.51142872  0.79593467  1
  Au  Au20  1  0.25000000  0.20418921  0.71545551  1
  Au  Au21  1  0.75000000  0.71555817  0.51141329  1
  Au  Au22  1  0.75000000  0.48857128  0.20406533  1
  Au  Au23  1  0.75000000  0.79581079  0.28454449  1
  Au  Au24  1  0.75000000  0.33341447  0.66676088  1
  Au  Au25  1  0.25000000  0.66658553  0.33323912  1
