# generated using pymatgen
data_Ho2Ti3Si4
_symmetry_space_group_name_H-M   'P 1'
_cell_length_a   7.03980918
_cell_length_b   7.03980918
_cell_length_c   12.93214241
_cell_angle_alpha   90.00000000
_cell_angle_beta   90.00000000
_cell_angle_gamma   90.00000000
_symmetry_Int_Tables_number   1
_chemical_formula_structural   Ho2Ti3Si4
_chemical_formula_sum   'Ho8 Ti12 Si16'
_cell_volume   640.90292436
_cell_formula_units_Z   4
loop_
 _symmetry_equiv_pos_site_id
 _symmetry_equiv_pos_as_xyz
  1  'x, y, z'
loop_
 _atom_site_type_symbol
 _atom_site_label
 _atom_site_symmetry_multiplicity
 _atom_site_fract_x
 _atom_site_fract_y
 _atom_site_fract_z
 _atom_site_occupancy
  Ho  Ho0  1  0.34116490  0.00261850  0.46631025  1
  Ho  Ho1  1  0.49738150  0.84116490  0.71631025  1
  Ho  Ho2  1  0.50261850  0.15883510  0.21631025  1
  Ho  Ho3  1  0.84116490  0.49738150  0.28368975  1
  Ho  Ho4  1  0.15883510  0.50261850  0.78368975  1
  Ho  Ho5  1  0.65883510  0.99738150  0.96631025  1
  Ho  Ho6  1  0.00261850  0.34116490  0.53368975  1
  Ho  Ho7  1  0.99738150  0.65883510  0.03368975  1
  Ti  Ti8  1  0.32734639  0.32734639  0.00000000  1
  Ti  Ti9  1  0.17265361  0.82734639  0.25000000  1
  Ti  Ti10  1  0.82734639  0.17265361  0.75000000  1
  Ti  Ti11  1  0.67265361  0.67265361  0.50000000  1
  Ti  Ti12  1  0.15138539  0.00699672  0.87607656  1
  Ti  Ti13  1  0.49300328  0.65138539  0.12607656  1
  Ti  Ti14  1  0.50699672  0.34861461  0.62607656  1
  Ti  Ti15  1  0.65138539  0.49300328  0.87392344  1
  Ti  Ti16  1  0.34861461  0.50699672  0.37392344  1
  Ti  Ti17  1  0.84861461  0.99300328  0.37607656  1
  Ti  Ti18  1  0.00699672  0.15138539  0.12392344  1
  Ti  Ti19  1  0.99300328  0.84861461  0.62392344  1
  Si  Si20  1  0.20269321  0.13211668  0.68422862  1
  Si  Si21  1  0.36788332  0.70269321  0.93422862  1
  Si  Si22  1  0.63211668  0.29730679  0.43422862  1
  Si  Si23  1  0.70269321  0.36788332  0.06577138  1
  Si  Si24  1  0.29730679  0.63211668  0.56577138  1
  Si  Si25  1  0.79730679  0.86788332  0.18422862  1
  Si  Si26  1  0.13211668  0.20269321  0.31577138  1
  Si  Si27  1  0.86788332  0.79730679  0.81577138  1
  Si  Si28  1  0.29086963  0.95310550  0.06465374  1
  Si  Si29  1  0.54689450  0.79086963  0.31465374  1
  Si  Si30  1  0.45310550  0.20913037  0.81465374  1
  Si  Si31  1  0.79086963  0.54689450  0.68534626  1
  Si  Si32  1  0.20913037  0.45310550  0.18534626  1
  Si  Si33  1  0.70913037  0.04689450  0.56465374  1
  Si  Si34  1  0.95310550  0.29086963  0.93534626  1
  Si  Si35  1  0.04689450  0.70913037  0.43534626  1
