# generated using pymatgen
data_CsNdHgSe3
_symmetry_space_group_name_H-M   'P 1'
_cell_length_a   4.40936379
_cell_length_b   8.47573653
_cell_length_c   11.41265541
_cell_angle_alpha   90.00000000
_cell_angle_beta   90.00000000
_cell_angle_gamma   105.07699581
_symmetry_Int_Tables_number   1
_chemical_formula_structural   CsNdHgSe3
_chemical_formula_sum   'Cs2 Nd2 Hg2 Se6'
_cell_volume   411.83861195
_cell_formula_units_Z   2
loop_
 _symmetry_equiv_pos_site_id
 _symmetry_equiv_pos_as_xyz
  1  'x, y, z'
loop_
 _atom_site_type_symbol
 _atom_site_label
 _atom_site_symmetry_multiplicity
 _atom_site_fract_x
 _atom_site_fract_y
 _atom_site_fract_z
 _atom_site_occupancy
  Cs  Cs0  1  0.25635726  0.51271451  0.25000000  1
  Cs  Cs1  1  0.74364274  0.48728549  0.75000000  1
  Nd  Nd2  1  0.00000000  0.00000000  0.00000000  1
  Nd  Nd3  1  0.00000000  0.00000000  0.50000000  1
  Hg  Hg4  1  0.45606920  0.91213840  0.75000000  1
  Hg  Hg5  1  0.54393080  0.08786160  0.25000000  1
  Se  Se6  1  0.62135501  0.24271001  0.45292100  1
  Se  Se7  1  0.93873537  0.87747073  0.25000000  1
  Se  Se8  1  0.06126463  0.12252927  0.75000000  1
  Se  Se9  1  0.37864499  0.75728999  0.54707900  1
  Se  Se10  1  0.62135501  0.24271001  0.04707900  1
  Se  Se11  1  0.37864499  0.75728999  0.95292100  1
