# generated using pymatgen
data_Rb2Ag4S3
_symmetry_space_group_name_H-M   'P 1'
_cell_length_a   4.34948072
_cell_length_b   9.38040770
_cell_length_c   12.00146506
_cell_angle_alpha   107.98476719
_cell_angle_beta   90.00000000
_cell_angle_gamma   103.40534058
_symmetry_Int_Tables_number   1
_chemical_formula_structural   Rb2Ag4S3
_chemical_formula_sum   'Rb4 Ag8 S6'
_cell_volume   451.68599889
_cell_formula_units_Z   2
loop_
 _symmetry_equiv_pos_site_id
 _symmetry_equiv_pos_as_xyz
  1  'x, y, z'
loop_
 _atom_site_type_symbol
 _atom_site_label
 _atom_site_symmetry_multiplicity
 _atom_site_fract_x
 _atom_site_fract_y
 _atom_site_fract_z
 _atom_site_occupancy
  Rb  Rb0  1  0.18911605  0.37823209  0.84324866  1
  Rb  Rb1  1  0.81088395  0.62176791  0.15675134  1
  Rb  Rb2  1  0.33208558  0.66417116  0.65923242  1
  Rb  Rb3  1  0.66791442  0.33582884  0.34076758  1
  Ag  Ag4  1  0.41076427  0.82152853  0.99146754  1
  Ag  Ag5  1  0.58923573  0.17847147  0.00853246  1
  Ag  Ag6  1  0.01083992  0.02167984  0.37514310  1
  Ag  Ag7  1  0.98916008  0.97832016  0.62485690  1
  Ag  Ag8  1  0.01799266  0.03598532  0.13227393  1
  Ag  Ag9  1  0.98200734  0.96401468  0.86772607  1
  Ag  Ag10  1  0.41166148  0.82332296  0.41244441  1
  Ag  Ag11  1  0.58833852  0.17667704  0.58755559  1
  S  S12  1  0.46614599  0.93229199  0.22523867  1
  S  S13  1  0.53385401  0.06770801  0.77476133  1
  S  S14  1  0.13813655  0.27627310  0.54008750  1
  S  S15  1  0.86186345  0.72372690  0.45991250  1
  S  S16  1  0.15174053  0.30348107  0.10705265  1
  S  S17  1  0.84825947  0.69651893  0.89294735  1
