# generated using pymatgen
data_HfGa
_symmetry_space_group_name_H-M   'P 1'
_cell_length_a   5.67772318
_cell_length_b   8.55330020
_cell_length_c   9.21113967
_cell_angle_alpha   90.00000000
_cell_angle_beta   90.00000000
_cell_angle_gamma   90.00000000
_symmetry_Int_Tables_number   1
_chemical_formula_structural   HfGa
_chemical_formula_sum   'Hf12 Ga12'
_cell_volume   447.32307027
_cell_formula_units_Z   12
loop_
 _symmetry_equiv_pos_site_id
 _symmetry_equiv_pos_as_xyz
  1  'x, y, z'
loop_
 _atom_site_type_symbol
 _atom_site_label
 _atom_site_symmetry_multiplicity
 _atom_site_fract_x
 _atom_site_fract_y
 _atom_site_fract_z
 _atom_site_occupancy
  Ga  Ga0  1  0.00000000  0.75000000  0.43455380  1
  Ga  Ga1  1  0.50000000  0.25000000  0.56544620  1
  Ga  Ga2  1  0.00000000  0.25000000  0.56544620  1
  Ga  Ga3  1  0.50000000  0.75000000  0.43455380  1
  Ga  Ga4  1  0.75000000  0.04805768  0.91420563  1
  Ga  Ga5  1  0.25000000  0.95194232  0.08579437  1
  Ga  Ga6  1  0.75000000  0.54805768  0.08579437  1
  Ga  Ga7  1  0.25000000  0.45194232  0.91420563  1
  Ga  Ga8  1  0.75000000  0.13207806  0.34900725  1
  Ga  Ga9  1  0.25000000  0.86792194  0.65099275  1
  Ga  Ga10  1  0.75000000  0.63207806  0.65099275  1
  Ga  Ga11  1  0.25000000  0.36792194  0.34900725  1
  Hf  Hf12  1  0.00000000  0.75000000  0.88876960  1
  Hf  Hf13  1  0.50000000  0.25000000  0.11123040  1
  Hf  Hf14  1  0.00000000  0.25000000  0.11123040  1
  Hf  Hf15  1  0.50000000  0.75000000  0.88876960  1
  Hf  Hf16  1  0.75000000  0.47340078  0.38262351  1
  Hf  Hf17  1  0.25000000  0.52659922  0.61737649  1
  Hf  Hf18  1  0.75000000  0.97340078  0.61737649  1
  Hf  Hf19  1  0.25000000  0.02659922  0.38262351  1
  Hf  Hf20  1  0.75000000  0.36347788  0.80769057  1
  Hf  Hf21  1  0.25000000  0.63652212  0.19230943  1
  Hf  Hf22  1  0.75000000  0.86347788  0.19230943  1
  Hf  Hf23  1  0.25000000  0.13652212  0.80769057  1
