# generated using pymatgen
data_Ba6Mn5O16
_symmetry_space_group_name_H-M   'P 1'
_cell_length_a   5.80151270
_cell_length_b   7.25447233
_cell_length_c   20.62065797
_cell_angle_alpha   90.00000000
_cell_angle_beta   90.00000000
_cell_angle_gamma   113.56928058
_symmetry_Int_Tables_number   1
_chemical_formula_structural   Ba6Mn5O16
_chemical_formula_sum   'Ba12 Mn10 O32'
_cell_volume   795.46058818
_cell_formula_units_Z   2
loop_
 _symmetry_equiv_pos_site_id
 _symmetry_equiv_pos_as_xyz
  1  'x, y, z'
loop_
 _atom_site_type_symbol
 _atom_site_label
 _atom_site_symmetry_multiplicity
 _atom_site_fract_x
 _atom_site_fract_y
 _atom_site_fract_z
 _atom_site_occupancy
  O  O0  1  0.94358701  0.45412266  0.38392575  1
  O  O1  1  0.48946436  0.54587734  0.61607425  1
  O  O2  1  0.55641299  0.54587734  0.88392575  1
  O  O3  1  0.01053564  0.45412266  0.11607425  1
  O  O4  1  0.05641299  0.54587734  0.61607425  1
  O  O5  1  0.51053564  0.45412266  0.38392575  1
  O  O6  1  0.44358701  0.45412266  0.11607425  1
  O  O7  1  0.98946436  0.54587734  0.88392575  1
  O  O8  1  0.79558532  0.03737879  0.06883211  1
  O  O9  1  0.75820653  0.96262121  0.93116789  1
  O  O10  1  0.70441468  0.96262121  0.56883211  1
  O  O11  1  0.74179347  0.03737879  0.43116789  1
  O  O12  1  0.20441468  0.96262121  0.93116789  1
  O  O13  1  0.24179347  0.03737879  0.06883211  1
  O  O14  1  0.29558532  0.03737879  0.43116789  1
  O  O15  1  0.25820653  0.96262121  0.56883211  1
  O  O16  1  0.85328446  0.70656891  0.00028930  1
  O  O17  1  0.14671554  0.29343109  0.99971070  1
  O  O18  1  0.64671554  0.29343109  0.50028930  1
  O  O19  1  0.35328446  0.70656891  0.49971070  1
  O  O20  1  0.91042413  0.82084825  0.81633205  1
  O  O21  1  0.08957587  0.17915175  0.18366795  1
  O  O22  1  0.01172770  0.52345539  0.75000000  1
  O  O23  1  0.48827230  0.47654461  0.25000000  1
  O  O24  1  0.98827230  0.47654461  0.25000000  1
  O  O25  1  0.51172770  0.52345539  0.75000000  1
  O  O26  1  0.11235035  0.22470071  0.68647130  1
  O  O27  1  0.88764965  0.77529929  0.31352870  1
  O  O28  1  0.38764965  0.77529929  0.18647130  1
  O  O29  1  0.61235035  0.22470071  0.81352870  1
  O  O30  1  0.41042413  0.82084825  0.68366795  1
  O  O31  1  0.58957587  0.17915175  0.31633205  1
  Mn  Mn32  1  0.87712077  0.75424153  0.90642904  1
  Mn  Mn33  1  0.12287923  0.24575847  0.09357096  1
  Mn  Mn34  1  0.62287923  0.24575847  0.40642904  1
  Mn  Mn35  1  0.37712077  0.75424153  0.59357096  1
  Mn  Mn36  1  0.00000000  0.00000000  0.00000000  1
  Mn  Mn37  1  0.50000000  0.00000000  0.50000000  1
  Mn  Mn38  1  0.75044780  0.50089561  0.81092341  1
  Mn  Mn39  1  0.24955220  0.49910439  0.18907659  1
  Mn  Mn40  1  0.74955220  0.49910439  0.31092341  1
  Mn  Mn41  1  0.25044780  0.50089561  0.68907659  1
  Ba  Ba42  1  0.64426183  0.28852366  0.97754416  1
  Ba  Ba43  1  0.35573817  0.71147634  0.02245584  1
  Ba  Ba44  1  0.85573817  0.71147634  0.47754416  1
  Ba  Ba45  1  0.14426183  0.28852366  0.52245584  1
  Ba  Ba46  1  0.91279083  0.82558166  0.67862412  1
  Ba  Ba47  1  0.08720917  0.17441834  0.32137588  1
  Ba  Ba48  1  0.58720917  0.17441834  0.17862412  1
  Ba  Ba49  1  0.41279083  0.82558166  0.82137588  1
  Ba  Ba50  1  0.62072674  0.24145348  0.66418038  1
  Ba  Ba51  1  0.37927326  0.75854652  0.33581962  1
  Ba  Ba52  1  0.87927326  0.75854652  0.16418038  1
  Ba  Ba53  1  0.12072674  0.24145348  0.83581962  1
