# generated using pymatgen
data_Nd12Co6Sn
_symmetry_space_group_name_H-M   'P 1'
_cell_length_a   8.67936509
_cell_length_b   8.67936471
_cell_length_c   8.67936522
_cell_angle_alpha   109.47122423
_cell_angle_beta   109.47122338
_cell_angle_gamma   109.47121533
_symmetry_Int_Tables_number   1
_chemical_formula_structural   Nd12Co6Sn
_chemical_formula_sum   'Nd12 Co6 Sn1'
_cell_volume   503.31742063
_cell_formula_units_Z   1
loop_
 _symmetry_equiv_pos_site_id
 _symmetry_equiv_pos_as_xyz
  1  'x, y, z'
loop_
 _atom_site_type_symbol
 _atom_site_label
 _atom_site_symmetry_multiplicity
 _atom_site_fract_x
 _atom_site_fract_y
 _atom_site_fract_z
 _atom_site_occupancy
  Nd  Nd0  1  0.88714754  0.69431344  0.19283410  1
  Nd  Nd1  1  0.69431344  0.80716590  0.50147934  1
  Nd  Nd2  1  0.19283410  0.49852066  0.30568656  1
  Nd  Nd3  1  0.30568656  0.80716590  0.11285246  1
  Nd  Nd4  1  0.80716590  0.50147934  0.69431344  1
  Nd  Nd5  1  0.30568656  0.19283410  0.49852066  1
  Nd  Nd6  1  0.80716590  0.11285246  0.30568656  1
  Nd  Nd7  1  0.19283410  0.88714754  0.69431344  1
  Nd  Nd8  1  0.69431344  0.19283410  0.88714754  1
  Nd  Nd9  1  0.50147934  0.69431344  0.80716590  1
  Nd  Nd10  1  0.49852066  0.30568656  0.19283410  1
  Nd  Nd11  1  0.11285246  0.30568656  0.80716590  1
  Co  Co12  1  0.50000000  0.61069200  0.11069200  1
  Co  Co13  1  0.38930800  0.88930800  0.50000000  1
  Co  Co14  1  0.88930800  0.50000000  0.38930800  1
  Co  Co15  1  0.61069200  0.11069200  0.50000000  1
  Co  Co16  1  0.11069200  0.50000000  0.61069200  1
  Co  Co17  1  0.50000000  0.38930800  0.88930800  1
  Sn  Sn18  1  0.00000000  0.00000000  0.00000000  1
