# generated using pymatgen
data_KY(WO4)2
_symmetry_space_group_name_H-M   'P 1'
_cell_length_a   7.67584518
_cell_length_b   7.67584518
_cell_length_c   7.46753774
_cell_angle_alpha   62.04859925
_cell_angle_beta   62.04859929
_cell_angle_gamma   87.98386817
_symmetry_Int_Tables_number   1
_chemical_formula_structural   KY(WO4)2
_chemical_formula_sum   'K2 Y2 W4 O16'
_cell_volume   333.57656008
_cell_formula_units_Z   2
loop_
 _symmetry_equiv_pos_site_id
 _symmetry_equiv_pos_as_xyz
  1  'x, y, z'
loop_
 _atom_site_type_symbol
 _atom_site_label
 _atom_site_symmetry_multiplicity
 _atom_site_fract_x
 _atom_site_fract_y
 _atom_site_fract_z
 _atom_site_occupancy
  O  O0  1  0.25170080  0.12462666  0.55726063  1
  O  O1  1  0.87537334  0.74829920  0.94273937  1
  O  O2  1  0.74829920  0.87537334  0.44273937  1
  O  O3  1  0.12462666  0.25170080  0.05726063  1
  O  O4  1  0.86002722  0.55548444  0.37784932  1
  O  O5  1  0.44451556  0.13997278  0.12215068  1
  O  O6  1  0.13997278  0.44451556  0.62215068  1
  O  O7  1  0.55548444  0.86002722  0.87784932  1
  O  O8  1  0.73187812  0.54016343  0.80936123  1
  O  O9  1  0.45983657  0.26812188  0.69063877  1
  O  O10  1  0.26812188  0.45983657  0.19063877  1
  O  O11  1  0.54016343  0.73187812  0.30936123  1
  O  O12  1  0.12659115  0.90502402  0.03548330  1
  O  O13  1  0.09497598  0.87340885  0.46451670  1
  O  O14  1  0.87340885  0.09497598  0.96451670  1
  O  O15  1  0.90502402  0.12659115  0.53548330  1
  K  K16  1  0.28858751  0.71141249  0.75000000  1
  K  K17  1  0.71141249  0.28858751  0.25000000  1
  Y  Y18  1  0.72436447  0.27563553  0.75000000  1
  Y  Y19  1  0.27563553  0.72436447  0.25000000  1
  W  W20  1  0.20026485  0.19202432  0.28609216  1
  W  W21  1  0.80797568  0.79973515  0.21390784  1
  W  W22  1  0.79973515  0.80797568  0.71390784  1
  W  W23  1  0.19202432  0.20026485  0.78609216  1
