# generated using pymatgen
data_GdOs2
_symmetry_space_group_name_H-M   'P 1'
_cell_length_a   5.35593979
_cell_length_b   5.35593979
_cell_length_c   8.89932222
_cell_angle_alpha   90.00000000
_cell_angle_beta   90.00000000
_cell_angle_gamma   120.24536036
_symmetry_Int_Tables_number   1
_chemical_formula_structural   GdOs2
_chemical_formula_sum   'Gd4 Os8'
_cell_volume   220.53618717
_cell_formula_units_Z   4
loop_
 _symmetry_equiv_pos_site_id
 _symmetry_equiv_pos_as_xyz
  1  'x, y, z'
loop_
 _atom_site_type_symbol
 _atom_site_label
 _atom_site_symmetry_multiplicity
 _atom_site_fract_x
 _atom_site_fract_y
 _atom_site_fract_z
 _atom_site_occupancy
  Gd  Gd0  1  0.66666767  0.33333233  0.56594467  1
  Gd  Gd1  1  0.33333233  0.66666767  0.43405533  1
  Gd  Gd2  1  0.33333233  0.66666767  0.06594467  1
  Gd  Gd3  1  0.66666767  0.33333233  0.93405533  1
  Os  Os4  1  0.00000000  0.00000000  0.50000000  1
  Os  Os5  1  0.00000000  0.00000000  0.00000000  1
  Os  Os6  1  0.17154249  0.34311743  0.75000000  1
  Os  Os7  1  0.17157952  0.82842048  0.75000000  1
  Os  Os8  1  0.65688257  0.82845751  0.75000000  1
  Os  Os9  1  0.82845751  0.65688257  0.25000000  1
  Os  Os10  1  0.82842048  0.17157952  0.25000000  1
  Os  Os11  1  0.34311743  0.17154249  0.25000000  1
