# generated using pymatgen
data_U2CuAs2(H4O5)4
_symmetry_space_group_name_H-M   'P 1'
_cell_length_a   7.16610352
_cell_length_b   7.16610352
_cell_length_c   17.68416017
_cell_angle_alpha   90.00000000
_cell_angle_beta   90.00000000
_cell_angle_gamma   90.00000000
_symmetry_Int_Tables_number   1
_chemical_formula_structural   U2CuAs2(H4O5)4
_chemical_formula_sum   'U4 Cu2 As4 H32 O40'
_cell_volume   908.13537855
_cell_formula_units_Z   2
loop_
 _symmetry_equiv_pos_site_id
 _symmetry_equiv_pos_as_xyz
  1  'x, y, z'
loop_
 _atom_site_type_symbol
 _atom_site_label
 _atom_site_symmetry_multiplicity
 _atom_site_fract_x
 _atom_site_fract_y
 _atom_site_fract_z
 _atom_site_occupancy
  U  U0  1  0.25000000  0.25000000  0.05629402  1
  U  U1  1  0.75000000  0.75000000  0.94370598  1
  U  U2  1  0.25000000  0.25000000  0.55533569  1
  U  U3  1  0.75000000  0.75000000  0.44466431  1
  Cu  Cu4  1  0.25000000  0.25000000  0.31079101  1
  Cu  Cu5  1  0.75000000  0.75000000  0.68920899  1
  As  As6  1  0.25000000  0.75000000  0.00000000  1
  As  As7  1  0.75000000  0.25000000  0.00000000  1
  As  As8  1  0.25000000  0.75000000  0.50000000  1
  As  As9  1  0.75000000  0.25000000  0.50000000  1
  O  O10  1  0.25000000  0.25000000  0.45185383  1
  O  O11  1  0.75000000  0.75000000  0.54814617  1
  O  O12  1  0.25000000  0.25000000  0.95376750  1
  O  O13  1  0.75000000  0.75000000  0.04623250  1
  O  O14  1  0.25000000  0.25000000  0.65760169  1
  O  O15  1  0.75000000  0.75000000  0.34239831  1
  O  O16  1  0.25000000  0.25000000  0.15961491  1
  O  O17  1  0.75000000  0.75000000  0.84038509  1
  O  O18  1  0.30091515  0.93330431  0.05931458  1
  O  O19  1  0.56669569  0.30091515  0.05931458  1
  O  O20  1  0.93330431  0.19908485  0.05931458  1
  O  O21  1  0.19908485  0.56669569  0.05931458  1
  O  O22  1  0.69908485  0.06669569  0.94068542  1
  O  O23  1  0.43330431  0.69908485  0.94068542  1
  O  O24  1  0.06669569  0.80091515  0.94068542  1
  O  O25  1  0.80091515  0.43330431  0.94068542  1
  O  O26  1  0.19069347  0.93286572  0.55841505  1
  O  O27  1  0.56713428  0.19069347  0.55841505  1
  O  O28  1  0.93286572  0.30930653  0.55841505  1
  O  O29  1  0.30930653  0.56713428  0.55841505  1
  O  O30  1  0.80930653  0.06713428  0.44158495  1
  O  O31  1  0.43286572  0.80930653  0.44158495  1
  O  O32  1  0.06713428  0.69069347  0.44158495  1
  O  O33  1  0.69069347  0.43286572  0.44158495  1
  O  O34  1  0.52522749  0.28602363  0.30896725  1
  O  O35  1  0.21397637  0.52522749  0.30896725  1
  O  O36  1  0.28602363  0.97477251  0.30896725  1
  O  O37  1  0.97477251  0.21397637  0.30896725  1
  O  O38  1  0.47477251  0.71397637  0.69103275  1
  O  O39  1  0.78602363  0.47477251  0.69103275  1
  O  O40  1  0.71397637  0.02522749  0.69103275  1
  O  O41  1  0.02522749  0.78602363  0.69103275  1
  O  O42  1  0.35607055  0.50258531  0.80442502  1
  O  O43  1  0.99741469  0.35607055  0.80442502  1
  O  O44  1  0.50258531  0.14392945  0.80442502  1
  O  O45  1  0.14392945  0.99741469  0.80442502  1
  O  O46  1  0.64392945  0.49741469  0.19557498  1
  O  O47  1  0.00258531  0.64392945  0.19557498  1
  O  O48  1  0.49741469  0.85607055  0.19557498  1
  O  O49  1  0.85607055  0.00258531  0.19557498  1
  H  H50  1  0.37412828  0.56852680  0.85298477  1
  H  H51  1  0.93147320  0.37412828  0.85298477  1
  H  H52  1  0.56852680  0.12587172  0.85298477  1
  H  H53  1  0.12587172  0.93147320  0.85298477  1
  H  H54  1  0.62587172  0.43147320  0.14701523  1
  H  H55  1  0.06852680  0.62587172  0.14701523  1
  H  H56  1  0.43147320  0.87412828  0.14701523  1
  H  H57  1  0.87412828  0.06852680  0.14701523  1
  H  H58  1  0.57510109  0.34332015  0.35581983  1
  H  H59  1  0.15667985  0.57510109  0.35581983  1
  H  H60  1  0.34332015  0.92489891  0.35581983  1
  H  H61  1  0.92489891  0.15667985  0.35581983  1
  H  H62  1  0.42489891  0.65667985  0.64418017  1
  H  H63  1  0.84332015  0.42489891  0.64418017  1
  H  H64  1  0.65667985  0.07510109  0.64418017  1
  H  H65  1  0.07510109  0.84332015  0.64418017  1
  H  H66  1  0.56986605  0.36829165  0.26604289  1
  H  H67  1  0.13170835  0.56986605  0.26604289  1
  H  H68  1  0.36829165  0.93013395  0.26604289  1
  H  H69  1  0.93013395  0.13170835  0.26604289  1
  H  H70  1  0.43013395  0.63170835  0.73395711  1
  H  H71  1  0.86829165  0.43013395  0.73395711  1
  H  H72  1  0.63170835  0.06986605  0.73395711  1
  H  H73  1  0.06986605  0.86829165  0.73395711  1
  H  H74  1  0.22199885  0.46464924  0.80307422  1
  H  H75  1  0.03535076  0.22199885  0.80307422  1
  H  H76  1  0.46464924  0.27800115  0.80307422  1
  H  H77  1  0.27800115  0.03535076  0.80307422  1
  H  H78  1  0.77800115  0.53535076  0.19692578  1
  H  H79  1  0.96464924  0.77800115  0.19692578  1
  H  H80  1  0.53535076  0.72199885  0.19692578  1
  H  H81  1  0.72199885  0.96464924  0.19692578  1
