# generated using pymatgen
data_Zr2Si4Ru3
_symmetry_space_group_name_H-M   'P 1'
_cell_length_a   5.39080870
_cell_length_b   9.91847063
_cell_length_c   10.99964377
_cell_angle_alpha   79.38082458
_cell_angle_beta   75.81552225
_cell_angle_gamma   74.23120930
_symmetry_Int_Tables_number   1
_chemical_formula_structural   Zr2Si4Ru3
_chemical_formula_sum   'Zr8 Si16 Ru12'
_cell_volume   544.36229926
_cell_formula_units_Z   4
loop_
 _symmetry_equiv_pos_site_id
 _symmetry_equiv_pos_as_xyz
  1  'x, y, z'
loop_
 _atom_site_type_symbol
 _atom_site_label
 _atom_site_symmetry_multiplicity
 _atom_site_fract_x
 _atom_site_fract_y
 _atom_site_fract_z
 _atom_site_occupancy
  Ru  Ru0  1  0.86840754  0.62798450  0.41494771  1
  Ru  Ru1  1  0.91133974  0.87201550  0.08505229  1
  Ru  Ru2  1  0.13159246  0.37201550  0.58505229  1
  Ru  Ru3  1  0.08866026  0.12798450  0.91494771  1
  Si  Si4  1  0.74620244  0.12031080  0.10510871  1
  Si  Si5  1  0.97162195  0.37968920  0.39489129  1
  Si  Si6  1  0.25379756  0.87968920  0.89489129  1
  Si  Si7  1  0.02837805  0.62031080  0.60510871  1
  Zr  Zr8  1  0.70643121  0.97011951  0.36282080  1
  Zr  Zr9  1  0.03937153  0.52988049  0.13717920  1
  Zr  Zr10  1  0.29356879  0.02988049  0.63717920  1
  Zr  Zr11  1  0.96062847  0.47011951  0.86282080  1
  Ru  Ru12  1  0.35291697  0.25532217  0.22050880  1
  Ru  Ru13  1  0.82874795  0.24467783  0.27949120  1
  Ru  Ru14  1  0.64708303  0.74467783  0.77949120  1
  Ru  Ru15  1  0.17125205  0.75532217  0.72050880  1
  Si  Si16  1  0.61153572  0.42550707  0.10447761  1
  Si  Si17  1  0.14152040  0.07449293  0.39552239  1
  Si  Si18  1  0.38846428  0.57449293  0.89552239  1
  Si  Si19  1  0.85847960  0.92550707  0.60447761  1
  Si  Si20  1  0.42732836  0.22462238  0.43501827  1
  Si  Si21  1  0.08696901  0.27537762  0.06498173  1
  Si  Si22  1  0.57267164  0.77537762  0.56498173  1
  Si  Si23  1  0.91303099  0.72462238  0.93501827  1
  Ru  Ru24  1  0.48299941  0.68697593  0.06581201  1
  Ru  Ru25  1  0.23578735  0.81302407  0.43418799  1
  Ru  Ru26  1  0.51700059  0.31302407  0.93418799  1
  Ru  Ru27  1  0.76421265  0.18697593  0.56581201  1
  Zr  Zr28  1  0.44656929  0.50167177  0.35164708  1
  Zr  Zr29  1  0.29988814  0.99832823  0.14835292  1
  Zr  Zr30  1  0.55343071  0.49832823  0.64835292  1
  Zr  Zr31  1  0.70011186  0.00167177  0.85164708  1
  Si  Si32  1  0.61987210  0.75000000  0.25000000  1
  Si  Si33  1  0.38012790  0.25000000  0.75000000  1
  Si  Si34  1  0.13010850  0.75000000  0.25000000  1
  Si  Si35  1  0.86989150  0.25000000  0.75000000  1
