# generated using pymatgen
data_SmTl(WO4)2
_symmetry_space_group_name_H-M   'P 1'
_cell_length_a   7.75368344
_cell_length_b   7.75368344
_cell_length_c   7.53079305
_cell_angle_alpha   62.49969218
_cell_angle_beta   62.49969215
_cell_angle_gamma   88.93817199
_symmetry_Int_Tables_number   1
_chemical_formula_structural   SmTl(WO4)2
_chemical_formula_sum   'Sm2 Tl2 W4 O16'
_cell_volume   345.13755384
_cell_formula_units_Z   2
loop_
 _symmetry_equiv_pos_site_id
 _symmetry_equiv_pos_as_xyz
  1  'x, y, z'
loop_
 _atom_site_type_symbol
 _atom_site_label
 _atom_site_symmetry_multiplicity
 _atom_site_fract_x
 _atom_site_fract_y
 _atom_site_fract_z
 _atom_site_occupancy
  O  O0  1  0.62825808  0.93562428  0.62877569  1
  O  O1  1  0.06437572  0.37174192  0.87122431  1
  O  O2  1  0.37174192  0.06437572  0.37122431  1
  O  O3  1  0.93562428  0.62825808  0.12877569  1
  O  O4  1  0.77527584  0.95236619  0.19160332  1
  O  O5  1  0.04763381  0.22472416  0.30839668  1
  O  O6  1  0.22472416  0.04763381  0.80839668  1
  O  O7  1  0.95236619  0.77527584  0.69160332  1
  O  O8  1  0.41076987  0.62713309  0.53104353  1
  O  O9  1  0.37286691  0.58923013  0.96895647  1
  O  O10  1  0.58923013  0.37286691  0.46895647  1
  O  O11  1  0.62713309  0.41076987  0.03104353  1
  O  O12  1  0.62378770  0.74903457  0.05909252  1
  O  O13  1  0.25096543  0.37621230  0.44090748  1
  O  O14  1  0.37621230  0.25096543  0.94090748  1
  O  O15  1  0.74903457  0.62378770  0.55909252  1
  Sm  Sm16  1  0.77560068  0.22439932  0.25000000  1
  Sm  Sm17  1  0.22439932  0.77560068  0.75000000  1
  W  W18  1  0.68937374  0.69884752  0.78322254  1
  W  W19  1  0.30115248  0.31062626  0.71677746  1
  W  W20  1  0.69884752  0.68937374  0.28322254  1
  W  W21  1  0.31062626  0.30115248  0.21677746  1
  Tl  Tl22  1  0.78743517  0.21256483  0.75000000  1
  Tl  Tl23  1  0.21256483  0.78743517  0.25000000  1
