# generated using pymatgen
data_Y2MoO6
_symmetry_space_group_name_H-M   'P 1'
_cell_length_a   5.42079552
_cell_length_b   9.99010475
_cell_length_c   9.99010252
_cell_angle_alpha   67.99826419
_cell_angle_beta   74.86035638
_cell_angle_gamma   74.86029839
_symmetry_Int_Tables_number   1
_chemical_formula_structural   Y2MoO6
_chemical_formula_sum   'Y8 Mo4 O24'
_cell_volume   476.06628079
_cell_formula_units_Z   4
loop_
 _symmetry_equiv_pos_site_id
 _symmetry_equiv_pos_as_xyz
  1  'x, y, z'
loop_
 _atom_site_type_symbol
 _atom_site_label
 _atom_site_symmetry_multiplicity
 _atom_site_fract_x
 _atom_site_fract_y
 _atom_site_fract_z
 _atom_site_occupancy
  O  O0  1  0.92193865  0.57288262  0.61011715  1
  O  O1  1  0.57806238  0.38988321  0.42711619  1
  O  O2  1  0.07806244  0.42711733  0.38988321  1
  O  O3  1  0.42193782  0.61011717  0.57288332  1
  O  O4  1  0.91698089  0.80714651  0.33677755  1
  O  O5  1  0.58301933  0.66322251  0.19285359  1
  O  O6  1  0.08301847  0.19285349  0.66322254  1
  O  O7  1  0.41697918  0.33677841  0.80714545  1
  O  O8  1  0.36794788  0.88526314  0.32644279  1
  O  O9  1  0.13205270  0.67355713  0.11473693  1
  O  O10  1  0.63205088  0.11473701  0.67355708  1
  O  O11  1  0.86794695  0.32644304  0.88526285  1
  O  O12  1  0.63453476  0.28879148  0.18325735  1
  O  O13  1  0.86546548  0.81674257  0.71120855  1
  O  O14  1  0.36546450  0.71120848  0.81674271  1
  O  O15  1  0.13453459  0.18325761  0.28879132  1
  O  O16  1  0.51397525  0.11025609  0.04850041  1
  O  O17  1  0.98602347  0.95150047  0.88974362  1
  O  O18  1  0.75424612  0.02429692  0.43120480  1
  O  O19  1  0.01397630  0.04849957  0.11025608  1
  O  O20  1  0.25424531  0.43120529  0.02429682  1
  O  O21  1  0.24575435  0.97570306  0.56879441  1
  O  O22  1  0.74575455  0.56879522  0.97570245  1
  O  O23  1  0.48602370  0.88974393  0.95150052  1
  Y  Y24  1  0.75000030  0.39330801  0.60669168  1
  Y  Y25  1  0.24999995  0.60669185  0.39330900  1
  Y  Y26  1  0.74999955  0.86371614  0.13628367  1
  Y  Y27  1  0.24999934  0.13628430  0.86371635  1
  Y  Y28  1  0.37802728  0.21628111  0.44772622  1
  Y  Y29  1  0.12197241  0.55227439  0.78371893  1
  Y  Y30  1  0.87802793  0.44772610  0.21628122  1
  Y  Y31  1  0.62197296  0.78371888  0.55227317  1
  Mo  Mo32  1  0.55897564  0.29534012  0.01246886  1
  Mo  Mo33  1  0.94102364  0.98753109  0.70466015  1
  Mo  Mo34  1  0.44102363  0.70466015  0.98753113  1
  Mo  Mo35  1  0.05897643  0.01246860  0.29533989  1
