# generated using pymatgen
data_Pb3SeO5
_symmetry_space_group_name_H-M   'P 1'
_cell_length_a   5.90843005
_cell_length_b   7.73542767
_cell_length_c   7.73542767
_cell_angle_alpha   91.47175977
_cell_angle_beta   90.00000000
_cell_angle_gamma   90.00000000
_symmetry_Int_Tables_number   1
_chemical_formula_structural   Pb3SeO5
_chemical_formula_sum   'Pb6 Se2 O10'
_cell_volume   353.42515940
_cell_formula_units_Z   2
loop_
 _symmetry_equiv_pos_site_id
 _symmetry_equiv_pos_as_xyz
  1  'x, y, z'
loop_
 _atom_site_type_symbol
 _atom_site_label
 _atom_site_symmetry_multiplicity
 _atom_site_fract_x
 _atom_site_fract_y
 _atom_site_fract_z
 _atom_site_occupancy
  Pb  Pb0  1  0.68114231  0.88686246  0.11313754  1
  Pb  Pb1  1  0.18114231  0.11313754  0.88686246  1
  Pb  Pb2  1  0.68806496  0.85826805  0.64297523  1
  Pb  Pb3  1  0.68806496  0.35702477  0.14173195  1
  Pb  Pb4  1  0.18806496  0.14173195  0.35702477  1
  Pb  Pb5  1  0.18806496  0.64297523  0.85826805  1
  Se  Se6  1  0.64209325  0.37017886  0.62982114  1
  Se  Se7  1  0.14209325  0.62982114  0.37017886  1
  O  O8  1  0.45025363  0.86374800  0.86758632  1
  O  O9  1  0.45025363  0.13241368  0.13625200  1
  O  O10  1  0.95025363  0.13625200  0.13241368  1
  O  O11  1  0.95025363  0.86758632  0.86374800  1
  O  O12  1  0.73424346  0.22373448  0.77626552  1
  O  O13  1  0.23424346  0.77626552  0.22373448  1
  O  O14  1  0.78334190  0.30369244  0.44133886  1
  O  O15  1  0.78334190  0.55866114  0.69630756  1
  O  O16  1  0.28334190  0.69630756  0.55866114  1
  O  O17  1  0.28334190  0.44133886  0.30369244  1
