# generated using pymatgen
data_Er2MoO6
_symmetry_space_group_name_H-M   'P 1'
_cell_length_a   5.35699357
_cell_length_b   9.88629853
_cell_length_c   9.88628149
_cell_angle_alpha   67.92527008
_cell_angle_beta   74.92657166
_cell_angle_gamma   74.92654176
_symmetry_Int_Tables_number   1
_chemical_formula_structural   Er2MoO6
_chemical_formula_sum   'Er8 Mo4 O24'
_cell_volume   460.73639526
_cell_formula_units_Z   4
loop_
 _symmetry_equiv_pos_site_id
 _symmetry_equiv_pos_as_xyz
  1  'x, y, z'
loop_
 _atom_site_type_symbol
 _atom_site_label
 _atom_site_symmetry_multiplicity
 _atom_site_fract_x
 _atom_site_fract_y
 _atom_site_fract_z
 _atom_site_occupancy
  O  O0  1  0.92193254  0.57241783  0.60973964  1
  O  O1  1  0.57806639  0.39025929  0.42758340  1
  O  O2  1  0.07806507  0.42758303  0.39026008  1
  O  O3  1  0.42193206  0.60974107  0.57241560  1
  O  O4  1  0.91825636  0.80602448  0.33746566  1
  O  O5  1  0.58174424  0.66253530  0.19397615  1
  O  O6  1  0.08174396  0.19397487  0.66253476  1
  O  O7  1  0.41825475  0.33746437  0.80602488  1
  O  O8  1  0.37455744  0.88420489  0.32614574  1
  O  O9  1  0.12543948  0.67385265  0.11580126  1
  O  O10  1  0.62543249  0.11579953  0.67385427  1
  O  O11  1  0.87456623  0.32614746  0.88419794  1
  O  O12  1  0.63660781  0.28933884  0.18560580  1
  O  O13  1  0.86339001  0.81439579  0.71066193  1
  O  O14  1  0.36338951  0.71066054  0.81439517  1
  O  O15  1  0.13661105  0.18560465  0.28933834  1
  O  O16  1  0.51367247  0.10902026  0.04889591  1
  O  O17  1  0.98632720  0.95110180  0.89098187  1
  O  O18  1  0.75274956  0.02443362  0.43268369  1
  O  O19  1  0.01367353  0.04889753  0.10900946  1
  O  O20  1  0.25274933  0.43268112  0.02443447  1
  O  O21  1  0.24724809  0.97556477  0.56731696  1
  O  O22  1  0.74725469  0.56731800  0.97556605  1
  O  O23  1  0.48632826  0.89098103  0.95110363  1
  Mo  Mo24  1  0.06094672  0.01273326  0.29567855  1
  Mo  Mo25  1  0.43906661  0.70433075  0.98726457  1
  Mo  Mo26  1  0.93906581  0.98726219  0.70433180  1
  Mo  Mo27  1  0.56092523  0.29566569  0.01273652  1
  Er  Er28  1  0.62269121  0.78284308  0.55154347  1
  Er  Er29  1  0.12269159  0.55154361  0.78284067  1
  Er  Er30  1  0.37730734  0.21715754  0.44845597  1
  Er  Er31  1  0.87730791  0.44845525  0.21715890  1
  Er  Er32  1  0.24999756  0.13708124  0.86291842  1
  Er  Er33  1  0.75000287  0.86291671  0.13708210  1
  Er  Er34  1  0.24999931  0.60582570  0.39417498  1
  Er  Er35  1  0.74999731  0.39417927  0.60582140  1
