# generated using pymatgen
data_Ce3S2O3
_symmetry_space_group_name_H-M   'P 1'
_cell_length_a   3.96620339
_cell_length_b   6.84150063
_cell_length_c   21.52434084
_cell_angle_alpha   90.00000000
_cell_angle_beta   90.00000000
_cell_angle_gamma   90.00000000
_symmetry_Int_Tables_number   1
_chemical_formula_structural   Ce3S2O3
_chemical_formula_sum   'Ce12 S8 O12'
_cell_volume   584.05831773
_cell_formula_units_Z   4
loop_
 _symmetry_equiv_pos_site_id
 _symmetry_equiv_pos_as_xyz
  1  'x, y, z'
loop_
 _atom_site_type_symbol
 _atom_site_label
 _atom_site_symmetry_multiplicity
 _atom_site_fract_x
 _atom_site_fract_y
 _atom_site_fract_z
 _atom_site_occupancy
  Ce  Ce0  1  0.75000000  0.22264863  0.97362994  1
  Ce  Ce1  1  0.25000000  0.77735137  0.02637006  1
  Ce  Ce2  1  0.75000000  0.72264863  0.52637006  1
  Ce  Ce3  1  0.25000000  0.27735137  0.47362994  1
  Ce  Ce4  1  0.75000000  0.28559524  0.63304990  1
  Ce  Ce5  1  0.25000000  0.71440476  0.36695010  1
  Ce  Ce6  1  0.75000000  0.78559524  0.86695010  1
  Ce  Ce7  1  0.25000000  0.21440476  0.13304990  1
  Ce  Ce8  1  0.75000000  0.28997974  0.31170970  1
  Ce  Ce9  1  0.25000000  0.71002026  0.68829030  1
  Ce  Ce10  1  0.75000000  0.78997974  0.18829030  1
  Ce  Ce11  1  0.25000000  0.21002026  0.81170970  1
  S  S12  1  0.75000000  0.00459646  0.72915151  1
  S  S13  1  0.25000000  0.99540354  0.27084849  1
  S  S14  1  0.75000000  0.50459646  0.77084849  1
  S  S15  1  0.25000000  0.49540354  0.22915151  1
  S  S16  1  0.75000000  0.50451633  0.07845765  1
  S  S17  1  0.25000000  0.49548367  0.92154235  1
  S  S18  1  0.75000000  0.00451633  0.42154235  1
  S  S19  1  0.25000000  0.99548367  0.57845765  1
  O  O20  1  0.75000000  0.14109361  0.87202182  1
  O  O21  1  0.25000000  0.85890639  0.12797818  1
  O  O22  1  0.75000000  0.64109361  0.62797818  1
  O  O23  1  0.25000000  0.35890639  0.37202182  1
  O  O24  1  0.75000000  0.37230037  0.52491089  1
  O  O25  1  0.25000000  0.62769963  0.47508911  1
  O  O26  1  0.75000000  0.87230037  0.97508911  1
  O  O27  1  0.25000000  0.12769963  0.02491089  1
  O  O28  1  0.75000000  0.11740987  0.16492391  1
  O  O29  1  0.25000000  0.88259013  0.83507609  1
  O  O30  1  0.75000000  0.61740987  0.33507609  1
  O  O31  1  0.25000000  0.38259013  0.66492391  1
