# generated using pymatgen
data_Tm2MoO6
_symmetry_space_group_name_H-M   'P 1'
_cell_length_a   5.32900908
_cell_length_b   9.84401551
_cell_length_c   9.84402849
_cell_angle_alpha   67.85520654
_cell_angle_beta   74.89255625
_cell_angle_gamma   74.89253923
_symmetry_Int_Tables_number   1
_chemical_formula_structural   Tm2MoO6
_chemical_formula_sum   'Tm8 Mo4 O24'
_cell_volume   454.10433299
_cell_formula_units_Z   4
loop_
 _symmetry_equiv_pos_site_id
 _symmetry_equiv_pos_as_xyz
  1  'x, y, z'
loop_
 _atom_site_type_symbol
 _atom_site_label
 _atom_site_symmetry_multiplicity
 _atom_site_fract_x
 _atom_site_fract_y
 _atom_site_fract_z
 _atom_site_occupancy
  O  O0  1  0.92231611  0.57196198  0.60981834  1
  O  O1  1  0.57768382  0.39018135  0.42803757  1
  O  O2  1  0.07768390  0.42803784  0.39018128  1
  O  O3  1  0.42231753  0.60981805  0.57196249  1
  O  O4  1  0.91933354  0.80530002  0.33759398  1
  O  O5  1  0.58066667  0.66240636  0.19469958  1
  O  O6  1  0.08066666  0.19470017  0.66240544  1
  O  O7  1  0.41933530  0.33759448  0.80529891  1
  O  O8  1  0.37702305  0.88441829  0.32582135  1
  O  O9  1  0.12297635  0.67417795  0.11558253  1
  O  O10  1  0.62297590  0.11558215  0.67417908  1
  O  O11  1  0.87702270  0.32582224  0.88441777  1
  O  O12  1  0.63562006  0.28962120  0.18702707  1
  O  O13  1  0.86438034  0.81297229  0.71037970  1
  O  O14  1  0.36438021  0.71037833  0.81297274  1
  O  O15  1  0.13562108  0.18702798  0.28961988  1
  O  O16  1  0.51256808  0.10829664  0.04922155  1
  O  O17  1  0.98743216  0.95077822  0.89170502  1
  O  O18  1  0.75145546  0.02413777  0.43336899  1
  O  O19  1  0.01256854  0.04922249  0.10829580  1
  O  O20  1  0.25145359  0.43336997  0.02413743  1
  O  O21  1  0.24854428  0.97586350  0.56663054  1
  O  O22  1  0.74854550  0.56663094  0.97586237  1
  O  O23  1  0.48743171  0.89170280  0.95077828  1
  Mo  Mo24  1  0.06127207  0.01308291  0.29560142  1
  Mo  Mo25  1  0.43873277  0.70439796  0.98691663  1
  Mo  Mo26  1  0.93872838  0.98691843  0.70439777  1
  Mo  Mo27  1  0.56126710  0.29560187  0.01308428  1
  Tm  Tm28  1  0.62345019  0.78237135  0.55128563  1
  Tm  Tm29  1  0.12345092  0.55128596  0.78237096  1
  Tm  Tm30  1  0.37654854  0.21762922  0.44871517  1
  Tm  Tm31  1  0.87655090  0.44871440  0.21762909  1
  Tm  Tm32  1  0.25000095  0.13735156  0.86264866  1
  Tm  Tm33  1  0.74999841  0.86264819  0.13735176  1
  Tm  Tm34  1  0.24999951  0.60524692  0.39475273  1
  Tm  Tm35  1  0.74999973  0.39475321  0.60524724  1
