# generated using pymatgen
data_Sc2CrB6
_symmetry_space_group_name_H-M   'P 1'
_cell_length_a   3.37145155
_cell_length_b   8.90138371
_cell_length_c   11.17071472
_cell_angle_alpha   90.00000000
_cell_angle_beta   90.00000000
_cell_angle_gamma   90.00000000
_symmetry_Int_Tables_number   1
_chemical_formula_structural   Sc2CrB6
_chemical_formula_sum   'Sc8 Cr4 B24'
_cell_volume   335.23967140
_cell_formula_units_Z   4
loop_
 _symmetry_equiv_pos_site_id
 _symmetry_equiv_pos_as_xyz
  1  'x, y, z'
loop_
 _atom_site_type_symbol
 _atom_site_label
 _atom_site_symmetry_multiplicity
 _atom_site_fract_x
 _atom_site_fract_y
 _atom_site_fract_z
 _atom_site_occupancy
  Sc  Sc0  1  0.00000000  0.82331086  0.08546213  1
  Sc  Sc1  1  0.00000000  0.17668914  0.91453787  1
  Sc  Sc2  1  0.00000000  0.32331086  0.41453787  1
  Sc  Sc3  1  0.00000000  0.67668914  0.58546213  1
  Sc  Sc4  1  0.00000000  0.44312854  0.13100299  1
  Sc  Sc5  1  0.00000000  0.55687146  0.86899701  1
  Sc  Sc6  1  0.00000000  0.94312854  0.36899701  1
  Sc  Sc7  1  0.00000000  0.05687146  0.63100299  1
  Cr  Cr8  1  0.00000000  0.14140327  0.18071538  1
  Cr  Cr9  1  0.00000000  0.85859673  0.81928462  1
  Cr  Cr10  1  0.00000000  0.64140327  0.31928462  1
  Cr  Cr11  1  0.00000000  0.35859673  0.68071538  1
  B  B12  1  0.50000000  0.05389493  0.06535114  1
  B  B13  1  0.50000000  0.94610507  0.93464886  1
  B  B14  1  0.50000000  0.55389493  0.43464886  1
  B  B15  1  0.50000000  0.44610507  0.56535114  1
  B  B16  1  0.50000000  0.25217008  0.07975232  1
  B  B17  1  0.50000000  0.74782992  0.92024768  1
  B  B18  1  0.50000000  0.75217008  0.42024768  1
  B  B19  1  0.50000000  0.24782992  0.57975232  1
  B  B20  1  0.50000000  0.29529941  0.23716821  1
  B  B21  1  0.50000000  0.70470059  0.76283179  1
  B  B22  1  0.50000000  0.79529941  0.26283179  1
  B  B23  1  0.50000000  0.20470059  0.73716821  1
  B  B24  1  0.50000000  0.13129045  0.31761008  1
  B  B25  1  0.50000000  0.86870955  0.68238992  1
  B  B26  1  0.50000000  0.63129045  0.18238992  1
  B  B27  1  0.50000000  0.36870955  0.81761008  1
  B  B28  1  0.50000000  0.48097068  0.28849187  1
  B  B29  1  0.50000000  0.51902932  0.71150813  1
  B  B30  1  0.50000000  0.98097068  0.21150813  1
  B  B31  1  0.50000000  0.01902932  0.78849187  1
  B  B32  1  0.50000000  0.09834170  0.47316931  1
  B  B33  1  0.50000000  0.90165830  0.52683069  1
  B  B34  1  0.50000000  0.59834170  0.02683069  1
  B  B35  1  0.50000000  0.40165830  0.97316931  1
