# generated using pymatgen
data_Cs2LiVS4
_symmetry_space_group_name_H-M   'P 1'
_cell_length_a   5.92951915
_cell_length_b   7.60781115
_cell_length_c   12.73297335
_cell_angle_alpha   84.79392892
_cell_angle_beta   76.53560427
_cell_angle_gamma   67.06420568
_symmetry_Int_Tables_number   1
_chemical_formula_structural   Cs2LiVS4
_chemical_formula_sum   'Cs4 Li2 V2 S8'
_cell_volume   514.44338589
_cell_formula_units_Z   2
loop_
 _symmetry_equiv_pos_site_id
 _symmetry_equiv_pos_as_xyz
  1  'x, y, z'
loop_
 _atom_site_type_symbol
 _atom_site_label
 _atom_site_symmetry_multiplicity
 _atom_site_fract_x
 _atom_site_fract_y
 _atom_site_fract_z
 _atom_site_occupancy
  Cs  Cs0  1  0.80228603  0.75000000  0.39542795  1
  Cs  Cs1  1  0.19771397  0.25000000  0.60457205  1
  Cs  Cs2  1  0.44771397  0.75000000  0.10457205  1
  Cs  Cs3  1  0.55228603  0.25000000  0.89542795  1
  Li  Li4  1  0.12500000  0.75000000  0.75000000  1
  Li  Li5  1  0.87500000  0.25000000  0.25000000  1
  V  V6  1  0.62500000  0.75000000  0.75000000  1
  V  V7  1  0.37500000  0.25000000  0.25000000  1
  S  S8  1  0.12215517  0.42764654  0.15025510  1
  S  S9  1  0.72758973  0.07235346  0.15025510  1
  S  S10  1  0.79994319  0.92764654  0.65025510  1
  S  S11  1  0.54980171  0.57235346  0.65025510  1
  S  S12  1  0.45019829  0.42764654  0.34974490  1
  S  S13  1  0.20005681  0.07235346  0.34974490  1
  S  S14  1  0.27241027  0.92764654  0.84974490  1
  S  S15  1  0.87784483  0.57235346  0.84974490  1
