# generated using pymatgen
data_Cu5Si2S7
_symmetry_space_group_name_H-M   'P 1'
_cell_length_a   6.34410826
_cell_length_b   8.74117944
_cell_length_c   9.58646265
_cell_angle_alpha   92.29813035
_cell_angle_beta   90.00000000
_cell_angle_gamma   111.27755880
_symmetry_Int_Tables_number   1
_chemical_formula_structural   Cu5Si2S7
_chemical_formula_sum   'Cu10 Si4 S14'
_cell_volume   494.91977534
_cell_formula_units_Z   2
loop_
 _symmetry_equiv_pos_site_id
 _symmetry_equiv_pos_as_xyz
  1  'x, y, z'
loop_
 _atom_site_type_symbol
 _atom_site_label
 _atom_site_symmetry_multiplicity
 _atom_site_fract_x
 _atom_site_fract_y
 _atom_site_fract_z
 _atom_site_occupancy
  Cu  Cu0  1  0.26619141  0.86144323  0.13541709  1
  Cu  Cu1  1  0.59525182  0.86144323  0.63541709  1
  Cu  Cu2  1  0.85762412  0.43265472  0.06248041  1
  Cu  Cu3  1  0.57503059  0.43265472  0.56248041  1
  Cu  Cu4  1  0.31818058  0.29094024  0.21181964  1
  Cu  Cu5  1  0.97275966  0.29094024  0.71181964  1
  Cu  Cu6  1  0.18326181  0.00241938  0.50012239  1
  Cu  Cu7  1  0.81915758  0.00241938  0.00012239  1
  Cu  Cu8  1  0.10887352  0.56900168  0.41532097  1
  Cu  Cu9  1  0.46012816  0.56900168  0.91532097  1
  Si  Si10  1  0.68500589  0.71388845  0.27117824  1
  Si  Si11  1  0.02888256  0.71388845  0.77117824  1
  Si  Si12  1  0.73839747  0.14389527  0.33787740  1
  Si  Si13  1  0.40549779  0.14389527  0.83787740  1
  S  S14  1  0.43053758  0.51360185  0.36629564  1
  S  S15  1  0.08306427  0.51360185  0.86629564  1
  S  S16  1  0.85060013  0.33588519  0.49759401  1
  S  S17  1  0.48528506  0.33588519  0.99759401  1
  S  S18  1  0.55651025  0.77479158  0.08519989  1
  S  S19  1  0.21828134  0.77479158  0.58519989  1
  S  S20  1  0.68944187  0.07258444  0.79834398  1
  S  S21  1  0.38314257  0.07258444  0.29834398  1
  S  S22  1  0.13204635  0.92968555  0.92571501  1
  S  S23  1  0.79763920  0.92968555  0.42571501  1
  S  S24  1  0.94018633  0.21787385  0.15706735  1
  S  S25  1  0.27768752  0.21787385  0.65706735  1
  S  S26  1  0.97252777  0.64933457  0.22256799  1
  S  S27  1  0.67680680  0.64933457  0.72256799  1
