# generated using pymatgen
data_CsAlCuF6
_symmetry_space_group_name_H-M   'P 1'
_cell_length_a   7.19280929
_cell_length_b   7.20399634
_cell_length_c   10.31484131
_cell_angle_alpha   90.00000000
_cell_angle_beta   90.00000000
_cell_angle_gamma   90.00000000
_symmetry_Int_Tables_number   1
_chemical_formula_structural   CsAlCuF6
_chemical_formula_sum   'Cs4 Al4 Cu4 F24'
_cell_volume   534.48384128
_cell_formula_units_Z   4
loop_
 _symmetry_equiv_pos_site_id
 _symmetry_equiv_pos_as_xyz
  1  'x, y, z'
loop_
 _atom_site_type_symbol
 _atom_site_label
 _atom_site_symmetry_multiplicity
 _atom_site_fract_x
 _atom_site_fract_y
 _atom_site_fract_z
 _atom_site_occupancy
  Cs  Cs0  1  0.48475532  0.25000000  0.12868652  1
  Cs  Cs1  1  0.98475532  0.25000000  0.37131348  1
  Cs  Cs2  1  0.51524468  0.75000000  0.87131348  1
  Cs  Cs3  1  0.01524468  0.75000000  0.62868652  1
  Cu  Cu4  1  0.27350884  0.25000000  0.75842238  1
  Cu  Cu5  1  0.77350884  0.25000000  0.74157762  1
  Cu  Cu6  1  0.72649116  0.75000000  0.24157762  1
  Cu  Cu7  1  0.22649116  0.75000000  0.25842238  1
  Al  Al8  1  0.00000000  0.00000000  0.00000000  1
  Al  Al9  1  0.50000000  0.50000000  0.50000000  1
  Al  Al10  1  0.00000000  0.50000000  0.00000000  1
  Al  Al11  1  0.50000000  0.00000000  0.50000000  1
  F  F12  1  0.02860109  0.25000000  0.67522983  1
  F  F13  1  0.52860109  0.25000000  0.82477017  1
  F  F14  1  0.97139891  0.75000000  0.32477017  1
  F  F15  1  0.47139891  0.75000000  0.17522983  1
  F  F16  1  0.47759203  0.25000000  0.45830506  1
  F  F17  1  0.97759203  0.25000000  0.04169494  1
  F  F18  1  0.52240797  0.75000000  0.54169494  1
  F  F19  1  0.02240797  0.75000000  0.95830506  1
  F  F20  1  0.15358299  0.97221945  0.13812056  1
  F  F21  1  0.65358299  0.52778055  0.36187944  1
  F  F22  1  0.84641701  0.47221945  0.86187944  1
  F  F23  1  0.34641701  0.02778055  0.63812056  1
  F  F24  1  0.84641701  0.02778055  0.86187944  1
  F  F25  1  0.34641701  0.47221945  0.63812056  1
  F  F26  1  0.15358299  0.52778055  0.13812056  1
  F  F27  1  0.65358299  0.97221945  0.36187944  1
  F  F28  1  0.20179744  0.04737868  0.89854576  1
  F  F29  1  0.70179744  0.45262132  0.60145424  1
  F  F30  1  0.79820256  0.54737868  0.10145424  1
  F  F31  1  0.29820256  0.95262132  0.39854576  1
  F  F32  1  0.79820256  0.95262132  0.10145424  1
  F  F33  1  0.29820256  0.54737868  0.39854576  1
  F  F34  1  0.20179744  0.45262132  0.89854576  1
  F  F35  1  0.70179744  0.04737868  0.60145424  1
