# generated using pymatgen
data_RbUCrO6
_symmetry_space_group_name_H-M   'P 1'
_cell_length_a   7.22130062
_cell_length_b   8.41750295
_cell_length_c   10.60060655
_cell_angle_alpha   90.00000000
_cell_angle_beta   104.87248520
_cell_angle_gamma   90.00000000
_symmetry_Int_Tables_number   1
_chemical_formula_structural   RbUCrO6
_chemical_formula_sum   'Rb4 U4 Cr4 O24'
_cell_volume   622.77479682
_cell_formula_units_Z   4
loop_
 _symmetry_equiv_pos_site_id
 _symmetry_equiv_pos_as_xyz
  1  'x, y, z'
loop_
 _atom_site_type_symbol
 _atom_site_label
 _atom_site_symmetry_multiplicity
 _atom_site_fract_x
 _atom_site_fract_y
 _atom_site_fract_z
 _atom_site_occupancy
  O  O0  1  0.83715970  0.13144042  0.56834020  1
  O  O1  1  0.16283930  0.63143942  0.93165880  1
  O  O2  1  0.16284030  0.86856058  0.43165880  1
  O  O3  1  0.83716070  0.36856058  0.06834120  1
  O  O4  1  0.57203083  0.21015792  0.71321525  1
  O  O5  1  0.42796917  0.71015792  0.78678575  1
  O  O6  1  0.42796917  0.78984208  0.28678475  1
  O  O7  1  0.57203083  0.28984308  0.21321525  1
  O  O8  1  0.22955889  0.44127613  0.62374512  1
  O  O9  1  0.77044211  0.94127713  0.87625588  1
  O  O10  1  0.77044111  0.55872287  0.37625588  1
  O  O11  1  0.22955789  0.05872287  0.12374412  1
  O  O12  1  0.74801643  0.98094805  0.23459599  1
  O  O13  1  0.25198357  0.48094905  0.26540301  1
  O  O14  1  0.25198357  0.01905095  0.76540301  1
  O  O15  1  0.74801643  0.51905195  0.73459699  1
  O  O16  1  0.53534515  0.56052504  0.10515531  1
  O  O17  1  0.46465385  0.06052604  0.39484469  1
  O  O18  1  0.52866572  0.34267311  0.49300429  1
  O  O19  1  0.53534615  0.93947496  0.60515531  1
  O  O20  1  0.52866572  0.15732689  0.99300429  1
  O  O21  1  0.47133428  0.65732589  0.50699671  1
  O  O22  1  0.47133428  0.84267411  0.00699571  1
  O  O23  1  0.46465485  0.43947396  0.89484469  1
  Cr  Cr24  1  0.61005044  0.14264417  0.55598041  1
  Cr  Cr25  1  0.38995056  0.64264417  0.94401959  1
  Cr  Cr26  1  0.38994956  0.85735583  0.44401959  1
  Cr  Cr27  1  0.61004944  0.35735483  0.05598041  1
  Rb  Rb28  1  0.96668463  0.75877392  0.63819977  1
  Rb  Rb29  1  0.03331437  0.25877392  0.86180023  1
  Rb  Rb30  1  0.96668563  0.74122608  0.13820077  1
  Rb  Rb31  1  0.03331537  0.24122508  0.36180023  1
  U  U32  1  0.48902084  0.48049470  0.67697275  1
  U  U33  1  0.51097816  0.98049570  0.82302725  1
  U  U34  1  0.51097916  0.51950430  0.32302725  1
  U  U35  1  0.48902184  0.01950430  0.17697275  1
