# generated using pymatgen
data_La4B4Br5
_symmetry_space_group_name_H-M   'P 1'
_cell_length_a   4.32460425
_cell_length_b   9.47466433
_cell_length_c   17.73775483
_cell_angle_alpha   89.95924451
_cell_angle_beta   82.99800503
_cell_angle_gamma   76.80773630
_symmetry_Int_Tables_number   1
_chemical_formula_structural   La4B4Br5
_chemical_formula_sum   'La8 B8 Br10'
_cell_volume   702.05582305
_cell_formula_units_Z   2
loop_
 _symmetry_equiv_pos_site_id
 _symmetry_equiv_pos_as_xyz
  1  'x, y, z'
loop_
 _atom_site_type_symbol
 _atom_site_label
 _atom_site_symmetry_multiplicity
 _atom_site_fract_x
 _atom_site_fract_y
 _atom_site_fract_z
 _atom_site_occupancy
  La  La0  1  0.33665998  0.05376633  0.27291371  1
  La  La1  1  0.66334002  0.94623367  0.72708629  1
  La  La2  1  0.62302162  0.38261325  0.37134351  1
  La  La3  1  0.37697838  0.61738675  0.62865649  1
  La  La4  1  0.11633192  0.56899514  0.19834103  1
  La  La5  1  0.88366808  0.43100486  0.80165897  1
  La  La6  1  0.84056023  0.22887086  0.09000868  1
  La  La7  1  0.15943977  0.77112914  0.90999132  1
  Br  Br8  1  0.77314862  0.05434137  0.39936138  1
  Br  Br9  1  0.22685138  0.94565863  0.60063862  1
  Br  Br10  1  0.95704403  0.91724253  0.16866941  1
  Br  Br11  1  0.04295597  0.08275747  0.83133059  1
  Br  Br12  1  0.67041297  0.58616316  0.07301089  1
  Br  Br13  1  0.32958703  0.41383684  0.92698911  1
  Br  Br14  1  0.49505095  0.69871850  0.31117960  1
  Br  Br15  1  0.50494905  0.30128150  0.68882040  1
  Br  Br16  1  0.00000000  0.50000000  0.50000000  1
  Br  Br17  1  0.50000000  0.00000000  0.00000000  1
  B  B18  1  0.54526063  0.30899258  0.23031805  1
  B  B19  1  0.08457126  0.69100742  0.76968195  1
  B  B20  1  0.45473937  0.69100742  0.76968195  1
  B  B21  1  0.91542874  0.30899258  0.23031805  1
  B  B22  1  0.27189427  0.27949539  0.17671606  1
  B  B23  1  0.72810573  0.72050461  0.82328394  1
  B  B24  1  0.18811519  0.33922273  0.28454690  1
  B  B25  1  0.81188481  0.66077727  0.71545310  1
