# generated using pymatgen
data_Ba3Y3Cu3O10
_symmetry_space_group_name_H-M   'P 1'
_cell_length_a   5.69194508
_cell_length_b   9.15544183
_cell_length_c   13.01444889
_cell_angle_alpha   97.31492095
_cell_angle_beta   78.05850622
_cell_angle_gamma   69.07123180
_symmetry_Int_Tables_number   1
_chemical_formula_structural   Ba3Y3Cu3O10
_chemical_formula_sum   'Ba6 Y6 Cu6 O20'
_cell_volume   604.54497376
_cell_formula_units_Z   2
loop_
 _symmetry_equiv_pos_site_id
 _symmetry_equiv_pos_as_xyz
  1  'x, y, z'
loop_
 _atom_site_type_symbol
 _atom_site_label
 _atom_site_symmetry_multiplicity
 _atom_site_fract_x
 _atom_site_fract_y
 _atom_site_fract_z
 _atom_site_occupancy
  Ba  Ba0  1  0.21512280  0.91388356  0.68545607  1
  Ba  Ba1  1  0.89398101  0.54904688  0.65664065  1
  Ba  Ba2  1  0.53860436  0.21073561  0.68899891  1
  Ba  Ba3  1  0.46523187  0.77223364  0.33857228  1
  Ba  Ba4  1  0.09547182  0.47654948  0.34741016  1
  Ba  Ba5  1  0.75152785  0.10986874  0.35461609  1
  Y  Y6  1  0.66418109  0.66905961  -0.00014369  1
  Y  Y7  1  0.34342408  0.32929934  0.99333214  1
  Y  Y8  1  0.00221150  0.99691965  0.99217256  1
  Y  Y9  1  0.27457347  0.61201192  0.83542286  1
  Y  Y10  1  0.38288478  0.05076748  0.16364131  1
  Y  Y11  1  0.72951829  0.38759467  0.16010308  1
  Cu  Cu12  1  0.50094407  0.49796115  0.50186335  1
  Cu  Cu13  1  0.15485009  0.16530893  0.49184260  1
  Cu  Cu14  1  0.84634681  0.84040093  0.50803835  1
  Cu  Cu15  1  0.58654096  0.95921776  0.86582615  1
  Cu  Cu16  1  0.92282418  0.28617091  0.87035223  1
  Cu  Cu17  1  0.08292906  0.70853014  0.12403385  1
  O  O18  1  0.41387776  0.80062411  0.88037015  1
  O  O19  1  0.07429615  0.45293717  0.88501655  1
  O  O20  1  0.74880071  0.12748604  0.87606011  1
  O  O21  1  0.89017153  0.80649510  0.89555171  1
  O  O22  1  0.58787203  0.45399331  0.88985858  1
  O  O23  1  0.25639241  0.12020229  0.85979831  1
  O  O24  1  0.93103559  0.54462281  0.11771526  1
  O  O25  1  0.59366777  0.19995282  0.10797764  1
  O  O26  1  0.24796111  0.86584457  0.10780119  1
  O  O27  1  0.41456240  0.54507893  0.11144062  1
  O  O28  1  0.11049851  0.19460113  0.08421315  1
  O  O29  1  0.75982662  0.86232499  0.11868864  1
  O  O30  1  0.38824451  0.55113884  0.66446101  1
  O  O31  1  0.03535339  0.20134221  0.63843672  1
  O  O32  1  0.75779643  0.89423176  0.65574124  1
  O  O33  1  0.62861327  0.43758320  0.33325852  1
  O  O34  1  0.25675312  0.10531523  0.33919641  1
  O  O35  1  0.96174888  0.79964457  0.35969175  1
  O  O36  1  0.33169244  0.35004580  0.49627138  1
  O  O37  1  0.65966727  0.65097472  0.50027210  1
