# generated using pymatgen
data_GdScS3
_symmetry_space_group_name_H-M   'P 1'
_cell_length_a   6.42993802
_cell_length_b   7.07327506
_cell_length_c   9.55325612
_cell_angle_alpha   90.00000000
_cell_angle_beta   90.00000000
_cell_angle_gamma   90.00000000
_symmetry_Int_Tables_number   1
_chemical_formula_structural   GdScS3
_chemical_formula_sum   'Gd4 Sc4 S12'
_cell_volume   434.48896892
_cell_formula_units_Z   4
loop_
 _symmetry_equiv_pos_site_id
 _symmetry_equiv_pos_as_xyz
  1  'x, y, z'
loop_
 _atom_site_type_symbol
 _atom_site_label
 _atom_site_symmetry_multiplicity
 _atom_site_fract_x
 _atom_site_fract_y
 _atom_site_fract_z
 _atom_site_occupancy
  Gd  Gd0  1  0.03975703  0.10048996  0.25000000  1
  Gd  Gd1  1  0.96024297  0.89951004  0.75000000  1
  Gd  Gd2  1  0.46024297  0.60048996  0.25000000  1
  Gd  Gd3  1  0.53975703  0.39951004  0.75000000  1
  Sc  Sc4  1  0.50000000  0.00000000  0.50000000  1
  Sc  Sc5  1  0.00000000  0.50000000  0.00000000  1
  Sc  Sc6  1  0.00000000  0.50000000  0.50000000  1
  Sc  Sc7  1  0.50000000  0.00000000  0.00000000  1
  S  S8  1  0.32333792  0.31482603  0.43138520  1
  S  S9  1  0.67666208  0.68517397  0.93138520  1
  S  S10  1  0.32333792  0.31482603  0.06861480  1
  S  S11  1  0.82333792  0.18517397  0.56861480  1
  S  S12  1  0.17666208  0.81482603  0.43138520  1
  S  S13  1  0.13965491  0.54496220  0.75000000  1
  S  S14  1  0.86034509  0.45503780  0.25000000  1
  S  S15  1  0.63965491  0.95503780  0.25000000  1
  S  S16  1  0.82333792  0.18517397  0.93138520  1
  S  S17  1  0.36034509  0.04496220  0.75000000  1
  S  S18  1  0.67666208  0.68517397  0.56861480  1
  S  S19  1  0.17666208  0.81482603  0.06861480  1
