# generated using pymatgen
data_CsDyZnTe3
_symmetry_space_group_name_H-M   'P 1'
_cell_length_a   4.43070440
_cell_length_b   8.96785550
_cell_length_c   11.74749437
_cell_angle_alpha   90.00000000
_cell_angle_beta   90.00000000
_cell_angle_gamma   104.30198292
_symmetry_Int_Tables_number   1
_chemical_formula_structural   CsDyZnTe3
_chemical_formula_sum   'Cs2 Dy2 Zn2 Te6'
_cell_volume   452.30732383
_cell_formula_units_Z   2
loop_
 _symmetry_equiv_pos_site_id
 _symmetry_equiv_pos_as_xyz
  1  'x, y, z'
loop_
 _atom_site_type_symbol
 _atom_site_label
 _atom_site_symmetry_multiplicity
 _atom_site_fract_x
 _atom_site_fract_y
 _atom_site_fract_z
 _atom_site_occupancy
  Cs  Cs0  1  0.74618496  0.49236991  0.75000000  1
  Cs  Cs1  1  0.25381504  0.50763009  0.25000000  1
  Dy  Dy2  1  0.00000000  0.00000000  0.00000000  1
  Dy  Dy3  1  0.00000000  0.00000000  0.50000000  1
  Zn  Zn4  1  0.46202309  0.92404618  0.75000000  1
  Zn  Zn5  1  0.53797691  0.07595382  0.25000000  1
  Te  Te6  1  0.38125832  0.76251664  0.94227921  1
  Te  Te7  1  0.61874168  0.23748336  0.05772079  1
  Te  Te8  1  0.61874168  0.23748336  0.44227921  1
  Te  Te9  1  0.38125832  0.76251664  0.55772079  1
  Te  Te10  1  0.05810081  0.11620162  0.75000000  1
  Te  Te11  1  0.94189919  0.88379838  0.25000000  1
