# generated using pymatgen
data_CsLaZnTe3
_symmetry_space_group_name_H-M   'P 1'
_cell_length_a   4.59923772
_cell_length_b   8.88004596
_cell_length_c   12.26588131
_cell_angle_alpha   90.00000000
_cell_angle_beta   90.00000000
_cell_angle_gamma   105.00864280
_symmetry_Int_Tables_number   1
_chemical_formula_structural   CsLaZnTe3
_chemical_formula_sum   'Cs2 La2 Zn2 Te6'
_cell_volume   483.86704897
_cell_formula_units_Z   2
loop_
 _symmetry_equiv_pos_site_id
 _symmetry_equiv_pos_as_xyz
  1  'x, y, z'
loop_
 _atom_site_type_symbol
 _atom_site_label
 _atom_site_symmetry_multiplicity
 _atom_site_fract_x
 _atom_site_fract_y
 _atom_site_fract_z
 _atom_site_occupancy
  Cs  Cs0  1  0.74322070  0.48644140  0.75000000  1
  Cs  Cs1  1  0.25677930  0.51355860  0.25000000  1
  La  La2  1  0.00000000  0.00000000  0.00000000  1
  La  La3  1  0.00000000  0.00000000  0.50000000  1
  Zn  Zn4  1  0.54013780  0.08027560  0.25000000  1
  Zn  Zn5  1  0.45986220  0.91972440  0.75000000  1
  Te  Te6  1  0.94330888  0.88661776  0.25000000  1
  Te  Te7  1  0.37629827  0.75259653  0.56690941  1
  Te  Te8  1  0.37629827  0.75259653  0.93309059  1
  Te  Te9  1  0.05669112  0.11338224  0.75000000  1
  Te  Te10  1  0.62370173  0.24740347  0.06690941  1
  Te  Te11  1  0.62370173  0.24740347  0.43309059  1
