# generated using pymatgen
data_Zr(MoO4)2
_symmetry_space_group_name_H-M   'P 1'
_cell_length_a   5.95986596
_cell_length_b   5.95986596
_cell_length_c   6.58135985
_cell_angle_alpha   90.00000000
_cell_angle_beta   90.00000000
_cell_angle_gamma   120.00000002
_symmetry_Int_Tables_number   1
_chemical_formula_structural   Zr(MoO4)2
_chemical_formula_sum   'Zr1 Mo2 O8'
_cell_volume   202.45068637
_cell_formula_units_Z   1
loop_
 _symmetry_equiv_pos_site_id
 _symmetry_equiv_pos_as_xyz
  1  'x, y, z'
loop_
 _atom_site_type_symbol
 _atom_site_label
 _atom_site_symmetry_multiplicity
 _atom_site_fract_x
 _atom_site_fract_y
 _atom_site_fract_z
 _atom_site_occupancy
  O  O0  1  0.66666667  0.33333333  0.46188389  1
  O  O1  1  0.33333333  0.66666667  0.53811611  1
  O  O2  1  0.83272920  0.16727080  0.81715082  1
  O  O3  1  0.16727080  0.83272920  0.18284918  1
  O  O4  1  0.16727080  0.33454159  0.18284918  1
  O  O5  1  0.66545841  0.83272920  0.18284918  1
  O  O6  1  0.33454159  0.16727080  0.81715082  1
  O  O7  1  0.83272920  0.66545841  0.81715082  1
  Zr  Zr8  1  0.00000000  0.00000000  0.00000000  1
  Mo  Mo9  1  0.33333333  0.66666667  0.27578272  1
  Mo  Mo10  1  0.66666667  0.33333333  0.72421728  1
