# generated using pymatgen
data_In2Pt3
_symmetry_space_group_name_H-M   'P 1'
_cell_length_a   5.66505072
_cell_length_b   5.66499268
_cell_length_c   13.96711873
_cell_angle_alpha   89.95624962
_cell_angle_beta   90.02187498
_cell_angle_gamma   119.99966157
_symmetry_Int_Tables_number   1
_chemical_formula_structural   In2Pt3
_chemical_formula_sum   'In8 Pt12'
_cell_volume   388.18787477
_cell_formula_units_Z   4
loop_
 _symmetry_equiv_pos_site_id
 _symmetry_equiv_pos_as_xyz
  1  'x, y, z'
loop_
 _atom_site_type_symbol
 _atom_site_label
 _atom_site_symmetry_multiplicity
 _atom_site_fract_x
 _atom_site_fract_y
 _atom_site_fract_z
 _atom_site_occupancy
  In  In0  1  0.00001639  0.00000820  0.75000000  1
  In  In1  1  -0.00001639  -0.00000820  0.25000000  1
  In  In2  1  0.66684319  0.33342160  0.75000000  1
  In  In3  1  0.33315681  0.66657840  0.25000000  1
  In  In4  1  0.66673419  0.33326090  0.41318008  1
  In  In5  1  0.33326581  0.66652671  0.91318008  1
  In  In6  1  0.33326581  0.66673910  0.58681992  1
  In  In7  1  0.66673419  0.33347329  0.08681992  1
  Pt  Pt8  1  0.83436921  0.16573070  0.58958420  1
  Pt  Pt9  1  0.83426106  0.66864684  0.58957682  1
  Pt  Pt10  1  0.33141826  0.16565914  0.58959636  1
  Pt  Pt11  1  0.16563079  0.33136150  0.08958420  1
  Pt  Pt12  1  0.66858174  0.83424088  0.08959636  1
  Pt  Pt13  1  0.16573894  0.83438578  0.08957682  1
  Pt  Pt14  1  0.16563079  0.83426930  0.41041580  1
  Pt  Pt15  1  0.16573894  0.33135316  0.41042318  1
  Pt  Pt16  1  0.66858174  0.83434086  0.41040364  1
  Pt  Pt17  1  0.83436921  0.66863850  0.91041580  1
  Pt  Pt18  1  0.33141826  0.16575912  0.91040364  1
  Pt  Pt19  1  0.83426106  0.16561422  0.91042318  1
