# generated using pymatgen
data_Mg30ZnSiO32
_symmetry_space_group_name_H-M   'P 1'
_cell_length_a   8.55631692
_cell_length_b   8.55402817
_cell_length_c   8.55402817
_cell_angle_alpha   90.00000000
_cell_angle_beta   90.00000000
_cell_angle_gamma   90.00000000
_symmetry_Int_Tables_number   1
_chemical_formula_structural   Mg30ZnSiO32
_chemical_formula_sum   'Mg30 Zn1 Si1 O32'
_cell_volume   626.07767020
_cell_formula_units_Z   1
loop_
 _symmetry_equiv_pos_site_id
 _symmetry_equiv_pos_as_xyz
  1  'x, y, z'
loop_
 _atom_site_type_symbol
 _atom_site_label
 _atom_site_symmetry_multiplicity
 _atom_site_fract_x
 _atom_site_fract_y
 _atom_site_fract_z
 _atom_site_occupancy
  Mg  Mg0  1  -0.00000000  -0.00000000  0.50000000  1
  Mg  Mg1  1  -0.00000000  0.50000000  0.00000000  1
  Mg  Mg2  1  0.50000000  -0.00000000  0.00000000  1
  Mg  Mg3  1  0.50000000  -0.00000000  0.50000000  1
  Mg  Mg4  1  0.50000000  0.50000000  0.00000000  1
  Mg  Mg5  1  0.50000000  0.50000000  0.50000000  1
  Mg  Mg6  1  -0.00000000  0.24854769  0.24854769  1
  Mg  Mg7  1  -0.00000000  0.24854769  0.75145231  1
  Mg  Mg8  1  -0.00000000  0.75145231  0.24854769  1
  Mg  Mg9  1  -0.00000000  0.75145231  0.75145231  1
  Mg  Mg10  1  0.50000000  0.24995141  0.24995141  1
  Mg  Mg11  1  0.50000000  0.24995141  0.75004859  1
  Mg  Mg12  1  0.50000000  0.75004859  0.24995141  1
  Mg  Mg13  1  0.50000000  0.75004859  0.75004859  1
  Mg  Mg14  1  0.24995845  -0.00000000  0.24988353  1
  Mg  Mg15  1  0.24995845  -0.00000000  0.75011647  1
  Mg  Mg16  1  0.25125452  0.50000000  0.24863604  1
  Mg  Mg17  1  0.25125452  0.50000000  0.75136396  1
  Mg  Mg18  1  0.75004155  -0.00000000  0.24988353  1
  Mg  Mg19  1  0.75004155  -0.00000000  0.75011647  1
  Mg  Mg20  1  0.74874548  0.50000000  0.24863604  1
  Mg  Mg21  1  0.74874548  0.50000000  0.75136396  1
  Mg  Mg22  1  0.24995845  0.24988353  0.00000000  1
  Mg  Mg23  1  0.25125452  0.24863604  0.50000000  1
  Mg  Mg24  1  0.24995845  0.75011647  -0.00000000  1
  Mg  Mg25  1  0.25125452  0.75136396  0.50000000  1
  Mg  Mg26  1  0.75004155  0.24988353  0.00000000  1
  Mg  Mg27  1  0.74874548  0.24863604  0.50000000  1
  Mg  Mg28  1  0.75004155  0.75011647  -0.00000000  1
  Mg  Mg29  1  0.74874548  0.75136396  0.50000000  1
  Zn  Zn30  1  -0.00000000  -0.00000000  0.00000000  1
  Si  Si31  1  -0.00000000  0.50000000  0.50000000  1
  O  O32  1  0.25394896  -0.00000000  0.00000000  1
  O  O33  1  0.25138472  -0.00000000  0.50000000  1
  O  O34  1  0.25138472  0.50000000  0.00000000  1
  O  O35  1  0.25976876  0.50000000  0.50000000  1
  O  O36  1  0.74605104  -0.00000000  -0.00000000  1
  O  O37  1  0.74861528  -0.00000000  0.50000000  1
  O  O38  1  0.74861528  0.50000000  -0.00000000  1
  O  O39  1  0.74023124  0.50000000  0.50000000  1
  O  O40  1  0.24930408  0.25030301  0.25030301  1
  O  O41  1  0.24930408  0.25030301  0.74969699  1
  O  O42  1  0.24930408  0.74969699  0.25030301  1
  O  O43  1  0.24930408  0.74969699  0.74969699  1
  O  O44  1  0.75069592  0.25030301  0.25030301  1
  O  O45  1  0.75069592  0.25030301  0.74969699  1
  O  O46  1  0.75069592  0.74969699  0.25030301  1
  O  O47  1  0.75069592  0.74969699  0.74969699  1
  O  O48  1  -0.00000000  -0.00000000  0.25228415  1
  O  O49  1  -0.00000000  -0.00000000  0.74771585  1
  O  O50  1  -0.00000000  0.50000000  0.24052828  1
  O  O51  1  -0.00000000  0.50000000  0.75947172  1
  O  O52  1  0.50000000  -0.00000000  0.24998417  1
  O  O53  1  0.50000000  -0.00000000  0.75001583  1
  O  O54  1  0.50000000  0.50000000  0.24887294  1
  O  O55  1  0.50000000  0.50000000  0.75112706  1
  O  O56  1  -0.00000000  0.25228415  -0.00000000  1
  O  O57  1  -0.00000000  0.24052828  0.50000000  1
  O  O58  1  -0.00000000  0.74771585  0.00000000  1
  O  O59  1  -0.00000000  0.75947172  0.50000000  1
  O  O60  1  0.50000000  0.24998417  0.00000000  1
  O  O61  1  0.50000000  0.24887294  0.50000000  1
  O  O62  1  0.50000000  0.75001583  -0.00000000  1
  O  O63  1  0.50000000  0.75112706  0.50000000  1
