# generated using pymatgen
data_Ni10Sn5P3
_symmetry_space_group_name_H-M   'P 1'
_cell_length_a   6.44020761
_cell_length_b   8.36378531
_cell_length_c   10.31778718
_cell_angle_alpha   73.50262207
_cell_angle_beta   84.40177265
_cell_angle_gamma   82.75100733
_symmetry_Int_Tables_number   1
_chemical_formula_structural   Ni10Sn5P3
_chemical_formula_sum   'Ni20 Sn10 P6'
_cell_volume   527.51004245
_cell_formula_units_Z   2
loop_
 _symmetry_equiv_pos_site_id
 _symmetry_equiv_pos_as_xyz
  1  'x, y, z'
loop_
 _atom_site_type_symbol
 _atom_site_label
 _atom_site_symmetry_multiplicity
 _atom_site_fract_x
 _atom_site_fract_y
 _atom_site_fract_z
 _atom_site_occupancy
  Ni  Ni0  1  0.70995933  0.27416193  0.19894302  1
  Ni  Ni1  1  0.65849652  0.60327597  0.69388297  1
  Ni  Ni2  1  0.86485485  0.13495920  0.62510240  1
  Ni  Ni3  1  0.58005125  0.91707670  0.70671740  1
  Ni  Ni4  1  0.14345709  0.35110216  0.54800388  1
  Ni  Ni5  1  0.94322281  0.56834206  0.87392533  1
  Ni  Ni6  1  0.29004067  0.72583807  0.80105698  1
  Ni  Ni7  1  0.26781671  0.21261888  0.96383090  1
  Ni  Ni8  1  0.34150348  0.39672403  0.30611703  1
  Ni  Ni9  1  0.13514515  0.86504080  0.37489760  1
  Ni  Ni10  1  0.50000000  0.50000000  0.50000000  1
  Ni  Ni11  1  0.05682497  0.70358755  0.20296606  1
  Ni  Ni12  1  0.94317503  0.29641245  0.79703394  1
  Ni  Ni13  1  0.39726042  0.60655787  0.06818101  1
  Ni  Ni14  1  0.41994875  0.08292330  0.29328260  1
  Ni  Ni15  1  0.85654291  0.64889784  0.45199612  1
  Ni  Ni16  1  0.73218329  0.78738112  0.03616910  1
  Ni  Ni17  1  0.00000000  0.00000000  0.00000000  1
  Ni  Ni18  1  0.05677719  0.43165794  0.12607467  1
  Ni  Ni19  1  0.60273958  0.39344213  0.93181899  1
  Sn  Sn20  1  0.35167126  0.91114763  0.13059517  1
  Sn  Sn21  1  0.20708783  0.04898775  0.75914149  1
  Sn  Sn22  1  0.79291217  0.95101225  0.24085851  1
  Sn  Sn23  1  0.53444267  0.18164080  0.49714132  1
  Sn  Sn24  1  0.64832874  0.08885237  0.86940483  1
  Sn  Sn25  1  0.46555733  0.81835920  0.50285868  1
  Sn  Sn26  1  0.29881171  0.44861741  0.74118150  1
  Sn  Sn27  1  0.03348260  0.18426185  0.37243784  1
  Sn  Sn28  1  0.96651740  0.81573815  0.62756216  1
  Sn  Sn29  1  0.70118829  0.55138259  0.25881850  1
  P  P30  1  0.07767673  0.71994240  0.98312754  1
  P  P31  1  0.39118061  0.31599210  0.11402070  1
  P  P32  1  0.92232327  0.28005760  0.01687246  1
  P  P33  1  0.19748057  0.59390284  0.39971319  1
  P  P34  1  0.60881939  0.68400790  0.88597930  1
  P  P35  1  0.80251943  0.40609716  0.60028681  1
