# generated using pymatgen
data_K2BeH4(SO5)2
_symmetry_space_group_name_H-M   'P 1'
_cell_length_a   7.38522853
_cell_length_b   11.21632863
_cell_length_c   11.72968987
_cell_angle_alpha   90.00000000
_cell_angle_beta   90.00000000
_cell_angle_gamma   95.39899320
_symmetry_Int_Tables_number   1
_chemical_formula_structural   K2BeH4(SO5)2
_chemical_formula_sum   'K8 Be4 H16 S8 O40'
_cell_volume   967.32009763
_cell_formula_units_Z   4
loop_
 _symmetry_equiv_pos_site_id
 _symmetry_equiv_pos_as_xyz
  1  'x, y, z'
loop_
 _atom_site_type_symbol
 _atom_site_label
 _atom_site_symmetry_multiplicity
 _atom_site_fract_x
 _atom_site_fract_y
 _atom_site_fract_z
 _atom_site_occupancy
  K  K0  1  0.01954995  0.90910578  0.23986536  1
  K  K1  1  0.48045005  0.09089422  0.73986536  1
  K  K2  1  0.98045005  0.09089422  0.76013464  1
  K  K3  1  0.51954995  0.90910578  0.26013464  1
  K  K4  1  0.68309148  0.60784532  0.09600270  1
  K  K5  1  0.81690852  0.39215468  0.59600270  1
  K  K6  1  0.31690852  0.39215468  0.90399730  1
  K  K7  1  0.18309148  0.60784532  0.40399730  1
  Be  Be8  1  0.91136014  0.23673049  0.08236691  1
  Be  Be9  1  0.58863986  0.76326951  0.58236691  1
  Be  Be10  1  0.08863986  0.76326951  0.91763309  1
  Be  Be11  1  0.41136014  0.23673049  0.41763309  1
  H  H12  1  0.20027266  0.09136345  0.47979490  1
  H  H13  1  0.29972734  0.90863655  0.97979490  1
  H  H14  1  0.79972734  0.90863655  0.52020510  1
  H  H15  1  0.70027266  0.09136345  0.02020510  1
  H  H16  1  0.09612618  0.19002204  0.41127832  1
  H  H17  1  0.40387382  0.80997796  0.91127832  1
  H  H18  1  0.90387382  0.80997796  0.58872168  1
  H  H19  1  0.59612618  0.19002204  0.08872168  1
  H  H20  1  0.39220856  0.29850596  0.23153726  1
  H  H21  1  0.10779144  0.70149404  0.73153726  1
  H  H22  1  0.97378350  0.41120968  0.18598192  1
  H  H23  1  0.89220856  0.29850596  0.26846274  1
  H  H24  1  0.47378350  0.41120968  0.31401808  1
  H  H25  1  0.02621650  0.58879032  0.81401808  1
  H  H26  1  0.52621650  0.58879032  0.68598192  1
  H  H27  1  0.60779144  0.70149404  0.76846274  1
  S  S28  1  0.25020684  0.12772763  0.05347465  1
  S  S29  1  0.24979316  0.87227237  0.55347465  1
  S  S30  1  0.74979316  0.87227237  0.94652535  1
  S  S31  1  0.75020684  0.12772763  0.44652535  1
  S  S32  1  0.17663295  0.63498832  0.11512683  1
  S  S33  1  0.32336705  0.36501168  0.61512683  1
  S  S34  1  0.82336705  0.36501168  0.88487317  1
  S  S35  1  0.67663295  0.63498832  0.38487317  1
  O  O36  1  0.12114840  0.77275057  0.60058494  1
  O  O37  1  0.25235208  0.86493085  0.42820740  1
  O  O38  1  0.75235208  0.86493085  0.07179260  1
  O  O39  1  0.74764792  0.13506915  0.57179260  1
  O  O40  1  0.30352672  0.00968065  0.09222693  1
  O  O41  1  0.19647328  0.99031935  0.59222693  1
  O  O42  1  0.69647328  0.99031935  0.90777307  1
  O  O43  1  0.80352672  0.00968065  0.40777307  1
  O  O44  1  0.37885160  0.22724943  0.10058494  1
  O  O45  1  0.24764792  0.13506915  0.92820740  1
  O  O46  1  0.62114840  0.77275057  0.89941506  1
  O  O47  1  0.87885160  0.22724943  0.39941506  1
  O  O48  1  0.06265752  0.13966360  0.10244129  1
  O  O49  1  0.43734248  0.86033640  0.60244129  1
  O  O50  1  0.93734248  0.86033640  0.89755871  1
  O  O51  1  0.56265752  0.13966360  0.39755871  1
  O  O52  1  0.31411839  0.57831982  0.04918429  1
  O  O53  1  0.18588161  0.42168018  0.54918429  1
  O  O54  1  0.68588161  0.42168018  0.95081571  1
  O  O55  1  0.81411839  0.57831982  0.45081571  1
  O  O56  1  0.25843508  0.73339721  0.18803234  1
  O  O57  1  0.24156492  0.26660279  0.68803234  1
  O  O58  1  0.74156492  0.26660279  0.81196766  1
  O  O59  1  0.75843508  0.73339721  0.31196766  1
  O  O60  1  0.06194129  0.54782810  0.18646359  1
  O  O61  1  0.43805871  0.45217190  0.68646359  1
  O  O62  1  0.93805871  0.45217190  0.81353641  1
  O  O63  1  0.56194129  0.54782810  0.31353641  1
  O  O64  1  0.04351679  0.68777881  0.03241650  1
  O  O65  1  0.45648321  0.31222119  0.53241650  1
  O  O66  1  0.95648321  0.31222119  0.96758350  1
  O  O67  1  0.54351679  0.68777881  0.46758350  1
  O  O68  1  0.90405942  0.32949850  0.18906275  1
  O  O69  1  0.59594058  0.67050150  0.68906275  1
  O  O70  1  0.09594058  0.67050150  0.81093725  1
  O  O71  1  0.40405942  0.32949850  0.31093725  1
  O  O72  1  0.71441550  0.15334451  0.08181746  1
  O  O73  1  0.21441550  0.15334451  0.41818254  1
  O  O74  1  0.28558450  0.84665549  0.91818254  1
  O  O75  1  0.78558450  0.84665549  0.58181746  1
