# generated using pymatgen
data_Fe3BO5
_symmetry_space_group_name_H-M   'P 1'
_cell_length_a   6.20828653
_cell_length_b   9.63928716
_cell_length_c   12.49527795
_cell_angle_alpha   89.99480208
_cell_angle_beta   90.00078349
_cell_angle_gamma   90.00071276
_symmetry_Int_Tables_number   1
_chemical_formula_structural   Fe3BO5
_chemical_formula_sum   'Fe24 B8 O40'
_cell_volume   747.76062116
_cell_formula_units_Z   8
loop_
 _symmetry_equiv_pos_site_id
 _symmetry_equiv_pos_as_xyz
  1  'x, y, z'
loop_
 _atom_site_type_symbol
 _atom_site_label
 _atom_site_symmetry_multiplicity
 _atom_site_fract_x
 _atom_site_fract_y
 _atom_site_fract_z
 _atom_site_occupancy
  Fe  Fe0  1  0.74999903  0.49973075  0.99993505  1
  Fe  Fe1  1  0.74999948  0.00028007  0.49990106  1
  Fe  Fe2  1  0.74995620  0.25574977  0.61369740  1
  Fe  Fe3  1  0.50018990  -0.00130445  0.27543163  1
  Fe  Fe4  1  0.00026676  1.00130385  0.72456735  1
  Fe  Fe5  1  0.24995284  0.25590299  0.61371696  1
  Fe  Fe6  1  0.50021850  0.50130304  0.77543972  1
  Fe  Fe7  1  0.99974248  0.50130458  0.77543998  1
  Fe  Fe8  1  0.74997115  0.24428065  0.11370350  1
  Fe  Fe9  1  0.24996955  0.24407397  0.11373142  1
  Fe  Fe10  1  0.00025752  0.49869542  0.22456002  1
  Fe  Fe11  1  0.50000000  0.50000000  0.50000000  1
  Fe  Fe12  1  0.25000052  0.99971993  0.50009894  1
  Fe  Fe13  1  0.25000097  0.50026925  0.00006495  1
  Fe  Fe14  1  0.49981010  1.00130445  0.72456837  1
  Fe  Fe15  1  0.49978150  0.49869696  0.22456028  1
  Fe  Fe16  1  0.99973324  -0.00130385  0.27543265  1
  Fe  Fe17  1  0.75004716  0.74409701  0.38628304  1
  Fe  Fe18  1  0.00000000  0.50000000  0.50000000  1
  Fe  Fe19  1  0.75003045  0.75592603  0.88626858  1
  Fe  Fe20  1  0.00000000  0.00000000  0.00000000  1
  Fe  Fe21  1  0.25002885  0.75571935  0.88629650  1
  Fe  Fe22  1  0.50000000  0.00000000  0.00000000  1
  Fe  Fe23  1  0.25004380  0.74425023  0.38630260  1
  B  B24  1  0.25001422  0.26598325  0.36207557  1
  B  B25  1  0.75000362  0.23353153  0.86197891  1
  B  B26  1  0.24999638  0.76646847  0.13802109  1
  B  B27  1  0.75000010  0.76599743  0.13791613  1
  B  B28  1  0.24998317  0.73350349  0.63803394  1
  B  B29  1  0.24999990  0.23400257  0.86208387  1
  B  B30  1  0.74998578  0.73401675  0.63792443  1
  B  B31  1  0.75001683  0.26649651  0.36196606  1
  O  O32  1  0.75003980  0.34080145  0.45797320  1
  O  O33  1  0.25002215  0.62313853  0.13890914  1
  O  O34  1  0.49986634  0.88766917  0.85944196  1
  O  O35  1  0.50013650  0.88194092  0.41732457  1
  O  O36  1  0.24998804  0.66119049  0.73458975  1
  O  O37  1  0.24997985  0.37731359  0.86121232  1
  O  O38  1  0.99985623  0.61807319  0.91731920  1
  O  O39  1  0.99979009  0.38766986  0.64054814  1
  O  O40  1  0.50009264  0.38767253  0.64054493  1
  O  O41  1  0.99991257  0.88194099  0.41732636  1
  O  O42  1  0.99975946  0.11233472  0.14056042  1
  O  O43  1  0.49985624  0.38192587  0.08268149  1
  O  O44  1  0.50013366  0.11233083  0.14055804  1
  O  O45  1  0.50014376  0.61807413  0.91731851  1
  O  O46  1  0.49986350  0.11805908  0.58267543  1
  O  O47  1  0.25000965  0.16166147  0.76547739  1
  O  O48  1  0.74996813  0.65952831  0.54199057  1
  O  O49  1  0.25001174  0.33827972  0.26549268  1
  O  O50  1  0.24997946  0.84077409  0.04204097  1
  O  O51  1  0.75002015  0.62268641  0.13878768  1
  O  O52  1  0.00014377  0.38192681  0.08268080  1
  O  O53  1  0.75002054  0.15922591  0.95795903  1
  O  O54  1  0.24996020  0.65919855  0.54202680  1
  O  O55  1  0.49990736  0.61232747  0.35945507  1
  O  O56  1  0.75000193  0.87735230  0.63878141  1
  O  O57  1  0.00024054  0.88766528  0.85943958  1
  O  O58  1  0.25003187  0.34047169  0.45800943  1
  O  O59  1  0.74999035  0.83833853  0.23452261  1
  O  O60  1  0.25001365  0.15954171  0.95800289  1
  O  O61  1  0.74999818  0.12313935  0.36105553  1
  O  O62  1  0.00008743  0.11805901  0.58267364  1
  O  O63  1  0.74998635  0.84045829  0.04199711  1
  O  O64  1  0.74998826  0.66172028  0.73450732  1
  O  O65  1  0.25000182  0.87686065  0.63894447  1
  O  O66  1  0.00020991  0.61233014  0.35945186  1
  O  O67  1  0.24998496  0.83880333  0.23461485  1
  O  O68  1  0.75001196  0.33880951  0.26541025  1
  O  O69  1  0.74997785  0.37686147  0.86109086  1
  O  O70  1  0.75001504  0.16119667  0.76538515  1
  O  O71  1  0.24999807  0.12264770  0.36121859  1
