# generated using pymatgen
data_Ca2NiOsO6
_symmetry_space_group_name_H-M   'P 1'
_cell_length_a   5.40987030
_cell_length_b   5.62127215
_cell_length_c   7.71487974
_cell_angle_alpha   90.00000000
_cell_angle_beta   90.25521853
_cell_angle_gamma   90.00000000
_symmetry_Int_Tables_number   1
_chemical_formula_structural   Ca2NiOsO6
_chemical_formula_sum   'Ca4 Ni2 Os2 O12'
_cell_volume   234.60989085
_cell_formula_units_Z   2
loop_
 _symmetry_equiv_pos_site_id
 _symmetry_equiv_pos_as_xyz
  1  'x, y, z'
loop_
 _atom_site_type_symbol
 _atom_site_label
 _atom_site_symmetry_multiplicity
 _atom_site_fract_x
 _atom_site_fract_y
 _atom_site_fract_z
 _atom_site_occupancy
  O  O0  1  0.68628439  0.28876860  0.44883541  1
  O  O1  1  0.81371461  0.78876960  0.05116359  1
  O  O2  1  0.31371461  0.71122940  0.55116459  1
  O  O3  1  0.18628439  0.21123140  0.94883541  1
  O  O4  1  0.20861335  0.19229518  0.54817235  1
  O  O5  1  0.29138565  0.69229618  0.95182765  1
  O  O6  1  0.79138565  0.80770282  0.45182765  1
  O  O7  1  0.70861335  0.30770482  0.04817135  1
  O  O8  1  0.09602218  0.46942835  0.24185796  1
  O  O9  1  0.40397782  0.96942835  0.25814204  1
  O  O10  1  0.59602318  0.03057265  0.74185796  1
  O  O11  1  0.90397782  0.53057265  0.75814204  1
  Ca  Ca12  1  0.98529198  0.05898038  0.25120742  1
  Ca  Ca13  1  0.51470702  0.55898038  0.24879258  1
  Ca  Ca14  1  0.01470702  0.94101962  0.74879358  1
  Ca  Ca15  1  0.48529198  0.44101962  0.75120642  1
  Ni  Ni16  1  0.50000000  0.00000000  0.00000000  1
  Ni  Ni17  1  0.00000000  0.50000000  0.49999900  1
  Os  Os18  1  0.50000000  0.00000000  0.50000000  1
  Os  Os19  1  0.00000000  0.50000000  0.00000000  1
