# generated using pymatgen
data_CeF3
_symmetry_space_group_name_H-M   'P 1'
_cell_length_a   7.18111242
_cell_length_b   7.18111240
_cell_length_c   7.32590793
_cell_angle_alpha   90.00000000
_cell_angle_beta   90.00000000
_cell_angle_gamma   120.00000009
_symmetry_Int_Tables_number   1
_chemical_formula_structural   CeF3
_chemical_formula_sum   'Ce6 F18'
_cell_volume   327.17155461
_cell_formula_units_Z   6
loop_
 _symmetry_equiv_pos_site_id
 _symmetry_equiv_pos_as_xyz
  1  'x, y, z'
loop_
 _atom_site_type_symbol
 _atom_site_label
 _atom_site_symmetry_multiplicity
 _atom_site_fract_x
 _atom_site_fract_y
 _atom_site_fract_z
 _atom_site_occupancy
  Ce  Ce0  1  0.65808284  0.00000000  0.25000000  1
  Ce  Ce1  1  0.00000000  0.65808284  0.25000000  1
  Ce  Ce2  1  0.34191716  0.34191716  0.25000000  1
  Ce  Ce3  1  0.34191716  0.00000000  0.75000000  1
  Ce  Ce4  1  0.00000000  0.34191716  0.75000000  1
  Ce  Ce5  1  0.65808284  0.65808284  0.75000000  1
  F  F6  1  0.36854261  0.05877538  0.07937220  1
  F  F7  1  0.94122462  0.30976722  0.07937220  1
  F  F8  1  0.69023278  0.63145739  0.07937220  1
  F  F9  1  0.30976722  0.94122462  0.42062780  1
  F  F10  1  0.63145739  0.69023278  0.42062780  1
  F  F11  1  0.05877538  0.36854261  0.42062780  1
  F  F12  1  0.63145739  0.94122462  0.92062780  1
  F  F13  1  0.05877538  0.69023278  0.92062780  1
  F  F14  1  0.30976722  0.36854261  0.92062780  1
  F  F15  1  0.69023278  0.05877538  0.57937220  1
  F  F16  1  0.36854261  0.30976722  0.57937220  1
  F  F17  1  0.94122462  0.63145739  0.57937220  1
  F  F18  1  0.33333300  0.66666700  0.18736660  1
  F  F19  1  0.66666700  0.33333300  0.31263340  1
  F  F20  1  0.66666700  0.33333300  0.81263340  1
  F  F21  1  0.33333300  0.66666700  0.68736660  1
  F  F22  1  0.00000000  0.00000000  0.25000000  1
  F  F23  1  0.00000000  0.00000000  0.75000000  1
