# generated using pymatgen
data_Ba2(IrO3)3
_symmetry_space_group_name_H-M   'P 1'
_cell_length_a   8.28552836
_cell_length_b   8.28552832
_cell_length_c   8.28552776
_cell_angle_alpha   109.47122182
_cell_angle_beta   109.47122176
_cell_angle_gamma   109.47121968
_symmetry_Int_Tables_number   1
_chemical_formula_structural   Ba2(IrO3)3
_chemical_formula_sum   'Ba4 Ir6 O18'
_cell_volume   437.86344804
_cell_formula_units_Z   2
loop_
 _symmetry_equiv_pos_site_id
 _symmetry_equiv_pos_as_xyz
  1  'x, y, z'
loop_
 _atom_site_type_symbol
 _atom_site_label
 _atom_site_symmetry_multiplicity
 _atom_site_fract_x
 _atom_site_fract_y
 _atom_site_fract_z
 _atom_site_occupancy
  Ba  Ba0  1  0.37982341  0.37982341  0.37982341  1
  Ba  Ba1  1  1.00000000  0.62017659  1.00000000  1
  Ba  Ba2  1  0.00000000  0.00000000  0.62017659  1
  Ba  Ba3  1  0.62017659  1.00000000  1.00000000  1
  Ir  Ir4  1  0.50000000  0.34386315  0.84386315  1
  Ir  Ir5  1  0.65613685  0.15613685  0.50000000  1
  Ir  Ir6  1  0.15613685  0.50000000  0.65613685  1
  Ir  Ir7  1  0.34386315  0.84386315  0.50000000  1
  Ir  Ir8  1  0.84386315  0.50000000  0.34386315  1
  Ir  Ir9  1  0.50000000  0.65613685  0.15613685  1
  O  O10  1  0.00000000  0.35887012  0.35887012  1
  O  O11  1  0.64112988  0.64112988  0.00000000  1
  O  O12  1  0.64112988  1.00000000  0.64112988  1
  O  O13  1  0.35887012  0.35887012  1.00000000  1
  O  O14  1  0.35887012  0.00000000  0.35887012  1
  O  O15  1  1.00000000  0.64112988  0.64112988  1
  O  O16  1  0.27850165  0.32824194  0.63799017  1
  O  O17  1  0.64051149  0.36200983  0.69025178  1
  O  O18  1  0.95025971  0.30974822  0.67175806  1
  O  O19  1  0.35948851  0.04974029  0.72149835  1
  O  O20  1  0.36200983  0.69025178  0.64051149  1
  O  O21  1  0.67175806  0.95025971  0.30974822  1
  O  O22  1  0.04974029  0.72149835  0.35948851  1
  O  O23  1  0.63799017  0.27850165  0.32824194  1
  O  O24  1  0.32824194  0.63799017  0.27850165  1
  O  O25  1  0.69025178  0.64051149  0.36200983  1
  O  O26  1  0.30974822  0.67175806  0.95025971  1
  O  O27  1  0.72149835  0.35948851  0.04974029  1
