# generated using pymatgen
data_As3Pb5ClO9
_symmetry_space_group_name_H-M   'P 1'
_cell_length_a   10.59666450
_cell_length_b   10.59666469
_cell_length_c   7.10499798
_cell_angle_alpha   90.00000000
_cell_angle_beta   90.00000000
_cell_angle_gamma   119.99999935
_symmetry_Int_Tables_number   1
_chemical_formula_structural   As3Pb5ClO9
_chemical_formula_sum   'As6 Pb10 Cl2 O18'
_cell_volume   690.92828181
_cell_formula_units_Z   2
loop_
 _symmetry_equiv_pos_site_id
 _symmetry_equiv_pos_as_xyz
  1  'x, y, z'
loop_
 _atom_site_type_symbol
 _atom_site_label
 _atom_site_symmetry_multiplicity
 _atom_site_fract_x
 _atom_site_fract_y
 _atom_site_fract_z
 _atom_site_occupancy
  Pb  Pb0  1  0.33333300  0.66666700  0.98839436  1
  Pb  Pb1  1  0.66666700  0.33333300  0.48839436  1
  Pb  Pb2  1  0.66666700  0.33333300  0.01160564  1
  Pb  Pb3  1  0.33333300  0.66666700  0.51160564  1
  Pb  Pb4  1  0.26768625  0.04226375  0.25000000  1
  Pb  Pb5  1  0.22542249  0.26768625  0.75000000  1
  Pb  Pb6  1  0.04226375  0.77457751  0.75000000  1
  Pb  Pb7  1  0.95773625  0.22542249  0.25000000  1
  Pb  Pb8  1  0.77457751  0.73231375  0.25000000  1
  Pb  Pb9  1  0.73231375  0.95773625  0.75000000  1
  As  As10  1  0.41468928  0.39967368  0.25000000  1
  As  As11  1  0.01501560  0.41468928  0.75000000  1
  As  As12  1  0.39967368  0.98498440  0.75000000  1
  As  As13  1  0.60032632  0.01501560  0.25000000  1
  As  As14  1  0.98498440  0.58531072  0.25000000  1
  As  As15  1  0.58531072  0.60032632  0.75000000  1
  O  O16  1  0.61259155  0.46327617  0.25000000  1
  O  O17  1  0.14931538  0.61259155  0.75000000  1
  O  O18  1  0.46327617  0.85068462  0.75000000  1
  O  O19  1  0.53672383  0.14931538  0.25000000  1
  O  O20  1  0.85068462  0.38740845  0.25000000  1
  O  O21  1  0.38740845  0.53672383  0.75000000  1
  O  O22  1  0.37034977  0.27604958  0.05789573  1
  O  O23  1  0.09430019  0.37034977  0.55789573  1
  O  O24  1  0.27604958  0.90569981  0.55789573  1
  O  O25  1  0.72395042  0.09430019  0.05789573  1
  O  O26  1  0.90569981  0.62965023  0.05789573  1
  O  O27  1  0.62965023  0.72395042  0.55789573  1
  O  O28  1  0.62965023  0.72395042  0.94210427  1
  O  O29  1  0.90569981  0.62965023  0.44210427  1
  O  O30  1  0.72395042  0.09430019  0.44210427  1
  O  O31  1  0.27604958  0.90569981  0.94210427  1
  O  O32  1  0.09430019  0.37034977  0.94210427  1
  O  O33  1  0.37034977  0.27604958  0.44210427  1
  Cl  Cl34  1  0.00000000  0.00000000  0.00000000  1
  Cl  Cl35  1  0.00000000  0.00000000  0.50000000  1
