# generated using pymatgen
data_Cs2AgSbS4
_symmetry_space_group_name_H-M   'P 1'
_cell_length_a   7.09673144
_cell_length_b   7.54271176
_cell_length_c   11.28954147
_cell_angle_alpha   73.20390829
_cell_angle_beta   75.56293205
_cell_angle_gamma   72.07257223
_symmetry_Int_Tables_number   1
_chemical_formula_structural   Cs2AgSbS4
_chemical_formula_sum   'Cs4 Ag2 Sb2 S8'
_cell_volume   541.84483718
_cell_formula_units_Z   2
loop_
 _symmetry_equiv_pos_site_id
 _symmetry_equiv_pos_as_xyz
  1  'x, y, z'
loop_
 _atom_site_type_symbol
 _atom_site_label
 _atom_site_symmetry_multiplicity
 _atom_site_fract_x
 _atom_site_fract_y
 _atom_site_fract_z
 _atom_site_occupancy
  Cs  Cs0  1  0.71740043  0.75628084  0.59458214  1
  Cs  Cs1  1  0.28259957  0.24371916  0.40541786  1
  Cs  Cs2  1  0.76446639  0.51051750  0.18840224  1
  Cs  Cs3  1  0.23553361  0.48948250  0.81159776  1
  Ag  Ag4  1  0.62115905  0.09110001  0.07243076  1
  Ag  Ag5  1  0.37884095  0.90889999  0.92756924  1
  Sb  Sb6  1  0.86962873  0.13221700  0.76437069  1
  Sb  Sb7  1  0.13037127  0.86778300  0.23562931  1
  S  S8  1  0.26505254  0.63855323  0.11033787  1
  S  S9  1  0.77152221  0.94832568  0.26938507  1
  S  S10  1  0.75476282  0.26152158  0.57190301  1
  S  S11  1  0.73494746  0.36144677  0.88966213  1
  S  S12  1  0.23838654  0.14876683  0.11795928  1
  S  S13  1  0.24523718  0.73847842  0.42809699  1
  S  S14  1  0.76161346  0.85123317  0.88204072  1
  S  S15  1  0.22847779  0.05167432  0.73061493  1
