# generated using pymatgen
data_Cs2AgF4
_symmetry_space_group_name_H-M   'P 1'
_cell_length_a   6.57662998
_cell_length_b   6.58087245
_cell_length_c   7.96569547
_cell_angle_alpha   90.00000000
_cell_angle_beta   114.38145055
_cell_angle_gamma   90.00000000
_symmetry_Int_Tables_number   1
_chemical_formula_structural   Cs2AgF4
_chemical_formula_sum   'Cs4 Ag2 F8'
_cell_volume   314.00884231
_cell_formula_units_Z   2
loop_
 _symmetry_equiv_pos_site_id
 _symmetry_equiv_pos_as_xyz
  1  'x, y, z'
loop_
 _atom_site_type_symbol
 _atom_site_label
 _atom_site_symmetry_multiplicity
 _atom_site_fract_x
 _atom_site_fract_y
 _atom_site_fract_z
 _atom_site_occupancy
  Ag  Ag0  1  0.00000000  0.00000000  0.00000000  1
  Ag  Ag1  1  0.50000000  0.50000000  0.00000000  1
  Cs  Cs2  1  0.64298963  0.00000000  0.28597925  1
  Cs  Cs3  1  0.85701037  0.50000000  0.71402075  1
  Cs  Cs4  1  0.35701037  0.00000000  0.71402075  1
  Cs  Cs5  1  0.14298963  0.50000000  0.28597925  1
  F  F6  1  0.84969750  0.00000000  0.69939500  1
  F  F7  1  0.65030250  0.50000000  0.30060500  1
  F  F8  1  0.15030250  0.00000000  0.30060500  1
  F  F9  1  0.34969750  0.50000000  0.69939500  1
  F  F10  1  0.23675108  0.77343172  1.00000000  1
  F  F11  1  0.73675108  0.72656828  1.00000000  1
  F  F12  1  0.26324892  0.27343172  0.00000000  1
  F  F13  1  0.76324892  0.22656828  0.00000000  1
