# generated using pymatgen
data_CsCeCuS3
_symmetry_space_group_name_H-M   'P 1'
_cell_length_a   4.06968847
_cell_length_b   7.91629626
_cell_length_c   10.47196621
_cell_angle_alpha   90.00000000
_cell_angle_beta   90.00000000
_cell_angle_gamma   104.89479380
_symmetry_Int_Tables_number   1
_chemical_formula_structural   CsCeCuS3
_chemical_formula_sum   'Cs2 Ce2 Cu2 S6'
_cell_volume   326.03791436
_cell_formula_units_Z   2
loop_
 _symmetry_equiv_pos_site_id
 _symmetry_equiv_pos_as_xyz
  1  'x, y, z'
loop_
 _atom_site_type_symbol
 _atom_site_label
 _atom_site_symmetry_multiplicity
 _atom_site_fract_x
 _atom_site_fract_y
 _atom_site_fract_z
 _atom_site_occupancy
  Cs  Cs0  1  0.25975739  0.51951478  0.75000000  1
  Cs  Cs1  1  0.74024261  0.48048522  0.25000000  1
  Ce  Ce2  1  0.00000000  0.00000000  0.50000000  1
  Ce  Ce3  1  0.00000000  0.00000000  0.00000000  1
  Cu  Cu4  1  0.46550918  0.93101836  0.25000000  1
  Cu  Cu5  1  0.53449082  0.06898164  0.75000000  1
  S  S6  1  0.94866904  0.89733808  0.75000000  1
  S  S7  1  0.38710871  0.77421742  0.06190736  1
  S  S8  1  0.05133096  0.10266192  0.25000000  1
  S  S9  1  0.61289129  0.22578258  0.93809264  1
  S  S10  1  0.38710871  0.77421742  0.43809264  1
  S  S11  1  0.61289129  0.22578258  0.56190736  1
