# generated using pymatgen
data_K3Mn2O8
_symmetry_space_group_name_H-M   'P 1'
_cell_length_a   5.88343478
_cell_length_b   7.96596427
_cell_length_c   9.94439461
_cell_angle_alpha   111.53040213
_cell_angle_beta   90.00000000
_cell_angle_gamma   90.00000000
_symmetry_Int_Tables_number   1
_chemical_formula_structural   K3Mn2O8
_chemical_formula_sum   'K6 Mn4 O16'
_cell_volume   433.54552098
_cell_formula_units_Z   2
loop_
 _symmetry_equiv_pos_site_id
 _symmetry_equiv_pos_as_xyz
  1  'x, y, z'
loop_
 _atom_site_type_symbol
 _atom_site_label
 _atom_site_symmetry_multiplicity
 _atom_site_fract_x
 _atom_site_fract_y
 _atom_site_fract_z
 _atom_site_occupancy
  O  O0  1  0.75000000  0.73111316  0.03104804  1
  O  O1  1  0.02244293  0.04051224  0.74058370  1
  O  O2  1  0.25000000  0.58683421  0.58262839  1
  O  O3  1  0.75000000  0.41316579  0.41737061  1
  O  O4  1  0.25000000  0.23347280  0.53071629  1
  O  O5  1  0.75000000  0.76652720  0.46928271  1
  O  O6  1  0.47745594  0.46040325  0.75966255  1
  O  O7  1  0.97745594  0.53959675  0.24033745  1
  O  O8  1  0.52254306  0.53959675  0.24033745  1
  O  O9  1  0.02254406  0.46040325  0.75966255  1
  O  O10  1  0.52244293  0.95948676  0.25941530  1
  O  O11  1  0.97755707  0.95948676  0.25941530  1
  O  O12  1  0.25000000  0.26888684  0.96895296  1
  O  O13  1  0.47755707  0.04051224  0.74058370  1
  O  O14  1  0.25000000  0.91626042  0.91921460  1
  O  O15  1  0.75000000  0.08373858  0.08078440  1
  K  K16  1  0.25000000  0.65887155  0.04563053  1
  K  K17  1  0.75000000  0.34112945  0.95436947  1
  K  K18  1  0.25000000  0.84126393  0.45457186  1
  K  K19  1  0.75000000  0.75115507  0.75103784  1
  K  K20  1  0.75000000  0.15873607  0.54542814  1
  K  K21  1  0.25000000  0.24884393  0.24896316  1
  Mn  Mn22  1  0.75000000  0.93441714  0.15763012  1
  Mn  Mn23  1  0.25000000  0.06558286  0.84237088  1
  Mn  Mn24  1  0.75000000  0.56401415  0.34196997  1
  Mn  Mn25  1  0.25000000  0.43598485  0.65803003  1
