# generated using pymatgen
data_LiCuO
_symmetry_space_group_name_H-M   'P 1'
_cell_length_a   3.92887996
_cell_length_b   6.32392832
_cell_length_c   6.32392832
_cell_angle_alpha   84.46264247
_cell_angle_beta   71.90243530
_cell_angle_gamma   71.90243530
_symmetry_Int_Tables_number   1
_chemical_formula_structural   LiCuO
_chemical_formula_sum   'Li4 Cu4 O4'
_cell_volume   141.96239646
_cell_formula_units_Z   4
loop_
 _symmetry_equiv_pos_site_id
 _symmetry_equiv_pos_as_xyz
  1  'x, y, z'
loop_
 _atom_site_type_symbol
 _atom_site_label
 _atom_site_symmetry_multiplicity
 _atom_site_fract_x
 _atom_site_fract_y
 _atom_site_fract_z
 _atom_site_occupancy
  Li  Li0  1  0.25057875  0.15032141  0.84967859  1
  Li  Li1  1  0.25057875  0.84967859  0.15032141  1
  Li  Li2  1  0.89974266  0.84967859  0.84967859  1
  Li  Li3  1  0.59909984  0.15032141  0.15032141  1
  Cu  Cu4  1  0.59186175  0.50000000  0.81627650  1
  Cu  Cu5  1  0.90813825  0.50000000  0.18372350  1
  Cu  Cu6  1  0.59186175  0.81627650  0.50000000  1
  Cu  Cu7  1  0.90813825  0.18372350  0.50000000  1
  O  O8  1  0.74923862  0.80922791  0.19077209  1
  O  O9  1  0.74923862  0.19077209  0.80922791  1
  O  O10  1  0.05998929  0.19077209  0.19077209  1
  O  O11  1  0.44153347  0.80922791  0.80922791  1
