# generated using pymatgen
data_Sc(PO3)3
_symmetry_space_group_name_H-M   'P 1'
_cell_length_a   12.61994046
_cell_length_b   12.61994045
_cell_length_c   12.61994046
_cell_angle_alpha   109.47122065
_cell_angle_beta   109.47122063
_cell_angle_gamma   109.47122063
_symmetry_Int_Tables_number   1
_chemical_formula_structural   Sc(PO3)3
_chemical_formula_sum   'Sc8 P24 O72'
_cell_volume   1547.21271853
_cell_formula_units_Z   8
loop_
 _symmetry_equiv_pos_site_id
 _symmetry_equiv_pos_as_xyz
  1  'x, y, z'
loop_
 _atom_site_type_symbol
 _atom_site_label
 _atom_site_symmetry_multiplicity
 _atom_site_fract_x
 _atom_site_fract_y
 _atom_site_fract_z
 _atom_site_occupancy
  O  O0  1  0.89233416  0.58396576  0.92092289  1
  O  O1  1  0.91603424  0.80836840  0.33695713  1
  O  O2  1  0.57907711  0.16304287  0.97141126  1
  O  O3  1  0.60766584  0.52858874  0.69163160  1
  O  O4  1  0.52858874  0.69163160  0.60766584  1
  O  O5  1  0.69163160  0.60766584  0.52858874  1
  O  O6  1  0.39233416  0.42092289  0.08396576  1
  O  O7  1  0.83695713  0.30836840  0.41603424  1
  O  O8  1  0.66304287  0.07907711  0.47141126  1
  O  O9  1  0.19163160  0.02858874  0.10766584  1
  O  O10  1  0.02858874  0.10766584  0.19163160  1
  O  O11  1  0.08396576  0.39233416  0.42092289  1
  O  O12  1  0.30836840  0.41603424  0.83695713  1
  O  O13  1  0.47141126  0.66304287  0.07907711  1
  O  O14  1  0.42092289  0.08396576  0.39233416  1
  O  O15  1  0.41603424  0.83695713  0.30836840  1
  O  O16  1  0.07907711  0.47141126  0.66304287  1
  O  O17  1  0.33695713  0.91603424  0.80836840  1
  O  O18  1  0.16304287  0.97141126  0.57907711  1
  O  O19  1  0.97141126  0.57907711  0.16304287  1
  O  O20  1  0.58396576  0.92092289  0.89233416  1
  O  O21  1  0.92092289  0.89233416  0.58396576  1
  O  O22  1  0.80836840  0.33695713  0.91603424  1
  O  O23  1  0.10766584  0.19163160  0.02858874  1
  O  O24  1  0.88621701  0.72138289  0.80988386  1
  O  O25  1  0.91149903  0.19011614  0.57633315  1
  O  O26  1  0.77861711  0.66483413  0.08850097  1
  O  O27  1  0.61378299  0.42366685  0.83516587  1
  O  O28  1  0.42366685  0.83516587  0.61378299  1
  O  O29  1  0.83516587  0.61378299  0.42366685  1
  O  O30  1  0.38621701  0.30988386  0.22138289  1
  O  O31  1  0.58850097  0.16483413  0.27861711  1
  O  O32  1  0.00346517  0.09520886  0.78498153  1
  O  O33  1  0.90479114  0.18977267  0.90825631  1
  O  O34  1  0.78151636  0.99653483  0.59174369  1
  O  O35  1  0.59174369  0.78151636  0.99653483  1
  O  O36  1  0.21501847  0.71848364  0.31022733  1
  O  O37  1  0.31022733  0.21501847  0.71848364  1
  O  O38  1  0.18977267  0.90825631  0.90479114  1
  O  O39  1  0.21848364  0.71501847  0.81022733  1
  O  O40  1  0.40825631  0.68977267  0.40479114  1
  O  O41  1  0.28151636  0.09174369  0.49653483  1
  O  O42  1  0.71501847  0.81022733  0.21848364  1
  O  O43  1  0.40479114  0.40825631  0.68977267  1
  O  O44  1  0.09174369  0.49653483  0.28151636  1
  O  O45  1  0.78498153  0.00346517  0.09520886  1
  O  O46  1  0.09520886  0.78498153  0.00346517  1
  O  O47  1  0.81022733  0.21848364  0.71501847  1
  O  O48  1  0.68977267  0.40479114  0.40825631  1
  O  O49  1  0.49653483  0.28151636  0.09174369  1
  O  O50  1  0.59520886  0.50346517  0.28498153  1
  O  O51  1  0.28498153  0.59520886  0.50346517  1
  O  O52  1  0.50346517  0.28498153  0.59520886  1
  O  O53  1  0.71848364  0.31022733  0.21501847  1
  O  O54  1  0.90825631  0.90479114  0.18977267  1
  O  O55  1  0.99653483  0.59174369  0.78151636  1
  O  O56  1  0.11378299  0.33516587  0.92366685  1
  O  O57  1  0.66483413  0.08850097  0.77861711  1
  O  O58  1  0.80988386  0.88621701  0.72138289  1
  O  O59  1  0.72138289  0.80988386  0.88621701  1
  O  O60  1  0.07633315  0.69011614  0.41149903  1
  O  O61  1  0.41149903  0.07633315  0.69011614  1
  O  O62  1  0.08850097  0.77861711  0.66483413  1
  O  O63  1  0.19011614  0.57633315  0.91149903  1
  O  O64  1  0.27861711  0.58850097  0.16483413  1
  O  O65  1  0.30988386  0.22138289  0.38621701  1
  O  O66  1  0.57633315  0.91149903  0.19011614  1
  O  O67  1  0.16483413  0.27861711  0.58850097  1
  O  O68  1  0.22138289  0.38621701  0.30988386  1
  O  O69  1  0.92366685  0.11378299  0.33516587  1
  O  O70  1  0.33516587  0.92366685  0.11378299  1
  O  O71  1  0.69011614  0.41149903  0.07633315  1
  P  P72  1  0.95783230  0.66944838  0.87829393  1
  P  P73  1  0.83055162  0.78838392  0.20884556  1
  P  P74  1  0.62170607  0.29115444  0.07953836  1
  P  P75  1  0.54216770  0.42046164  0.71161608  1
  P  P76  1  0.42046164  0.71161608  0.54216770  1
  P  P77  1  0.71161608  0.54216770  0.42046164  1
  P  P78  1  0.45783230  0.37829393  0.16944838  1
  P  P79  1  0.70884556  0.28838392  0.33055162  1
  P  P80  1  0.79115444  0.12170607  0.57953836  1
  P  P81  1  0.21161608  0.92046164  0.04216770  1
  P  P82  1  0.92046164  0.04216770  0.21161608  1
  P  P83  1  0.16944838  0.45783230  0.37829393  1
  P  P84  1  0.28838392  0.33055162  0.70884556  1
  P  P85  1  0.57953836  0.79115444  0.12170607  1
  P  P86  1  0.37829393  0.16944838  0.45783230  1
  P  P87  1  0.33055162  0.70884556  0.28838392  1
  P  P88  1  0.12170607  0.57953836  0.79115444  1
  P  P89  1  0.20884556  0.83055162  0.78838392  1
  P  P90  1  0.29115444  0.07953836  0.62170607  1
  P  P91  1  0.07953836  0.62170607  0.29115444  1
  P  P92  1  0.66944838  0.87829393  0.95783230  1
  P  P93  1  0.87829393  0.95783230  0.66944838  1
  P  P94  1  0.78838392  0.20884556  0.83055162  1
  P  P95  1  0.04216770  0.21161608  0.92046164  1
  Sc  Sc96  1  0.70782363  0.70782363  0.70782363  1
  Sc  Sc97  1  0.29217637  0.50000000  0.00000000  1
  Sc  Sc98  1  0.50000000  0.00000000  0.29217637  1
  Sc  Sc99  1  0.00000000  0.29217637  0.50000000  1
  Sc  Sc100  1  0.50000000  0.00000000  0.79217637  1
  Sc  Sc101  1  0.00000000  0.79217637  0.50000000  1
  Sc  Sc102  1  0.79217637  0.50000000  0.00000000  1
  Sc  Sc103  1  0.20782363  0.20782363  0.20782363  1
