# generated using pymatgen
data_CaCoAsHO5
_symmetry_space_group_name_H-M   'P 1'
_cell_length_a   6.00421778
_cell_length_b   7.58981011
_cell_length_c   9.08435259
_cell_angle_alpha   90.00000000
_cell_angle_beta   90.00000000
_cell_angle_gamma   90.00000000
_symmetry_Int_Tables_number   1
_chemical_formula_structural   CaCoAsHO5
_chemical_formula_sum   'Ca4 Co4 As4 H4 O20'
_cell_volume   413.98187643
_cell_formula_units_Z   4
loop_
 _symmetry_equiv_pos_site_id
 _symmetry_equiv_pos_as_xyz
  1  'x, y, z'
loop_
 _atom_site_type_symbol
 _atom_site_label
 _atom_site_symmetry_multiplicity
 _atom_site_fract_x
 _atom_site_fract_y
 _atom_site_fract_z
 _atom_site_occupancy
  H  H0  1  0.51663650  0.48855105  0.02090626  1
  H  H1  1  0.01663650  0.01144895  0.97909374  1
  H  H2  1  0.48336350  0.98855105  0.47909374  1
  H  H3  1  0.98336350  0.51144895  0.52090626  1
  O  O4  1  0.50472043  0.60373575  0.07196288  1
  O  O5  1  0.00472043  0.89626425  0.92803712  1
  O  O6  1  0.49527957  0.10373575  0.42803712  1
  O  O7  1  0.99527957  0.39626425  0.57196288  1
  O  O8  1  0.25444800  0.60717610  0.79311539  1
  O  O9  1  0.75444800  0.89282390  0.20688461  1
  O  O10  1  0.74555200  0.10717610  0.70688461  1
  O  O11  1  0.24555200  0.39282390  0.29311539  1
  O  O12  1  0.50949327  0.44604023  0.55608579  1
  O  O13  1  0.00949327  0.05395977  0.44391421  1
  O  O14  1  0.49050673  0.94604023  0.94391421  1
  O  O15  1  0.99050673  0.55395977  0.05608579  1
  O  O16  1  0.90973720  0.70798716  0.43973684  1
  O  O17  1  0.40973720  0.79201284  0.56026316  1
  O  O18  1  0.09026280  0.20798716  0.06026316  1
  O  O19  1  0.59026280  0.29201284  0.93973684  1
  O  O20  1  0.76705596  0.34971989  0.26998190  1
  O  O21  1  0.26705596  0.15028011  0.73001810  1
  O  O22  1  0.23294404  0.84971989  0.23001810  1
  O  O23  1  0.73294404  0.65028011  0.76998190  1
  Ca  Ca24  1  0.52317054  0.62769309  0.32739153  1
  Ca  Ca25  1  0.02317054  0.87230691  0.67260847  1
  Ca  Ca26  1  0.47682946  0.12769309  0.17260847  1
  Ca  Ca27  1  0.97682946  0.37230691  0.82739153  1
  Co  Co28  1  0.24427476  0.74145952  0.00552582  1
  Co  Co29  1  0.74427476  0.75854048  0.99447418  1
  Co  Co30  1  0.75572524  0.24145952  0.49447418  1
  Co  Co31  1  0.25572524  0.25854048  0.50552582  1
  As  As32  1  0.48287171  0.62325958  0.67745545  1
  As  As33  1  0.98287171  0.87674042  0.32254455  1
  As  As34  1  0.51712829  0.12325958  0.82254455  1
  As  As35  1  0.01712829  0.37674042  0.17745545  1
