# generated using pymatgen
data_Nd2Fe14B
_symmetry_space_group_name_H-M   'P 1'
_cell_length_a   8.77600436
_cell_length_b   8.77600436
_cell_length_c   12.11943164
_cell_angle_alpha   90.00000000
_cell_angle_beta   90.00000000
_cell_angle_gamma   90.00000000
_symmetry_Int_Tables_number   1
_chemical_formula_structural   Nd2Fe14B
_chemical_formula_sum   'Nd8 Fe56 B4'
_cell_volume   933.41744653
_cell_formula_units_Z   4
loop_
 _symmetry_equiv_pos_site_id
 _symmetry_equiv_pos_as_xyz
  1  'x, y, z'
loop_
 _atom_site_type_symbol
 _atom_site_label
 _atom_site_symmetry_multiplicity
 _atom_site_fract_x
 _atom_site_fract_y
 _atom_site_fract_z
 _atom_site_occupancy
  B  B0  1  0.62318067  0.37681933  0.00000000  1
  B  B1  1  0.12318067  0.12318067  0.50000000  1
  B  B2  1  0.87681933  0.87681933  0.50000000  1
  B  B3  1  0.37681933  0.62318067  0.00000000  1
  Fe  Fe4  1  0.56734495  0.22482495  0.12729974  1
  Fe  Fe5  1  0.43265505  0.77517505  0.12729974  1
  Fe  Fe6  1  0.22482495  0.56734495  0.87270026  1
  Fe  Fe7  1  0.72482495  0.93265505  0.62729974  1
  Fe  Fe8  1  0.27517505  0.06734495  0.62729974  1
  Fe  Fe9  1  0.93265505  0.72482495  0.37270026  1
  Fe  Fe10  1  0.06734495  0.27517505  0.37270026  1
  Fe  Fe11  1  0.77517505  0.43265505  0.87270026  1
  Fe  Fe12  1  0.43265505  0.77517505  0.87270026  1
  Fe  Fe13  1  0.56734495  0.22482495  0.87270026  1
  Fe  Fe14  1  0.77517505  0.43265505  0.12729974  1
  Fe  Fe15  1  0.27517505  0.06734495  0.37270026  1
  Fe  Fe16  1  0.72482495  0.93265505  0.37270026  1
  Fe  Fe17  1  0.06734495  0.27517505  0.62729974  1
  Fe  Fe18  1  0.93265505  0.72482495  0.62729974  1
  Fe  Fe19  1  0.22482495  0.56734495  0.12729974  1
  Fe  Fe20  1  0.36021653  0.03678546  0.17630615  1
  Fe  Fe21  1  0.63978347  0.96321454  0.17630615  1
  Fe  Fe22  1  0.03678546  0.36021653  0.82369385  1
  Fe  Fe23  1  0.53678546  0.13978347  0.67630615  1
  Fe  Fe24  1  0.46321454  0.86021653  0.67630615  1
  Fe  Fe25  1  0.13978347  0.53678546  0.32369385  1
  Fe  Fe26  1  0.86021653  0.46321454  0.32369385  1
  Fe  Fe27  1  0.96321454  0.63978347  0.82369385  1
  Fe  Fe28  1  0.63978347  0.96321454  0.82369385  1
  Fe  Fe29  1  0.36021653  0.03678546  0.82369385  1
  Fe  Fe30  1  0.96321454  0.63978347  0.17630615  1
  Fe  Fe31  1  0.46321454  0.86021653  0.32369385  1
  Fe  Fe32  1  0.53678546  0.13978347  0.32369385  1
  Fe  Fe33  1  0.86021653  0.46321454  0.67630615  1
  Fe  Fe34  1  0.13978347  0.53678546  0.67630615  1
  Fe  Fe35  1  0.03678546  0.36021653  0.17630615  1
  Fe  Fe36  1  0.90205634  0.90205634  0.79537897  1
  Fe  Fe37  1  0.09794366  0.09794366  0.79537897  1
  Fe  Fe38  1  0.90205634  0.90205634  0.20462103  1
  Fe  Fe39  1  0.40205634  0.59794366  0.29537897  1
  Fe  Fe40  1  0.59794366  0.40205634  0.29537897  1
  Fe  Fe41  1  0.59794366  0.40205634  0.70462103  1
  Fe  Fe42  1  0.40205634  0.59794366  0.70462103  1
  Fe  Fe43  1  0.09794366  0.09794366  0.20462103  1
  Fe  Fe44  1  0.68218056  0.68218056  0.75432049  1
  Fe  Fe45  1  0.31781944  0.31781944  0.75432049  1
  Fe  Fe46  1  0.68218056  0.68218056  0.24567951  1
  Fe  Fe47  1  0.18218056  0.81781944  0.25432049  1
  Fe  Fe48  1  0.81781944  0.18218056  0.25432049  1
  Fe  Fe49  1  0.81781944  0.18218056  0.74567951  1
  Fe  Fe50  1  0.18218056  0.81781944  0.74567951  1
  Fe  Fe51  1  0.31781944  0.31781944  0.24567951  1
  Fe  Fe52  1  0.00000000  0.00000000  0.61507901  1
  Fe  Fe53  1  0.50000000  0.50000000  0.11507901  1
  Fe  Fe54  1  0.50000000  0.50000000  0.88492099  1
  Fe  Fe55  1  0.00000000  0.00000000  0.38492099  1
  Fe  Fe56  1  0.50000000  0.00000000  0.00000000  1
  Fe  Fe57  1  0.50000000  0.00000000  0.50000000  1
  Fe  Fe58  1  0.00000000  0.50000000  0.50000000  1
  Fe  Fe59  1  0.00000000  0.50000000  0.00000000  1
  Nd  Nd60  1  0.85727523  0.14272477  0.00000000  1
  Nd  Nd61  1  0.35727523  0.35727523  0.50000000  1
  Nd  Nd62  1  0.64272477  0.64272477  0.50000000  1
  Nd  Nd63  1  0.14272477  0.85727523  0.00000000  1
  Nd  Nd64  1  0.73157531  0.73157531  0.00000000  1
  Nd  Nd65  1  0.76842469  0.23157531  0.50000000  1
  Nd  Nd66  1  0.23157531  0.76842469  0.50000000  1
  Nd  Nd67  1  0.26842469  0.26842469  0.00000000  1
