# generated using pymatgen
data_Dy(NiP)2
_symmetry_space_group_name_H-M   'P 1'
_cell_length_a   3.87065705
_cell_length_b   3.87065706
_cell_length_c   5.43082523
_cell_angle_alpha   110.87681473
_cell_angle_beta   110.87681475
_cell_angle_gamma   89.99999996
_symmetry_Int_Tables_number   1
_chemical_formula_structural   Dy(NiP)2
_chemical_formula_sum   'Dy1 Ni2 P2'
_cell_volume   70.27632624
_cell_formula_units_Z   1
loop_
 _symmetry_equiv_pos_site_id
 _symmetry_equiv_pos_as_xyz
  1  'x, y, z'
loop_
 _atom_site_type_symbol
 _atom_site_label
 _atom_site_symmetry_multiplicity
 _atom_site_fract_x
 _atom_site_fract_y
 _atom_site_fract_z
 _atom_site_occupancy
  P  P0  1  0.62285350  0.62285350  0.24570701  1
  P  P1  1  0.37714650  0.37714650  0.75429299  1
  Ni  Ni2  1  0.75000000  0.25000000  0.50000000  1
  Ni  Ni3  1  0.25000000  0.75000000  0.50000000  1
  Dy  Dy4  1  0.00000000  0.00000000  0.00000000  1
