# generated using pymatgen
data_Ba6Cu34S27
_symmetry_space_group_name_H-M   'P 1'
_cell_length_a   12.50998108
_cell_length_b   12.57160653
_cell_length_c   12.66805864
_cell_angle_alpha   114.44321971
_cell_angle_beta   114.16846855
_cell_angle_gamma   114.09704865
_symmetry_Int_Tables_number   1
_chemical_formula_structural   Ba6Cu34S27
_chemical_formula_sum   'Ba6 Cu34 S27'
_cell_volume   1188.92386475
_cell_formula_units_Z   1
loop_
 _symmetry_equiv_pos_site_id
 _symmetry_equiv_pos_as_xyz
  1  'x, y, z'
loop_
 _atom_site_type_symbol
 _atom_site_label
 _atom_site_symmetry_multiplicity
 _atom_site_fract_x
 _atom_site_fract_y
 _atom_site_fract_z
 _atom_site_occupancy
  Ba  Ba0  1  0.04347046  0.24598390  0.30326984  1
  Ba  Ba1  1  0.69945112  0.96150979  0.73982331  1
  Ba  Ba2  1  0.74113845  0.69006708  0.96815882  1
  Ba  Ba3  1  0.25581622  0.30598677  0.03566533  1
  Ba  Ba4  1  0.29421375  0.04161270  0.25423925  1
  Ba  Ba5  1  0.95970852  0.74984362  0.69078294  1
  Cu  Cu6  1  0.14271053  0.61887065  0.94559482  1
  Cu  Cu7  1  0.06054261  0.85743093  0.38401316  1
  Cu  Cu8  1  0.37669393  0.91727430  0.98877862  1
  Cu  Cu9  1  0.10689730  0.61751470  0.51930443  1
  Cu  Cu10  1  0.15190097  0.44608803  0.69218827  1
  Cu  Cu11  1  0.01226995  0.62220708  0.08460876  1
  Cu  Cu12  1  0.31344981  0.85614312  0.56105067  1
  Cu  Cu13  1  0.39516342  0.75018907  0.80320953  1
  Cu  Cu14  1  0.38437669  0.48488222  0.89607256  1
  Cu  Cu15  1  0.08947100  0.01713727  0.62197993  1
  Cu  Cu16  1  0.20426017  0.60377740  0.24410742  1
  Cu  Cu17  1  0.27232583  0.21216363  0.60365563  1
  Cu  Cu18  1  0.46782310  0.61816844  0.66030725  1
  Cu  Cu19  1  0.47840043  0.89128900  0.38131966  1
  Cu  Cu20  1  0.35524524  0.54105167  0.38432031  1
  Cu  Cu21  1  0.38337311  0.06013131  0.85808227  1
  Cu  Cu22  1  0.56804068  0.31126468  0.85775464  1
  Cu  Cu23  1  0.43022910  0.68897197  0.14000248  1
  Cu  Cu24  1  0.61499142  0.94035213  0.14263537  1
  Cu  Cu25  1  0.65302653  0.46583287  0.62339338  1
  Cu  Cu26  1  0.51990927  0.10896446  0.61520443  1
  Cu  Cu27  1  0.53929091  0.39053728  0.34841693  1
  Cu  Cu28  1  0.72737200  0.78765618  0.39626970  1
  Cu  Cu29  1  0.79629023  0.39508100  0.75624448  1
  Cu  Cu30  1  0.90980695  0.98175884  0.37659489  1
  Cu  Cu31  1  0.61302840  0.51262488  0.10233810  1
  Cu  Cu32  1  0.60380479  0.25051031  0.19794923  1
  Cu  Cu33  1  0.68745150  0.14418239  0.43760109  1
  Cu  Cu34  1  0.98718685  0.37671012  0.91534212  1
  Cu  Cu35  1  0.84867659  0.55324733  0.30782776  1
  Cu  Cu36  1  0.89354372  0.38084810  0.47949119  1
  Cu  Cu37  1  0.62230043  0.08327086  0.01045775  1
  Cu  Cu38  1  0.94126976  0.14324982  0.61529468  1
  Cu  Cu39  1  0.85681766  0.37827694  0.05309690  1
  S  S40  1  0.11699658  0.82937131  0.56034316  1
  S  S41  1  0.15636984  0.64499676  0.73147306  1
  S  S42  1  0.16716778  0.43753693  0.87985606  1
  S  S43  1  0.26518023  0.83969106  0.35614733  1
  S  S44  1  0.31717419  0.66112814  0.53928911  1
  S  S45  1  0.01623726  0.33114692  0.07584727  1
  S  S46  1  0.33570590  0.45418531  0.68279659  1
  S  S47  1  0.66667518  0.92155354  0.98837731  1
  S  S48  1  0.35816607  0.26810393  0.83605143  1
  S  S49  1  0.07064375  0.00832408  0.33068637  1
  S  S50  1  0.43574155  0.88779000  0.17094734  1
  S  S51  1  0.47477360  0.69414902  0.34513357  1
  S  S52  1  0.32801384  0.33035936  0.31841282  1
  S  S53  1  0.69391786  0.69178458  0.70391604  1
  S  S54  1  0.52424839  0.30676092  0.65362050  1
  S  S55  1  0.92896875  0.92698694  0.93632960  1
  S  S56  1  0.56175091  0.11279356  0.82844249  1
  S  S57  1  0.92917347  0.99163607  0.66818828  1
  S  S58  1  0.64052127  0.73088674  0.16417263  1
  S  S59  1  0.33018403  0.07755551  0.01127041  1
  S  S60  1  0.66531301  0.54608767  0.31681201  1
  S  S61  1  0.98300091  0.66551858  0.92274543  1
  S  S62  1  0.68491211  0.34119251  0.46153024  1
  S  S63  1  0.73383256  0.15980172  0.64154119  1
  S  S64  1  0.83226762  0.55955104  0.11955123  1
  S  S65  1  0.84293431  0.35351874  0.26769814  1
  S  S66  1  0.88388960  0.17042626  0.43787249  1
