# generated using pymatgen
data_Ca3(AsO4)2
_symmetry_space_group_name_H-M   'P 1'
_cell_length_a   14.25576981
_cell_length_b   14.25577012
_cell_length_c   14.25576980
_cell_angle_alpha   45.07982004
_cell_angle_beta   45.07981877
_cell_angle_gamma   45.07982013
_symmetry_Int_Tables_number   1
_chemical_formula_structural   Ca3(AsO4)2
_chemical_formula_sum   'Ca21 As14 O56'
_cell_volume   1322.36395975
_cell_formula_units_Z   7
loop_
 _symmetry_equiv_pos_site_id
 _symmetry_equiv_pos_as_xyz
  1  'x, y, z'
loop_
 _atom_site_type_symbol
 _atom_site_label
 _atom_site_symmetry_multiplicity
 _atom_site_fract_x
 _atom_site_fract_y
 _atom_site_fract_z
 _atom_site_occupancy
  As  As0  1  0.00075325  0.00075325  0.00075325  1
  As  As1  1  0.03839629  0.08429836  0.58237329  1
  As  As2  1  0.08429836  0.58237329  0.03839629  1
  As  As3  1  0.58237329  0.03839629  0.08429836  1
  As  As4  1  0.08316409  0.58334320  0.53896377  1
  As  As5  1  0.53896377  0.08316409  0.58334320  1
  As  As6  1  0.58334320  0.53896377  0.08316409  1
  As  As7  1  0.49900727  0.49900727  0.49900727  1
  As  As8  1  0.46442793  0.93209733  0.50252658  1
  As  As9  1  0.50252658  0.46442793  0.93209733  1
  As  As10  1  0.93209733  0.50252658  0.46442793  1
  As  As11  1  0.44452090  0.96032605  0.99485805  1
  As  As12  1  0.96032605  0.99485805  0.44452090  1
  As  As13  1  0.99485805  0.44452090  0.96032605  1
  Ca  Ca14  1  0.26662182  0.26662182  0.26662182  1
  Ca  Ca15  1  0.19718829  0.19782672  0.61140672  1
  Ca  Ca16  1  0.19782672  0.61140672  0.19718829  1
  Ca  Ca17  1  0.61140672  0.19718829  0.19782672  1
  Ca  Ca18  1  0.27228488  0.31808962  0.72475793  1
  Ca  Ca19  1  0.31808962  0.72475793  0.27228488  1
  Ca  Ca20  1  0.11022064  0.69989853  0.69784847  1
  Ca  Ca21  1  0.72475793  0.27228488  0.31808962  1
  Ca  Ca22  1  0.32043402  0.91889155  0.35971379  1
  Ca  Ca23  1  0.35971379  0.32043402  0.91889155  1
  Ca  Ca24  1  0.69784847  0.11022064  0.69989853  1
  Ca  Ca25  1  0.69989853  0.69784847  0.11022064  1
  Ca  Ca26  1  0.20342550  0.82485940  0.80068720  1
  Ca  Ca27  1  0.91889155  0.35971379  0.32043402  1
  Ca  Ca28  1  0.57566649  0.57566649  0.57566649  1
  Ca  Ca29  1  0.80068720  0.20342550  0.82485940  1
  Ca  Ca30  1  0.82485940  0.80068720  0.20342550  1
  Ca  Ca31  1  0.41753564  0.82821024  0.85963046  1
  Ca  Ca32  1  0.82821024  0.85963046  0.41753564  1
  Ca  Ca33  1  0.85963046  0.41753564  0.82821024  1
  Ca  Ca34  1  0.76750830  0.76750830  0.76750830  1
  O  O35  1  0.12500189  0.15046601  0.39502546  1
  O  O36  1  0.15046601  0.39502546  0.12500189  1
  O  O37  1  0.39502546  0.12500189  0.15046601  1
  O  O38  1  0.08328109  0.09861764  0.65508005  1
  O  O39  1  0.09861764  0.65508005  0.08328109  1
  O  O40  1  0.11695242  0.39337142  0.40247615  1
  O  O41  1  0.00641422  0.16747979  0.86331338  1
  O  O42  1  0.39337142  0.40247615  0.11695242  1
  O  O43  1  0.40247615  0.11695242  0.39337142  1
  O  O44  1  0.65508005  0.08328109  0.09861764  1
  O  O45  1  0.16747979  0.86331338  0.00641422  1
  O  O46  1  0.14875674  0.40168397  0.59499041  1
  O  O47  1  0.12694042  0.68900767  0.35551924  1
  O  O48  1  0.01029409  0.37225400  0.89024792  1
  O  O49  1  0.40168397  0.59499041  0.14875674  1
  O  O50  1  0.35551924  0.12694042  0.68900767  1
  O  O51  1  0.59499041  0.14875674  0.40168397  1
  O  O52  1  0.15441947  0.59534528  0.58732687  1
  O  O53  1  0.86331338  0.00641422  0.16747979  1
  O  O54  1  0.37225400  0.89024792  0.01029409  1
  O  O55  1  0.68900767  0.35551924  0.12694042  1
  O  O56  1  0.14640482  0.91679789  0.37253443  1
  O  O57  1  0.16933766  0.43175597  0.86840544  1
  O  O58  1  0.45474397  0.45474397  0.45474397  1
  O  O59  1  0.58732687  0.15441947  0.59534528  1
  O  O60  1  0.59534528  0.58732687  0.15441947  1
  O  O61  1  0.37253443  0.14640482  0.91679789  1
  O  O62  1  0.43175597  0.86840544  0.16933766  1
  O  O63  1  0.89024792  0.01029409  0.37225400  1
  O  O64  1  0.10179789  0.90176902  0.64598674  1
  O  O65  1  0.37270114  0.66134314  0.52027838  1
  O  O66  1  0.19035634  0.62927221  0.85467525  1
  O  O67  1  0.52027838  0.37270114  0.66134314  1
  O  O68  1  0.66134314  0.52027838  0.37270114  1
  O  O69  1  0.91679789  0.37253443  0.14640482  1
  O  O70  1  0.86840544  0.16933766  0.43175597  1
  O  O71  1  0.64598674  0.10179789  0.90176902  1
  O  O72  1  0.62927221  0.85467525  0.19035634  1
  O  O73  1  0.41787422  0.83054589  0.52524444  1
  O  O74  1  0.52524444  0.41787422  0.83054589  1
  O  O75  1  0.90176902  0.64598674  0.10179789  1
  O  O76  1  0.85467525  0.19035634  0.62927221  1
  O  O77  1  0.43001101  0.64962060  0.85912335  1
  O  O78  1  0.36148786  0.93472750  0.67108869  1
  O  O79  1  0.83054589  0.52524444  0.41787422  1
  O  O80  1  0.64962060  0.85912335  0.43001101  1
  O  O81  1  0.67108869  0.36148786  0.93472750  1
  O  O82  1  0.85912335  0.43001101  0.64962060  1
  O  O83  1  0.93472750  0.67108869  0.36148786  1
  O  O84  1  0.62518194  0.89598867  0.65045228  1
  O  O85  1  0.65045228  0.62518194  0.89598867  1
  O  O86  1  0.89598867  0.65045228  0.62518194  1
  O  O87  1  0.63184408  0.90052813  0.89460597  1
  O  O88  1  0.89460597  0.63184408  0.90052813  1
  O  O89  1  0.90052813  0.89460597  0.63184408  1
  O  O90  1  0.95528690  0.95528690  0.95528690  1
