# generated using pymatgen
data_NbSe3
_symmetry_space_group_name_H-M   'P 1'
_cell_length_a   3.51524842
_cell_length_b   10.74946257
_cell_length_c   16.05088379
_cell_angle_alpha   110.73497038
_cell_angle_beta   90.00000000
_cell_angle_gamma   90.00000000
_symmetry_Int_Tables_number   1
_chemical_formula_structural   NbSe3
_chemical_formula_sum   'Nb6 Se18'
_cell_volume   567.23011175
_cell_formula_units_Z   6
loop_
 _symmetry_equiv_pos_site_id
 _symmetry_equiv_pos_as_xyz
  1  'x, y, z'
loop_
 _atom_site_type_symbol
 _atom_site_label
 _atom_site_symmetry_multiplicity
 _atom_site_fract_x
 _atom_site_fract_y
 _atom_site_fract_z
 _atom_site_occupancy
  Se  Se0  1  0.75000000  0.31902272  0.57613366  1
  Se  Se1  1  0.25000000  0.68097728  0.42386634  1
  Se  Se2  1  0.75000000  0.95839579  0.40705149  1
  Se  Se3  1  0.25000000  0.04160421  0.59294851  1
  Se  Se4  1  0.75000000  0.31778880  0.42557393  1
  Se  Se5  1  0.25000000  0.68221120  0.57442607  1
  Se  Se6  1  0.25000000  0.38112535  0.93104999  1
  Se  Se7  1  0.75000000  0.61887465  0.06895001  1
  Se  Se8  1  0.25000000  0.73344075  0.92130316  1
  Se  Se9  1  0.75000000  0.26655925  0.07869684  1
  Se  Se10  1  0.25000000  0.55953818  0.76729923  1
  Se  Se11  1  0.75000000  0.44046182  0.23270077  1
  Se  Se12  1  0.25000000  0.90087798  0.09459809  1
  Se  Se13  1  0.75000000  0.09912202  0.90540191  1
  Se  Se14  1  0.25000000  0.07475236  0.27986361  1
  Se  Se15  1  0.75000000  0.92524764  0.72013639  1
  Se  Se16  1  0.25000000  0.71596402  0.24965602  1
  Se  Se17  1  0.75000000  0.28403598  0.75034398  1
  Nb  Nb18  1  0.75000000  0.84303023  0.53734591  1
  Nb  Nb19  1  0.25000000  0.15696977  0.46265409  1
  Nb  Nb20  1  0.75000000  0.87494569  0.21108623  1
  Nb  Nb21  1  0.25000000  0.12505431  0.78891377  1
  Nb  Nb22  1  0.75000000  0.53234044  0.88448658  1
  Nb  Nb23  1  0.25000000  0.46765956  0.11551342  1
