# generated using pymatgen
data_Zr3TlF15
_symmetry_space_group_name_H-M   'P 1'
_cell_length_a   8.11996578
_cell_length_b   8.12741100
_cell_length_c   16.26271956
_cell_angle_alpha   100.02274818
_cell_angle_beta   99.95406969
_cell_angle_gamma   99.91618487
_symmetry_Int_Tables_number   1
_chemical_formula_structural   Zr3TlF15
_chemical_formula_sum   'Zr12 Tl4 F60'
_cell_volume   1018.06576174
_cell_formula_units_Z   4
loop_
 _symmetry_equiv_pos_site_id
 _symmetry_equiv_pos_as_xyz
  1  'x, y, z'
loop_
 _atom_site_type_symbol
 _atom_site_label
 _atom_site_symmetry_multiplicity
 _atom_site_fract_x
 _atom_site_fract_y
 _atom_site_fract_z
 _atom_site_occupancy
  F  F0  1  0.02666831  0.79011745  0.89450683  1
  F  F1  1  0.03339419  0.47044582  0.87233707  1
  F  F2  1  0.05468798  0.15819532  0.84240941  1
  F  F3  1  0.03102177  0.78918561  0.39216929  1
  F  F4  1  0.17074158  0.65857147  0.77481022  1
  F  F5  1  0.25032688  0.96682111  0.76604291  1
  F  F6  1  0.03688954  0.46756101  0.37806182  1
  F  F7  1  0.22144046  0.21693178  0.99612224  1
  F  F8  1  0.21227862  0.97207163  0.60513011  1
  F  F9  1  0.32293904  0.95134056  0.92107742  1
  F  F10  1  0.15650157  0.67288238  0.52542394  1
  F  F11  1  0.05256322  0.15761679  0.33525709  1
  F  F12  1  0.33719801  0.44788237  0.91487554  1
  F  F13  1  0.17663197  0.65234213  0.27469485  1
  F  F14  1  0.28517366  0.29070618  0.76402165  1
  F  F15  1  0.28894153  0.52855281  0.64336755  1
  F  F16  1  0.24994323  0.96317759  0.26913658  1
  F  F17  1  0.21113608  0.21470095  0.48537693  1
  F  F18  1  0.22221854  0.98957423  0.11211082  1
  F  F19  1  0.32973183  0.94933694  0.42380807  1
  F  F20  1  0.15979432  0.68318934  0.02822381  1
  F  F21  1  0.46814834  0.71113468  0.85416318  1
  F  F22  1  0.44989138  0.82907166  0.67162277  1
  F  F23  1  0.34549024  0.44486136  0.40771828  1
  F  F24  1  0.28026771  0.27627635  0.25531954  1
  F  F25  1  0.27821326  0.50962126  0.14075457  1
  F  F26  1  0.46556033  0.74502480  0.51669132  1
  F  F27  1  0.52950807  0.24987998  0.97488010  1
  F  F28  1  0.47390258  0.71489872  0.35611465  1
  F  F29  1  0.55010873  0.16966165  0.82179953  1
  F  F30  1  0.44361858  0.81614217  0.17053943  1
  F  F31  1  0.52808746  0.28808818  0.64478715  1
  F  F32  1  0.46405054  0.75247216  0.01431007  1
  F  F33  1  0.53367208  0.24904957  0.48325078  1
  F  F34  1  0.70807171  0.46981611  0.85589084  1
  F  F35  1  0.71215721  0.71047997  0.73566174  1
  F  F36  1  0.65665323  0.55024420  0.58578045  1
  F  F37  1  0.54842623  0.17455679  0.32811660  1
  F  F38  1  0.50603776  0.27531311  0.14455930  1
  F  F39  1  0.86284233  0.32736592  0.97082255  1
  F  F40  1  0.67030662  0.05000825  0.57842764  1
  F  F41  1  0.78103654  0.02552261  0.89312055  1
  F  F42  1  0.79049118  0.78886370  0.51508495  1
  F  F43  1  0.75672011  0.03322541  0.73260986  1
  F  F44  1  0.71082434  0.47321944  0.35949048  1
  F  F45  1  0.71995554  0.71604796  0.23708224  1
  F  F46  1  0.82864629  0.34388823  0.72419219  1
  F  F47  1  0.63576730  0.55509824  0.08674673  1
  F  F48  1  0.94990185  0.84271602  0.66424969  1
  F  F49  1  0.84453326  0.32775156  0.47574562  1
  F  F50  1  0.66900876  0.04043588  0.07712132  1
  F  F51  1  0.78736201  0.02850174  0.39381103  1
  F  F52  1  0.79036742  0.78002647  0.01373139  1
  F  F53  1  0.96615560  0.53368071  0.62484775  1
  F  F54  1  0.74418610  0.03393431  0.23345309  1
  F  F55  1  0.83056896  0.34469983  0.23045350  1
  F  F56  1  0.97139640  0.21020148  0.60632227  1
  F  F57  1  0.95241429  0.85627201  0.16360993  1
  F  F58  1  0.97043800  0.54912813  0.12578342  1
  F  F59  1  0.99424160  0.21163960  0.11243014  1
  Tl  Tl60  1  0.24975296  0.25012225  0.62472616  1
  Tl  Tl61  1  0.74748405  0.74799825  0.87473036  1
  Tl  Tl62  1  0.75238426  0.75017622  0.37620592  1
  Tl  Tl63  1  0.74996884  0.32203717  0.08824934  1
  Zr  Zr64  1  0.24824779  0.67998323  0.90984672  1
  Zr  Zr65  1  0.17915222  0.75023502  0.66017641  1
  Zr  Zr66  1  0.32456968  0.17960306  0.87265284  1
  Zr  Zr67  1  0.25169732  0.67828756  0.41096446  1
  Zr  Zr68  1  0.17559664  0.75247766  0.16206530  1
  Zr  Zr69  1  0.32144161  0.17620399  0.37626772  1
  Zr  Zr70  1  0.25035736  0.25063040  0.12519923  1
  Zr  Zr71  1  0.67942787  0.82048167  0.62524840  1
  Zr  Zr72  1  0.82087270  0.24959476  0.83903917  1
  Zr  Zr73  1  0.74969581  0.32062334  0.58980467  1
  Zr  Zr74  1  0.67785790  0.81901456  0.12370252  1
  Zr  Zr75  1  0.82224073  0.25250715  0.34105998  1
