# generated using pymatgen
data_Ta27S50
_symmetry_space_group_name_H-M   'P 1'
_cell_length_a   32.45461962
_cell_length_b   12.54799447
_cell_length_c   38.20987899
_cell_angle_alpha   22.14698096
_cell_angle_beta   25.02683461
_cell_angle_gamma   14.94153460
_symmetry_Int_Tables_number   1
_chemical_formula_structural   Ta27S50
_chemical_formula_sum   'Ta27 S50'
_cell_volume   1502.38988729
_cell_formula_units_Z   1
loop_
 _symmetry_equiv_pos_site_id
 _symmetry_equiv_pos_as_xyz
  1  'x, y, z'
loop_
 _atom_site_type_symbol
 _atom_site_label
 _atom_site_symmetry_multiplicity
 _atom_site_fract_x
 _atom_site_fract_y
 _atom_site_fract_z
 _atom_site_occupancy
  S  S0  1  0.19498282  0.24433775  0.04912934  1
  S  S1  1  0.17771141  0.43086203  0.08450262  1
  S  S2  1  0.14952947  0.25013916  0.25034179  1
  S  S3  1  0.38940328  0.24632465  0.04946427  1
  S  S4  1  0.14363251  0.42263209  0.28136713  1
  S  S5  1  0.38457614  0.41030399  0.08316104  1
  S  S6  1  0.10615565  0.26232479  0.44851123  1
  S  S7  1  0.35040227  0.25241461  0.24839221  1
  S  S8  1  0.58939605  0.26241876  0.04907663  1
  S  S9  1  0.10815678  0.40507384  0.48308202  1
  S  S10  1  0.34227448  0.40985865  0.28693401  1
  S  S11  1  0.58066518  0.39783334  0.09533292  1
  S  S12  1  0.07430018  0.24663799  0.64881348  1
  S  S13  1  0.31363947  0.24214360  0.45247434  1
  S  S14  1  0.54861611  0.23960741  0.25527802  1
  S  S15  1  0.78917520  0.24917561  0.04910994  1
  S  S16  1  0.06007508  0.43084925  0.68300259  1
  S  S17  1  0.29047710  0.46951247  0.48000103  1
  S  S18  1  0.54386590  0.42688413  0.28085479  1
  S  S19  1  0.03286258  0.24473585  0.84848162  1
  S  S20  1  0.78288393  0.41572937  0.08243533  1
  S  S21  1  0.27094800  0.24414649  0.64923186  1
  S  S22  1  0.51014162  0.24005001  0.45081235  1
  S  S23  1  0.74956317  0.25417577  0.24843319  1
  S  S24  1  0.02088644  0.42571166  0.88244505  1
  S  S25  1  0.98501922  0.27055395  0.04863921  1
  S  S26  1  0.26256033  0.42190699  0.68127700  1
  S  S27  1  0.50359612  0.41262142  0.48322753  1
  S  S28  1  0.74366850  0.40705453  0.28673593  1
  S  S29  1  0.22645495  0.26478800  0.84749795  1
  S  S30  1  0.98907402  0.40154906  0.08456405  1
  S  S31  1  0.46971855  0.26322944  0.64827682  1
  S  S32  1  0.70492305  0.26275201  0.45262104  1
  S  S33  1  0.95050544  0.24900100  0.25001386  1
  S  S34  1  0.22574125  0.40575272  0.88550524  1
  S  S35  1  0.46254244  0.39103143  0.69573365  1
  S  S36  1  0.71978994  0.39502360  0.48067807  1
  S  S37  1  0.94481959  0.41964774  0.28139700  1
  S  S38  1  0.43304368  0.23857304  0.85314746  1
  S  S39  1  0.66946755  0.24489268  0.65148406  1
  S  S40  1  0.91372583  0.24149064  0.44923566  1
  S  S41  1  0.40937455  0.47536461  0.87865721  1
  S  S42  1  0.66312383  0.42541483  0.68055480  1
  S  S43  1  0.89907916  0.42981413  0.48271701  1
  S  S44  1  0.62923252  0.24869848  0.84873304  1
  S  S45  1  0.86497512  0.27047783  0.64804329  1
  S  S46  1  0.62575788  0.40209387  0.88508397  1
  S  S47  1  0.86862903  0.39959669  0.68563329  1
  S  S48  1  0.82706127  0.26004305  0.85185187  1
  S  S49  1  0.83677318  0.40405679  0.87954527  1
  Ta  Ta50  1  0.00262994  0.00322442  0.99647929  1
  Ta  Ta51  1  0.20058660  0.00421545  0.99770486  1
  Ta  Ta52  1  0.16302442  0.99250281  0.20046217  1
  Ta  Ta53  1  0.40045613  0.00697474  0.00063631  1
  Ta  Ta54  1  0.11710864  0.01075004  0.39934275  1
  Ta  Ta55  1  0.36096597  0.98964415  0.20236426  1
  Ta  Ta56  1  0.59850397  0.00079967  -0.00011421  1
  Ta  Ta57  1  0.07735847  0.01118838  0.59807467  1
  Ta  Ta58  1  0.31898695  0.00063260  0.39968513  1
  Ta  Ta59  1  0.55968372  0.99235430  0.20328701  1
  Ta  Ta60  1  0.79813138  0.01084271  0.00120627  1
  Ta  Ta61  1  0.04423270  0.99761406  0.79822717  1
  Ta  Ta62  1  0.28123417  0.00286062  0.60136213  1
  Ta  Ta63  1  0.52077739  0.00391363  0.40148614  1
  Ta  Ta64  1  0.75764837  0.99669737  0.20286356  1
  Ta  Ta65  1  0.23838524  0.00273318  0.80030841  1
  Ta  Ta66  1  0.47914315  0.00052522  0.60014966  1
  Ta  Ta67  1  0.72137690  0.99459443  0.39980308  1
  Ta  Ta68  1  0.95641562  0.00697773  0.20100759  1
  Ta  Ta69  1  0.43717903  0.99846754  0.80274996  1
  Ta  Ta70  1  0.68012702  0.00479914  0.60142002  1
  Ta  Ta71  1  0.92114745  0.99983014  0.39959206  1
  Ta  Ta72  1  0.48768133  0.81401018  0.56534908  1
  Ta  Ta73  1  0.63727356  0.00696658  0.80254947  1
  Ta  Ta74  1  0.88262199  0.99983540  0.59802988  1
  Ta  Ta75  1  0.84234130  0.99473852  0.79923744  1
  Ta  Ta76  1  0.60611281  0.82019518  0.96465276  1
