# generated using pymatgen
data_YZr3F15
_symmetry_space_group_name_H-M   'P 1'
_cell_length_a   8.21668886
_cell_length_b   8.22261180
_cell_length_c   16.43745773
_cell_angle_alpha   100.22879262
_cell_angle_beta   100.20026750
_cell_angle_gamma   100.18870334
_symmetry_Int_Tables_number   1
_chemical_formula_structural   YZr3F15
_chemical_formula_sum   'Y4 Zr12 F60'
_cell_volume   1050.45477798
_cell_formula_units_Z   4
loop_
 _symmetry_equiv_pos_site_id
 _symmetry_equiv_pos_as_xyz
  1  'x, y, z'
loop_
 _atom_site_type_symbol
 _atom_site_label
 _atom_site_symmetry_multiplicity
 _atom_site_fract_x
 _atom_site_fract_y
 _atom_site_fract_z
 _atom_site_occupancy
  F  F0  1  0.00610808  0.77406253  0.88736425  1
  F  F1  1  0.03527738  0.46610347  0.87912351  1
  F  F2  1  0.03853353  0.15303237  0.84008100  1
  F  F3  1  0.00415801  0.78163182  0.38923854  1
  F  F4  1  0.18730664  0.65160711  0.77873728  1
  F  F5  1  0.24482398  0.95386451  0.76319876  1
  F  F6  1  0.02667704  0.45471999  0.36835000  1
  F  F7  1  0.31299901  0.93515098  0.92391717  1
  F  F8  1  0.21841304  0.22198625  0.99866429  1
  F  F9  1  0.22337763  0.99261055  0.61143616  1
  F  F10  1  0.15054307  0.68609191  0.53292789  1
  F  F11  1  0.05378658  0.15278958  0.34266043  1
  F  F12  1  0.34515698  0.46032520  0.90863217  1
  F  F13  1  0.27602517  0.28021274  0.75106749  1
  F  F14  1  0.27796451  0.50840926  0.63995812  1
  F  F15  1  0.17769657  0.65464920  0.26786806  1
  F  F16  1  0.25198318  0.96730240  0.26793067  1
  F  F17  1  0.31816365  0.96098430  0.42256332  1
  F  F18  1  0.22134287  0.22515817  0.49551502  1
  F  F19  1  0.22316100  0.99366805  0.11123670  1
  F  F20  1  0.15040084  0.68513759  0.02646959  1
  F  F21  1  0.49393742  0.72359798  0.85992664  1
  F  F22  1  0.44730173  0.81357717  0.67421290  1
  F  F23  1  0.34813787  0.43616121  0.40670473  1
  F  F24  1  0.27583066  0.27553183  0.25386262  1
  F  F25  1  0.27644455  0.50600283  0.13669727  1
  F  F26  1  0.54516616  0.25291231  0.98594863  1
  F  F27  1  0.47149233  0.75277094  0.52260906  1
  F  F28  1  0.56547010  0.18397820  0.82494726  1
  F  F29  1  0.50471895  0.27636370  0.64024290  1
  F  F30  1  0.49528105  0.72363630  0.35975710  1
  F  F31  1  0.43452990  0.81602180  0.17505274  1
  F  F32  1  0.52850767  0.24722906  0.47739094  1
  F  F33  1  0.45483384  0.74708769  0.01405137  1
  F  F34  1  0.72355545  0.49399717  0.86330273  1
  F  F35  1  0.72416934  0.72446817  0.74613738  1
  F  F36  1  0.65186213  0.56383879  0.59329527  1
  F  F37  1  0.55269827  0.18642283  0.32578710  1
  F  F38  1  0.50606258  0.27640202  0.14007336  1
  F  F39  1  0.84959916  0.31486241  0.97353041  1
  F  F40  1  0.77683900  0.00633195  0.88876330  1
  F  F41  1  0.77865713  0.77484183  0.50448498  1
  F  F42  1  0.68183635  0.03901570  0.57743668  1
  F  F43  1  0.74801682  0.03269760  0.73206933  1
  F  F44  1  0.82230343  0.34535080  0.73213194  1
  F  F45  1  0.72203549  0.49159074  0.36004188  1
  F  F46  1  0.72397483  0.71978726  0.24893251  1
  F  F47  1  0.65484302  0.53967480  0.09136783  1
  F  F48  1  0.94621342  0.84721042  0.65733957  1
  F  F49  1  0.84945693  0.31390809  0.46707211  1
  F  F50  1  0.77662237  0.00738945  0.38856384  1
  F  F51  1  0.78158696  0.77801375  0.00133571  1
  F  F52  1  0.68700099  0.06484902  0.07608283  1
  F  F53  1  0.97332296  0.54528001  0.63165000  1
  F  F54  1  0.75517602  0.04613549  0.23680124  1
  F  F55  1  0.81269336  0.34839289  0.22126272  1
  F  F56  1  0.99584199  0.21836818  0.61076146  1
  F  F57  1  0.96146647  0.84696763  0.15991900  1
  F  F58  1  0.96472262  0.53389653  0.12087649  1
  F  F59  1  0.99389192  0.22593747  0.11263575  1
  Y  Y60  1  0.32331818  0.17732611  0.87447861  1
  Y  Y61  1  0.24930687  0.67793415  0.41117893  1
  Y  Y62  1  0.75069313  0.32206585  0.58882107  1
  Y  Y63  1  0.67668182  0.82267389  0.12552139  1
  Zr  Zr64  1  0.24839472  0.67665551  0.91238475  1
  Zr  Zr65  1  0.17669281  0.74877603  0.66233528  1
  Zr  Zr66  1  0.25006996  0.24937908  0.62399761  1
  Zr  Zr67  1  0.17599541  0.75027165  0.16084724  1
  Zr  Zr68  1  0.32339759  0.17736472  0.37439540  1
  Zr  Zr69  1  0.25120602  0.25041377  0.12534430  1
  Zr  Zr70  1  0.74879398  0.74958623  0.87465570  1
  Zr  Zr71  1  0.67660241  0.82263528  0.62560460  1
  Zr  Zr72  1  0.82400459  0.24972835  0.83915276  1
  Zr  Zr73  1  0.74993004  0.75062092  0.37600239  1
  Zr  Zr74  1  0.82330719  0.25122397  0.33766472  1
  Zr  Zr75  1  0.75160528  0.32334449  0.08761525  1
