# generated using pymatgen
data_Al23B50
_symmetry_space_group_name_H-M   'P 1'
_cell_length_a   15.00493097
_cell_length_b   13.74513560
_cell_length_c   6.11670734
_cell_angle_alpha   81.19809879
_cell_angle_beta   42.24885719
_cell_angle_gamma   108.78649897
_symmetry_Int_Tables_number   1
_chemical_formula_structural   Al23B50
_chemical_formula_sum   'Al23 B50'
_cell_volume   633.25758366
_cell_formula_units_Z   1
loop_
 _symmetry_equiv_pos_site_id
 _symmetry_equiv_pos_as_xyz
  1  'x, y, z'
loop_
 _atom_site_type_symbol
 _atom_site_label
 _atom_site_symmetry_multiplicity
 _atom_site_fract_x
 _atom_site_fract_y
 _atom_site_fract_z
 _atom_site_occupancy
  Al  Al0  1  0.03951295  0.80601123  0.99770465  1
  Al  Al1  1  0.07349909  0.59244811  0.00558503  1
  Al  Al2  1  0.23802379  0.79844826  0.00178337  1
  Al  Al3  1  0.11201224  0.39795880  0.00323734  1
  Al  Al4  1  0.27099800  0.59379932  0.02087175  1
  Al  Al5  1  0.15288460  0.19250340  0.00441819  1
  Al  Al6  1  0.44021334  0.79952749  1.00031926  1
  Al  Al7  1  0.31627566  0.39726809  0.00581389  1
  Al  Al8  1  0.19419234  0.00032940  0.99898223  1
  Al  Al9  1  0.47978666  0.60047251  -0.00031926  1
  Al  Al10  1  0.35229095  0.19517653  0.01996731  1
  Al  Al11  1  0.51964476  0.39784444  0.00165472  1
  Al  Al12  1  0.64900200  0.80620068  0.97912825  1
  Al  Al13  1  0.40035524  0.00215556  0.99834528  1
  Al  Al14  1  0.56770905  0.20482347  0.98003269  1
  Al  Al15  1  0.68197621  0.60155174  0.99821663  1
  Al  Al16  1  0.60372434  0.00273191  0.99418611  1
  Al  Al17  1  0.72580766  0.39967060  0.00101777  1
  Al  Al18  1  0.84650091  0.80755189  0.99441497  1
  Al  Al19  1  0.76711540  0.20749660  0.99558181  1
  Al  Al20  1  0.88048705  0.59398877  0.00229535  1
  Al  Al21  1  0.80798776  0.00204120  0.99676266  1
  Al  Al22  1  0.96000000  0.20000000  0.00000000  1
  B  B23  1  0.10221776  0.83431282  0.49388787  1
  B  B24  1  0.14002596  0.96647698  0.50045246  1
  B  B25  1  0.02021424  0.56659851  0.49943424  1
  B  B26  1  0.18151809  0.76747497  0.49711523  1
  B  B27  1  0.14015737  0.63351563  0.50027756  1
  B  B28  1  0.06014799  0.36628323  0.50076436  1
  B  B29  1  0.02276724  0.23481095  0.49139019  1
  B  B30  1  0.30066516  0.83346369  0.49897312  1
  B  B31  1  0.34293197  0.96765466  0.49335661  1
  B  B32  1  0.22034477  0.56627835  0.49955470  1
  B  B33  1  0.18040436  0.43312559  0.49923809  1
  B  B34  1  0.09994994  0.16641691  0.50073218  1
  B  B35  1  0.05960700  0.03310925  0.50306535  1
  B  B36  1  0.34193540  0.63418269  0.49644315  1
  B  B37  1  0.38014580  0.76609336  0.49975824  1
  B  B38  1  0.26406038  0.36843459  0.49079522  1
  B  B39  1  0.21992375  0.23319617  0.50060914  1
  B  B40  1  0.49950502  0.83336521  0.50048829  1
  B  B41  1  0.53883694  0.96602897  0.50210494  1
  B  B42  1  0.38116306  0.43397103  0.49789506  1
  B  B43  1  0.42049498  0.56663479  0.49951171  1
  B  B44  1  0.30029959  0.16600040  0.49919526  1
  B  B45  1  0.26014008  0.03313332  0.50001835  1
  B  B46  1  0.53985420  0.63390664  0.50024176  1
  B  B47  1  0.57806460  0.76581731  0.50355685  1
  B  B48  1  0.42168865  0.23432924  0.49647699  1
  B  B49  1  0.45990654  0.36617770  0.50078948  1
  B  B50  1  0.73959564  0.96687441  0.50076191  1
  B  B51  1  0.57706803  0.43234534  0.50664339  1
  B  B52  1  0.61933484  0.56653631  0.50102688  1
  B  B53  1  0.69965523  0.83372165  0.50044530  1
  B  B54  1  0.46009346  0.03382230  0.49921052  1
  B  B55  1  0.49831135  0.16567076  0.50352301  1
  B  B56  1  0.61970041  0.23399960  0.50080474  1
  B  B57  1  0.65985992  0.36686668  0.49998165  1
  B  B58  1  0.77984263  0.76648437  0.49972244  1
  B  B59  1  0.73848191  0.63252503  0.50288477  1
  B  B60  1  0.70007625  0.16680383  0.49939086  1
  B  B61  1  0.89978576  0.83340149  0.50056576  1
  B  B62  1  0.94068416  0.96720742  0.49632198  1
  B  B63  1  0.65593962  0.03156541  0.50920478  1
  B  B64  1  0.81778224  0.56568718  0.50611213  1
  B  B65  1  0.77997404  0.43352302  0.49954754  1
  B  B66  1  0.94067520  0.63411952  0.49658414  1
  B  B67  1  0.97932480  0.76588048  0.50341586  1
  B  B68  1  0.82005006  0.23358309  0.49926782  1
  B  B69  1  0.86039300  0.36689075  0.49693465  1
  B  B70  1  0.89723276  0.16518905  0.50860981  1
  B  B71  1  0.97931584  0.43279258  0.50367802  1
  B  B72  1  0.85985201  0.03371677  0.49923564  1
