# generated using pymatgen
data_Li5B7S13
_symmetry_space_group_name_H-M   'P 1'
_cell_length_a   12.44121130
_cell_length_b   12.45103882
_cell_length_c   14.04503257
_cell_angle_alpha   116.24261176
_cell_angle_beta   116.22702617
_cell_angle_gamma   90.06599936
_symmetry_Int_Tables_number   1
_chemical_formula_structural   Li5B7S13
_chemical_formula_sum   'Li20 B28 S52'
_cell_volume   1697.47518950
_cell_formula_units_Z   4
loop_
 _symmetry_equiv_pos_site_id
 _symmetry_equiv_pos_as_xyz
  1  'x, y, z'
loop_
 _atom_site_type_symbol
 _atom_site_label
 _atom_site_symmetry_multiplicity
 _atom_site_fract_x
 _atom_site_fract_y
 _atom_site_fract_z
 _atom_site_occupancy
  B  B0  1  0.11879071  0.69351862  0.94648000  1
  B  B1  1  0.06752850  0.20743328  0.75198442  1
  B  B2  1  0.02545859  0.27331739  0.54862156  1
  B  B3  1  0.22479646  0.47504607  0.95105745  1
  B  B4  1  0.18389335  0.54401205  0.75090960  1
  B  B5  1  0.32740244  0.25261574  0.94706987  1
  B  B6  1  0.04381451  0.56689218  0.25061668  1
  B  B7  1  0.29352358  0.31635285  0.74926707  1
  B  B8  1  0.19375750  0.82688882  0.44663657  1
  B  B9  1  0.24763071  0.38024245  0.55312729  1
  B  B10  1  0.24522462  0.98462663  0.15058147  1
  B  B11  1  0.33044988  0.25421353  0.34570006  1
  B  B12  1  0.48390086  0.90931753  0.65443094  1
  B  B13  1  0.59370288  0.83465875  0.84968785  1
  B  B14  1  0.40888859  0.16833810  0.15350088  1
  B  B15  1  0.51430648  0.09392689  0.34889628  1
  B  B16  1  0.66435163  0.74555041  0.65120496  1
  B  B17  1  0.75417817  0.01536504  0.84653072  1
  B  B18  1  0.75253793  0.61897463  0.44779199  1
  B  B19  1  0.80560777  0.17142189  0.55260562  1
  B  B20  1  0.70781526  0.68456631  0.25305799  1
  B  B21  1  0.95525572  0.43171163  0.74716917  1
  B  B22  1  0.67192780  0.74703980  0.05355920  1
  B  B23  1  0.81546633  0.45555982  0.24854928  1
  B  B24  1  0.77323640  0.52385467  0.04898517  1
  B  B25  1  0.97645875  0.72448395  0.45146004  1
  B  B26  1  0.93243760  0.79270541  0.24870961  1
  B  B27  1  0.87993099  0.30558304  0.05300977  1
  Li  Li28  1  0.05629696  0.31591349  0.28268828  1
  Li  Li29  1  0.27264533  0.03317496  0.71708431  1
  Li  Li30  1  0.44648062  0.97779309  0.98728585  1
  Li  Li31  1  0.22156291  0.11426628  0.43533510  1
  Li  Li32  1  0.28685273  0.67969157  0.56498618  1
  Li  Li33  1  0.18624589  0.77661804  0.21943170  1
  Li  Li34  1  0.46648498  0.55750493  0.78075265  1
  Li  Li35  1  0.17836799  0.28143591  0.06437910  1
  Li  Li36  1  0.61393155  0.21730323  0.93663137  1
  Li  Li37  1  0.51461057  0.94844175  0.49374281  1
  Li  Li38  1  0.52096587  0.45291101  0.50436543  1
  Li  Li39  1  0.38731012  0.77384926  0.07186173  1
  Li  Li40  1  0.81419263  0.70036814  0.92689436  1
  Li  Li41  1  0.52819504  0.44589017  0.22421706  1
  Li  Li42  1  0.80258932  0.22109600  0.77501522  1
  Li  Li43  1  0.72978562  0.31489136  0.42772872  1
  Li  Li44  1  0.80186431  0.88773633  0.57236299  1
  Li  Li45  1  0.71786612  0.97137942  0.27315267  1
  Li  Li46  1  0.94406507  0.69835046  0.72708128  1
  Li  Li47  1  0.95702195  0.98890199  0.01167937  1
  S  S48  1  0.05835253  0.37095639  0.85404412  1
  S  S49  1  0.01669740  0.43975644  0.64443393  1
  S  S50  1  0.16606191  0.13923311  0.84918232  1
  S  S51  1  0.18324863  0.70931443  0.84947622  1
  S  S52  1  0.12958493  0.20471076  0.64627236  1
  S  S53  1  0.08646421  0.26904007  0.44605591  1
  S  S54  1  0.13983236  0.82278582  0.55391711  1
  S  S55  1  0.29486892  0.48337519  0.85457614  1
  S  S56  1  0.09586424  0.89639191  0.34774161  1
  S  S57  1  0.24829056  0.54858966  0.65169482  1
  S  S58  1  0.04829253  0.40341143  0.15179201  1
  S  S59  1  0.39656167  0.25131484  0.84782983  1
  S  S60  1  0.20902208  0.66608715  0.34798551  1
  S  S61  1  0.09966161  0.84790308  0.05282530  1
  S  S62  1  0.36142745  0.31812990  0.65185616  1
  S  S63  1  0.18936941  0.11490341  0.24525759  1
  S  S64  1  0.29492926  0.40108162  0.44679162  1
  S  S65  1  0.34701174  0.95439313  0.55273989  1
  S  S66  1  0.44319459  0.87046980  0.75509179  1
  S  S67  1  0.54613119  0.79502802  0.94732268  1
  S  S68  1  0.22707167  0.63770433  0.05354515  1
  S  S69  1  0.27517994  0.02379165  0.04547251  1
  S  S70  1  0.67281848  0.58402419  0.94651093  1
  S  S71  1  0.36846177  0.30930412  0.25139146  1
  S  S72  1  0.38341797  0.94325479  0.25177337  1
  S  S73  1  0.47369427  0.22710177  0.45387356  1
  S  S74  1  0.51883704  0.77391911  0.54628710  1
  S  S75  1  0.61601661  0.05860417  0.74859390  1
  S  S76  1  0.63060851  0.69221720  0.74851631  1
  S  S77  1  0.32323037  0.41410149  0.05342804  1
  S  S78  1  0.72834722  0.97899493  0.95472151  1
  S  S79  1  0.76921364  0.36062437  0.94662404  1
  S  S80  1  0.45463584  0.20497316  0.05279870  1
  S  S81  1  0.55848747  0.13281723  0.25037928  1
  S  S82  1  0.65105383  0.04602708  0.44631823  1
  S  S83  1  0.70404835  0.60025313  0.55421512  1
  S  S84  1  0.80690105  0.88288338  0.74964886  1
  S  S85  1  0.64055377  0.68443522  0.35157285  1
  S  S86  1  0.90097518  0.15204669  0.94720132  1
  S  S87  1  0.78960028  0.33307835  0.64863165  1
  S  S88  1  0.60479435  0.75012052  0.15470475  1
  S  S89  1  0.95055224  0.59549741  0.84575313  1
  S  S90  1  0.74904229  0.45091292  0.34651418  1
  S  S91  1  0.90332902  0.10489880  0.65419027  1
  S  S92  1  0.70409917  0.51696712  0.14637446  1
  S  S93  1  0.86300290  0.17243239  0.44632943  1
  S  S94  1  0.91612640  0.72613577  0.55385977  1
  S  S95  1  0.87189435  0.79508400  0.35551016  1
  S  S96  1  0.81697178  0.29032820  0.15144461  1
  S  S97  1  0.83335975  0.85944849  0.14997989  1
  S  S98  1  0.98308129  0.55832791  0.35393002  1
  S  S99  1  0.93971636  0.62847907  0.14514084  1
