# generated using pymatgen
data_GeBr2
_symmetry_space_group_name_H-M   'P 1'
_cell_length_a   7.10120242
_cell_length_b   9.20751912
_cell_length_c   13.23040152
_cell_angle_alpha   90.00000000
_cell_angle_beta   101.44219662
_cell_angle_gamma   90.00000000
_symmetry_Int_Tables_number   1
_chemical_formula_structural   GeBr2
_chemical_formula_sum   'Ge8 Br16'
_cell_volume   847.86979448
_cell_formula_units_Z   8
loop_
 _symmetry_equiv_pos_site_id
 _symmetry_equiv_pos_as_xyz
  1  'x, y, z'
loop_
 _atom_site_type_symbol
 _atom_site_label
 _atom_site_symmetry_multiplicity
 _atom_site_fract_x
 _atom_site_fract_y
 _atom_site_fract_z
 _atom_site_occupancy
  Ge  Ge0  1  0.72149853  0.87218777  0.99579086  1
  Ge  Ge1  1  0.77850147  0.37218777  0.00420914  1
  Ge  Ge2  1  0.27850147  0.12781223  0.00420914  1
  Ge  Ge3  1  0.22149853  0.62781223  0.99579086  1
  Ge  Ge4  1  0.78670628  0.65982009  0.54466134  1
  Ge  Ge5  1  0.71329372  0.15982009  0.45533866  1
  Ge  Ge6  1  0.21329372  0.34017991  0.45533866  1
  Ge  Ge7  1  0.28670628  0.84017991  0.54466134  1
  Br  Br8  1  0.71400213  0.86983595  0.65186565  1
  Br  Br9  1  0.78599787  0.36983595  0.34813435  1
  Br  Br10  1  0.28599787  0.13016405  0.34813435  1
  Br  Br11  1  0.21400213  0.63016405  0.65186565  1
  Br  Br12  1  0.59702297  0.66422400  0.10251383  1
  Br  Br13  1  0.90297703  0.16422400  0.89748617  1
  Br  Br14  1  0.40297703  0.33577600  0.89748617  1
  Br  Br15  1  0.09702297  0.83577600  0.10251383  1
  Br  Br16  1  0.83408505  0.56210682  0.87386772  1
  Br  Br17  1  0.66591495  0.06210682  0.12613228  1
  Br  Br18  1  0.16591495  0.43789318  0.12613228  1
  Br  Br19  1  0.33408505  0.93789318  0.87386772  1
  Br  Br20  1  0.93941797  0.80647593  0.41508993  1
  Br  Br21  1  0.56058203  0.30647593  0.58491007  1
  Br  Br22  1  0.06058203  0.19352407  0.58491007  1
  Br  Br23  1  0.43941797  0.69352407  0.41508993  1
