# generated using pymatgen
data_Ba14AlSb11
_symmetry_space_group_name_H-M   'P 1'
_cell_length_a   17.95680000
_cell_length_b   17.95679953
_cell_length_c   17.95680000
_cell_angle_alpha   93.69998228
_cell_angle_beta   117.88730588
_cell_angle_gamma   117.88730531
_symmetry_Int_Tables_number   1
_chemical_formula_structural   Ba14AlSb11
_chemical_formula_sum   'Ba56 Al4 Sb44'
_cell_volume   4215.46045382
_cell_formula_units_Z   4
loop_
 _symmetry_equiv_pos_site_id
 _symmetry_equiv_pos_as_xyz
  1  'x, y, z'
loop_
 _atom_site_type_symbol
 _atom_site_label
 _atom_site_symmetry_multiplicity
 _atom_site_fract_x
 _atom_site_fract_y
 _atom_site_fract_z
 _atom_site_occupancy
  Al  Al0  1  0.25000000  0.62500000  0.37500000  1
  Al  Al1  1  0.25000000  0.12500000  0.87500000  1
  Al  Al2  1  0.75000000  0.37500000  0.62500000  1
  Al  Al3  1  0.75000000  0.87500000  0.12500000  1
  Ba  Ba4  1  0.08988978  0.52549320  0.75131371  1
  Ba  Ba5  1  0.58988978  0.25131371  0.02549320  1
  Ba  Ba6  1  0.38381807  0.28402694  0.25714361  1
  Ba  Ba7  1  0.88381807  0.75714361  0.78402694  1
  Ba  Ba8  1  0.27417949  0.43560342  0.52549320  1
  Ba  Ba9  1  0.77417949  0.02549320  0.93560342  1
  Ba  Ba10  1  0.22582051  0.75131371  0.16142393  1
  Ba  Ba11  1  0.72582051  0.66142393  0.25131371  1
  Ba  Ba12  1  0.89631070  0.87534166  0.01956294  1
  Ba  Ba13  1  0.52688332  0.90020887  0.28402694  1
  Ba  Ba14  1  0.39631070  0.51956294  0.37534166  1
  Ba  Ba15  1  0.02688332  0.78402694  0.40020887  1
  Ba  Ba16  1  0.89631070  0.52096904  0.87674776  1
  Ba  Ba17  1  0.41011022  0.16142393  0.43560342  1
  Ba  Ba18  1  0.39631070  0.37674776  0.02096904  1
  Ba  Ba19  1  0.97311668  0.25714361  0.37332554  1
  Ba  Ba20  1  0.85611838  0.25000000  0.10611838  1
  Ba  Ba21  1  0.91011022  0.93560342  0.66142393  1
  Ba  Ba22  1  0.47311668  0.87332554  0.75714361  1
  Ba  Ba23  1  0.35611838  0.60611838  0.75000000  1
  Ba  Ba24  1  0.14422128  0.01956294  0.62325224  1
  Ba  Ba25  1  0.64422128  0.12325224  0.51956294  1
  Ba  Ba26  1  0.85611838  0.10611838  0.75000000  1
  Ba  Ba27  1  0.35611838  0.25000000  0.60611838  1
  Ba  Ba28  1  0.35577872  0.97903096  0.87534166  1
  Ba  Ba29  1  0.38381807  0.59979113  0.12667446  1
  Ba  Ba30  1  0.11618193  0.37332554  0.90020887  1
  Ba  Ba31  1  0.85577872  0.37534166  0.47903096  1
  Ba  Ba32  1  0.14422128  0.62465834  0.52096904  1
  Ba  Ba33  1  0.88381807  0.62667446  0.09979113  1
  Ba  Ba34  1  0.61618193  0.40020887  0.87332554  1
  Ba  Ba35  1  0.64422128  0.02096904  0.12465834  1
  Ba  Ba36  1  0.64388162  0.75000000  0.39388162  1
  Ba  Ba37  1  0.14388162  0.89388162  0.25000000  1
  Ba  Ba38  1  0.35577872  0.87674776  0.48043706  1
  Ba  Ba39  1  0.85577872  0.98043706  0.37674776  1
  Ba  Ba40  1  0.64388162  0.39388162  0.25000000  1
  Ba  Ba41  1  0.52688332  0.12667446  0.24285639  1
  Ba  Ba42  1  0.08988978  0.06439658  0.33857607  1
  Ba  Ba43  1  0.14388162  0.75000000  0.89388162  1
  Ba  Ba44  1  0.02688332  0.74285639  0.62667446  1
  Ba  Ba45  1  0.60368930  0.62325224  0.97903096  1
  Ba  Ba46  1  0.58988978  0.83857607  0.56439658  1
  Ba  Ba47  1  0.10368930  0.47903096  0.12325224  1
  Ba  Ba48  1  0.97311668  0.21597306  0.59979113  1
  Ba  Ba49  1  0.60368930  0.48043706  0.62465834  1
  Ba  Ba50  1  0.47311668  0.09979113  0.71597306  1
  Ba  Ba51  1  0.10368930  0.12465834  0.98043706  1
  Ba  Ba52  1  0.27417949  0.33857607  0.74868629  1
  Ba  Ba53  1  0.77417949  0.24868629  0.83857607  1
  Ba  Ba54  1  0.22582051  0.97450680  0.06439658  1
  Ba  Ba55  1  0.72582051  0.56439658  0.47450680  1
  Ba  Ba56  1  0.11618193  0.24285639  0.21597306  1
  Ba  Ba57  1  0.61618193  0.71597306  0.74285639  1
  Ba  Ba58  1  0.41011022  0.74868629  0.97450680  1
  Ba  Ba59  1  0.91011022  0.47450680  0.24868629  1
  Sb  Sb60  1  0.15784357  0.58621681  0.97841702  1
  Sb  Sb61  1  0.65784357  0.47841702  0.08621681  1
  Sb  Sb62  1  0.39220021  0.97841702  0.32057345  1
  Sb  Sb63  1  0.89220021  0.82057345  0.47841702  1
  Sb  Sb64  1  0.38292213  0.69621577  0.31796340  1
  Sb  Sb65  1  0.88292213  0.81796340  0.19621577  1
  Sb  Sb66  1  0.62174762  0.31796340  0.43504127  1
  Sb  Sb67  1  0.12174762  0.93504127  0.81796340  1
  Sb  Sb68  1  0.87825238  0.31329365  0.69621577  1
  Sb  Sb69  1  0.37825238  0.19621577  0.81329365  1
  Sb  Sb70  1  0.25000000  0.00464355  0.49535645  1
  Sb  Sb71  1  0.75000000  0.12500000  0.37500000  1
  Sb  Sb72  1  0.75000000  0.25464355  0.24535645  1
  Sb  Sb73  1  0.10779979  0.42837324  0.58621681  1
  Sb  Sb74  1  0.60779979  0.08621681  0.92837324  1
  Sb  Sb75  1  0.11707787  0.43504127  0.31329365  1
  Sb  Sb76  1  0.61707787  0.81329365  0.93504127  1
  Sb  Sb77  1  0.49071291  0.49535645  0.74535645  1
  Sb  Sb78  1  0.99071291  0.24535645  0.99535645  1
  Sb  Sb79  1  0.15784357  0.07162676  0.17942655  1
  Sb  Sb80  1  0.65784357  0.67942655  0.57162676  1
  Sb  Sb81  1  0.75000000  0.62500000  0.87500000  1
  Sb  Sb82  1  0.25000000  0.37500000  0.12500000  1
  Sb  Sb83  1  0.34215643  0.32057345  0.42837324  1
  Sb  Sb84  1  0.84215643  0.92837324  0.82057345  1
  Sb  Sb85  1  0.00928709  0.75464355  0.00464355  1
  Sb  Sb86  1  0.50928709  0.50464355  0.25464355  1
  Sb  Sb87  1  0.38292213  0.18670635  0.06495873  1
  Sb  Sb88  1  0.88292213  0.56495873  0.68670635  1
  Sb  Sb89  1  0.39220021  0.91378319  0.07162676  1
  Sb  Sb90  1  0.89220021  0.57162676  0.41378319  1
  Sb  Sb91  1  0.25000000  0.74535645  0.75464355  1
  Sb  Sb92  1  0.25000000  0.87500000  0.62500000  1
  Sb  Sb93  1  0.75000000  0.99535645  0.50464355  1
  Sb  Sb94  1  0.62174762  0.80378423  0.18670635  1
  Sb  Sb95  1  0.12174762  0.68670635  0.30378423  1
  Sb  Sb96  1  0.87825238  0.06495873  0.18203660  1
  Sb  Sb97  1  0.37825238  0.68203660  0.56495873  1
  Sb  Sb98  1  0.11707787  0.18203660  0.80378423  1
  Sb  Sb99  1  0.61707787  0.30378423  0.68203660  1
  Sb  Sb100  1  0.10779979  0.17942655  0.52158298  1
  Sb  Sb101  1  0.60779979  0.02158298  0.67942655  1
  Sb  Sb102  1  0.34215643  0.52158298  0.91378319  1
  Sb  Sb103  1  0.84215643  0.41378319  0.02158298  1
