# generated using pymatgen
data_GdZr3F15
_symmetry_space_group_name_H-M   'P 1'
_cell_length_a   8.25884547
_cell_length_b   8.26574479
_cell_length_c   16.52344305
_cell_angle_alpha   100.19241065
_cell_angle_beta   100.17807281
_cell_angle_gamma   100.16764829
_symmetry_Int_Tables_number   1
_chemical_formula_structural   GdZr3F15
_chemical_formula_sum   'Gd4 Zr12 F60'
_cell_volume   1067.27476755
_cell_formula_units_Z   4
loop_
 _symmetry_equiv_pos_site_id
 _symmetry_equiv_pos_as_xyz
  1  'x, y, z'
loop_
 _atom_site_type_symbol
 _atom_site_label
 _atom_site_symmetry_multiplicity
 _atom_site_fract_x
 _atom_site_fract_y
 _atom_site_fract_z
 _atom_site_occupancy
  F  F0  1  0.00448159  0.77222104  0.88664149  1
  F  F1  1  0.03513486  0.46579378  0.88007189  1
  F  F2  1  0.03577849  0.15266530  0.84004825  1
  F  F3  1  0.00321056  0.78315842  0.38941153  1
  F  F4  1  0.18876670  0.65207772  0.77928181  1
  F  F5  1  0.24408037  0.95194000  0.76241387  1
  F  F6  1  0.02465095  0.45293413  0.36669615  1
  F  F7  1  0.31093052  0.93255202  0.92423999  1
  F  F8  1  0.21776153  0.22234189  -0.00013588  1
  F  F9  1  0.22388039  0.99372979  0.61212167  1
  F  F10  1  0.14972921  0.68772134  0.53429037  1
  F  F11  1  0.05396880  0.15373905  0.34309592  1
  F  F12  1  0.34483817  0.46351352  0.90830720  1
  F  F13  1  0.27479621  0.28078431  0.74972527  1
  F  F14  1  0.27646325  0.50742348  0.63969870  1
  F  F15  1  0.17707828  0.65481875  0.26615707  1
  F  F16  1  0.25225242  0.96735193  0.26810876  1
  F  F17  1  0.31789710  0.96357989  0.42242507  1
  F  F18  1  0.22241776  0.22613871  0.49563071  1
  F  F19  1  0.22376237  0.99473223  0.11188796  1
  F  F20  1  0.15027231  0.68610672  0.02643712  1
  F  F21  1  0.49509474  0.72462618  0.86030966  1
  F  F22  1  0.44700965  0.81194209  0.67408470  1
  F  F23  1  0.34904039  0.43373209  0.40582844  1
  F  F24  1  0.27521110  0.27431823  0.25367486  1
  F  F25  1  0.27554926  0.50472527  0.13626361  1
  F  F26  1  0.54823052  0.25396507  0.98704124  1
  F  F27  1  0.47342168  0.75400479  0.52400629  1
  F  F28  1  0.56816100  0.18467897  0.82463769  1
  F  F29  1  0.50280672  0.27534094  0.64052570  1
  F  F30  1  0.49719328  0.72465906  0.35947430  1
  F  F31  1  0.43183900  0.81532103  0.17536231  1
  F  F32  1  0.52657832  0.24599521  0.47599371  1
  F  F33  1  0.45176948  0.74603493  0.01295876  1
  F  F34  1  0.72445074  0.49527473  0.86373639  1
  F  F35  1  0.72478890  0.72568177  0.74632514  1
  F  F36  1  0.65095961  0.56626791  0.59417156  1
  F  F37  1  0.55299035  0.18805791  0.32591530  1
  F  F38  1  0.50490526  0.27537382  0.13969034  1
  F  F39  1  0.84972769  0.31389328  0.97356288  1
  F  F40  1  0.77623763  0.00526777  0.88811204  1
  F  F41  1  0.77758224  0.77386129  0.50436929  1
  F  F42  1  0.68210290  0.03642011  0.57757493  1
  F  F43  1  0.74774758  0.03264807  0.73189124  1
  F  F44  1  0.82292172  0.34518125  0.73384293  1
  F  F45  1  0.72353675  0.49257652  0.36030130  1
  F  F46  1  0.72520379  0.71921569  0.25027473  1
  F  F47  1  0.65516183  0.53648648  0.09169280  1
  F  F48  1  0.94603120  0.84626095  0.65690408  1
  F  F49  1  0.85027079  0.31227866  0.46570963  1
  F  F50  1  0.77611961  0.00627021  0.38787833  1
  F  F51  1  0.78223847  0.77765811  1.00013588  1
  F  F52  1  0.68906948  0.06744798  0.07576001  1
  F  F53  1  0.97534905  0.54706587  0.63330385  1
  F  F54  1  0.75591963  0.04806000  0.23758613  1
  F  F55  1  0.81123330  0.34792228  0.22071819  1
  F  F56  1  0.99678944  0.21684158  0.61058847  1
  F  F57  1  0.96422151  0.84733470  0.15995175  1
  F  F58  1  0.96486514  0.53420622  0.11992811  1
  F  F59  1  0.99551841  0.22777896  0.11335851  1
  Gd  Gd60  1  0.32364518  0.17781464  0.87469334  1
  Gd  Gd61  1  0.24975744  0.67775374  0.41117588  1
  Gd  Gd62  1  0.75024256  0.32224626  0.58882412  1
  Gd  Gd63  1  0.67635482  0.82218536  0.12530666  1
  Zr  Zr64  1  0.24521087  0.67597412  0.91185327  1
  Zr  Zr65  1  0.17756890  0.74850407  0.66267638  1
  Zr  Zr66  1  0.24941636  0.24899842  0.62332510  1
  Zr  Zr67  1  0.17548386  0.74983511  0.16012652  1
  Zr  Zr68  1  0.32185061  0.17652993  0.37319203  1
  Zr  Zr69  1  0.25210348  0.25054831  0.12584332  1
  Zr  Zr70  1  0.74789652  0.74945169  0.87415668  1
  Zr  Zr71  1  0.67814939  0.82347007  0.62680797  1
  Zr  Zr72  1  0.82451614  0.25016489  0.83987348  1
  Zr  Zr73  1  0.75058364  0.75100158  0.37667490  1
  Zr  Zr74  1  0.82243110  0.25149593  0.33732362  1
  Zr  Zr75  1  0.75478913  0.32402588  0.08814673  1
