# generated using pymatgen
data_CsTeF5
_symmetry_space_group_name_H-M   'P 1'
_cell_length_a   6.74792750
_cell_length_b   8.53026023
_cell_length_c   10.47693902
_cell_angle_alpha   90.00000000
_cell_angle_beta   90.00000000
_cell_angle_gamma   90.00000000
_symmetry_Int_Tables_number   1
_chemical_formula_structural   CsTeF5
_chemical_formula_sum   'Cs4 Te4 F20'
_cell_volume   603.06913829
_cell_formula_units_Z   4
loop_
 _symmetry_equiv_pos_site_id
 _symmetry_equiv_pos_as_xyz
  1  'x, y, z'
loop_
 _atom_site_type_symbol
 _atom_site_label
 _atom_site_symmetry_multiplicity
 _atom_site_fract_x
 _atom_site_fract_y
 _atom_site_fract_z
 _atom_site_occupancy
  Cs  Cs0  1  0.25000000  0.63537668  0.16679314  1
  Cs  Cs1  1  0.75000000  0.36462332  0.83320686  1
  Cs  Cs2  1  0.75000000  0.13537668  0.33320686  1
  Cs  Cs3  1  0.25000000  0.86462332  0.66679314  1
  Te  Te4  1  0.25000000  0.13829775  0.07133200  1
  Te  Te5  1  0.75000000  0.86170225  0.92866800  1
  Te  Te6  1  0.75000000  0.63829775  0.42866800  1
  Te  Te7  1  0.25000000  0.36170225  0.57133200  1
  F  F8  1  0.04411625  0.98494627  0.13607256  1
  F  F9  1  0.54411625  0.01505373  0.86392744  1
  F  F10  1  0.95588375  0.48494627  0.36392744  1
  F  F11  1  0.45588375  0.51505373  0.63607256  1
  F  F12  1  0.95588375  0.01505373  0.86392744  1
  F  F13  1  0.45588375  0.98494627  0.13607256  1
  F  F14  1  0.04411625  0.51505373  0.63607256  1
  F  F15  1  0.54411625  0.48494627  0.36392744  1
  F  F16  1  0.04048887  0.30589662  0.06688194  1
  F  F17  1  0.54048887  0.69410338  0.93311806  1
  F  F18  1  0.95951113  0.80589662  0.43311806  1
  F  F19  1  0.45951113  0.19410338  0.56688194  1
  F  F20  1  0.95951113  0.69410338  0.93311806  1
  F  F21  1  0.45951113  0.30589662  0.06688194  1
  F  F22  1  0.04048887  0.19410338  0.56688194  1
  F  F23  1  0.54048887  0.80589662  0.43311806  1
  F  F24  1  0.25000000  0.19506079  0.24883492  1
  F  F25  1  0.75000000  0.80493921  0.75116508  1
  F  F26  1  0.75000000  0.69506079  0.25116508  1
  F  F27  1  0.25000000  0.30493921  0.74883492  1
