# generated using pymatgen
data_Y2Ge5Ir3
_symmetry_space_group_name_H-M   'P 1'
_cell_length_a   6.04842750
_cell_length_b   8.39675480
_cell_length_c   8.39675467
_cell_angle_alpha   75.78173128
_cell_angle_beta   68.88969742
_cell_angle_gamma   68.88969480
_symmetry_Int_Tables_number   1
_chemical_formula_structural   Y2Ge5Ir3
_chemical_formula_sum   'Y4 Ge10 Ir6'
_cell_volume   367.82350646
_cell_formula_units_Z   2
loop_
 _symmetry_equiv_pos_site_id
 _symmetry_equiv_pos_as_xyz
  1  'x, y, z'
loop_
 _atom_site_type_symbol
 _atom_site_label
 _atom_site_symmetry_multiplicity
 _atom_site_fract_x
 _atom_site_fract_y
 _atom_site_fract_z
 _atom_site_occupancy
  Y  Y0  1  0.63411771  0.09192858  0.63983600  1
  Y  Y1  1  0.36588229  0.90807142  0.36016400  1
  Y  Y2  1  0.86588229  0.36016400  0.90807142  1
  Y  Y3  1  0.13411771  0.63983600  0.09192858  1
  Ir  Ir4  1  0.85799654  0.03070579  0.25330114  1
  Ir  Ir5  1  0.14200346  0.96929421  0.74669886  1
  Ir  Ir6  1  0.64200346  0.74669886  0.96929421  1
  Ir  Ir7  1  0.35799654  0.25330114  0.03070579  1
  Ir  Ir8  1  0.75000000  0.50000000  0.50000000  1
  Ir  Ir9  1  0.25000000  0.50000000  0.50000000  1
  Ge  Ge10  1  0.90191568  0.76042425  0.43574438  1
  Ge  Ge11  1  0.09808432  0.23957575  0.56425562  1
  Ge  Ge12  1  0.59808432  0.56425562  0.23957575  1
  Ge  Ge13  1  0.40191568  0.43574438  0.76042425  1
  Ge  Ge14  1  0.47348033  0.27651967  0.27651967  1
  Ge  Ge15  1  0.02651967  0.72348033  0.72348033  1
  Ge  Ge16  1  0.52651967  0.72348033  0.72348033  1
  Ge  Ge17  1  0.97348033  0.27651967  0.27651967  1
  Ge  Ge18  1  0.75000000  0.00000000  0.00000000  1
  Ge  Ge19  1  0.25000000  0.00000000  0.00000000  1
