# generated using pymatgen
data_TlW3Br7
_symmetry_space_group_name_H-M   'P 1'
_cell_length_a   14.45101151
_cell_length_b   14.41460532
_cell_length_c   14.12943717
_cell_angle_alpha   90.00000000
_cell_angle_beta   90.00000000
_cell_angle_gamma   90.00000000
_symmetry_Int_Tables_number   1
_chemical_formula_structural   TlW3Br7
_chemical_formula_sum   'Tl8 W24 Br56'
_cell_volume   2943.24127438
_cell_formula_units_Z   8
loop_
 _symmetry_equiv_pos_site_id
 _symmetry_equiv_pos_as_xyz
  1  'x, y, z'
loop_
 _atom_site_type_symbol
 _atom_site_label
 _atom_site_symmetry_multiplicity
 _atom_site_fract_x
 _atom_site_fract_y
 _atom_site_fract_z
 _atom_site_occupancy
  Br  Br0  1  0.04769408  0.61183109  0.30584048  1
  Br  Br1  1  0.04769408  0.88816891  0.19415952  1
  Br  Br2  1  0.07162292  0.59380099  0.79382798  1
  Br  Br3  1  0.07162292  0.90619901  0.70617202  1
  Br  Br4  1  0.09731412  0.21018647  0.57542696  1
  Br  Br5  1  0.09731412  0.28981353  0.92457304  1
  Br  Br6  1  0.10782560  0.69120969  0.55092973  1
  Br  Br7  1  0.10782560  0.80879031  0.94907027  1
  Br  Br8  1  0.13133020  0.37080284  0.36741398  1
  Br  Br9  1  0.13133020  0.12919716  0.13258602  1
  Br  Br10  1  0.19117183  0.04705455  0.88847358  1
  Br  Br11  1  0.19117183  0.45294545  0.61152642  1
  Br  Br12  1  0.21095491  0.57648693  0.09703400  1
  Br  Br13  1  0.21095491  0.92351307  0.40296600  1
  Br  Br14  1  0.28904509  0.57648693  0.40296600  1
  Br  Br15  1  0.28904509  0.92351307  0.09703400  1
  Br  Br16  1  0.30882817  0.04705455  0.61152642  1
  Br  Br17  1  0.30882817  0.45294545  0.88847358  1
  Br  Br18  1  0.36866980  0.12919716  0.36741398  1
  Br  Br19  1  0.36866980  0.37080284  0.13258602  1
  Br  Br20  1  0.39217440  0.69120969  0.94907027  1
  Br  Br21  1  0.39217440  0.80879031  0.55092973  1
  Br  Br22  1  0.40268588  0.21018647  0.92457304  1
  Br  Br23  1  0.40268588  0.28981353  0.57542696  1
  Br  Br24  1  0.42837708  0.59380099  0.70617202  1
  Br  Br25  1  0.42837708  0.90619901  0.79382798  1
  Br  Br26  1  0.45230592  0.61183109  0.19415952  1
  Br  Br27  1  0.45230592  0.88816891  0.30584048  1
  Br  Br28  1  0.54769408  0.11183109  0.69415952  1
  Br  Br29  1  0.54769408  0.38816891  0.80584048  1
  Br  Br30  1  0.57162292  0.09380099  0.20617202  1
  Br  Br31  1  0.57162292  0.40619901  0.29382798  1
  Br  Br32  1  0.59731412  0.71018647  0.42457304  1
  Br  Br33  1  0.59731412  0.78981353  0.07542696  1
  Br  Br34  1  0.60782560  0.19120969  0.44907027  1
  Br  Br35  1  0.60782560  0.30879031  0.05092973  1
  Br  Br36  1  0.63133020  0.62919716  0.86741398  1
  Br  Br37  1  0.63133020  0.87080284  0.63258602  1
  Br  Br38  1  0.69117183  0.54705455  0.11152642  1
  Br  Br39  1  0.69117183  0.95294545  0.38847358  1
  Br  Br40  1  0.71095491  0.07648693  0.90296600  1
  Br  Br41  1  0.71095491  0.42351307  0.59703400  1
  Br  Br42  1  0.78904509  0.07648693  0.59703400  1
  Br  Br43  1  0.78904509  0.42351307  0.90296600  1
  Br  Br44  1  0.80882817  0.54705455  0.38847358  1
  Br  Br45  1  0.80882817  0.95294545  0.11152642  1
  Br  Br46  1  0.86866980  0.87080284  0.86741398  1
  Br  Br47  1  0.86866980  0.62919716  0.63258602  1
  Br  Br48  1  0.89217440  0.19120969  0.05092973  1
  Br  Br49  1  0.89217440  0.30879031  0.44907027  1
  Br  Br50  1  0.90268588  0.71018647  0.07542696  1
  Br  Br51  1  0.90268588  0.78981353  0.42457304  1
  Br  Br52  1  0.92837708  0.09380099  0.29382798  1
  Br  Br53  1  0.92837708  0.40619901  0.20617202  1
  Br  Br54  1  0.95230592  0.11183109  0.80584048  1
  Br  Br55  1  0.95230592  0.38816891  0.69415952  1
  Tl  Tl56  1  0.25000000  0.25000000  0.75000000  1
  Tl  Tl57  1  0.25000000  0.75000000  0.25000000  1
  Tl  Tl58  1  0.50000000  0.50000000  0.50000000  1
  Tl  Tl59  1  0.50000000  0.00000000  0.00000000  1
  Tl  Tl60  1  0.75000000  0.25000000  0.75000000  1
  Tl  Tl61  1  0.75000000  0.75000000  0.25000000  1
  Tl  Tl62  1  0.00000000  0.00000000  0.50000000  1
  Tl  Tl63  1  0.00000000  0.50000000  0.00000000  1
  W  W64  1  0.02971345  0.54040969  0.62248252  1
  W  W65  1  0.02971345  0.95959031  0.87751748  1
  W  W66  1  0.04132676  0.37987133  0.53052386  1
  W  W67  1  0.04132676  0.12012867  0.96947614  1
  W  W68  1  0.11958632  0.53161940  0.45865736  1
  W  W69  1  0.11958632  0.96838060  0.04134264  1
  W  W70  1  0.38041368  0.96838060  0.45865736  1
  W  W71  1  0.38041368  0.53161940  0.04134264  1
  W  W72  1  0.45867324  0.37987133  0.96947614  1
  W  W73  1  0.45867324  0.12012867  0.53052386  1
  W  W74  1  0.47028655  0.54040969  0.87751748  1
  W  W75  1  0.47028655  0.95959031  0.62248252  1
  W  W76  1  0.52971345  0.04040969  0.37751748  1
  W  W77  1  0.52971345  0.45959031  0.12248252  1
  W  W78  1  0.54132676  0.87987133  0.46947614  1
  W  W79  1  0.54132676  0.62012867  0.03052386  1
  W  W80  1  0.61958632  0.46838060  0.95865736  1
  W  W81  1  0.61958632  0.03161940  0.54134264  1
  W  W82  1  0.88041368  0.03161940  0.95865736  1
  W  W83  1  0.88041368  0.46838060  0.54134264  1
  W  W84  1  0.95867324  0.62012867  0.46947614  1
  W  W85  1  0.95867324  0.87987133  0.03052386  1
  W  W86  1  0.97028655  0.04040969  0.12248252  1
  W  W87  1  0.97028655  0.45959031  0.37751748  1
