# generated using pymatgen
data_Na2TeO3
_symmetry_space_group_name_H-M   'P 1'
_cell_length_a   5.01558641
_cell_length_b   6.96836469
_cell_length_c   10.39270217
_cell_angle_alpha   90.00000000
_cell_angle_beta   90.00000000
_cell_angle_gamma   91.30026616
_symmetry_Int_Tables_number   1
_chemical_formula_structural   Na2TeO3
_chemical_formula_sum   'Na8 Te4 O12'
_cell_volume   363.13593422
_cell_formula_units_Z   4
loop_
 _symmetry_equiv_pos_site_id
 _symmetry_equiv_pos_as_xyz
  1  'x, y, z'
loop_
 _atom_site_type_symbol
 _atom_site_label
 _atom_site_symmetry_multiplicity
 _atom_site_fract_x
 _atom_site_fract_y
 _atom_site_fract_z
 _atom_site_occupancy
  Te  Te0  1  0.26435330  0.16712255  0.08267833  1
  Te  Te1  1  0.73564670  0.33287745  0.58267833  1
  Te  Te2  1  0.73564670  0.83287745  0.91732167  1
  Te  Te3  1  0.26435330  0.66712255  0.41732167  1
  Na  Na4  1  0.24451820  0.14122937  0.41338483  1
  Na  Na5  1  0.75548180  0.35877063  0.91338483  1
  Na  Na6  1  0.75548180  0.85877063  0.58661517  1
  Na  Na7  1  0.24451820  0.64122937  0.08661517  1
  Na  Na8  1  0.74366112  0.40468923  0.24679285  1
  Na  Na9  1  0.25633888  0.09531077  0.74679285  1
  Na  Na10  1  0.25633888  0.59531077  0.75320715  1
  Na  Na11  1  0.74366112  0.90468923  0.25320715  1
  O  O12  1  0.22670875  0.35398612  0.21614747  1
  O  O13  1  0.77329125  0.14601388  0.71614747  1
  O  O14  1  0.77329125  0.64601388  0.78385253  1
  O  O15  1  0.22670875  0.85398612  0.28385253  1
  O  O16  1  0.75220727  0.16691185  0.43735202  1
  O  O17  1  0.24779273  0.33308815  0.93735202  1
  O  O18  1  0.24779273  0.83308815  0.56264798  1
  O  O19  1  0.75220727  0.66691185  0.06264798  1
  O  O20  1  0.64248568  0.14939642  0.09537156  1
  O  O21  1  0.35751432  0.35060358  0.59537156  1
  O  O22  1  0.35751432  0.85060358  0.90462844  1
  O  O23  1  0.64248568  0.64939642  0.40462844  1
