# generated using pymatgen
data_La4Ru6O19
_symmetry_space_group_name_H-M   'P 1'
_cell_length_a   7.87265324
_cell_length_b   7.87265308
_cell_length_c   7.87265301
_cell_angle_alpha   109.47121776
_cell_angle_beta   109.47121743
_cell_angle_gamma   109.47122424
_symmetry_Int_Tables_number   1
_chemical_formula_structural   La4Ru6O19
_chemical_formula_sum   'La4 Ru6 O19'
_cell_volume   375.61373933
_cell_formula_units_Z   1
loop_
 _symmetry_equiv_pos_site_id
 _symmetry_equiv_pos_as_xyz
  1  'x, y, z'
loop_
 _atom_site_type_symbol
 _atom_site_label
 _atom_site_symmetry_multiplicity
 _atom_site_fract_x
 _atom_site_fract_y
 _atom_site_fract_z
 _atom_site_occupancy
  La  La0  1  0.31900813  0.31900813  0.31900813  1
  La  La1  1  0.00000000  0.68099187  1.00000000  1
  La  La2  1  1.00000000  1.00000000  0.68099187  1
  La  La3  1  0.68099187  0.00000000  1.00000000  1
  Ru  Ru4  1  0.50000000  0.36213391  0.86213391  1
  Ru  Ru5  1  0.63786609  0.13786609  0.50000000  1
  Ru  Ru6  1  0.13786609  0.50000000  0.63786609  1
  Ru  Ru7  1  0.36213391  0.86213391  0.50000000  1
  Ru  Ru8  1  0.86213391  0.50000000  0.36213391  1
  Ru  Ru9  1  0.50000000  0.63786609  0.13786609  1
  O  O10  1  1.00000000  0.32633717  0.32633717  1
  O  O11  1  0.67366283  0.67366283  0.00000000  1
  O  O12  1  0.67366283  0.00000000  0.67366283  1
  O  O13  1  0.32633717  0.32633717  1.00000000  1
  O  O14  1  0.32633717  1.00000000  0.32633717  1
  O  O15  1  0.00000000  0.67366283  0.67366283  1
  O  O16  1  0.00000000  0.00000000  0.00000000  1
  O  O17  1  0.26845973  0.32694037  0.62683006  1
  O  O18  1  0.64162966  0.37316994  0.70011030  1
  O  O19  1  0.94151936  0.29988970  0.67305963  1
  O  O20  1  0.35837034  0.05848064  0.73154027  1
  O  O21  1  0.37316994  0.70011030  0.64162966  1
  O  O22  1  0.67305963  0.94151936  0.29988970  1
  O  O23  1  0.05848064  0.73154027  0.35837034  1
  O  O24  1  0.62683006  0.26845973  0.32694037  1
  O  O25  1  0.32694037  0.62683006  0.26845973  1
  O  O26  1  0.70011030  0.64162966  0.37316994  1
  O  O27  1  0.29988970  0.67305963  0.94151936  1
  O  O28  1  0.73154027  0.35837034  0.05848064  1
