# generated using pymatgen
data_K2(ReS2)3
_symmetry_space_group_name_H-M   'P 1'
_cell_length_a   9.71259743
_cell_length_b   9.71259729
_cell_length_c   12.03462063
_cell_angle_alpha   88.80829256
_cell_angle_beta   88.80829251
_cell_angle_gamma   61.08937314
_symmetry_Int_Tables_number   1
_chemical_formula_structural   K2(ReS2)3
_chemical_formula_sum   'K8 Re12 S24'
_cell_volume   993.50620351
_cell_formula_units_Z   4
loop_
 _symmetry_equiv_pos_site_id
 _symmetry_equiv_pos_as_xyz
  1  'x, y, z'
loop_
 _atom_site_type_symbol
 _atom_site_label
 _atom_site_symmetry_multiplicity
 _atom_site_fract_x
 _atom_site_fract_y
 _atom_site_fract_z
 _atom_site_occupancy
  Re  Re0  1  0.30899998  0.00338019  0.52548298  1
  Re  Re1  1  0.99661981  0.69100002  0.97451702  1
  Re  Re2  1  0.69100002  0.99661981  0.47451702  1
  Re  Re3  1  0.00338019  0.30899998  0.02548298  1
  Re  Re4  1  0.46934975  0.11564736  0.63020199  1
  Re  Re5  1  0.88435264  0.53065025  0.86979801  1
  Re  Re6  1  0.53065025  0.88435264  0.36979801  1
  Re  Re7  1  0.11564736  0.46934975  0.13020199  1
  Re  Re8  1  0.60313230  0.81214173  0.58332246  1
  Re  Re9  1  0.18785827  0.39686770  0.91667754  1
  Re  Re10  1  0.39686770  0.18785827  0.41667754  1
  Re  Re11  1  0.81214173  0.60313230  0.08332246  1
  S  S12  1  0.25723841  0.07144571  0.33151976  1
  S  S13  1  0.92855429  0.74276159  0.16848024  1
  S  S14  1  0.74276159  0.92855429  0.66848024  1
  S  S15  1  0.07144571  0.25723841  0.83151976  1
  S  S16  1  0.71944430  0.79542676  0.93165602  1
  S  S17  1  0.20457324  0.28055570  0.56834398  1
  S  S18  1  0.28055570  0.20457324  0.06834398  1
  S  S19  1  0.79542676  0.71944430  0.43165602  1
  S  S20  1  0.61090087  0.06092343  0.28293984  1
  S  S21  1  0.93907657  0.38909913  0.21706016  1
  S  S22  1  0.38909913  0.93907657  0.71706016  1
  S  S23  1  0.06092343  0.61090087  0.78293984  1
  S  S24  1  0.55427074  0.27637629  0.52004338  1
  S  S25  1  0.72362371  0.44572926  0.97995662  1
  S  S26  1  0.44572926  0.72362371  0.47995662  1
  S  S27  1  0.27637629  0.55427074  0.02004338  1
  S  S28  1  0.99923555  0.06063998  0.07336578  1
  S  S29  1  0.93936002  0.00076445  0.42663422  1
  S  S30  1  0.00076445  0.93936002  0.92663422  1
  S  S31  1  0.06063998  0.99923555  0.57336578  1
  S  S32  1  0.43781392  0.26527656  0.80431868  1
  S  S33  1  0.73472344  0.56218608  0.69568132  1
  S  S34  1  0.56218608  0.73472344  0.19568132  1
  S  S35  1  0.26527656  0.43781392  0.30431868  1
  K  K36  1  0.39905289  0.60094711  0.75000000  1
  K  K37  1  0.60094711  0.39905289  0.25000000  1
  K  K38  1  0.79033023  0.20966977  0.75000000  1
  K  K39  1  0.20966977  0.79033023  0.25000000  1
  K  K40  1  0.64368001  0.12127553  0.01999411  1
  K  K41  1  0.87872447  0.35631999  0.48000589  1
  K  K42  1  0.35631999  0.87872447  0.98000589  1
  K  K43  1  0.12127553  0.64368001  0.51999411  1
