# generated using pymatgen
data_Cs3GaAs2
_symmetry_space_group_name_H-M   'P 1'
_cell_length_a   9.02561688
_cell_length_b   11.58325585
_cell_length_c   19.78619097
_cell_angle_alpha   99.72323009
_cell_angle_beta   90.00000000
_cell_angle_gamma   90.00000000
_symmetry_Int_Tables_number   1
_chemical_formula_structural   Cs3GaAs2
_chemical_formula_sum   'Cs24 Ga8 As16'
_cell_volume   2038.85288613
_cell_formula_units_Z   8
loop_
 _symmetry_equiv_pos_site_id
 _symmetry_equiv_pos_as_xyz
  1  'x, y, z'
loop_
 _atom_site_type_symbol
 _atom_site_label
 _atom_site_symmetry_multiplicity
 _atom_site_fract_x
 _atom_site_fract_y
 _atom_site_fract_z
 _atom_site_occupancy
  Cs  Cs0  1  0.92072554  0.62453869  0.88920719  1
  Cs  Cs1  1  0.42072554  0.37546131  0.61079281  1
  Cs  Cs2  1  0.07927446  0.37546131  0.11079281  1
  Cs  Cs3  1  0.57927446  0.62453869  0.38920719  1
  Cs  Cs4  1  0.37911625  0.70744755  0.83985573  1
  Cs  Cs5  1  0.87911625  0.29255245  0.66014427  1
  Cs  Cs6  1  0.62088375  0.29255245  0.16014427  1
  Cs  Cs7  1  0.12088375  0.70744755  0.33985573  1
  Cs  Cs8  1  0.52805034  0.84631890  0.03122679  1
  Cs  Cs9  1  0.02805034  0.15368110  0.46877321  1
  Cs  Cs10  1  0.47194966  0.15368110  0.96877321  1
  Cs  Cs11  1  0.97194966  0.84631890  0.53122679  1
  Cs  Cs12  1  0.40810721  0.74106013  0.57601656  1
  Cs  Cs13  1  0.90810721  0.25893987  0.92398344  1
  Cs  Cs14  1  0.59189279  0.25893987  0.42398344  1
  Cs  Cs15  1  0.09189279  0.74106013  0.07601656  1
  Cs  Cs16  1  0.04788644  0.92185969  0.75838751  1
  Cs  Cs17  1  0.54788644  0.07814031  0.74161249  1
  Cs  Cs18  1  0.95211356  0.07814031  0.24161249  1
  Cs  Cs19  1  0.45211356  0.92185969  0.25838751  1
  Cs  Cs20  1  0.74556748  0.63996995  0.70801715  1
  Cs  Cs21  1  0.24556748  0.36003005  0.79198285  1
  Cs  Cs22  1  0.25443252  0.36003005  0.29198285  1
  Cs  Cs23  1  0.75443252  0.63996995  0.20801715  1
  Ga  Ga24  1  0.88062842  0.95358535  0.94381477  1
  Ga  Ga25  1  0.38062842  0.04641465  0.55618523  1
  Ga  Ga26  1  0.11937158  0.04641465  0.05618523  1
  Ga  Ga27  1  0.61937158  0.95358535  0.44381477  1
  Ga  Ga28  1  0.05572622  0.53892598  0.57605385  1
  Ga  Ga29  1  0.55572622  0.46107402  0.92394615  1
  Ga  Ga30  1  0.94427378  0.46107402  0.42394615  1
  Ga  Ga31  1  0.44427378  0.53892598  0.07605385  1
  As  As32  1  0.69973605  0.89488165  0.85829303  1
  As  As33  1  0.19973605  0.10511835  0.64170697  1
  As  As34  1  0.30026395  0.10511835  0.14170697  1
  As  As35  1  0.80026395  0.89488165  0.35829303  1
  As  As36  1  0.84447524  0.04571801  0.06544792  1
  As  As37  1  0.34447524  0.95428199  0.43455208  1
  As  As38  1  0.15552476  0.95428199  0.93455208  1
  As  As39  1  0.65552476  0.04571801  0.56544792  1
  As  As40  1  0.79631589  0.50811972  0.53152606  1
  As  As41  1  0.29631589  0.49188028  0.96847394  1
  As  As42  1  0.20368411  0.49188028  0.46847394  1
  As  As43  1  0.70368411  0.50811972  0.03152606  1
  As  As44  1  0.14311834  0.60070500  0.69052022  1
  As  As45  1  0.64311834  0.39929500  0.80947978  1
  As  As46  1  0.85688166  0.39929500  0.30947978  1
  As  As47  1  0.35688166  0.60070500  0.19052022  1
