# generated using pymatgen
data_TiMnH12(OF)6
_symmetry_space_group_name_H-M   'P 1'
_cell_length_a   6.63787990
_cell_length_b   6.63788025
_cell_length_c   6.63788049
_cell_angle_alpha   96.48290275
_cell_angle_beta   96.48290306
_cell_angle_gamma   96.48289863
_symmetry_Int_Tables_number   1
_chemical_formula_structural   TiMnH12(OF)6
_chemical_formula_sum   'Ti1 Mn1 H12 O6 F6'
_cell_volume   286.39789019
_cell_formula_units_Z   1
loop_
 _symmetry_equiv_pos_site_id
 _symmetry_equiv_pos_as_xyz
  1  'x, y, z'
loop_
 _atom_site_type_symbol
 _atom_site_label
 _atom_site_symmetry_multiplicity
 _atom_site_fract_x
 _atom_site_fract_y
 _atom_site_fract_z
 _atom_site_occupancy
  Mn  Mn0  1  0.00000000  0.00000000  0.00000000  1
  Ti  Ti1  1  0.50000000  0.50000000  0.50000000  1
  F  F2  1  0.25408039  0.35926566  0.56228449  1
  F  F3  1  0.56228449  0.25408039  0.35926566  1
  F  F4  1  0.35926566  0.56228449  0.25408039  1
  F  F5  1  0.74591961  0.64073434  0.43771551  1
  F  F6  1  0.43771551  0.74591961  0.64073434  1
  F  F7  1  0.64073434  0.43771551  0.74591961  1
  O  O8  1  0.12931148  0.30163245  0.93645173  1
  O  O9  1  0.93645173  0.12931148  0.30163245  1
  O  O10  1  0.30163245  0.93645173  0.12931148  1
  O  O11  1  0.87068852  0.69836755  0.06354827  1
  O  O12  1  0.06354827  0.87068852  0.69836755  1
  O  O13  1  0.69836755  0.06354827  0.87068852  1
  H  H14  1  0.18291923  0.31906061  0.80647369  1
  H  H15  1  0.80647370  0.18291923  0.31906061  1
  H  H16  1  0.31906061  0.80647369  0.18291923  1
  H  H17  1  0.81708077  0.68093939  0.19352631  1
  H  H18  1  0.19352630  0.81708077  0.68093939  1
  H  H19  1  0.68093939  0.19352631  0.81708077  1
  H  H20  1  0.20933539  0.40352640  0.04307105  1
  H  H21  1  0.04307104  0.20933539  0.40352640  1
  H  H22  1  0.40352640  0.04307104  0.20933539  1
  H  H23  1  0.79066461  0.59647360  0.95692895  1
  H  H24  1  0.95692896  0.79066461  0.59647360  1
  H  H25  1  0.59647360  0.95692896  0.79066461  1
