# generated using pymatgen
data_AuCl2
_symmetry_space_group_name_H-M   'P 1'
_cell_length_a   7.15052853
_cell_length_b   7.30425434
_cell_length_c   7.35052765
_cell_angle_alpha   88.17717644
_cell_angle_beta   69.74027288
_cell_angle_gamma   86.62600016
_symmetry_Int_Tables_number   1
_chemical_formula_structural   AuCl2
_chemical_formula_sum   'Au4 Cl8'
_cell_volume   359.50999507
_cell_formula_units_Z   4
loop_
 _symmetry_equiv_pos_site_id
 _symmetry_equiv_pos_as_xyz
  1  'x, y, z'
loop_
 _atom_site_type_symbol
 _atom_site_label
 _atom_site_symmetry_multiplicity
 _atom_site_fract_x
 _atom_site_fract_y
 _atom_site_fract_z
 _atom_site_occupancy
  Au  Au0  1  0.72724467  0.51711948  0.46191017  1
  Au  Au1  1  0.27275533  0.48288052  0.53808983  1
  Au  Au2  1  0.62239206  0.24745048  0.09283055  1
  Au  Au3  1  0.37760794  0.75254952  0.90716945  1
  Cl  Cl4  1  0.82222717  0.24440835  0.29324333  1
  Cl  Cl5  1  0.17777283  0.75559165  0.70675667  1
  Cl  Cl6  1  0.33203383  0.20849528  0.37404527  1
  Cl  Cl7  1  0.66796617  0.79150472  0.62595473  1
  Cl  Cl8  1  0.42771388  0.24994014  0.89963218  1
  Cl  Cl9  1  0.57228612  0.75005986  0.10036782  1
  Cl  Cl10  1  0.90358699  0.28195917  0.82176616  1
  Cl  Cl11  1  0.09641301  0.71804083  0.17823384  1
