# generated using pymatgen
data_Nd4Os6O19
_symmetry_space_group_name_H-M   'P 1'
_cell_length_a   7.88084021
_cell_length_b   7.88083975
_cell_length_c   7.88084063
_cell_angle_alpha   109.47122021
_cell_angle_beta   109.47121896
_cell_angle_gamma   109.47122343
_symmetry_Int_Tables_number   1
_chemical_formula_structural   Nd4Os6O19
_chemical_formula_sum   'Nd4 Os6 O19'
_cell_volume   376.78679067
_cell_formula_units_Z   1
loop_
 _symmetry_equiv_pos_site_id
 _symmetry_equiv_pos_as_xyz
  1  'x, y, z'
loop_
 _atom_site_type_symbol
 _atom_site_label
 _atom_site_symmetry_multiplicity
 _atom_site_fract_x
 _atom_site_fract_y
 _atom_site_fract_z
 _atom_site_occupancy
  Nd  Nd0  1  0.30801680  0.30801680  0.30801680  1
  Nd  Nd1  1  1.00000000  0.69198320  1.00000000  1
  Nd  Nd2  1  0.00000000  0.00000000  0.69198320  1
  Nd  Nd3  1  0.69198320  1.00000000  1.00000000  1
  Os  Os4  1  0.50000000  0.36232898  0.86232898  1
  Os  Os5  1  0.63767102  0.13767102  0.50000000  1
  Os  Os6  1  0.13767102  0.50000000  0.63767102  1
  Os  Os7  1  0.36232898  0.86232898  0.50000000  1
  Os  Os8  1  0.86232898  0.50000000  0.36232898  1
  Os  Os9  1  0.50000000  0.63767102  0.13767102  1
  O  O10  1  0.00000000  0.32162163  0.32162163  1
  O  O11  1  0.67837837  0.67837837  1.00000000  1
  O  O12  1  0.67837837  0.00000000  0.67837837  1
  O  O13  1  0.32162163  0.32162163  0.00000000  1
  O  O14  1  0.32162163  1.00000000  0.32162163  1
  O  O15  1  1.00000000  0.67837837  0.67837837  1
  O  O16  1  0.00000000  0.00000000  0.00000000  1
  O  O17  1  0.27679684  0.33526071  0.62420810  1
  O  O18  1  0.65258873  0.37579190  0.71105261  1
  O  O19  1  0.94153612  0.28894739  0.66473929  1
  O  O20  1  0.34741127  0.05846388  0.72320316  1
  O  O21  1  0.37579190  0.71105261  0.65258873  1
  O  O22  1  0.66473929  0.94153612  0.28894739  1
  O  O23  1  0.05846388  0.72320316  0.34741127  1
  O  O24  1  0.62420810  0.27679684  0.33526071  1
  O  O25  1  0.33526071  0.62420810  0.27679684  1
  O  O26  1  0.71105261  0.65258873  0.37579190  1
  O  O27  1  0.28894739  0.66473929  0.94153612  1
  O  O28  1  0.72320316  0.34741127  0.05846388  1
