# generated using pymatgen
data_SbP2O7
_symmetry_space_group_name_H-M   'P 1'
_cell_length_a   8.22587002
_cell_length_b   8.31073118
_cell_length_c   16.33308315
_cell_angle_alpha   90.00000000
_cell_angle_beta   90.00000000
_cell_angle_gamma   90.17792783
_symmetry_Int_Tables_number   1
_chemical_formula_structural   SbP2O7
_chemical_formula_sum   'Sb8 P16 O56'
_cell_volume   1116.57308855
_cell_formula_units_Z   8
loop_
 _symmetry_equiv_pos_site_id
 _symmetry_equiv_pos_as_xyz
  1  'x, y, z'
loop_
 _atom_site_type_symbol
 _atom_site_label
 _atom_site_symmetry_multiplicity
 _atom_site_fract_x
 _atom_site_fract_y
 _atom_site_fract_z
 _atom_site_occupancy
  Sb  Sb0  1  0.84565651  0.52825659  0.87319368  1
  Sb  Sb1  1  0.15434349  0.97174341  0.37319368  1
  Sb  Sb2  1  0.15434349  0.47174341  0.12680632  1
  Sb  Sb3  1  0.84565651  0.02825659  0.62680632  1
  Sb  Sb4  1  0.63135588  0.48442280  0.36675005  1
  Sb  Sb5  1  0.36864412  0.01557720  0.86675005  1
  Sb  Sb6  1  0.36864412  0.51557720  0.63324995  1
  Sb  Sb7  1  0.63135588  0.98442280  0.13324995  1
  P  P8  1  0.96649131  0.40344479  0.67811731  1
  P  P9  1  0.03350869  0.09655521  0.17811731  1
  P  P10  1  0.03350869  0.59655521  0.32188269  1
  P  P11  1  0.96649131  0.90344479  0.82188269  1
  P  P12  1  0.45931053  0.11153629  0.66702246  1
  P  P13  1  0.54068947  0.38846371  0.16702246  1
  P  P14  1  0.54068947  0.88846371  0.33297754  1
  P  P15  1  0.45931053  0.61153629  0.83297754  1
  P  P16  1  0.74688453  0.63832967  0.58936562  1
  P  P17  1  0.25311547  0.86167033  0.08936562  1
  P  P18  1  0.25311547  0.36167033  0.41063438  1
  P  P19  1  0.74688453  0.13832967  0.91063438  1
  P  P20  1  0.78078977  0.07267063  0.42802313  1
  P  P21  1  0.21921023  0.42732937  0.92802313  1
  P  P22  1  0.21921023  0.92732937  0.57197687  1
  P  P23  1  0.78078977  0.57267063  0.07197687  1
  O  O24  1  0.92888963  0.95772462  0.41574938  1
  O  O25  1  0.07111037  0.54227538  0.91574938  1
  O  O26  1  0.07111037  0.04227538  0.58425062  1
  O  O27  1  0.92888963  0.45772462  0.08425062  1
  O  O28  1  0.77320380  0.21676617  0.37403513  1
  O  O29  1  0.22679620  0.28323383  0.87403513  1
  O  O30  1  0.22679620  0.78323383  0.62596487  1
  O  O31  1  0.77320380  0.71676617  0.12596487  1
  O  O32  1  0.62882697  0.95200130  0.41541406  1
  O  O33  1  0.37117303  0.54799870  0.91541406  1
  O  O34  1  0.37117303  0.04799870  0.58458594  1
  O  O35  1  0.62882697  0.45200130  0.08458594  1
  O  O36  1  0.62168174  0.01507485  0.66998106  1
  O  O37  1  0.37831826  0.48492515  0.16998106  1
  O  O38  1  0.37831826  0.98492515  0.33001894  1
  O  O39  1  0.62168174  0.51507485  0.83001894  1
  O  O40  1  0.76653254  0.11861747  0.52051381  1
  O  O41  1  0.23346746  0.38138253  0.02051381  1
  O  O42  1  0.23346746  0.88138253  0.47948619  1
  O  O43  1  0.76653254  0.61861747  0.97948619  1
  O  O44  1  0.62332144  0.62794158  0.65825831  1
  O  O45  1  0.37667856  0.87205842  0.15825831  1
  O  O46  1  0.37667856  0.37205842  0.34174169  1
  O  O47  1  0.62332144  0.12794158  0.84174169  1
  O  O48  1  0.51091286  0.70956997  0.34394434  1
  O  O49  1  0.48908714  0.79043003  0.84394434  1
  O  O50  1  0.48908714  0.29043003  0.65605566  1
  O  O51  1  0.51091286  0.20956997  0.15605566  1
  O  O52  1  0.85678518  0.25349511  0.66591084  1
  O  O53  1  0.14321482  0.24650489  0.16591084  1
  O  O54  1  0.14321482  0.74650489  0.33408916  1
  O  O55  1  0.85678518  0.75349511  0.83408916  1
  O  O56  1  0.85570114  0.62533730  0.33796945  1
  O  O57  1  0.14429886  0.87466270  0.83796945  1
  O  O58  1  0.14429886  0.37466270  0.66203055  1
  O  O59  1  0.85570114  0.12533730  0.16203055  1
  O  O60  1  0.64700778  0.43949864  0.23861296  1
  O  O61  1  0.35299222  0.06050136  0.73861296  1
  O  O62  1  0.35299222  0.56050136  0.76138704  1
  O  O63  1  0.64700778  0.93949864  0.26138704  1
  O  O64  1  0.82926180  0.80944918  0.58255337  1
  O  O65  1  0.17073820  0.69055082  0.08255337  1
  O  O66  1  0.17073820  0.19055082  0.41744663  1
  O  O67  1  0.82926180  0.30944918  0.91744663  1
  O  O68  1  0.90779669  0.53420230  0.61451790  1
  O  O69  1  0.09220331  0.96579770  0.11451790  1
  O  O70  1  0.09220331  0.46579770  0.38548210  1
  O  O71  1  0.90779669  0.03420230  0.88548210  1
  O  O72  1  0.69022958  0.58309918  0.50697475  1
  O  O73  1  0.30977042  0.91690082  0.00697475  1
  O  O74  1  0.30977042  0.41690082  0.49302525  1
  O  O75  1  0.69022958  0.08309918  0.99302525  1
  O  O76  1  0.93608808  0.46531104  0.76558060  1
  O  O77  1  0.06391192  0.03468896  0.26558060  1
  O  O78  1  0.06391192  0.53468896  0.23441940  1
  O  O79  1  0.93608808  0.96531104  0.73441940  1
