# generated using pymatgen
data_K3AlAs2
_symmetry_space_group_name_H-M   'P 1'
_cell_length_a   9.16589365
_cell_length_b   12.29254829
_cell_length_c   15.70399513
_cell_angle_alpha   96.89276478
_cell_angle_beta   107.00157036
_cell_angle_gamma   108.01649823
_symmetry_Int_Tables_number   1
_chemical_formula_structural   K3AlAs2
_chemical_formula_sum   'K24 Al8 As16'
_cell_volume   1565.43038042
_cell_formula_units_Z   8
loop_
 _symmetry_equiv_pos_site_id
 _symmetry_equiv_pos_as_xyz
  1  'x, y, z'
loop_
 _atom_site_type_symbol
 _atom_site_label
 _atom_site_symmetry_multiplicity
 _atom_site_fract_x
 _atom_site_fract_y
 _atom_site_fract_z
 _atom_site_occupancy
  K  K0  1  0.96451726  0.91738126  0.30860377  1
  K  K1  1  0.03548274  0.08261874  0.69139623  1
  K  K2  1  0.48492465  0.39946496  0.30778490  1
  K  K3  1  0.51507535  0.60053504  0.69221510  1
  K  K4  1  0.51330976  0.76026800  0.31802190  1
  K  K5  1  0.48669024  0.23973200  0.68197810  1
  K  K6  1  0.16431764  0.75171554  0.38329364  1
  K  K7  1  0.83568236  0.24828446  0.61670636  1
  K  K8  1  0.07962338  0.42501593  0.24306180  1
  K  K9  1  0.92037662  0.57498407  0.75693820  1
  K  K10  1  0.42966124  0.10806587  0.41299622  1
  K  K11  1  0.57033876  0.89193413  0.58700378  1
  K  K12  1  0.71402995  0.07856641  0.25527930  1
  K  K13  1  0.28597005  0.92143359  0.74472070  1
  K  K14  1  0.67817637  0.57323392  0.15844126  1
  K  K15  1  0.32182363  0.42676608  0.84155874  1
  K  K16  1  0.12067756  0.09811457  0.14950836  1
  K  K17  1  0.87932244  0.90188543  0.85049164  1
  K  K18  1  0.90225579  0.37616508  0.41533359  1
  K  K19  1  0.09774421  0.62383492  0.58466641  1
  K  K20  1  0.66117157  0.08237691  0.97858046  1
  K  K21  1  0.33882843  0.91762309  0.02141954  1
  K  K22  1  0.20477641  0.62599597  0.02412620  1
  K  K23  1  0.79522359  0.37400403  0.97587380  1
  Al  Al24  1  0.33310809  0.38799846  0.48989598  1
  Al  Al25  1  0.66689191  0.61200154  0.51010402  1
  Al  Al26  1  0.08382125  0.14254713  0.49111714  1
  Al  Al27  1  0.91617875  0.85745287  0.50888286  1
  Al  Al28  1  0.92792214  0.77987506  0.07654570  1
  Al  Al29  1  0.07207786  0.22012494  0.92345430  1
  Al  Al30  1  0.41266993  0.26890019  0.05378621  1
  Al  Al31  1  0.58733007  0.73109981  0.94621379  1
  As  As32  1  0.13602854  0.21905043  0.35483640  1
  As  As33  1  0.86397146  0.78094957  0.64516360  1
  As  As34  1  0.21248695  0.98776511  0.53897736  1
  As  As35  1  0.78751305  0.01223489  0.46102264  1
  As  As36  1  0.80590866  0.66004777  0.39364587  1
  As  As37  1  0.19409134  0.33995223  0.60635413  1
  As  As38  1  0.36528705  0.59103915  0.45911771  1
  As  As39  1  0.63471295  0.40896085  0.54088229  1
  As  As40  1  0.19559967  0.83295455  0.18456371  1
  As  As41  1  0.80440033  0.16704545  0.81543629  1
  As  As42  1  0.67018075  0.29266466  0.15884658  1
  As  As43  1  0.32981925  0.70733534  0.84115342  1
  As  As44  1  0.22274306  0.37013381  0.06921408  1
  As  As45  1  0.77725694  0.62986619  0.93078592  1
  As  As46  1  0.72673757  0.86973339  0.09453724  1
  As  As47  1  0.27326243  0.13026661  0.90546276  1
