# generated using pymatgen
data_Na2W(OF2)2
_symmetry_space_group_name_H-M   'P 1'
_cell_length_a   5.13816720
_cell_length_b   5.54059484
_cell_length_c   18.71341458
_cell_angle_alpha   90.00000000
_cell_angle_beta   90.00000000
_cell_angle_gamma   90.00000000
_symmetry_Int_Tables_number   1
_chemical_formula_structural   Na2W(OF2)2
_chemical_formula_sum   'Na8 W4 O8 F16'
_cell_volume   532.74289304
_cell_formula_units_Z   4
loop_
 _symmetry_equiv_pos_site_id
 _symmetry_equiv_pos_as_xyz
  1  'x, y, z'
loop_
 _atom_site_type_symbol
 _atom_site_label
 _atom_site_symmetry_multiplicity
 _atom_site_fract_x
 _atom_site_fract_y
 _atom_site_fract_z
 _atom_site_occupancy
  W  W0  1  0.00000000  0.75000000  0.89272855  1
  W  W1  1  0.50000000  0.25000000  0.60727145  1
  W  W2  1  0.00000000  0.25000000  0.10727145  1
  W  W3  1  0.50000000  0.75000000  0.39272855  1
  Na  Na4  1  0.00000000  0.75000000  0.22935761  1
  Na  Na5  1  0.50000000  0.25000000  0.27064239  1
  Na  Na6  1  0.00000000  0.25000000  0.77064239  1
  Na  Na7  1  0.50000000  0.75000000  0.72935761  1
  Na  Na8  1  0.00000000  0.75000000  0.55118909  1
  Na  Na9  1  0.50000000  0.25000000  0.94881091  1
  Na  Na10  1  0.00000000  0.25000000  0.44881091  1
  Na  Na11  1  0.50000000  0.75000000  0.05118909  1
  O  O12  1  0.77166797  0.88469068  0.95192656  1
  O  O13  1  0.27166797  0.11530932  0.54807344  1
  O  O14  1  0.72833203  0.38469068  0.54807344  1
  O  O15  1  0.22833203  0.61530932  0.95192656  1
  O  O16  1  0.22833203  0.11530932  0.04807344  1
  O  O17  1  0.72833203  0.88469068  0.45192656  1
  O  O18  1  0.27166797  0.61530932  0.45192656  1
  O  O19  1  0.77166797  0.38469068  0.04807344  1
  F  F20  1  0.71028245  0.95934971  0.62586189  1
  F  F21  1  0.21028245  0.04065029  0.87413811  1
  F  F22  1  0.78971755  0.45934971  0.87413811  1
  F  F23  1  0.28971755  0.54065029  0.62586189  1
  F  F24  1  0.28971755  0.04065029  0.37413811  1
  F  F25  1  0.78971755  0.95934971  0.12586189  1
  F  F26  1  0.21028245  0.54065029  0.12586189  1
  F  F27  1  0.71028245  0.45934971  0.37413811  1
  F  F28  1  0.80164652  0.89427469  0.80576586  1
  F  F29  1  0.30164652  0.10572431  0.69423414  1
  F  F30  1  0.69835348  0.39427469  0.69423414  1
  F  F31  1  0.19835348  0.60572531  0.80576586  1
  F  F32  1  0.19835348  0.10572431  0.19423414  1
  F  F33  1  0.69835348  0.89427469  0.30576586  1
  F  F34  1  0.30164652  0.60572531  0.30576586  1
  F  F35  1  0.80164652  0.39427469  0.19423414  1
