# generated using pymatgen
data_Cd2AsO4F
_symmetry_space_group_name_H-M   'P 1'
_cell_length_a   6.98953804
_cell_length_b   8.06821530
_cell_length_c   10.20507568
_cell_angle_alpha   72.69263759
_cell_angle_beta   69.97354434
_cell_angle_gamma   64.33219398
_symmetry_Int_Tables_number   1
_chemical_formula_structural   Cd2AsO4F
_chemical_formula_sum   'Cd8 As4 O16 F4'
_cell_volume   479.72254069
_cell_formula_units_Z   4
loop_
 _symmetry_equiv_pos_site_id
 _symmetry_equiv_pos_as_xyz
  1  'x, y, z'
loop_
 _atom_site_type_symbol
 _atom_site_label
 _atom_site_symmetry_multiplicity
 _atom_site_fract_x
 _atom_site_fract_y
 _atom_site_fract_z
 _atom_site_occupancy
  Cd  Cd0  1  0.68717568  0.11459725  0.99049586  1
  Cd  Cd1  1  0.79226879  0.38540275  0.50950414  1
  Cd  Cd2  1  0.31282432  0.88540275  0.00950414  1
  Cd  Cd3  1  0.20773121  0.61459725  0.49049586  1
  Cd  Cd4  1  0.25849114  0.04134059  0.65147399  1
  Cd  Cd5  1  0.95130572  0.45865941  0.84852601  1
  Cd  Cd6  1  0.74150886  0.95865941  0.34852601  1
  Cd  Cd7  1  0.04869428  0.54134059  0.15147399  1
  As  As8  1  0.41669337  0.54738051  0.80688546  1
  As  As9  1  0.77095933  0.95261949  0.69311454  1
  As  As10  1  0.58330663  0.45261949  0.19311454  1
  As  As11  1  0.22904067  0.04738051  0.30688546  1
  O  O12  1  0.60532161  0.03492531  0.57794561  1
  O  O13  1  0.21819253  0.46507469  0.92205439  1
  O  O14  1  0.39467839  0.96507469  0.42205439  1
  O  O15  1  0.78180747  0.53492531  0.07794561  1
  O  O16  1  0.64467368  0.22414251  0.18521938  1
  O  O17  1  0.05403556  0.27585749  0.31478062  1
  O  O18  1  0.35532632  0.77585749  0.81478062  1
  O  O19  1  0.94596444  0.72414251  0.68521938  1
  O  O20  1  0.54605760  0.47110172  0.36441493  1
  O  O21  1  0.38157425  0.02889828  0.13558507  1
  O  O22  1  0.45394240  0.52889828  0.63558507  1
  O  O23  1  0.61842575  0.97110172  0.86441493  1
  O  O24  1  0.34281001  0.59635355  0.14255160  1
  O  O25  1  0.08171516  0.90364645  0.35744840  1
  O  O26  1  0.65718999  0.40364645  0.85744840  1
  O  O27  1  0.91828484  0.09635355  0.64255160  1
  F  F28  1  0.90026692  0.63404979  0.38939434  1
  F  F29  1  0.92371105  0.86595021  0.11060566  1
  F  F30  1  0.09973308  0.36595021  0.61060566  1
  F  F31  1  0.07628895  0.13404979  0.88939434  1
