# generated using pymatgen
data_K2Na3SiP3
_symmetry_space_group_name_H-M   'P 1'
_cell_length_a   4.80082240
_cell_length_b   13.22247543
_cell_length_c   14.66371548
_cell_angle_alpha   90.00000000
_cell_angle_beta   90.00000000
_cell_angle_gamma   90.00000000
_symmetry_Int_Tables_number   1
_chemical_formula_structural   K2Na3SiP3
_chemical_formula_sum   'K8 Na12 Si4 P12'
_cell_volume   930.83442035
_cell_formula_units_Z   4
loop_
 _symmetry_equiv_pos_site_id
 _symmetry_equiv_pos_as_xyz
  1  'x, y, z'
loop_
 _atom_site_type_symbol
 _atom_site_label
 _atom_site_symmetry_multiplicity
 _atom_site_fract_x
 _atom_site_fract_y
 _atom_site_fract_z
 _atom_site_occupancy
  Na  Na0  1  0.25000000  0.42885489  0.55909657  1
  Na  Na1  1  0.75000000  0.57114511  0.44090343  1
  Na  Na2  1  0.75000000  0.92885489  0.94090343  1
  Na  Na3  1  0.25000000  0.07114511  0.05909657  1
  Na  Na4  1  0.25000000  0.81711816  0.08402214  1
  Na  Na5  1  0.75000000  0.18288184  0.91597786  1
  Na  Na6  1  0.75000000  0.31711816  0.41597786  1
  Na  Na7  1  0.25000000  0.68288184  0.58402214  1
  Na  Na8  1  0.25000000  0.23381421  0.25752606  1
  Na  Na9  1  0.75000000  0.76618579  0.74247394  1
  Na  Na10  1  0.75000000  0.73381421  0.24247394  1
  Na  Na11  1  0.25000000  0.26618579  0.75752606  1
  K  K12  1  0.25000000  0.94056967  0.29826083  1
  K  K13  1  0.75000000  0.05943033  0.70173917  1
  K  K14  1  0.75000000  0.44056967  0.20173917  1
  K  K15  1  0.25000000  0.55943033  0.79826083  1
  K  K16  1  0.25000000  0.13620154  0.51198918  1
  K  K17  1  0.75000000  0.86379846  0.48801082  1
  K  K18  1  0.75000000  0.63620154  0.98801082  1
  K  K19  1  0.25000000  0.36379846  0.01198918  1
  Si  Si20  1  0.25000000  0.58436024  0.29677990  1
  Si  Si21  1  0.75000000  0.41563976  0.70322010  1
  Si  Si22  1  0.75000000  0.08436024  0.20322010  1
  Si  Si23  1  0.25000000  0.91563976  0.79677990  1
  P  P24  1  0.25000000  0.60406601  0.14806299  1
  P  P25  1  0.75000000  0.39593399  0.85193701  1
  P  P26  1  0.75000000  0.10406601  0.35193701  1
  P  P27  1  0.25000000  0.89593399  0.64806299  1
  P  P28  1  0.25000000  0.43276590  0.35941861  1
  P  P29  1  0.75000000  0.56723410  0.64058139  1
  P  P30  1  0.75000000  0.93276590  0.14058139  1
  P  P31  1  0.25000000  0.06723410  0.85941861  1
  P  P32  1  0.25000000  0.71616982  0.38650761  1
  P  P33  1  0.75000000  0.28383018  0.61349239  1
  P  P34  1  0.75000000  0.21616982  0.11349239  1
  P  P35  1  0.25000000  0.78383018  0.88650761  1
