# generated using pymatgen
data_Cs2TlCl5
_symmetry_space_group_name_H-M   'P 1'
_cell_length_a   7.64795442
_cell_length_b   9.61388394
_cell_length_c   15.27837172
_cell_angle_alpha   90.00000000
_cell_angle_beta   90.00000000
_cell_angle_gamma   90.00000000
_symmetry_Int_Tables_number   1
_chemical_formula_structural   Cs2TlCl5
_chemical_formula_sum   'Cs8 Tl4 Cl20'
_cell_volume   1123.36590371
_cell_formula_units_Z   4
loop_
 _symmetry_equiv_pos_site_id
 _symmetry_equiv_pos_as_xyz
  1  'x, y, z'
loop_
 _atom_site_type_symbol
 _atom_site_label
 _atom_site_symmetry_multiplicity
 _atom_site_fract_x
 _atom_site_fract_y
 _atom_site_fract_z
 _atom_site_occupancy
  Tl  Tl0  1  0.75000000  0.81192850  0.92972393  1
  Tl  Tl1  1  0.25000000  0.18807150  0.07027607  1
  Tl  Tl2  1  0.75000000  0.31192850  0.57027607  1
  Tl  Tl3  1  0.25000000  0.68807150  0.42972393  1
  Cs  Cs4  1  0.25000000  0.96900744  0.79765995  1
  Cs  Cs5  1  0.75000000  0.03099256  0.20234005  1
  Cs  Cs6  1  0.25000000  0.46900744  0.70234005  1
  Cs  Cs7  1  0.75000000  0.53099256  0.29765995  1
  Cs  Cs8  1  0.75000000  0.82320093  0.57819530  1
  Cs  Cs9  1  0.25000000  0.17679907  0.42180470  1
  Cs  Cs10  1  0.75000000  0.32320093  0.92180470  1
  Cs  Cs11  1  0.25000000  0.67679907  0.07819530  1
  Cl  Cl12  1  0.00000000  0.00000000  0.00000000  1
  Cl  Cl13  1  0.50000000  0.00000000  0.00000000  1
  Cl  Cl14  1  0.50000000  0.50000000  0.50000000  1
  Cl  Cl15  1  0.00000000  0.50000000  0.50000000  1
  Cl  Cl16  1  0.49446097  0.65824288  0.87584737  1
  Cl  Cl17  1  0.99446097  0.34175712  0.12415263  1
  Cl  Cl18  1  0.00553903  0.15824288  0.62415263  1
  Cl  Cl19  1  0.50553903  0.84175712  0.37584737  1
  Cl  Cl20  1  0.50553903  0.34175712  0.12415263  1
  Cl  Cl21  1  0.00553903  0.65824288  0.87584737  1
  Cl  Cl22  1  0.99446097  0.84175712  0.37584737  1
  Cl  Cl23  1  0.49446097  0.15824288  0.62415263  1
  Cl  Cl24  1  0.75000000  0.70366013  0.08407678  1
  Cl  Cl25  1  0.25000000  0.29633987  0.91592322  1
  Cl  Cl26  1  0.75000000  0.20366013  0.41592322  1
  Cl  Cl27  1  0.25000000  0.79633987  0.58407678  1
  Cl  Cl28  1  0.75000000  0.97326322  0.79847944  1
  Cl  Cl29  1  0.25000000  0.02673678  0.20152056  1
  Cl  Cl30  1  0.75000000  0.47326322  0.70152056  1
  Cl  Cl31  1  0.25000000  0.52673678  0.29847944  1
