# generated using pymatgen
data_K3GaS3
_symmetry_space_group_name_H-M   'P 1'
_cell_length_a   7.83411895
_cell_length_b   8.23976782
_cell_length_c   12.74268222
_cell_angle_alpha   90.00000000
_cell_angle_beta   90.00000000
_cell_angle_gamma   101.16436740
_symmetry_Int_Tables_number   1
_chemical_formula_structural   K3GaS3
_chemical_formula_sum   'K12 Ga4 S12'
_cell_volume   806.99070842
_cell_formula_units_Z   4
loop_
 _symmetry_equiv_pos_site_id
 _symmetry_equiv_pos_as_xyz
  1  'x, y, z'
loop_
 _atom_site_type_symbol
 _atom_site_label
 _atom_site_symmetry_multiplicity
 _atom_site_fract_x
 _atom_site_fract_y
 _atom_site_fract_z
 _atom_site_occupancy
  K  K0  1  0.26596800  0.60745108  0.08940910  1
  K  K1  1  0.23403200  0.89254892  0.58940910  1
  K  K2  1  0.73403200  0.39254892  0.91059090  1
  K  K3  1  0.76596800  0.10745108  0.41059090  1
  K  K4  1  0.28483004  0.42275716  0.81100320  1
  K  K5  1  0.21516996  0.07724284  0.31100320  1
  K  K6  1  0.71516996  0.57724284  0.18899680  1
  K  K7  1  0.78483004  0.92275716  0.68899680  1
  K  K8  1  0.14476287  0.52646003  0.37326754  1
  K  K9  1  0.35523713  0.97353997  0.87326754  1
  K  K10  1  0.85523713  0.47353997  0.62673246  1
  K  K11  1  0.64476287  0.02646003  0.12673246  1
  Ga  Ga12  1  0.09825187  0.16392162  0.06005734  1
  Ga  Ga13  1  0.40174813  0.33607838  0.56005734  1
  Ga  Ga14  1  0.90174813  0.83607838  0.93994266  1
  Ga  Ga15  1  0.59825187  0.66392162  0.43994266  1
  S  S16  1  0.46612518  0.62162136  0.60614988  1
  S  S17  1  0.03387482  0.87837864  0.10614988  1
  S  S18  1  0.53387482  0.37837864  0.39385012  1
  S  S19  1  0.96612518  0.12162136  0.89385012  1
  S  S20  1  0.46510547  0.81047165  0.32450341  1
  S  S21  1  0.03489453  0.68952835  0.82450341  1
  S  S22  1  0.53489453  0.18952835  0.67549659  1
  S  S23  1  0.96510547  0.31047165  0.17549659  1
  S  S24  1  0.88841260  0.76264662  0.45465196  1
  S  S25  1  0.61158740  0.73735338  0.95465196  1
  S  S26  1  0.11158740  0.23735338  0.54534804  1
  S  S27  1  0.38841260  0.26264662  0.04534804  1
