# generated using pymatgen
data_Nb3Tl2Br9
_symmetry_space_group_name_H-M   'P 1'
_cell_length_a   10.18315185
_cell_length_b   10.18315178
_cell_length_c   10.39055308
_cell_angle_alpha   104.83633491
_cell_angle_beta   104.83633482
_cell_angle_gamma   111.91830552
_symmetry_Int_Tables_number   1
_chemical_formula_structural   Nb3Tl2Br9
_chemical_formula_sum   'Nb6 Tl4 Br18'
_cell_volume   888.87717818
_cell_formula_units_Z   2
loop_
 _symmetry_equiv_pos_site_id
 _symmetry_equiv_pos_as_xyz
  1  'x, y, z'
loop_
 _atom_site_type_symbol
 _atom_site_label
 _atom_site_symmetry_multiplicity
 _atom_site_fract_x
 _atom_site_fract_y
 _atom_site_fract_z
 _atom_site_occupancy
  Nb  Nb0  1  0.89640018  0.89640018  0.12472070  1
  Nb  Nb1  1  0.10359982  0.10359982  0.87527930  1
  Nb  Nb2  1  0.78477504  0.96092526  0.86460348  1
  Nb  Nb3  1  0.03907474  0.21522496  0.13539652  1
  Nb  Nb4  1  0.21522496  0.03907474  0.13539652  1
  Nb  Nb5  1  0.96092526  0.78477504  0.86460348  1
  Tl  Tl6  1  0.44965251  0.76019832  0.33890670  1
  Tl  Tl7  1  0.23980168  0.55034749  0.66109330  1
  Tl  Tl8  1  0.55034749  0.23980168  0.66109330  1
  Tl  Tl9  1  0.76019832  0.44965251  0.33890670  1
  Br  Br10  1  0.68430528  0.68430528  0.66911909  1
  Br  Br11  1  0.31569472  0.31569472  0.33088091  1
  Br  Br12  1  0.78350042  0.21649958  1.00000000  1
  Br  Br13  1  0.21649958  0.78350042  0.00000000  1
  Br  Br14  1  0.13806331  0.92303439  0.31794270  1
  Br  Br15  1  0.07696561  0.86193669  0.68205730  1
  Br  Br16  1  0.86193669  0.07696561  0.68205730  1
  Br  Br17  1  0.92303439  0.13806331  0.31794270  1
  Br  Br18  1  0.49002445  0.90691880  0.67658107  1
  Br  Br19  1  0.09308120  0.50997555  0.32341893  1
  Br  Br20  1  0.50997555  0.09308120  0.32341893  1
  Br  Br21  1  0.90691880  0.49002445  0.67658107  1
  Br  Br22  1  0.61028805  0.82877347  0.98768329  1
  Br  Br23  1  0.17122653  0.38971195  0.01231671  1
  Br  Br24  1  0.38971195  0.17122653  0.01231671  1
  Br  Br25  1  0.82877347  0.61028805  0.98768329  1
  Br  Br26  1  0.75468202  0.75468202  0.29082431  1
  Br  Br27  1  0.24531798  0.24531798  0.70917569  1
