# generated using pymatgen
data_K3GaSe3
_symmetry_space_group_name_H-M   'P 1'
_cell_length_a   8.17748362
_cell_length_b   8.59802743
_cell_length_c   13.19288155
_cell_angle_alpha   90.00000000
_cell_angle_beta   90.00000000
_cell_angle_gamma   101.12013050
_symmetry_Int_Tables_number   1
_chemical_formula_structural   K3GaSe3
_chemical_formula_sum   'K12 Ga4 Se12'
_cell_volume   910.17889332
_cell_formula_units_Z   4
loop_
 _symmetry_equiv_pos_site_id
 _symmetry_equiv_pos_as_xyz
  1  'x, y, z'
loop_
 _atom_site_type_symbol
 _atom_site_label
 _atom_site_symmetry_multiplicity
 _atom_site_fract_x
 _atom_site_fract_y
 _atom_site_fract_z
 _atom_site_occupancy
  K  K0  1  0.26512628  0.60434068  0.09080590  1
  K  K1  1  0.23487372  0.89565932  0.59080590  1
  K  K2  1  0.73487372  0.39565932  0.90919410  1
  K  K3  1  0.76512628  0.10434068  0.40919410  1
  K  K4  1  0.28524158  0.41668570  0.81022779  1
  K  K5  1  0.21475842  0.08331430  0.31022779  1
  K  K6  1  0.71475842  0.58331430  0.18977221  1
  K  K7  1  0.78524158  0.91668570  0.68977221  1
  K  K8  1  0.15062995  0.52580121  0.37712122  1
  K  K9  1  0.34937005  0.97419879  0.87712122  1
  K  K10  1  0.84937005  0.47419879  0.62287878  1
  K  K11  1  0.65062995  0.02580121  0.12287878  1
  Ga  Ga12  1  0.09827270  0.16483473  0.06110664  1
  Ga  Ga13  1  0.40172730  0.33516527  0.56110664  1
  Ga  Ga14  1  0.90172730  0.83516527  0.93889336  1
  Ga  Ga15  1  0.59827270  0.66483473  0.43889336  1
  Se  Se16  1  0.46518703  0.62468521  0.60864853  1
  Se  Se17  1  0.03481297  0.87531479  0.10864853  1
  Se  Se18  1  0.53481297  0.37531479  0.39135147  1
  Se  Se19  1  0.96518703  0.12468521  0.89135147  1
  Se  Se20  1  0.46181117  0.81301457  0.32045017  1
  Se  Se21  1  0.03818883  0.68698543  0.82045017  1
  Se  Se22  1  0.53818883  0.18698543  0.67954983  1
  Se  Se23  1  0.96181117  0.31301457  0.17954983  1
  Se  Se24  1  0.89339188  0.76513093  0.45196517  1
  Se  Se25  1  0.60660812  0.73486907  0.95196517  1
  Se  Se26  1  0.10660812  0.23486907  0.54803483  1
  Se  Se27  1  0.39339188  0.26513093  0.04803483  1
