# generated using pymatgen
data_K3GaTe3
_symmetry_space_group_name_H-M   'P 1'
_cell_length_a   8.73295020
_cell_length_b   9.21331749
_cell_length_c   13.90877172
_cell_angle_alpha   90.00000000
_cell_angle_beta   90.00000000
_cell_angle_gamma   101.12625763
_symmetry_Int_Tables_number   1
_chemical_formula_structural   K3GaTe3
_chemical_formula_sum   'K12 Ga4 Te12'
_cell_volume   1098.05793975
_cell_formula_units_Z   4
loop_
 _symmetry_equiv_pos_site_id
 _symmetry_equiv_pos_as_xyz
  1  'x, y, z'
loop_
 _atom_site_type_symbol
 _atom_site_label
 _atom_site_symmetry_multiplicity
 _atom_site_fract_x
 _atom_site_fract_y
 _atom_site_fract_z
 _atom_site_occupancy
  K  K0  1  0.26448459  0.60039117  0.09389055  1
  K  K1  1  0.23551541  0.89960883  0.59389055  1
  K  K2  1  0.73551541  0.39960883  0.90610945  1
  K  K3  1  0.76448459  0.10039117  0.40610945  1
  K  K4  1  0.28629529  0.40929940  0.81073491  1
  K  K5  1  0.21370471  0.09070060  0.31073491  1
  K  K6  1  0.71370471  0.59070060  0.18926509  1
  K  K7  1  0.78629529  0.90929940  0.68926509  1
  K  K8  1  0.16035703  0.52445279  0.38375528  1
  K  K9  1  0.33964297  0.97554721  0.88375528  1
  K  K10  1  0.83964297  0.47554721  0.61624472  1
  K  K11  1  0.66035703  0.02445279  0.11624472  1
  Ga  Ga12  1  0.09925589  0.16572068  0.06387062  1
  Ga  Ga13  1  0.40074411  0.33427932  0.56387062  1
  Ga  Ga14  1  0.90074411  0.83427932  0.93612938  1
  Ga  Ga15  1  0.59925589  0.66572068  0.43612938  1
  Te  Te16  1  0.46373956  0.62858369  0.61071461  1
  Te  Te17  1  0.03626044  0.87141631  0.11071461  1
  Te  Te18  1  0.53626044  0.37141631  0.38928539  1
  Te  Te19  1  0.96373956  0.12858369  0.88928539  1
  Te  Te20  1  0.45765156  0.81584493  0.31415586  1
  Te  Te21  1  0.04234844  0.68415507  0.81415586  1
  Te  Te22  1  0.54234844  0.18415507  0.68584414  1
  Te  Te23  1  0.95765156  0.31584493  0.18584414  1
  Te  Te24  1  0.90094731  0.76855316  0.44562942  1
  Te  Te25  1  0.59905269  0.73144684  0.94562942  1
  Te  Te26  1  0.09905269  0.23144684  0.55437058  1
  Te  Te27  1  0.40094731  0.26855316  0.05437058  1
