# generated using pymatgen
data_Ba3DyRu2O9
_symmetry_space_group_name_H-M   'P 1'
_cell_length_a   5.95863427
_cell_length_b   5.95863393
_cell_length_c   14.59855882
_cell_angle_alpha   90.00000000
_cell_angle_beta   90.00000000
_cell_angle_gamma   120.00000196
_symmetry_Int_Tables_number   1
_chemical_formula_structural   Ba3DyRu2O9
_chemical_formula_sum   'Ba6 Dy2 Ru4 O18'
_cell_volume   448.88391369
_cell_formula_units_Z   2
loop_
 _symmetry_equiv_pos_site_id
 _symmetry_equiv_pos_as_xyz
  1  'x, y, z'
loop_
 _atom_site_type_symbol
 _atom_site_label
 _atom_site_symmetry_multiplicity
 _atom_site_fract_x
 _atom_site_fract_y
 _atom_site_fract_z
 _atom_site_occupancy
  Ba  Ba0  1  0.00000000  0.00000000  0.25000000  1
  Ba  Ba1  1  0.00000000  0.00000000  0.75000000  1
  Ba  Ba2  1  0.33333300  0.66666700  0.90534930  1
  Ba  Ba3  1  0.66666700  0.33333300  0.40534930  1
  Ba  Ba4  1  0.66666700  0.33333300  0.09465070  1
  Ba  Ba5  1  0.33333300  0.66666700  0.59465070  1
  Dy  Dy6  1  0.00000000  0.00000000  0.00000000  1
  Dy  Dy7  1  0.00000000  0.00000000  0.50000000  1
  Ru  Ru8  1  0.33333300  0.66666700  0.16442266  1
  Ru  Ru9  1  0.66666700  0.33333300  0.66442266  1
  Ru  Ru10  1  0.66666700  0.33333300  0.83557734  1
  Ru  Ru11  1  0.33333300  0.66666700  0.33557734  1
  O  O12  1  0.49037147  0.98074295  0.25000000  1
  O  O13  1  0.50962853  0.49037147  0.75000000  1
  O  O14  1  0.98074295  0.49037147  0.75000000  1
  O  O15  1  0.01925705  0.50962853  0.25000000  1
  O  O16  1  0.49037147  0.50962853  0.25000000  1
  O  O17  1  0.50962853  0.01925705  0.75000000  1
  O  O18  1  0.17613120  0.35226240  0.41182551  1
  O  O19  1  0.82386880  0.17613120  0.91182551  1
  O  O20  1  0.35226240  0.17613120  0.91182551  1
  O  O21  1  0.64773760  0.82386880  0.41182551  1
  O  O22  1  0.17613120  0.82386880  0.41182551  1
  O  O23  1  0.82386880  0.64773760  0.58817449  1
  O  O24  1  0.82386880  0.17613120  0.58817449  1
  O  O25  1  0.82386880  0.64773760  0.91182551  1
  O  O26  1  0.35226240  0.17613120  0.58817449  1
  O  O27  1  0.64773760  0.82386880  0.08817449  1
  O  O28  1  0.17613120  0.35226240  0.08817449  1
  O  O29  1  0.17613120  0.82386880  0.08817449  1
