# generated using pymatgen
data_K3AlP2
_symmetry_space_group_name_H-M   'P 1'
_cell_length_a   8.94646865
_cell_length_b   11.94799578
_cell_length_c   15.30210802
_cell_angle_alpha   72.58639033
_cell_angle_beta   73.32548149
_cell_angle_gamma   71.87463719
_symmetry_Int_Tables_number   1
_chemical_formula_structural   K3AlP2
_chemical_formula_sum   'K24 Al8 P16'
_cell_volume   1448.98788707
_cell_formula_units_Z   8
loop_
 _symmetry_equiv_pos_site_id
 _symmetry_equiv_pos_as_xyz
  1  'x, y, z'
loop_
 _atom_site_type_symbol
 _atom_site_label
 _atom_site_symmetry_multiplicity
 _atom_site_fract_x
 _atom_site_fract_y
 _atom_site_fract_z
 _atom_site_occupancy
  K  K0  1  0.34441670  0.91558487  0.69335280  1
  K  K1  1  0.65558330  0.08441513  0.30664720  1
  K  K2  1  0.81868818  0.39863517  0.69165940  1
  K  K3  1  0.18131182  0.60136483  0.30834060  1
  K  K4  1  0.81064052  0.76302821  0.68061147  1
  K  K5  1  0.18935948  0.23697179  0.31938853  1
  K  K6  1  0.22591030  0.74528883  0.61793956  1
  K  K7  1  0.77408970  0.25471117  0.38206044  1
  K  K8  1  0.16023052  0.41917259  0.75800166  1
  K  K9  1  0.83976948  0.58082741  0.24199834  1
  K  K10  1  0.98393296  0.10760149  0.58419432  1
  K  K11  1  0.01606704  0.89239851  0.41580568  1
  K  K12  1  0.53309478  0.08198276  0.74488587  1
  K  K13  1  0.46690522  0.91801724  0.25511413  1
  K  K14  1  0.48594439  0.57330352  0.83833582  1
  K  K15  1  0.51405561  0.42669648  0.16166418  1
  K  K16  1  0.03171933  0.09604336  0.84793292  1
  K  K17  1  0.96828067  0.90395664  0.15206708  1
  K  K18  1  0.50886046  0.37449167  0.58392485  1
  K  K19  1  0.49113954  0.62550833  0.41607515  1
  K  K20  1  0.31490036  0.08405645  0.02424178  1
  K  K21  1  0.68509964  0.91594355  0.97575822  1
  K  K22  1  0.82063883  0.61950203  0.97720450  1
  K  K23  1  0.17936117  0.38049797  0.02279550  1
  Al  Al24  1  0.15434873  0.38739387  0.50973237  1
  Al  Al25  1  0.84565127  0.61260613  0.49026763  1
  Al  Al26  1  0.40581702  0.14082459  0.50871929  1
  Al  Al27  1  0.59418298  0.85917541  0.49128071  1
  Al  Al28  1  0.15125182  0.77765992  0.92637829  1
  Al  Al29  1  0.84874818  0.22234008  0.07362171  1
  Al  Al30  1  0.64023522  0.26659719  0.94556858  1
  Al  Al31  1  0.35976478  0.73340281  0.05443142  1
  P  P32  1  0.21807059  0.21821216  0.64114928  1
  P  P33  1  0.78192941  0.78178784  0.35885072  1
  P  P34  1  0.33103582  0.98542442  0.46213733  1
  P  P35  1  0.66896418  0.01457558  0.53786267  1
  P  P36  1  0.59535576  0.66403718  0.60392338  1
  P  P37  1  0.40464424  0.33596282  0.39607662  1
  P  P38  1  0.09461496  0.58757537  0.54029104  1
  P  P39  1  0.90538504  0.41242463  0.45970896  1
  P  P40  1  0.99818723  0.82346713  0.81929816  1
  P  P41  1  0.00181277  0.17653287  0.18070184  1
  P  P42  1  0.48563374  0.29365557  0.84393368  1
  P  P43  1  0.51436626  0.70634443  0.15606632  1
  P  P44  1  0.84180482  0.36621795  0.92930046  1
  P  P45  1  0.15819518  0.63378205  0.07069954  1
  P  P46  1  0.36075323  0.87104095  0.90951835  1
  P  P47  1  0.63924677  0.12895905  0.09048165  1
