# generated using pymatgen
data_Ba3GaP3
_symmetry_space_group_name_H-M   'P 1'
_cell_length_a   6.76680490
_cell_length_b   10.38603258
_cell_length_c   13.14156527
_cell_angle_alpha   90.00000000
_cell_angle_beta   90.00000000
_cell_angle_gamma   109.01190857
_symmetry_Int_Tables_number   1
_chemical_formula_structural   Ba3GaP3
_chemical_formula_sum   'Ba12 Ga4 P12'
_cell_volume   873.21141821
_cell_formula_units_Z   4
loop_
 _symmetry_equiv_pos_site_id
 _symmetry_equiv_pos_as_xyz
  1  'x, y, z'
loop_
 _atom_site_type_symbol
 _atom_site_label
 _atom_site_symmetry_multiplicity
 _atom_site_fract_x
 _atom_site_fract_y
 _atom_site_fract_z
 _atom_site_occupancy
  Ba  Ba0  1  0.82762627  0.00000000  0.65083222  1
  Ba  Ba1  1  0.32762627  0.00000000  0.84916778  1
  Ba  Ba2  1  0.67237373  0.00000000  0.15083222  1
  Ba  Ba3  1  0.17237373  0.00000000  0.34916778  1
  Ba  Ba4  1  0.13463560  0.64893287  0.12963703  1
  Ba  Ba5  1  0.98570273  0.35106713  0.37036297  1
  Ba  Ba6  1  0.36536440  0.35106713  0.62963703  1
  Ba  Ba7  1  0.51429727  0.64893287  0.87036297  1
  Ba  Ba8  1  0.86536440  0.35106713  0.87036297  1
  Ba  Ba9  1  0.01429727  0.64893287  0.62963703  1
  Ba  Ba10  1  0.63463560  0.64893287  0.37036297  1
  Ba  Ba11  1  0.48570273  0.35106713  0.12963703  1
  Ga  Ga12  1  0.91638540  0.83277080  0.00000000  1
  Ga  Ga13  1  0.58361460  0.16722920  0.50000000  1
  Ga  Ga14  1  0.08361460  0.16722920  0.00000000  1
  Ga  Ga15  1  0.41638540  0.83277080  0.50000000  1
  P  P16  1  0.30118568  0.00000000  0.59509830  1
  P  P17  1  0.80118568  0.00000000  0.90490170  1
  P  P18  1  0.19881432  0.00000000  0.09509830  1
  P  P19  1  0.69881432  0.00000000  0.40490170  1
  P  P20  1  0.53392111  0.68665533  0.61682805  1
  P  P21  1  0.34726578  0.31334467  0.88317195  1
  P  P22  1  0.96607889  0.31334467  0.11682805  1
  P  P23  1  0.15273422  0.68665533  0.38317195  1
  P  P24  1  0.46607889  0.31334467  0.38317195  1
  P  P25  1  0.65273422  0.68665533  0.11682805  1
  P  P26  1  0.03392111  0.68665533  0.88317195  1
  P  P27  1  0.84726578  0.31334467  0.61682805  1
