# generated using pymatgen
data_Na7In3Se8
_symmetry_space_group_name_H-M   'P 1'
_cell_length_a   6.81782816
_cell_length_b   10.58266048
_cell_length_c   13.68851727
_cell_angle_alpha   91.48159608
_cell_angle_beta   89.99665681
_cell_angle_gamma   90.18044887
_symmetry_Int_Tables_number   1
_chemical_formula_structural   Na7In3Se8
_chemical_formula_sum   'Na14 In6 Se16'
_cell_volume   987.30185197
_cell_formula_units_Z   2
loop_
 _symmetry_equiv_pos_site_id
 _symmetry_equiv_pos_as_xyz
  1  'x, y, z'
loop_
 _atom_site_type_symbol
 _atom_site_label
 _atom_site_symmetry_multiplicity
 _atom_site_fract_x
 _atom_site_fract_y
 _atom_site_fract_z
 _atom_site_occupancy
  Na  Na0  1  0.74475011  0.12785993  0.48338949  1
  Na  Na1  1  0.25524989  0.87214007  0.51661051  1
  Na  Na2  1  0.27853633  0.11023996  0.27473160  1
  Na  Na3  1  0.72146367  0.88976004  0.72526840  1
  Na  Na4  1  0.73269325  0.38636146  0.23437094  1
  Na  Na5  1  0.26730675  0.61363854  0.76562906  1
  Na  Na6  1  0.25555297  0.35993229  0.01967844  1
  Na  Na7  1  0.74444703  0.64006771  0.98032156  1
  Na  Na8  1  0.48245168  0.62389868  0.36548872  1
  Na  Na9  1  0.51754832  0.37610132  0.63451128  1
  Na  Na10  1  0.47817701  0.86102958  0.12482192  1
  Na  Na11  1  0.52182299  0.13897042  0.87517808  1
  Na  Na12  1  0.14636702  0.62531194  0.17828965  1
  Na  Na13  1  0.85363298  0.37468806  0.82171035  1
  In  In14  1  0.12562051  0.15639913  0.69540146  1
  In  In15  1  0.87437949  0.84360087  0.30459854  1
  In  In16  1  0.13517049  0.38250881  0.43550351  1
  In  In17  1  0.86482951  0.61749119  0.56449649  1
  In  In18  1  0.13270354  0.88843420  0.92613893  1
  In  In19  1  0.86729646  0.11156580  0.07386107  1
  Se  Se20  1  0.25779907  0.16792020  0.50969722  1
  Se  Se21  1  0.74220093  0.83207980  0.49030278  1
  Se  Se22  1  0.25287035  0.92562255  0.74433988  1
  Se  Se23  1  0.74712965  0.07437745  0.25566012  1
  Se  Se24  1  0.25483134  0.66845219  0.97637759  1
  Se  Se25  1  0.74516866  0.33154781  0.02362241  1
  Se  Se26  1  0.74976061  0.15740477  0.69330474  1
  Se  Se27  1  0.25023939  0.84259523  0.30669526  1
  Se  Se28  1  0.24978402  0.07669517  0.04719970  1
  Se  Se29  1  0.75021598  0.92330483  0.95280030  1
  Se  Se30  1  0.27263915  0.33745009  0.80371819  1
  Se  Se31  1  0.72736085  0.66254991  0.19628181  1
  Se  Se32  1  0.75112438  0.41866342  0.45322312  1
  Se  Se33  1  0.24887562  0.58133658  0.54677688  1
  Se  Se34  1  0.26018269  0.38523723  0.25797141  1
  Se  Se35  1  0.73981731  0.61476277  0.74202859  1
