# generated using pymatgen
data_TaPO5
_symmetry_space_group_name_H-M   'P 1'
_cell_length_a   5.40742527
_cell_length_b   13.26001720
_cell_length_c   13.30397490
_cell_angle_alpha   118.64802847
_cell_angle_beta   90.00000000
_cell_angle_gamma   90.00000000
_symmetry_Int_Tables_number   1
_chemical_formula_structural   TaPO5
_chemical_formula_sum   'Ta8 P8 O40'
_cell_volume   837.15030720
_cell_formula_units_Z   8
loop_
 _symmetry_equiv_pos_site_id
 _symmetry_equiv_pos_as_xyz
  1  'x, y, z'
loop_
 _atom_site_type_symbol
 _atom_site_label
 _atom_site_symmetry_multiplicity
 _atom_site_fract_x
 _atom_site_fract_y
 _atom_site_fract_z
 _atom_site_occupancy
  Ta  Ta0  1  0.24991131  0.86589691  0.30399671  1
  Ta  Ta1  1  0.74991131  0.63410309  0.19600329  1
  Ta  Ta2  1  0.75008869  0.13410309  0.69600329  1
  Ta  Ta3  1  0.25008869  0.36589691  0.80399671  1
  Ta  Ta4  1  0.25006312  0.19790751  0.13415391  1
  Ta  Ta5  1  0.75006312  0.30209249  0.36584609  1
  Ta  Ta6  1  0.74993688  0.80209249  0.86584609  1
  Ta  Ta7  1  0.24993688  0.69790751  0.63415391  1
  P  P8  1  0.24981481  0.90814999  0.06289256  1
  P  P9  1  0.74981481  0.59185001  0.43710744  1
  P  P10  1  0.75018519  0.09185001  0.93710744  1
  P  P11  1  0.25018519  0.40814999  0.56289256  1
  P  P12  1  0.25001571  0.43618592  0.08920087  1
  P  P13  1  0.75001571  0.06381408  0.41079913  1
  P  P14  1  0.74998429  0.56381408  0.91079913  1
  P  P15  1  0.24998429  0.93618592  0.58920087  1
  O  O16  1  0.99938561  0.24967972  0.24967322  1
  O  O17  1  0.49938561  0.25032028  0.25032678  1
  O  O18  1  0.00061439  0.75032028  0.75032678  1
  O  O19  1  0.50061439  0.74967972  0.74967322  1
  O  O20  1  0.49959803  0.74985002  0.24994032  1
  O  O21  1  0.99959803  0.75014998  0.25005968  1
  O  O22  1  0.50040197  0.25014998  0.75005968  1
  O  O23  1  0.00040197  0.24985002  0.74994032  1
  O  O24  1  0.98509356  0.14023313  0.00875410  1
  O  O25  1  0.48509356  0.35976687  0.49124590  1
  O  O26  1  0.01490644  0.85976687  0.99124590  1
  O  O27  1  0.51490644  0.64023313  0.50875410  1
  O  O28  1  0.51647257  0.14104371  0.00945977  1
  O  O29  1  0.01647257  0.35895629  0.49054023  1
  O  O30  1  0.48352743  0.85895629  0.99054023  1
  O  O31  1  0.98352743  0.64104371  0.50945977  1
  O  O32  1  0.51567853  0.99063943  0.36650388  1
  O  O33  1  0.01567853  0.50936057  0.13349612  1
  O  O34  1  0.48432147  0.00936057  0.63349612  1
  O  O35  1  0.98432147  0.49063943  0.86650388  1
  O  O36  1  0.98475915  0.99095162  0.36646543  1
  O  O37  1  0.48475915  0.50904838  0.13353457  1
  O  O38  1  0.01524085  0.00904838  0.63353457  1
  O  O39  1  0.51524085  0.49095162  0.86646543  1
  O  O40  1  0.24944549  0.34528869  0.13036290  1
  O  O41  1  0.74944549  0.15471131  0.36963710  1
  O  O42  1  0.75055451  0.65471131  0.86963710  1
  O  O43  1  0.25055451  0.84528869  0.63036290  1
  O  O44  1  0.25005896  0.87656426  0.16058422  1
  O  O45  1  0.75005896  0.62343574  0.33941578  1
  O  O46  1  0.74994104  0.12343574  0.83941578  1
  O  O47  1  0.24994104  0.37656426  0.66058422  1
  O  O48  1  0.24985224  0.87242602  0.45704385  1
  O  O49  1  0.74985224  0.62757398  0.04295615  1
  O  O50  1  0.75014776  0.12757398  0.54295615  1
  O  O51  1  0.25014776  0.37242602  0.95704385  1
  O  O52  1  0.25085189  0.04064633  0.11813821  1
  O  O53  1  0.75085189  0.45935367  0.38186179  1
  O  O54  1  0.74914811  0.95935367  0.88186179  1
  O  O55  1  0.24914811  0.54064633  0.61813821  1
