# generated using pymatgen
data_Rb3Nb2S11
_symmetry_space_group_name_H-M   'P 1'
_cell_length_a   8.18047448
_cell_length_b   12.01186069
_cell_length_c   19.67196734
_cell_angle_alpha   103.07662477
_cell_angle_beta   90.00000000
_cell_angle_gamma   90.00000000
_symmetry_Int_Tables_number   1
_chemical_formula_structural   Rb3Nb2S11
_chemical_formula_sum   'Rb12 Nb8 S44'
_cell_volume   1882.89459849
_cell_formula_units_Z   4
loop_
 _symmetry_equiv_pos_site_id
 _symmetry_equiv_pos_as_xyz
  1  'x, y, z'
loop_
 _atom_site_type_symbol
 _atom_site_label
 _atom_site_symmetry_multiplicity
 _atom_site_fract_x
 _atom_site_fract_y
 _atom_site_fract_z
 _atom_site_occupancy
  Nb  Nb0  1  0.64262375  0.29078948  0.33431840  1
  Nb  Nb1  1  0.14262375  0.70921052  0.16568160  1
  Nb  Nb2  1  0.35737625  0.70921052  0.66568160  1
  Nb  Nb3  1  0.85737625  0.29078948  0.83431840  1
  Nb  Nb4  1  0.77259728  0.19725906  0.49153501  1
  Nb  Nb5  1  0.27259728  0.80274094  0.00846499  1
  Nb  Nb6  1  0.22740272  0.80274094  0.50846499  1
  Nb  Nb7  1  0.72740272  0.19725906  0.99153501  1
  S  S8  1  0.43308499  0.23573640  0.26116273  1
  S  S9  1  0.93308499  0.76426360  0.23883727  1
  S  S10  1  0.56691501  0.76426360  0.73883727  1
  S  S11  1  0.06691501  0.23573640  0.76116273  1
  S  S12  1  0.72595939  0.47964690  0.31411680  1
  S  S13  1  0.22595939  0.52035310  0.18588320  1
  S  S14  1  0.27404061  0.52035310  0.68588320  1
  S  S15  1  0.77404061  0.47964690  0.81411680  1
  S  S16  1  0.57399558  0.48548858  0.39993493  1
  S  S17  1  0.07399558  0.51451142  0.10006507  1
  S  S18  1  0.42600442  0.51451142  0.60006507  1
  S  S19  1  0.92600442  0.48548858  0.89993493  1
  S  S20  1  0.89493269  0.20544447  0.27674785  1
  S  S21  1  0.39493269  0.79455553  0.22325215  1
  S  S22  1  0.10506731  0.79455553  0.72325215  1
  S  S23  1  0.60506731  0.20544447  0.77674785  1
  S  S24  1  0.77685012  0.10793707  0.33740605  1
  S  S25  1  0.27685012  0.89206293  0.16259395  1
  S  S26  1  0.22314988  0.89206293  0.66259395  1
  S  S27  1  0.72314988  0.10793707  0.83740605  1
  S  S28  1  0.50547017  0.25368119  0.44530901  1
  S  S29  1  0.00547017  0.74631881  0.05469099  1
  S  S30  1  0.49452983  0.74631881  0.55469099  1
  S  S31  1  0.99452983  0.25368119  0.94530901  1
  S  S32  1  0.52094067  0.08269489  0.45037679  1
  S  S33  1  0.02094067  0.91730511  0.04962321  1
  S  S34  1  0.47905933  0.91730511  0.54962321  1
  S  S35  1  0.97905933  0.08269489  0.95037679  1
  S  S36  1  0.87089399  0.36941620  0.45651932  1
  S  S37  1  0.37089399  0.63058380  0.04348068  1
  S  S38  1  0.12910601  0.63058380  0.54348068  1
  S  S39  1  0.62910601  0.36941620  0.95651932  1
  S  S40  1  0.05291221  0.25243896  0.46807399  1
  S  S41  1  0.55291221  0.74756104  0.03192601  1
  S  S42  1  0.94708779  0.74756104  0.53192601  1
  S  S43  1  0.44708779  0.25243896  0.96807399  1
  S  S44  1  0.73509365  0.25686349  0.60664115  1
  S  S45  1  0.23509365  0.74313651  0.89335885  1
  S  S46  1  0.26490635  0.74313651  0.39335885  1
  S  S47  1  0.76490635  0.25686349  0.10664115  1
  S  S48  1  0.87713681  0.99808373  0.48528841  1
  S  S49  1  0.37713681  0.00191627  0.01471159  1
  S  S50  1  0.12286319  0.00191627  0.51471159  1
  S  S51  1  0.62286319  0.99808373  0.98528841  1
  Rb  Rb52  1  0.82826797  1.00159290  0.65870639  1
  Rb  Rb53  1  0.32826797  -0.00159290  0.84129361  1
  Rb  Rb54  1  0.17173203  -0.00159290  0.34129361  1
  Rb  Rb55  1  0.67173203  1.00159290  0.15870639  1
  Rb  Rb56  1  0.31733220  0.22837182  0.61335991  1
  Rb  Rb57  1  0.81733220  0.77162818  0.88664009  1
  Rb  Rb58  1  0.68266780  0.77162818  0.38664009  1
  Rb  Rb59  1  0.18266780  0.22837182  0.11335991  1
  Rb  Rb60  1  0.84394565  0.53768116  0.64287359  1
  Rb  Rb61  1  0.34394565  0.46231884  0.85712641  1
  Rb  Rb62  1  0.15605435  0.46231884  0.35712641  1
  Rb  Rb63  1  0.65605435  0.53768116  0.14287359  1
