# generated using pymatgen
data_MgGeH12(OF)6
_symmetry_space_group_name_H-M   'P 1'
_cell_length_a   6.67695303
_cell_length_b   8.56176548
_cell_length_c   9.74186026
_cell_angle_alpha   90.00000000
_cell_angle_beta   90.00000000
_cell_angle_gamma   100.30178453
_symmetry_Int_Tables_number   1
_chemical_formula_structural   MgGeH12(OF)6
_chemical_formula_sum   'Mg2 Ge2 H24 O12 F12'
_cell_volume   547.93045805
_cell_formula_units_Z   2
loop_
 _symmetry_equiv_pos_site_id
 _symmetry_equiv_pos_as_xyz
  1  'x, y, z'
loop_
 _atom_site_type_symbol
 _atom_site_label
 _atom_site_symmetry_multiplicity
 _atom_site_fract_x
 _atom_site_fract_y
 _atom_site_fract_z
 _atom_site_occupancy
  Mg  Mg0  1  0.00000000  0.00000000  0.00000000  1
  Mg  Mg1  1  0.00000000  0.50000000  0.50000000  1
  Ge  Ge2  1  0.50000000  0.50000000  0.00000000  1
  Ge  Ge3  1  0.50000000  0.00000000  0.50000000  1
  F  F4  1  0.44970582  0.69451189  0.94471805  1
  F  F5  1  0.55029418  0.80548811  0.44471805  1
  F  F6  1  0.55029418  0.30548811  0.05528195  1
  F  F7  1  0.44970582  0.19451189  0.55528195  1
  F  F8  1  0.74113053  0.53262816  0.90456536  1
  F  F9  1  0.25886947  0.96737184  0.40456536  1
  F  F10  1  0.25886947  0.46737184  0.09543464  1
  F  F11  1  0.74113053  0.03262816  0.59543464  1
  F  F12  1  0.63314307  0.59164290  0.15329750  1
  F  F13  1  0.36685693  0.90835710  0.65329750  1
  F  F14  1  0.36685693  0.40835710  0.84670250  1
  F  F15  1  0.63314307  0.09164290  0.34670250  1
  O  O16  1  0.75098619  0.94265156  0.87026417  1
  O  O17  1  0.24901381  0.55734844  0.37026417  1
  O  O18  1  0.24901381  0.05734844  0.12973583  1
  O  O19  1  0.75098619  0.44265156  0.62973583  1
  O  O20  1  0.81623128  0.91024337  0.16501870  1
  O  O21  1  0.18376872  0.58975663  0.66501870  1
  O  O22  1  0.18376872  0.08975663  0.83498130  1
  O  O23  1  0.81623128  0.41024337  0.33498130  1
  O  O24  1  0.06554779  0.77405228  0.96902530  1
  O  O25  1  0.93445221  0.72594772  0.46902530  1
  O  O26  1  0.93445221  0.22594772  0.03097470  1
  O  O27  1  0.06554779  0.27405228  0.53097470  1
  H  H28  1  0.75041043  0.96613815  0.77171769  1
  H  H29  1  0.24958957  0.53386185  0.27171769  1
  H  H30  1  0.24958957  0.03386185  0.22828231  1
  H  H31  1  0.75041043  0.46613815  0.72828231  1
  H  H32  1  0.63635020  0.85648624  0.88932927  1
  H  H33  1  0.36364980  0.64351376  0.38932927  1
  H  H34  1  0.36364980  0.14351376  0.11067073  1
  H  H35  1  0.63635020  0.35648624  0.61067073  1
  H  H36  1  0.74409670  0.97216115  0.22658905  1
  H  H37  1  0.25590330  0.52783885  0.72658905  1
  H  H38  1  0.25590330  0.02783885  0.77341095  1
  H  H39  1  0.74409670  0.47216115  0.27341095  1
  H  H40  1  0.74769110  0.79897815  0.16978599  1
  H  H41  1  0.25230890  0.70102185  0.66978599  1
  H  H42  1  0.25230890  0.20102185  0.83021401  1
  H  H43  1  0.74769110  0.29897815  0.33021401  1
  H  H44  1  0.96381595  0.68246598  0.94075999  1
  H  H45  1  0.03618405  0.81753402  0.44075999  1
  H  H46  1  0.03618405  0.31753402  0.05924001  1
  H  H47  1  0.96381595  0.18246598  0.55924001  1
  H  H48  1  0.19875188  0.74112095  0.97187018  1
  H  H49  1  0.80124812  0.75887905  0.47187018  1
  H  H50  1  0.80124812  0.25887905  0.02812982  1
  H  H51  1  0.19875188  0.24112095  0.52812982  1
