# generated using pymatgen
data_CsBa2Br5
_symmetry_space_group_name_H-M   'P 1'
_cell_length_a   8.83265435
_cell_length_b   10.15342201
_cell_length_c   14.16823510
_cell_angle_alpha   90.25456940
_cell_angle_beta   90.00000000
_cell_angle_gamma   90.00000000
_symmetry_Int_Tables_number   1
_chemical_formula_structural   CsBa2Br5
_chemical_formula_sum   'Cs4 Ba8 Br20'
_cell_volume   1270.61840112
_cell_formula_units_Z   4
loop_
 _symmetry_equiv_pos_site_id
 _symmetry_equiv_pos_as_xyz
  1  'x, y, z'
loop_
 _atom_site_type_symbol
 _atom_site_label
 _atom_site_symmetry_multiplicity
 _atom_site_fract_x
 _atom_site_fract_y
 _atom_site_fract_z
 _atom_site_occupancy
  Ba  Ba0  1  0.97197641  0.50007658  0.17747445  1
  Ba  Ba1  1  0.47197641  0.49992342  0.32252555  1
  Ba  Ba2  1  0.02802359  0.49992342  0.82252555  1
  Ba  Ba3  1  0.52802359  0.50007658  0.67747445  1
  Cs  Cs4  1  0.94294442  0.98923120  0.16655385  1
  Cs  Cs5  1  0.44294442  0.01076880  0.33344615  1
  Cs  Cs6  1  0.05705558  0.01076880  0.83344615  1
  Cs  Cs7  1  0.55705558  0.98923120  0.66655385  1
  Ba  Ba8  1  0.43145580  0.74656090  0.00733034  1
  Ba  Ba9  1  0.93145580  0.25343910  0.49266966  1
  Ba  Ba10  1  0.56854420  0.25343910  0.99266966  1
  Ba  Ba11  1  0.06854420  0.74656090  0.50733034  1
  Br  Br12  1  0.04907437  0.71186931  0.00219698  1
  Br  Br13  1  0.54907437  0.28813069  0.49780302  1
  Br  Br14  1  0.95092563  0.28813069  0.99780302  1
  Br  Br15  1  0.45092563  0.71186931  0.50219698  1
  Br  Br16  1  0.68967725  0.27590735  0.21701570  1
  Br  Br17  1  0.18967725  0.72409265  0.28298430  1
  Br  Br18  1  0.31032275  0.72409265  0.78298430  1
  Br  Br19  1  0.81032275  0.27590735  0.71701570  1
  Br  Br20  1  0.83723095  0.53819671  0.40102879  1
  Br  Br21  1  0.33723095  0.46180329  0.09897121  1
  Br  Br22  1  0.16276905  0.46180329  0.59897121  1
  Br  Br23  1  0.66276905  0.53819671  0.90102879  1
  Br  Br24  1  0.66314784  0.71088146  0.18730543  1
  Br  Br25  1  0.16314784  0.28911854  0.31269457  1
  Br  Br26  1  0.33685216  0.28911854  0.81269457  1
  Br  Br27  1  0.83685216  0.71088146  0.68730543  1
  Br  Br28  1  0.82534691  0.96379749  0.42240029  1
  Br  Br29  1  0.32534691  0.03620251  0.07759971  1
  Br  Br30  1  0.17465309  0.03620251  0.57759971  1
  Br  Br31  1  0.67465309  0.96379749  0.92240029  1
