# generated using pymatgen
data_K4Ti3S14
_symmetry_space_group_name_H-M   'P 1'
_cell_length_a   8.10649874
_cell_length_b   11.39738921
_cell_length_c   13.26820493
_cell_angle_alpha   111.52253107
_cell_angle_beta   90.00000000
_cell_angle_gamma   110.83203821
_symmetry_Int_Tables_number   1
_chemical_formula_structural   K4Ti3S14
_chemical_formula_sum   'K8 Ti6 S28'
_cell_volume   1053.79058612
_cell_formula_units_Z   2
loop_
 _symmetry_equiv_pos_site_id
 _symmetry_equiv_pos_as_xyz
  1  'x, y, z'
loop_
 _atom_site_type_symbol
 _atom_site_label
 _atom_site_symmetry_multiplicity
 _atom_site_fract_x
 _atom_site_fract_y
 _atom_site_fract_z
 _atom_site_occupancy
  Ti  Ti0  1  0.92213566  0.33473071  0.41609901  1
  Ti  Ti1  1  0.58740495  0.66526929  0.08390099  1
  Ti  Ti2  1  0.07786434  0.66526929  0.58390099  1
  Ti  Ti3  1  0.41259505  0.33473071  0.91609901  1
  Ti  Ti4  1  0.76335970  0.00000000  0.25000000  1
  Ti  Ti5  1  0.23664030  0.00000000  0.75000000  1
  S  S6  1  0.98849885  0.55710659  0.39764408  1
  S  S7  1  0.43139225  0.44289341  0.10235592  1
  S  S8  1  0.01150115  0.44289341  0.60235592  1
  S  S9  1  0.56860775  0.55710659  0.89764408  1
  S  S10  1  0.65894299  0.13905728  0.41889227  1
  S  S11  1  0.51988571  0.86094272  0.08110773  1
  S  S12  1  0.34105701  0.86094272  0.58110773  1
  S  S13  1  0.48011429  0.13905728  0.91889227  1
  S  S14  1  0.75610032  0.19045107  0.20902641  1
  S  S15  1  0.56564925  0.80954893  0.29097359  1
  S  S16  1  0.24389968  0.80954893  0.79097359  1
  S  S17  1  0.43435075  0.19045107  0.70902641  1
  S  S18  1  0.07083445  0.17158734  0.36875397  1
  S  S19  1  0.89924711  0.82841266  0.13124603  1
  S  S20  1  0.92916555  0.82841266  0.63124603  1
  S  S21  1  0.10075289  0.17158734  0.86875397  1
  S  S22  1  0.88267684  0.07599223  0.10369716  1
  S  S23  1  0.80668461  0.92400777  0.39630284  1
  S  S24  1  0.11732316  0.92400777  0.89630284  1
  S  S25  1  0.19331539  0.07599223  0.60369716  1
  S  S26  1  0.84549633  0.65567621  0.16509034  1
  S  S27  1  0.18982012  0.34432379  0.33490966  1
  S  S28  1  0.15450367  0.34432379  0.83490966  1
  S  S29  1  0.81017988  0.65567621  0.66509034  1
  S  S30  1  0.30711875  0.70720406  0.10158964  1
  S  S31  1  0.59991469  0.29279594  0.39841036  1
  S  S32  1  0.69288125  0.29279594  0.89841036  1
  S  S33  1  0.40008531  0.70720406  0.60158964  1
  K  K34  1  0.02400786  0.40306251  0.11282285  1
  K  K35  1  0.62094536  0.59693749  0.38717715  1
  K  K36  1  0.97599214  0.59693749  0.88717715  1
  K  K37  1  0.37905464  0.40306251  0.61282285  1
  K  K38  1  0.18957535  0.85903290  0.35267470  1
  K  K39  1  0.33054244  0.14096710  0.14732530  1
  K  K40  1  0.81042465  0.14096710  0.64732530  1
  K  K41  1  0.66945756  0.85903290  0.85267470  1
