# generated using pymatgen
data_Ni4(Bi4I)3
_symmetry_space_group_name_H-M   'P 1'
_cell_length_a   4.08570477
_cell_length_b   8.30193458
_cell_length_c   34.93053581
_cell_angle_alpha   90.00000000
_cell_angle_beta   90.00000000
_cell_angle_gamma   104.24504309
_symmetry_Int_Tables_number   1
_chemical_formula_structural   Ni4(Bi4I)3
_chemical_formula_sum   'Ni8 Bi24 I6'
_cell_volume   1148.38717063
_cell_formula_units_Z   2
loop_
 _symmetry_equiv_pos_site_id
 _symmetry_equiv_pos_as_xyz
  1  'x, y, z'
loop_
 _atom_site_type_symbol
 _atom_site_label
 _atom_site_symmetry_multiplicity
 _atom_site_fract_x
 _atom_site_fract_y
 _atom_site_fract_z
 _atom_site_occupancy
  Bi  Bi0  1  0.01578059  0.03156118  0.80236827  1
  Bi  Bi1  1  0.98421941  0.96843882  0.19763173  1
  Bi  Bi2  1  0.98421941  0.96843882  0.30236827  1
  Bi  Bi3  1  0.01578059  0.03156118  0.69763173  1
  Bi  Bi4  1  0.66082526  0.32165051  0.85307194  1
  Bi  Bi5  1  0.33917474  0.67834949  0.14692806  1
  Bi  Bi6  1  0.33917474  0.67834949  0.35307194  1
  Bi  Bi7  1  0.66082526  0.32165051  0.64692806  1
  Bi  Bi8  1  0.88821183  0.77642367  0.88025245  1
  Bi  Bi9  1  0.11178817  0.22357633  0.11974755  1
  Bi  Bi10  1  0.11178817  0.22357633  0.38025245  1
  Bi  Bi11  1  0.88821183  0.77642367  0.61974755  1
  Bi  Bi12  1  0.53217870  0.06435739  0.93097525  1
  Bi  Bi13  1  0.46782130  0.93564261  0.06902475  1
  Bi  Bi14  1  0.46782130  0.93564261  0.43097525  1
  Bi  Bi15  1  0.53217870  0.06435739  0.56902475  1
  Bi  Bi16  1  0.35672719  0.71345437  0.80245412  1
  Bi  Bi17  1  0.64327281  0.28654563  0.19754588  1
  Bi  Bi18  1  0.64327281  0.28654563  0.30245412  1
  Bi  Bi19  1  0.35672719  0.71345437  0.69754588  1
  Bi  Bi20  1  0.19330763  0.38661526  0.92775788  1
  Bi  Bi21  1  0.80669237  0.61338474  0.07224212  1
  Bi  Bi22  1  0.80669237  0.61338474  0.42775788  1
  Bi  Bi23  1  0.19330763  0.38661526  0.57224212  1
  Ni  Ni24  1  0.48470183  0.96940366  0.85369789  1
  Ni  Ni25  1  0.51529817  0.03059634  0.14630211  1
  Ni  Ni26  1  0.51529817  0.03059634  0.35369789  1
  Ni  Ni27  1  0.48470183  0.96940366  0.64630211  1
  Ni  Ni28  1  0.06271566  0.12543132  0.87920464  1
  Ni  Ni29  1  0.93728434  0.87456868  0.12079536  1
  Ni  Ni30  1  0.93728434  0.87456868  0.37920464  1
  Ni  Ni31  1  0.06271566  0.12543132  0.62079536  1
  I  I32  1  0.86953754  0.73907508  0.97643665  1
  I  I33  1  0.13046246  0.26092492  0.02356335  1
  I  I34  1  0.13046246  0.26092492  0.47643665  1
  I  I35  1  0.86953754  0.73907508  0.52356335  1
  I  I36  1  0.67960151  0.35920301  0.75000000  1
  I  I37  1  0.32039849  0.64079699  0.25000000  1
