# generated using pymatgen
data_Ta2Se17Br12
_symmetry_space_group_name_H-M   'P 1'
_cell_length_a   12.31798458
_cell_length_b   14.15839552
_cell_length_c   14.17344370
_cell_angle_alpha   111.71002821
_cell_angle_beta   97.60038683
_cell_angle_gamma   99.79885809
_symmetry_Int_Tables_number   1
_chemical_formula_structural   Ta2Se17Br12
_chemical_formula_sum   'Ta4 Se34 Br24'
_cell_volume   2211.00234749
_cell_formula_units_Z   2
loop_
 _symmetry_equiv_pos_site_id
 _symmetry_equiv_pos_as_xyz
  1  'x, y, z'
loop_
 _atom_site_type_symbol
 _atom_site_label
 _atom_site_symmetry_multiplicity
 _atom_site_fract_x
 _atom_site_fract_y
 _atom_site_fract_z
 _atom_site_occupancy
  Ta  Ta0  1  0.68937666  0.27641368  0.47931938  1
  Ta  Ta1  1  0.31062334  0.72358632  0.52068062  1
  Ta  Ta2  1  0.84272457  0.72050113  0.99075241  1
  Ta  Ta3  1  0.15727543  0.27949887  0.00924759  1
  Se  Se4  1  0.47883246  0.82656009  0.98046799  1
  Se  Se5  1  0.52116754  0.17343991  0.01953201  1
  Se  Se6  1  0.32884836  0.90470801  0.97490123  1
  Se  Se7  1  0.67115164  0.09529199  0.02509877  1
  Se  Se8  1  0.34029808  0.01544880  0.15242036  1
  Se  Se9  1  0.65970192  0.98455120  0.84757964  1
  Se  Se10  1  0.27951117  0.89990384  0.22764786  1
  Se  Se11  1  0.72048883  0.10009616  0.77235214  1
  Se  Se12  1  0.44872912  0.83823189  0.24518275  1
  Se  Se13  1  0.55127088  0.16176811  0.75481725  1
  Se  Se14  1  0.38828620  0.66284243  0.14819368  1
  Se  Se15  1  0.61171380  0.33715757  0.85180632  1
  Se  Se16  1  0.39371899  0.64852345  0.96279938  1
  Se  Se17  1  0.60628101  0.35147655  0.03720062  1
  Se  Se18  1  0.19483636  0.63042382  0.92348083  1
  Se  Se19  1  0.80516364  0.36957618  0.07651917  1
  Se  Se20  1  0.16198824  0.58358993  0.74213833  1
  Se  Se21  1  0.83801176  0.41641007  0.25786167  1
  Se  Se22  1  0.12241020  0.39977186  0.67148372  1
  Se  Se23  1  0.87758980  0.60022814  0.32851628  1
  Se  Se24  1  0.30463431  0.36811683  0.65394551  1
  Se  Se25  1  0.69536569  0.63188317  0.34605449  1
  Se  Se26  1  0.24761934  0.19082277  0.66559948  1
  Se  Se27  1  0.75238066  0.80917723  0.33440052  1
  Se  Se28  1  0.24392121  0.06960990  0.50423783  1
  Se  Se29  1  0.75607879  0.93039010  0.49576217  1
  Se  Se30  1  0.05471803  0.03160064  0.40839284  1
  Se  Se31  1  0.94528197  0.96839936  0.59160716  1
  Se  Se32  1  0.08693590  0.10866991  0.29081044  1
  Se  Se33  1  0.91306410  0.89133009  0.70918956  1
  Se  Se34  1  0.12497652  0.29225215  0.38943640  1
  Se  Se35  1  0.87502348  0.70774785  0.61056360  1
  Se  Se36  1  0.31280935  0.33137267  0.47265590  1
  Se  Se37  1  0.68719065  0.66862733  0.52734410  1
  Br  Br38  1  0.84855899  0.43407617  0.51163118  1
  Br  Br39  1  0.15144101  0.56592383  0.48836882  1
  Br  Br40  1  0.60423482  0.39179442  0.62319665  1
  Br  Br41  1  0.39576518  0.60820558  0.37680335  1
  Br  Br42  1  0.53925391  0.11789582  0.45130800  1
  Br  Br43  1  0.46074609  0.88210418  0.54869200  1
  Br  Br44  1  0.77091642  0.16551436  0.33498354  1
  Br  Br45  1  0.22908358  0.83448564  0.66501646  1
  Br  Br46  1  0.56787506  0.32210503  0.35288692  1
  Br  Br47  1  0.43212494  0.67789497  0.64711308  1
  Br  Br48  1  0.81345361  0.24201036  0.61514404  1
  Br  Br49  1  0.18654639  0.75798964  0.38485596  1
  Br  Br50  1  0.79573010  0.88695154  0.10934730  1
  Br  Br51  1  0.20426990  0.11304846  0.89065270  1
  Br  Br52  1  0.98029017  0.72851250  0.14248079  1
  Br  Br53  1  0.01970983  0.27148750  0.85751921  1
  Br  Br54  1  0.88539433  0.55153308  0.87907156  1
  Br  Br55  1  0.11460567  0.44846692  0.12092844  1
  Br  Br56  1  0.69359703  0.70584574  0.84182594  1
  Br  Br57  1  0.30640297  0.29415426  0.15817406  1
  Br  Br58  1  0.68196532  0.61504693  0.04314854  1
  Br  Br59  1  0.31803468  0.38495307  0.95685146  1
  Br  Br60  1  0.98939250  0.82678898  0.93959492  1
  Br  Br61  1  0.01060750  0.17321102  0.06040508  1
