# generated using pymatgen
data_CsGd(CO3)2
_symmetry_space_group_name_H-M   'P 1'
_cell_length_a   8.57996388
_cell_length_b   8.89112047
_cell_length_c   8.89224809
_cell_angle_alpha   98.72271892
_cell_angle_beta   96.59001828
_cell_angle_gamma   115.37153209
_symmetry_Int_Tables_number   1
_chemical_formula_structural   CsGd(CO3)2
_chemical_formula_sum   'Cs4 Gd4 C8 O24'
_cell_volume   593.43572570
_cell_formula_units_Z   4
loop_
 _symmetry_equiv_pos_site_id
 _symmetry_equiv_pos_as_xyz
  1  'x, y, z'
loop_
 _atom_site_type_symbol
 _atom_site_label
 _atom_site_symmetry_multiplicity
 _atom_site_fract_x
 _atom_site_fract_y
 _atom_site_fract_z
 _atom_site_occupancy
  Gd  Gd0  1  0.26105146  0.52214552  0.04881496  1
  Gd  Gd1  1  0.73894854  0.47785448  0.95118504  1
  Gd  Gd2  1  0.24116592  0.71384508  0.54315079  1
  Gd  Gd3  1  0.75883408  0.28615492  0.45684921  1
  Cs  Cs4  1  0.24485517  0.03078949  0.03698788  1
  Cs  Cs5  1  0.75514483  0.96921051  0.96301212  1
  Cs  Cs6  1  0.24143321  0.18964030  0.52691800  1
  Cs  Cs7  1  0.75856679  0.81035970  0.47308200  1
  O  O8  1  0.50501501  0.44255606  0.12763785  1
  O  O9  1  0.49498499  0.55744394  0.87236215  1
  O  O10  1  0.72444130  0.38209829  0.20573169  1
  O  O11  1  0.27555870  0.61790171  0.79426831  1
  O  O12  1  0.46280717  0.62726786  0.63733411  1
  O  O13  1  0.53719283  0.37273214  0.36266589  1
  O  O14  1  0.04698957  0.62608342  0.11713273  1
  O  O15  1  0.95301043  0.37391658  0.88286727  1
  O  O16  1  0.13386120  0.26159500  0.83949921  1
  O  O17  1  0.86613880  0.73840500  0.16050079  1
  O  O18  1  0.09461653  0.79938129  0.35218213  1
  O  O19  1  0.90538347  0.20061871  0.64781787  1
  O  O20  1  0.60915825  0.27325436  0.67502922  1
  O  O21  1  0.39084175  0.72674564  0.32497078  1
  O  O22  1  0.55795559  0.17700641  0.88942794  1
  O  O23  1  0.44204441  0.82299359  0.11057206  1
  O  O24  1  0.53135810  0.01274613  0.34019390  1
  O  O25  1  0.46864190  0.98725387  0.65980610  1
  O  O26  1  0.06529081  0.42924276  0.40192531  1
  O  O27  1  0.93470919  0.57075724  0.59807469  1
  O  O28  1  0.10385256  0.84406953  0.70587795  1
  O  O29  1  0.89614744  0.15593047  0.29412205  1
  O  O30  1  0.11935773  0.30808903  0.18316104  1
  O  O31  1  0.88064227  0.69191097  0.81683896  1
  C  C32  1  0.58539024  0.39962228  0.23326373  1
  C  C33  1  0.41460976  0.60037772  0.76673627  1
  C  C34  1  0.00474861  0.72284828  0.21284143  1
  C  C35  1  0.99525139  0.27715172  0.78715857  1
  C  C36  1  0.54350701  0.14133985  0.73989091  1
  C  C37  1  0.45649299  0.85866015  0.26010909  1
  C  C38  1  0.02853930  0.29792953  0.28937200  1
  C  C39  1  0.97146070  0.70207047  0.71062800  1
