# generated using pymatgen
data_Na8Hg3
_symmetry_space_group_name_H-M   'P 1'
_cell_length_a   18.34734619
_cell_length_b   18.34734630
_cell_length_c   18.34734625
_cell_angle_alpha   29.33989303
_cell_angle_beta   29.33989245
_cell_angle_gamma   29.33989184
_symmetry_Int_Tables_number   1
_chemical_formula_structural   Na8Hg3
_chemical_formula_sum   'Na32 Hg12'
_cell_volume   1312.19863945
_cell_formula_units_Z   4
loop_
 _symmetry_equiv_pos_site_id
 _symmetry_equiv_pos_as_xyz
  1  'x, y, z'
loop_
 _atom_site_type_symbol
 _atom_site_label
 _atom_site_symmetry_multiplicity
 _atom_site_fract_x
 _atom_site_fract_y
 _atom_site_fract_z
 _atom_site_occupancy
  Na  Na0  1  0.35843926  0.70967241  0.98637419  1
  Na  Na1  1  0.98637419  0.35843926  0.70967241  1
  Na  Na2  1  0.70967241  0.98637419  0.35843926  1
  Na  Na3  1  0.79032759  0.14156074  0.51362581  1
  Na  Na4  1  0.51362581  0.79032759  0.14156074  1
  Na  Na5  1  0.14156074  0.51362581  0.79032759  1
  Na  Na6  1  0.64156074  0.29032759  0.01362581  1
  Na  Na7  1  0.01362581  0.64156074  0.29032759  1
  Na  Na8  1  0.29032759  0.01362581  0.64156074  1
  Na  Na9  1  0.20967241  0.85843926  0.48637419  1
  Na  Na10  1  0.48637419  0.20967241  0.85843926  1
  Na  Na11  1  0.85843926  0.48637419  0.20967241  1
  Na  Na12  1  0.37940073  0.13391574  0.64326781  1
  Na  Na13  1  0.64326781  0.37940073  0.13391574  1
  Na  Na14  1  0.13391574  0.64326781  0.37940073  1
  Na  Na15  1  0.36608426  0.12059927  0.85673219  1
  Na  Na16  1  0.85673219  0.36608426  0.12059927  1
  Na  Na17  1  0.12059927  0.85673219  0.36608426  1
  Na  Na18  1  0.62059927  0.86608426  0.35673219  1
  Na  Na19  1  0.35673219  0.62059927  0.86608426  1
  Na  Na20  1  0.86608426  0.35673219  0.62059927  1
  Na  Na21  1  0.63391574  0.87940073  0.14326781  1
  Na  Na22  1  0.14326781  0.63391574  0.87940073  1
  Na  Na23  1  0.87940073  0.14326781  0.63391574  1
  Na  Na24  1  0.06140149  0.06140149  0.06140149  1
  Na  Na25  1  0.43859851  0.43859851  0.43859851  1
  Na  Na26  1  0.93859851  0.93859851  0.93859851  1
  Na  Na27  1  0.56140149  0.56140149  0.56140149  1
  Na  Na28  1  0.71973149  0.71973149  0.71973149  1
  Na  Na29  1  0.78026851  0.78026851  0.78026851  1
  Na  Na30  1  0.28026851  0.28026851  0.28026851  1
  Na  Na31  1  0.21973149  0.21973149  0.21973149  1
  Hg  Hg32  1  0.93456754  0.56543246  0.25000000  1
  Hg  Hg33  1  0.25000000  0.93456754  0.56543246  1
  Hg  Hg34  1  0.56543246  0.25000000  0.93456754  1
  Hg  Hg35  1  0.06543246  0.43456754  0.75000000  1
  Hg  Hg36  1  0.75000000  0.06543246  0.43456754  1
  Hg  Hg37  1  0.43456754  0.75000000  0.06543246  1
  Hg  Hg38  1  0.00000000  0.00000000  0.00000000  1
  Hg  Hg39  1  0.50000000  0.50000000  0.50000000  1
  Hg  Hg40  1  0.34193999  0.34193999  0.34193999  1
  Hg  Hg41  1  0.15806001  0.15806001  0.15806001  1
  Hg  Hg42  1  0.65806001  0.65806001  0.65806001  1
  Hg  Hg43  1  0.84193999  0.84193999  0.84193999  1
