# generated using pymatgen
data_Bi4RuBr2
_symmetry_space_group_name_H-M   'P 1'
_cell_length_a   6.87944814
_cell_length_b   8.89436564
_cell_length_c   9.11700584
_cell_angle_alpha   75.75948634
_cell_angle_beta   67.84822409
_cell_angle_gamma   67.23695492
_symmetry_Int_Tables_number   1
_chemical_formula_structural   Bi4RuBr2
_chemical_formula_sum   'Bi8 Ru2 Br4'
_cell_volume   473.15180486
_cell_formula_units_Z   2
loop_
 _symmetry_equiv_pos_site_id
 _symmetry_equiv_pos_as_xyz
  1  'x, y, z'
loop_
 _atom_site_type_symbol
 _atom_site_label
 _atom_site_symmetry_multiplicity
 _atom_site_fract_x
 _atom_site_fract_y
 _atom_site_fract_z
 _atom_site_occupancy
  Bi  Bi0  1  0.55460080  0.75880519  0.13209765  1
  Bi  Bi1  1  0.44539920  0.24119481  0.86790235  1
  Bi  Bi2  1  0.66353590  0.89250327  0.78033066  1
  Bi  Bi3  1  0.33646410  0.10749673  0.21966934  1
  Bi  Bi4  1  0.17187969  0.72524436  0.93116414  1
  Bi  Bi5  1  0.82812031  0.27475564  0.06883586  1
  Bi  Bi6  1  0.91397574  0.89512235  0.27717647  1
  Bi  Bi7  1  0.08602426  0.10487765  0.72282353  1
  Ru  Ru8  1  0.20899175  0.00003308  1.00000153  1
  Ru  Ru9  1  0.79100825  0.99996692  -0.00000153  1
  Br  Br10  1  0.10616292  0.53127626  0.25729917  1
  Br  Br11  1  0.89383708  0.46872374  0.74270083  1
  Br  Br12  1  0.32181284  0.78673829  0.56993286  1
  Br  Br13  1  0.67818716  0.21326171  0.43006714  1
