# generated using pymatgen
data_GePdS3
_symmetry_space_group_name_H-M   'P 1'
_cell_length_a   3.50043711
_cell_length_b   7.75720241
_cell_length_c   9.39720035
_cell_angle_alpha   107.38077245
_cell_angle_beta   90.00000000
_cell_angle_gamma   103.03963127
_symmetry_Int_Tables_number   1
_chemical_formula_structural   GePdS3
_chemical_formula_sum   'Ge2 Pd2 S6'
_cell_volume   236.61355085
_cell_formula_units_Z   2
loop_
 _symmetry_equiv_pos_site_id
 _symmetry_equiv_pos_as_xyz
  1  'x, y, z'
loop_
 _atom_site_type_symbol
 _atom_site_label
 _atom_site_symmetry_multiplicity
 _atom_site_fract_x
 _atom_site_fract_y
 _atom_site_fract_z
 _atom_site_occupancy
  Ge  Ge0  1  0.08385031  0.16770062  0.30052153  1
  Ge  Ge1  1  0.91614969  0.83229938  0.69947847  1
  Pd  Pd2  1  0.39078923  0.78157846  0.02763944  1
  Pd  Pd3  1  0.60921077  0.21842154  0.97236056  1
  S  S4  1  0.62687853  0.25375706  0.45785625  1
  S  S5  1  0.37312147  0.74624294  0.54214375  1
  S  S6  1  0.17036518  0.34073035  0.14173244  1
  S  S7  1  0.82963482  0.65926965  0.85826756  1
  S  S8  1  0.92715247  0.85430493  0.20309834  1
  S  S9  1  0.07284753  0.14569507  0.79690166  1
