# generated using pymatgen
data_TiCu2Te3
_symmetry_space_group_name_H-M   'P 1'
_cell_length_a   4.00763004
_cell_length_b   7.16149162
_cell_length_c   10.17754181
_cell_angle_alpha   96.38506672
_cell_angle_beta   101.35492167
_cell_angle_gamma   89.99999748
_symmetry_Int_Tables_number   1
_chemical_formula_structural   TiCu2Te3
_chemical_formula_sum   'Ti2 Cu4 Te6'
_cell_volume   284.53583017
_cell_formula_units_Z   2
loop_
 _symmetry_equiv_pos_site_id
 _symmetry_equiv_pos_as_xyz
  1  'x, y, z'
loop_
 _atom_site_type_symbol
 _atom_site_label
 _atom_site_symmetry_multiplicity
 _atom_site_fract_x
 _atom_site_fract_y
 _atom_site_fract_z
 _atom_site_occupancy
  Cu  Cu0  1  0.71335244  0.92747838  0.42670487  1
  Cu  Cu1  1  0.28664756  0.07252162  0.57329513  1
  Cu  Cu2  1  0.04513337  0.65335463  0.09026673  1
  Cu  Cu3  1  0.95486663  0.34664537  0.90973327  1
  Ti  Ti4  1  0.64574322  0.56142724  0.29148643  1
  Ti  Ti5  1  0.35425678  0.43857276  0.70851357  1
  Te  Te6  1  0.75235526  0.29194079  0.50471052  1
  Te  Te7  1  0.24764474  0.70805921  0.49528948  1
  Te  Te8  1  0.58209315  0.86876603  0.16418629  1
  Te  Te9  1  0.41790685  0.13123397  0.83581371  1
  Te  Te10  1  0.91235165  0.67155000  0.82470331  1
  Te  Te11  1  0.08764835  0.32845000  0.17529669  1
