# generated using pymatgen
data_Bi4RuI2
_symmetry_space_group_name_H-M   'P 1'
_cell_length_a   6.88257485
_cell_length_b   9.46095517
_cell_length_c   9.46095529
_cell_angle_alpha   82.39726500
_cell_angle_beta   68.67020807
_cell_angle_gamma   68.67020060
_symmetry_Int_Tables_number   1
_chemical_formula_structural   Bi4RuI2
_chemical_formula_sum   'Bi8 Ru2 I4'
_cell_volume   534.55043490
_cell_formula_units_Z   2
loop_
 _symmetry_equiv_pos_site_id
 _symmetry_equiv_pos_as_xyz
  1  'x, y, z'
loop_
 _atom_site_type_symbol
 _atom_site_label
 _atom_site_symmetry_multiplicity
 _atom_site_fract_x
 _atom_site_fract_y
 _atom_site_fract_z
 _atom_site_occupancy
  Bi  Bi0  1  0.94170938  0.89594915  0.22063209  1
  Bi  Bi1  1  0.16234147  0.77936791  0.89594915  1
  Bi  Bi2  1  0.83765853  0.22063209  0.10405085  1
  Bi  Bi3  1  0.05829062  0.10405085  0.77936791  1
  Bi  Bi4  1  0.32769533  0.08710769  0.25750166  1
  Bi  Bi5  1  0.58519699  0.74249834  0.08710769  1
  Bi  Bi6  1  0.41480301  0.25750166  0.91289231  1
  Bi  Bi7  1  0.67230467  0.91289231  0.74249834  1
  Ru  Ru8  1  0.29047786  1.00000000  0.00000000  1
  Ru  Ru9  1  0.70952214  0.00000000  1.00000000  1
  I  I10  1  0.38432732  0.77843862  0.45290674  1
  I  I11  1  0.83723406  0.54709326  0.77843862  1
  I  I12  1  0.16276594  0.45290674  0.22156138  1
  I  I13  1  0.61567268  0.22156138  0.54709326  1
