# generated using pymatgen
data_P2S5
_symmetry_space_group_name_H-M   'P 1'
_cell_length_a   9.67888928
_cell_length_b   9.82382054
_cell_length_c   9.82486748
_cell_angle_alpha   92.89432746
_cell_angle_beta   109.71183722
_cell_angle_gamma   100.66057747
_symmetry_Int_Tables_number   1
_chemical_formula_structural   P2S5
_chemical_formula_sum   'P8 S20'
_cell_volume   857.80483511
_cell_formula_units_Z   4
loop_
 _symmetry_equiv_pos_site_id
 _symmetry_equiv_pos_as_xyz
  1  'x, y, z'
loop_
 _atom_site_type_symbol
 _atom_site_label
 _atom_site_symmetry_multiplicity
 _atom_site_fract_x
 _atom_site_fract_y
 _atom_site_fract_z
 _atom_site_occupancy
  P  P0  1  0.74417170  0.18778135  0.90253260  1
  P  P1  1  0.25582830  0.81221865  0.09746740  1
  P  P2  1  0.07739449  0.28137086  0.83693489  1
  P  P3  1  0.92260551  0.71862914  0.16306511  1
  P  P4  1  0.73833100  0.29428744  0.57002521  1
  P  P5  1  0.26166900  0.70571256  0.42997479  1
  P  P6  1  0.82286017  0.97443222  0.65892494  1
  P  P7  1  0.17713983  0.02556778  0.34107506  1
  S  S8  1  0.65351319  0.19118586  0.04886258  1
  S  S9  1  0.34648681  0.80881414  0.95113742  1
  S  S10  1  0.97542207  0.28358098  -0.00319419  1
  S  S11  1  0.02457793  0.71641902  1.00319419  1
  S  S12  1  0.63678966  0.29663767  0.73034075  1
  S  S13  1  0.36321034  0.70336233  0.26965925  1
  S  S14  1  0.72102788  0.97836714  0.81880199  1
  S  S15  1  0.27897212  0.02163286  0.18119801  1
  S  S16  1  0.28721404  0.36799436  0.92329467  1
  S  S17  1  0.71278596  0.63200564  0.07670533  1
  S  S18  1  0.96943229  0.39100589  0.66573136  1
  S  S19  1  0.03056771  0.60899411  0.33426864  1
  S  S20  1  0.05365115  0.07171662  0.75377970  1
  S  S21  1  0.94634885  0.92828338  0.24622030  1
  S  S22  1  0.64225507  0.39297830  0.41352712  1
  S  S23  1  0.35774493  0.60702170  0.58647288  1
  S  S24  1  0.71699149  0.08494015  0.48766116  1
  S  S25  1  0.28300851  0.91505985  0.51233884  1
  S  S26  1  0.80156970  0.78430680  0.58367713  1
  S  S27  1  0.19843030  0.21569320  0.41632287  1
