# generated using pymatgen
data_CaNiAsHO5
_symmetry_space_group_name_H-M   'P 1'
_cell_length_a   5.99951845
_cell_length_b   7.52679727
_cell_length_c   9.01506217
_cell_angle_alpha   90.00000000
_cell_angle_beta   90.00000000
_cell_angle_gamma   90.00000000
_symmetry_Int_Tables_number   1
_chemical_formula_structural   CaNiAsHO5
_chemical_formula_sum   'Ca4 Ni4 As4 H4 O20'
_cell_volume   407.09459662
_cell_formula_units_Z   4
loop_
 _symmetry_equiv_pos_site_id
 _symmetry_equiv_pos_as_xyz
  1  'x, y, z'
loop_
 _atom_site_type_symbol
 _atom_site_label
 _atom_site_symmetry_multiplicity
 _atom_site_fract_x
 _atom_site_fract_y
 _atom_site_fract_z
 _atom_site_occupancy
  Ca  Ca0  1  0.47478911  0.37244164  0.17327402  1
  Ca  Ca1  1  0.97478911  0.12755836  0.82672598  1
  Ca  Ca2  1  0.52521089  0.87244164  0.32672598  1
  Ca  Ca3  1  0.02521089  0.62755836  0.67327402  1
  Ni  Ni4  1  0.25668380  0.24252008  0.50360173  1
  Ni  Ni5  1  0.75668380  0.25747992  0.49639827  1
  Ni  Ni6  1  0.74331620  0.74252008  0.99639827  1
  Ni  Ni7  1  0.24331620  0.75747992  0.00360173  1
  As  As8  1  0.01669080  0.12068126  0.17952934  1
  As  As9  1  0.51669080  0.37931874  0.82047066  1
  As  As10  1  0.98330920  0.62068126  0.32047066  1
  As  As11  1  0.48330920  0.87931874  0.67952934  1
  O  O12  1  0.98997476  0.93928805  0.05998209  1
  O  O13  1  0.48997476  0.56071195  0.94001791  1
  O  O14  1  0.01002524  0.43928805  0.44001791  1
  O  O15  1  0.51002524  0.06071195  0.55998209  1
  O  O16  1  0.08688329  0.28893676  0.05925125  1
  O  O17  1  0.58688329  0.21106324  0.94074875  1
  O  O18  1  0.91311671  0.78893676  0.44074875  1
  O  O19  1  0.41311671  0.71106324  0.55925125  1
  O  O20  1  0.76759362  0.14811184  0.27351066  1
  O  O21  1  0.26759362  0.35188816  0.72648934  1
  O  O22  1  0.23240638  0.64811184  0.22648934  1
  O  O23  1  0.73240638  0.85188816  0.77351066  1
  O  O24  1  0.24684188  0.10842287  0.29499240  1
  O  O25  1  0.74684188  0.39157713  0.70500760  1
  O  O26  1  0.75315812  0.60842287  0.20500760  1
  O  O27  1  0.25315812  0.89157713  0.79499240  1
  O  O28  1  0.49862576  0.39638259  0.42702187  1
  O  O29  1  0.99862576  0.10361741  0.57297813  1
  O  O30  1  0.50137424  0.89638259  0.07297813  1
  O  O31  1  0.00137424  0.60361741  0.92702187  1
  H  H32  1  0.01183747  0.48969011  0.98150271  1
  H  H33  1  0.51183747  0.01030989  0.01849729  1
  H  H34  1  0.98816253  0.98969011  0.51849729  1
  H  H35  1  0.48816253  0.51030989  0.48150271  1
