# generated using pymatgen
data_Rb3InP2
_symmetry_space_group_name_H-M   'P 1'
_cell_length_a   9.51241274
_cell_length_b   12.63846294
_cell_length_c   16.08613310
_cell_angle_alpha   97.10993002
_cell_angle_beta   106.92627208
_cell_angle_gamma   106.67750098
_symmetry_Int_Tables_number   1
_chemical_formula_structural   Rb3InP2
_chemical_formula_sum   'Rb24 In8 P16'
_cell_volume   1726.36006823
_cell_formula_units_Z   8
loop_
 _symmetry_equiv_pos_site_id
 _symmetry_equiv_pos_as_xyz
  1  'x, y, z'
loop_
 _atom_site_type_symbol
 _atom_site_label
 _atom_site_symmetry_multiplicity
 _atom_site_fract_x
 _atom_site_fract_y
 _atom_site_fract_z
 _atom_site_occupancy
  Rb  Rb0  1  0.68911691  0.11975482  0.52141528  1
  Rb  Rb1  1  0.14912865  0.58578176  0.47358186  1
  Rb  Rb2  1  0.39386064  0.39691789  0.35420606  1
  Rb  Rb3  1  0.31088309  0.88024518  0.47858472  1
  Rb  Rb4  1  0.60613936  0.60308211  0.64579394  1
  Rb  Rb5  1  0.46304479  0.42128157  0.80520237  1
  Rb  Rb6  1  0.07703817  0.39373206  0.08916024  1
  Rb  Rb7  1  0.58245742  0.93118334  0.74607994  1
  Rb  Rb8  1  0.78424790  0.41565877  0.24470518  1
  Rb  Rb9  1  0.83168459  0.92370684  0.34376410  1
  Rb  Rb10  1  0.01961184  0.26506251  0.82037791  1
  Rb  Rb11  1  0.60997951  0.12276087  0.08536870  1
  Rb  Rb12  1  0.98038816  0.73493749  0.17962209  1
  Rb  Rb13  1  0.41754258  0.06881666  0.25392006  1
  Rb  Rb14  1  0.85087135  0.41421824  0.52641814  1
  Rb  Rb15  1  0.33488944  0.74784098  0.11876988  1
  Rb  Rb16  1  0.53695521  0.57871843  0.19479763  1
  Rb  Rb17  1  0.01761404  0.09857953  0.19521820  1
  Rb  Rb18  1  0.92296183  0.60626794  0.91083976  1
  Rb  Rb19  1  0.98238596  0.90142047  0.80478180  1
  Rb  Rb20  1  0.66511056  0.25215902  0.88123012  1
  Rb  Rb21  1  0.39002049  0.87723913  0.91463130  1
  Rb  Rb22  1  0.16831541  0.07629316  0.65623590  1
  Rb  Rb23  1  0.21575210  0.58434123  0.75529482  1
  In  In24  1  0.43827500  0.28148312  0.57904667  1
  In  In25  1  0.07707182  0.23185464  0.44243722  1
  In  In26  1  0.17207728  0.10914969  0.01083649  1
  In  In27  1  0.92292818  0.76814536  0.55756278  1
  In  In28  1  0.57902146  0.64378604  0.99164240  1
  In  In29  1  0.82792272  0.89085031  0.98916351  1
  In  In30  1  0.56172500  0.71851688  0.42095333  1
  In  In31  1  0.42097854  0.35621396  0.00835760  1
  P  P32  1  0.27629721  0.12950071  0.43112527  1
  P  P33  1  0.63052952  0.72066309  0.85260854  1
  P  P34  1  0.28524341  0.51280232  0.96116973  1
  P  P35  1  0.12767321  0.90191706  0.03937988  1
  P  P36  1  0.76972272  0.62511440  0.40766283  1
  P  P37  1  0.70610909  0.33889384  0.68735942  1
  P  P38  1  0.18659717  0.80132149  0.66077550  1
  P  P39  1  0.31113955  0.15635132  0.89094720  1
  P  P40  1  0.68886045  0.84364868  0.10905280  1
  P  P41  1  0.87232679  0.09808294  0.96062012  1
  P  P42  1  0.23027728  0.37488560  0.59233717  1
  P  P43  1  0.71475659  0.48719768  0.03883027  1
  P  P44  1  0.72370279  0.87049929  0.56887473  1
  P  P45  1  0.81340283  0.19867851  0.33922450  1
  P  P46  1  0.29389091  0.66110616  0.31264058  1
  P  P47  1  0.36947048  0.27933691  0.14739146  1
