# generated using pymatgen
data_Ba2Zn7F18
_symmetry_space_group_name_H-M   'P 1'
_cell_length_a   7.16236049
_cell_length_b   7.44266371
_cell_length_c   7.63773743
_cell_angle_alpha   94.28518274
_cell_angle_beta   92.88549046
_cell_angle_gamma   116.34070840
_symmetry_Int_Tables_number   1
_chemical_formula_structural   Ba2Zn7F18
_chemical_formula_sum   'Ba2 Zn7 F18'
_cell_volume   362.26035795
_cell_formula_units_Z   1
loop_
 _symmetry_equiv_pos_site_id
 _symmetry_equiv_pos_as_xyz
  1  'x, y, z'
loop_
 _atom_site_type_symbol
 _atom_site_label
 _atom_site_symmetry_multiplicity
 _atom_site_fract_x
 _atom_site_fract_y
 _atom_site_fract_z
 _atom_site_occupancy
  Ba  Ba0  1  0.31604466  0.68866052  0.63222184  1
  Ba  Ba1  1  0.68395534  0.31133948  0.36777816  1
  Zn  Zn2  1  0.00000000  0.00000000  0.50000000  1
  Zn  Zn3  1  0.19107728  0.87069903  0.17902707  1
  Zn  Zn4  1  0.80892272  0.12930097  0.82097293  1
  Zn  Zn5  1  0.82059084  0.61893215  0.80677134  1
  Zn  Zn6  1  0.17940916  0.38106785  0.19322866  1
  Zn  Zn7  1  0.60898878  0.73202819  0.12343341  1
  Zn  Zn8  1  0.39101122  0.26797181  0.87656659  1
  F  F9  1  0.47930531  0.56029429  0.32286298  1
  F  F10  1  0.52069469  0.43970571  0.67713702  1
  F  F11  1  0.10988995  0.77149585  0.92515820  1
  F  F12  1  0.89011005  0.22850415  0.07484180  1
  F  F13  1  0.71781948  0.99046648  0.55745060  1
  F  F14  1  0.28218052  0.00953352  0.44254940  1
  F  F15  1  0.92065359  0.71803640  0.57191328  1
  F  F16  1  0.07934641  0.28196360  0.42808672  1
  F  F17  1  0.90686820  0.87214382  0.23847685  1
  F  F18  1  0.09313180  0.12785618  0.76152315  1
  F  F19  1  0.70185063  0.82362591  0.87883882  1
  F  F20  1  0.29814937  0.17637409  0.12116118  1
  F  F21  1  0.10217359  0.60498975  0.28587753  1
  F  F22  1  0.89782641  0.39501025  0.71412247  1
  F  F23  1  0.49902201  0.92860918  0.18513170  1
  F  F24  1  0.50097799  0.07139082  0.81486830  1
  F  F25  1  0.67910414  0.48719651  0.02632818  1
  F  F26  1  0.32089586  0.51280349  0.97367182  1
