# generated using pymatgen
data_Rb4(BSe)9
_symmetry_space_group_name_H-M   'P 1'
_cell_length_a   10.60631774
_cell_length_b   10.76849738
_cell_length_c   11.14268091
_cell_angle_alpha   91.85431122
_cell_angle_beta   104.15181407
_cell_angle_gamma   109.59384322
_symmetry_Int_Tables_number   1
_chemical_formula_structural   Rb4(BSe)9
_chemical_formula_sum   'Rb8 B18 Se18'
_cell_volume   1153.42562503
_cell_formula_units_Z   2
loop_
 _symmetry_equiv_pos_site_id
 _symmetry_equiv_pos_as_xyz
  1  'x, y, z'
loop_
 _atom_site_type_symbol
 _atom_site_label
 _atom_site_symmetry_multiplicity
 _atom_site_fract_x
 _atom_site_fract_y
 _atom_site_fract_z
 _atom_site_occupancy
  Rb  Rb0  1  0.35869195  0.99651843  0.63110382  1
  Rb  Rb1  1  0.64130805  0.00348157  0.36889618  1
  Rb  Rb2  1  0.38876581  0.62846259  0.86905074  1
  Rb  Rb3  1  0.61123419  0.37153741  0.13094926  1
  Rb  Rb4  1  0.24831942  0.37067379  0.52608225  1
  Rb  Rb5  1  0.75168058  0.62932621  0.47391775  1
  Rb  Rb6  1  0.17079249  0.61579140  0.25469704  1
  Rb  Rb7  1  0.82920751  0.38420860  0.74530296  1
  Se  Se8  1  0.71806605  0.71138559  0.79957448  1
  Se  Se9  1  0.28193395  0.28861441  0.20042552  1
  Se  Se10  1  0.72573986  0.01839475  0.72756822  1
  Se  Se11  1  0.27426014  0.98160525  0.27243178  1
  Se  Se12  1  0.65154302  0.91260501  0.05201272  1
  Se  Se13  1  0.34845698  0.08739499  0.94798728  1
  Se  Se14  1  0.84412569  0.72378227  0.16989071  1
  Se  Se15  1  0.15587431  0.27621773  0.83010929  1
  Se  Se16  1  0.09466320  0.71128102  0.92150982  1
  Se  Se17  1  0.90533680  0.28871898  0.07849018  1
  Se  Se18  1  0.02648629  0.89975819  0.69031060  1
  Se  Se19  1  0.97351371  0.10024181  0.30968940  1
  Se  Se20  1  0.47936864  0.74103262  0.54568759  1
  Se  Se21  1  0.52063136  0.25896738  0.45431241  1
  Se  Se22  1  0.51853916  0.65104817  0.20406628  1
  Se  Se23  1  0.48146084  0.34895183  0.79593372  1
  Se  Se24  1  0.10180136  0.62825009  0.62502463  1
  Se  Se25  1  0.89819864  0.37174991  0.37497537  1
  B  B26  1  0.87412843  0.86253041  0.91482181  1
  B  B27  1  0.12587157  0.13746959  0.08517819  1
  B  B28  1  0.87978954  0.02361071  0.87855964  1
  B  B29  1  0.12021046  0.97638929  0.12144036  1
  B  B30  1  0.83896177  0.96744086  0.01798101  1
  B  B31  1  0.16103823  0.03255914  0.98201899  1
  B  B32  1  0.94054914  0.86979638  0.07938428  1
  B  B33  1  0.05945086  0.13020362  0.92061572  1
  B  B34  1  0.04717106  0.86617896  0.97774591  1
  B  B35  1  0.95282894  0.13382104  0.02225409  1
  B  B36  1  0.00991270  0.96219184  0.85572735  1
  B  B37  1  0.99008730  0.03780816  0.14427265  1
  B  B38  1  0.63720477  0.82073415  0.68705113  1
  B  B39  1  0.36279523  0.17926585  0.31294887  1
  B  B40  1  0.66767748  0.76098563  0.14334081  1
  B  B41  1  0.33232252  0.23901437  0.85665919  1
  B  B42  1  0.07707556  0.74448722  0.74332549  1
  B  B43  1  0.92292444  0.25551278  0.25667451  1
