# generated using pymatgen
data_Cs6K3GaSb4
_symmetry_space_group_name_H-M   'P 1'
_cell_length_a   11.16825962
_cell_length_b   11.16825951
_cell_length_c   11.70399394
_cell_angle_alpha   90.00000000
_cell_angle_beta   90.00000000
_cell_angle_gamma   120.00000033
_symmetry_Int_Tables_number   1
_chemical_formula_structural   Cs6K3GaSb4
_chemical_formula_sum   'Cs12 K6 Ga2 Sb8'
_cell_volume   1264.25801750
_cell_formula_units_Z   2
loop_
 _symmetry_equiv_pos_site_id
 _symmetry_equiv_pos_as_xyz
  1  'x, y, z'
loop_
 _atom_site_type_symbol
 _atom_site_label
 _atom_site_symmetry_multiplicity
 _atom_site_fract_x
 _atom_site_fract_y
 _atom_site_fract_z
 _atom_site_occupancy
  Cs  Cs0  1  0.20941021  0.41882042  0.54164393  1
  Cs  Cs1  1  0.79058979  0.20941021  0.04164393  1
  Cs  Cs2  1  0.41882042  0.20941021  0.04164393  1
  Cs  Cs3  1  0.58117958  0.79058979  0.54164393  1
  Cs  Cs4  1  0.20941021  0.79058979  0.54164393  1
  Cs  Cs5  1  0.79058979  0.58117958  0.45835607  1
  Cs  Cs6  1  0.79058979  0.20941021  0.45835607  1
  Cs  Cs7  1  0.79058979  0.58117958  0.04164393  1
  Cs  Cs8  1  0.41882042  0.20941021  0.45835607  1
  Cs  Cs9  1  0.58117958  0.79058979  0.95835607  1
  Cs  Cs10  1  0.20941021  0.41882042  0.95835607  1
  Cs  Cs11  1  0.20941021  0.79058979  0.95835607  1
  Ga  Ga12  1  0.33333300  0.66666700  0.25000000  1
  Ga  Ga13  1  0.66666700  0.33333300  0.75000000  1
  Sb  Sb14  1  0.47262364  0.52737636  0.25000000  1
  Sb  Sb15  1  0.94524728  0.47262364  0.75000000  1
  Sb  Sb16  1  0.52737636  0.05475272  0.75000000  1
  Sb  Sb17  1  0.47262364  0.94524728  0.25000000  1
  Sb  Sb18  1  0.05475272  0.52737636  0.25000000  1
  Sb  Sb19  1  0.52737636  0.47262364  0.75000000  1
  Sb  Sb20  1  0.00000000  0.00000000  0.00000000  1
  Sb  Sb21  1  0.00000000  0.00000000  0.50000000  1
  K  K22  1  0.11903013  0.23806027  0.25000000  1
  K  K23  1  0.88096987  0.11903013  0.75000000  1
  K  K24  1  0.23806027  0.11903013  0.75000000  1
  K  K25  1  0.76193973  0.88096987  0.25000000  1
  K  K26  1  0.11903013  0.88096987  0.25000000  1
  K  K27  1  0.88096987  0.76193973  0.75000000  1
