# generated using pymatgen
data_Tb12(OsC3)5
_symmetry_space_group_name_H-M   'P 1'
_cell_length_a   10.75032488
_cell_length_b   10.75032517
_cell_length_c   5.11590576
_cell_angle_alpha   90.00000000
_cell_angle_beta   90.00000000
_cell_angle_gamma   119.99999911
_symmetry_Int_Tables_number   1
_chemical_formula_structural   Tb12(OsC3)5
_chemical_formula_sum   'Tb12 Os5 C15'
_cell_volume   512.03112473
_cell_formula_units_Z   1
loop_
 _symmetry_equiv_pos_site_id
 _symmetry_equiv_pos_as_xyz
  1  'x, y, z'
loop_
 _atom_site_type_symbol
 _atom_site_label
 _atom_site_symmetry_multiplicity
 _atom_site_fract_x
 _atom_site_fract_y
 _atom_site_fract_z
 _atom_site_occupancy
  Tb  Tb0  1  0.27241495  0.45588829  0.00000000  1
  Tb  Tb1  1  0.18347334  0.72758505  0.00000000  1
  Tb  Tb2  1  0.54411171  0.81652666  0.00000000  1
  Tb  Tb3  1  0.81652666  0.54411171  0.00000000  1
  Tb  Tb4  1  0.72758505  0.18347334  0.00000000  1
  Tb  Tb5  1  0.45588829  0.27241495  0.00000000  1
  Tb  Tb6  1  0.43431086  0.00000000  0.50000000  1
  Tb  Tb7  1  0.56568914  0.56568914  0.50000000  1
  Tb  Tb8  1  0.00000000  0.43431086  0.50000000  1
  Tb  Tb9  1  0.79400772  0.00000000  0.50000000  1
  Tb  Tb10  1  0.20599228  0.20599228  0.50000000  1
  Tb  Tb11  1  0.00000000  0.79400772  0.50000000  1
  Os  Os12  1  0.16106121  0.00000000  0.00000000  1
  Os  Os13  1  0.83893879  0.83893879  0.00000000  1
  Os  Os14  1  0.00000000  0.16106121  0.00000000  1
  Os  Os15  1  0.33333300  0.66666700  0.50000000  1
  Os  Os16  1  0.66666700  0.33333300  0.50000000  1
  C  C17  1  0.28281880  0.46836692  0.50000000  1
  C  C18  1  0.18554813  0.71718120  0.50000000  1
  C  C19  1  0.53163308  0.81445187  0.50000000  1
  C  C20  1  0.81445187  0.53163308  0.50000000  1
  C  C21  1  0.71718120  0.18554813  0.50000000  1
  C  C22  1  0.46836692  0.28281880  0.50000000  1
  C  C23  1  0.33568705  0.00000000  0.00000000  1
  C  C24  1  0.66431295  0.66431295  0.00000000  1
  C  C25  1  0.00000000  0.33568705  0.00000000  1
  C  C26  1  0.46005437  0.00000000  0.00000000  1
  C  C27  1  0.53994563  0.53994563  0.00000000  1
  C  C28  1  1.00000000  0.46005437  0.00000000  1
  C  C29  1  0.79277517  0.00000000  0.00000000  1
  C  C30  1  0.20722483  0.20722483  0.00000000  1
  C  C31  1  1.00000000  0.79277517  0.00000000  1
