# generated using pymatgen
data_Ba2SnS4
_symmetry_space_group_name_H-M   'P 1'
_cell_length_a   8.61714767
_cell_length_b   8.68419936
_cell_length_c   11.87431781
_cell_angle_alpha   90.00000000
_cell_angle_beta   109.12874490
_cell_angle_gamma   90.00000000
_symmetry_Int_Tables_number   1
_chemical_formula_structural   Ba2SnS4
_chemical_formula_sum   'Ba8 Sn4 S16'
_cell_volume   839.52727138
_cell_formula_units_Z   4
loop_
 _symmetry_equiv_pos_site_id
 _symmetry_equiv_pos_as_xyz
  1  'x, y, z'
loop_
 _atom_site_type_symbol
 _atom_site_label
 _atom_site_symmetry_multiplicity
 _atom_site_fract_x
 _atom_site_fract_y
 _atom_site_fract_z
 _atom_site_occupancy
  Ba  Ba0  1  0.31007968  0.80737245  0.35027519  1
  Ba  Ba1  1  0.18992032  0.30737245  0.14972481  1
  Ba  Ba2  1  0.68992032  0.19262755  0.64972481  1
  Ba  Ba3  1  0.81007968  0.69262755  0.85027519  1
  Ba  Ba4  1  0.73970853  0.87653380  0.16539201  1
  Ba  Ba5  1  0.76029147  0.37653380  0.33460799  1
  Ba  Ba6  1  0.26029147  0.12346620  0.83460799  1
  Ba  Ba7  1  0.23970853  0.62346620  0.66539201  1
  Sn  Sn8  1  0.80935126  0.81139536  0.50942408  1
  Sn  Sn9  1  0.69064874  0.31139536  0.99057592  1
  Sn  Sn10  1  0.19064874  0.18860464  0.49057592  1
  Sn  Sn11  1  0.30935126  0.68860464  0.00942408  1
  S  S12  1  0.36157447  0.98475694  0.60781890  1
  S  S13  1  0.13842553  0.48475694  0.89218110  1
  S  S14  1  0.63842553  0.01524306  0.39218110  1
  S  S15  1  0.86157447  0.51524306  0.10781890  1
  S  S16  1  0.97440613  0.89809198  0.70522958  1
  S  S17  1  0.52559387  0.39809198  0.79477042  1
  S  S18  1  0.02559387  0.10190802  0.29477042  1
  S  S19  1  0.47440613  0.60190802  0.20522958  1
  S  S20  1  0.14110563  0.88236233  0.05458807  1
  S  S21  1  0.35889437  0.38236233  0.44541193  1
  S  S22  1  0.85889437  0.11763767  0.94541193  1
  S  S23  1  0.64110563  0.61763767  0.55458807  1
  S  S24  1  0.47458669  0.80783823  0.90201316  1
  S  S25  1  0.02541331  0.30783823  0.59798684  1
  S  S26  1  0.52541331  0.19216177  0.09798684  1
  S  S27  1  0.97458669  0.69216177  0.40201316  1
