# generated using pymatgen
data_RbMgF3
_symmetry_space_group_name_H-M   'P 1'
_cell_length_a   5.92941261
_cell_length_b   5.92941280
_cell_length_c   14.43823466
_cell_angle_alpha   90.00000000
_cell_angle_beta   90.00000000
_cell_angle_gamma   119.99999889
_symmetry_Int_Tables_number   1
_chemical_formula_structural   RbMgF3
_chemical_formula_sum   'Rb6 Mg6 F18'
_cell_volume   439.61053511
_cell_formula_units_Z   6
loop_
 _symmetry_equiv_pos_site_id
 _symmetry_equiv_pos_as_xyz
  1  'x, y, z'
loop_
 _atom_site_type_symbol
 _atom_site_label
 _atom_site_symmetry_multiplicity
 _atom_site_fract_x
 _atom_site_fract_y
 _atom_site_fract_z
 _atom_site_occupancy
  Mg  Mg0  1  0.00000000  0.00000000  0.00000000  1
  Mg  Mg1  1  0.00000000  0.00000000  0.50000000  1
  Mg  Mg2  1  0.33333300  0.66666700  0.84762246  1
  Mg  Mg3  1  0.66666700  0.33333300  0.34762246  1
  Mg  Mg4  1  0.66666700  0.33333300  0.15237754  1
  Mg  Mg5  1  0.33333300  0.66666700  0.65237754  1
  F  F6  1  0.52093950  0.04187899  0.25000000  1
  F  F7  1  0.47906050  0.52093950  0.75000000  1
  F  F8  1  0.04187899  0.52093950  0.75000000  1
  F  F9  1  0.95812101  0.47906050  0.25000000  1
  F  F10  1  0.52093950  0.47906050  0.25000000  1
  F  F11  1  0.47906050  0.95812101  0.75000000  1
  F  F12  1  0.83402278  0.66804555  0.07986423  1
  F  F13  1  0.16597722  0.83402278  0.57986423  1
  F  F14  1  0.66804555  0.83402278  0.57986423  1
  F  F15  1  0.33195445  0.16597722  0.07986423  1
  F  F16  1  0.83402278  0.16597722  0.07986423  1
  F  F17  1  0.16597722  0.33195445  0.92013577  1
  F  F18  1  0.16597722  0.83402278  0.92013577  1
  F  F19  1  0.16597722  0.33195445  0.57986423  1
  F  F20  1  0.66804555  0.83402278  0.92013577  1
  F  F21  1  0.33195445  0.16597722  0.42013577  1
  F  F22  1  0.83402278  0.66804555  0.42013577  1
  F  F23  1  0.83402278  0.16597722  0.42013577  1
  Rb  Rb24  1  0.00000000  0.00000000  0.25000000  1
  Rb  Rb25  1  0.00000000  0.00000000  0.75000000  1
  Rb  Rb26  1  0.33333300  0.66666700  0.09820143  1
  Rb  Rb27  1  0.66666700  0.33333300  0.59820143  1
  Rb  Rb28  1  0.66666700  0.33333300  0.90179857  1
  Rb  Rb29  1  0.33333300  0.66666700  0.40179857  1
