# generated using pymatgen
data_NbSeI3
_symmetry_space_group_name_H-M   'P 1'
_cell_length_a   7.42064593
_cell_length_b   8.36300040
_cell_length_c   13.84216376
_cell_angle_alpha   86.13021766
_cell_angle_beta   81.24571467
_cell_angle_gamma   63.67747189
_symmetry_Int_Tables_number   1
_chemical_formula_structural   NbSeI3
_chemical_formula_sum   'Nb4 Se4 I12'
_cell_volume   760.98819079
_cell_formula_units_Z   4
loop_
 _symmetry_equiv_pos_site_id
 _symmetry_equiv_pos_as_xyz
  1  'x, y, z'
loop_
 _atom_site_type_symbol
 _atom_site_label
 _atom_site_symmetry_multiplicity
 _atom_site_fract_x
 _atom_site_fract_y
 _atom_site_fract_z
 _atom_site_occupancy
  Nb  Nb0  1  0.99264405  0.87840691  0.65588628  1
  Nb  Nb1  1  0.12908771  0.87840370  0.84409945  1
  Nb  Nb2  1  0.00735595  0.12159309  0.34411372  1
  Nb  Nb3  1  0.87091229  0.12159630  0.15590055  1
  I  I4  1  0.75603950  0.18867645  0.53310339  1
  I  I5  1  0.05498498  0.18884962  0.96687653  1
  I  I6  1  0.24396050  0.81132355  0.46689661  1
  I  I7  1  0.94501502  0.81115038  0.03312347  1
  I  I8  1  0.77690693  0.71771468  0.59032496  1
  I  I9  1  0.50529974  0.71777553  0.90977676  1
  I  I10  1  0.22309307  0.28228532  0.40967504  1
  I  I11  1  0.49470026  0.28222447  0.09022324  1
  I  I12  1  0.70701423  0.09661277  0.80536212  1
  I  I13  1  0.19665200  0.09669901  0.69460606  1
  I  I14  1  0.29298577  0.90338723  0.19463788  1
  I  I15  1  0.80334800  0.90330099  0.30539394  1
  Se  Se16  1  0.33185273  0.63171584  0.70491758  1
  Se  Se17  1  0.03714928  0.63130301  0.79493290  1
  Se  Se18  1  0.66814727  0.36828416  0.29508242  1
  Se  Se19  1  0.96285072  0.36869699  0.20506710  1
