# generated using pymatgen
data_Rb2Hg(BSe)9
_symmetry_space_group_name_H-M   'P 1'
_cell_length_a   9.97428807
_cell_length_b   10.75113995
_cell_length_c   11.31842535
_cell_angle_alpha   100.14275226
_cell_angle_beta   90.63083281
_cell_angle_gamma   116.28968855
_symmetry_Int_Tables_number   1
_chemical_formula_structural   Rb2Hg(BSe)9
_chemical_formula_sum   'Rb4 Hg2 B18 Se18'
_cell_volume   1065.72249731
_cell_formula_units_Z   2
loop_
 _symmetry_equiv_pos_site_id
 _symmetry_equiv_pos_as_xyz
  1  'x, y, z'
loop_
 _atom_site_type_symbol
 _atom_site_label
 _atom_site_symmetry_multiplicity
 _atom_site_fract_x
 _atom_site_fract_y
 _atom_site_fract_z
 _atom_site_occupancy
  Hg  Hg0  1  0.32526017  0.31849307  0.07469960  1
  Hg  Hg1  1  0.67473983  0.68150693  0.92530040  1
  Rb  Rb2  1  0.79154162  0.17435510  1.00159010  1
  Rb  Rb3  1  0.20845838  0.82564490  -0.00159010  1
  Rb  Rb4  1  0.17550473  0.34415451  0.50424229  1
  Rb  Rb5  1  0.82449527  0.65584549  0.49575771  1
  Se  Se6  1  0.55639160  0.36240507  0.62681905  1
  Se  Se7  1  0.44360840  0.63759493  0.37318095  1
  Se  Se8  1  0.83889348  0.27976712  0.69424935  1
  Se  Se9  1  0.16110652  0.72023288  0.30575065  1
  Se  Se10  1  0.44734924  0.09469603  0.81932801  1
  Se  Se11  1  0.55265076  0.90530397  0.18067199  1
  Se  Se12  1  0.16335014  0.02854736  0.60955360  1
  Se  Se13  1  0.83664986  0.97145264  0.39044640  1
  Se  Se14  1  0.36324868  0.15704419  0.29012931  1
  Se  Se15  1  0.63675132  0.84295581  0.70987069  1
  Se  Se16  1  0.74395576  0.28722741  0.34792735  1
  Se  Se17  1  0.25604424  0.71277259  0.65207265  1
  Se  Se18  1  0.86891445  0.60125003  0.81392420  1
  Se  Se19  1  0.13108555  0.39874997  0.18607580  1
  Se  Se20  1  0.12991046  0.12180144  0.90096015  1
  Se  Se21  1  0.87008954  0.87819856  0.09903985  1
  Se  Se22  1  0.60796541  0.40678248  0.14453162  1
  Se  Se23  1  0.39203459  0.59321752  0.85546838  1
  B  B24  1  0.51570841  0.16328680  0.55178007  1
  B  B25  1  0.48429159  0.83671320  0.44821993  1
  B  B26  1  0.66211097  0.12001322  0.58638869  1
  B  B27  1  0.33788903  0.87998678  0.41361131  1
  B  B28  1  0.48606508  0.04211135  0.64795106  1
  B  B29  1  0.51393492  0.95788865  0.35204894  1
  B  B30  1  0.33906979  0.00827332  0.53858024  1
  B  B31  1  0.66093021  0.99172668  0.46141976  1
  B  B32  1  0.42354107  0.06404400  0.40634100  1
  B  B33  1  0.57645893  0.93595600  0.59365900  1
  B  B34  1  0.62121770  0.13202723  0.43614894  1
  B  B35  1  0.37878230  0.86797277  0.56385106  1
  B  B36  1  0.75115929  0.41486045  0.71399578  1
  B  B37  1  0.24884071  0.58513955  0.28600422  1
  B  B38  1  0.25138242  0.08682069  0.77954854  1
  B  B39  1  0.74861758  0.91317931  0.22045146  1
  B  B40  1  0.56996387  0.28442289  0.26069615  1
  B  B41  1  0.43003613  0.71557711  0.73930385  1
