# generated using pymatgen
data_TlCr5S8
_symmetry_space_group_name_H-M   'P 1'
_cell_length_a   3.49178366
_cell_length_b   8.70487705
_cell_length_c   9.17647246
_cell_angle_alpha   104.79049386
_cell_angle_beta   100.96747117
_cell_angle_gamma   89.99909837
_symmetry_Int_Tables_number   1
_chemical_formula_structural   TlCr5S8
_chemical_formula_sum   'Tl1 Cr5 S8'
_cell_volume   264.40974326
_cell_formula_units_Z   1
loop_
 _symmetry_equiv_pos_site_id
 _symmetry_equiv_pos_as_xyz
  1  'x, y, z'
loop_
 _atom_site_type_symbol
 _atom_site_label
 _atom_site_symmetry_multiplicity
 _atom_site_fract_x
 _atom_site_fract_y
 _atom_site_fract_z
 _atom_site_occupancy
  Tl  Tl0  1  0.00000000  0.00000000  0.00000000  1
  Cr  Cr1  1  0.50000000  0.50000000  0.00000000  1
  Cr  Cr2  1  0.20348945  0.83519337  0.40709226  1
  Cr  Cr3  1  0.79651055  0.16480663  0.59290774  1
  Cr  Cr4  1  0.84135221  0.52538925  0.68273072  1
  Cr  Cr5  1  0.15864779  0.47461075  0.31726928  1
  S  S6  1  0.32808241  0.01122290  0.65617945  1
  S  S7  1  0.67191759  0.98877710  0.34382055  1
  S  S8  1  0.73768175  0.65604421  0.47528621  1
  S  S9  1  0.26231825  0.34395579  0.52471379  1
  S  S10  1  0.41430768  0.67071451  0.82862196  1
  S  S11  1  0.58569232  0.32928549  0.17137804  1
  S  S12  1  0.07622102  0.64996970  0.15254553  1
  S  S13  1  0.92377898  0.35003030  0.84745447  1
