# generated using pymatgen
data_Na2(ReS2)3
_symmetry_space_group_name_H-M   'P 1'
_cell_length_a   9.39215980
_cell_length_b   9.39215924
_cell_length_c   11.65418954
_cell_angle_alpha   87.68502711
_cell_angle_beta   87.68502723
_cell_angle_gamma   62.43360923
_symmetry_Int_Tables_number   1
_chemical_formula_structural   Na2(ReS2)3
_chemical_formula_sum   'Na8 Re12 S24'
_cell_volume   910.32114138
_cell_formula_units_Z   4
loop_
 _symmetry_equiv_pos_site_id
 _symmetry_equiv_pos_as_xyz
  1  'x, y, z'
loop_
 _atom_site_type_symbol
 _atom_site_label
 _atom_site_symmetry_multiplicity
 _atom_site_fract_x
 _atom_site_fract_y
 _atom_site_fract_z
 _atom_site_occupancy
  Na  Na0  1  0.42721438  0.57278562  0.75000000  1
  Na  Na1  1  0.57278562  0.42721438  0.25000000  1
  Na  Na2  1  0.78887138  0.21112862  0.75000000  1
  Na  Na3  1  0.21112862  0.78887138  0.25000000  1
  Na  Na4  1  0.64510830  0.10326233  0.00798209  1
  Na  Na5  1  0.89673767  0.35489170  0.49201791  1
  Na  Na6  1  0.35489170  0.89673767  0.99201791  1
  Na  Na7  1  0.10326233  0.64510830  0.50798209  1
  Re  Re8  1  0.40171905  0.19334363  0.41462159  1
  Re  Re9  1  0.80665637  0.59828095  0.08537841  1
  Re  Re10  1  0.59828095  0.80665637  0.58537841  1
  Re  Re11  1  0.19334363  0.40171905  0.91462159  1
  Re  Re12  1  0.47928735  0.11496297  0.63268200  1
  Re  Re13  1  0.88503703  0.52071265  0.86731800  1
  Re  Re14  1  0.52071265  0.88503703  0.36731800  1
  Re  Re15  1  0.11496297  0.47928735  0.13268200  1
  Re  Re16  1  0.30069147  0.01088608  0.53214323  1
  Re  Re17  1  0.98911392  0.69930853  0.96785677  1
  Re  Re18  1  0.69930853  0.98911392  0.46785677  1
  Re  Re19  1  0.01088608  0.30069147  0.03214323  1
  S  S20  1  0.24669993  0.08008045  0.33203810  1
  S  S21  1  0.91991955  0.75330007  0.16796190  1
  S  S22  1  0.75330007  0.91991955  0.66796190  1
  S  S23  1  0.08008045  0.24669993  0.83203810  1
  S  S24  1  0.42103432  0.72773484  0.48662736  1
  S  S25  1  0.27226516  0.57896568  0.01337264  1
  S  S26  1  0.57896568  0.27226516  0.51337264  1
  S  S27  1  0.72773484  0.42103432  0.98662736  1
  S  S28  1  0.38752850  0.93607782  0.72886930  1
  S  S29  1  0.06392218  0.61247150  0.77113070  1
  S  S30  1  0.61247150  0.06392218  0.27113070  1
  S  S31  1  0.93607782  0.38752850  0.22886930  1
  S  S32  1  0.20883815  0.29336170  0.57318497  1
  S  S33  1  0.70663830  0.79116185  0.92681503  1
  S  S34  1  0.79116185  0.70663830  0.42681503  1
  S  S35  1  0.29336170  0.20883815  0.07318497  1
  S  S36  1  0.26809060  0.45906358  0.30781460  1
  S  S37  1  0.54093642  0.73190940  0.19218540  1
  S  S38  1  0.73190940  0.54093642  0.69218540  1
  S  S39  1  0.45906358  0.26809060  0.80781460  1
  S  S40  1  0.03850170  0.02484771  0.57724701  1
  S  S41  1  0.97515229  0.96149830  0.92275299  1
  S  S42  1  0.96149830  0.97515229  0.42275299  1
  S  S43  1  0.02484771  0.03850170  0.07724701  1
