# generated using pymatgen
data_K2Ag(AsSe2)3
_symmetry_space_group_name_H-M   'P 1'
_cell_length_a   7.78588000
_cell_length_b   12.93318289
_cell_length_c   14.70309027
_cell_angle_alpha   97.64312041
_cell_angle_beta   90.00000000
_cell_angle_gamma   90.00000000
_symmetry_Int_Tables_number   1
_chemical_formula_structural   K2Ag(AsSe2)3
_chemical_formula_sum   'K8 Ag4 As12 Se24'
_cell_volume   1467.39189233
_cell_formula_units_Z   4
loop_
 _symmetry_equiv_pos_site_id
 _symmetry_equiv_pos_as_xyz
  1  'x, y, z'
loop_
 _atom_site_type_symbol
 _atom_site_label
 _atom_site_symmetry_multiplicity
 _atom_site_fract_x
 _atom_site_fract_y
 _atom_site_fract_z
 _atom_site_occupancy
  K  K0  1  0.11042810  0.65314028  0.24275680  1
  K  K1  1  0.61042810  0.84685972  0.25724320  1
  K  K2  1  0.88957190  0.34685972  0.75724320  1
  K  K3  1  0.38957190  0.15314028  0.74275680  1
  K  K4  1  0.62858020  0.82802473  0.61363547  1
  K  K5  1  0.12858020  0.67197527  0.88636453  1
  K  K6  1  0.37141980  0.17197527  0.38636453  1
  K  K7  1  0.87141980  0.32802473  0.11363547  1
  Ag  Ag8  1  0.00712688  0.90018136  0.42780855  1
  Ag  Ag9  1  0.50712688  0.59981864  0.07219145  1
  Ag  Ag10  1  0.99287312  0.09981864  0.57219145  1
  Ag  Ag11  1  0.49287312  0.40018136  0.92780855  1
  As  As12  1  0.91118781  0.12441042  0.34468961  1
  As  As13  1  0.41118781  0.37558958  0.15531039  1
  As  As14  1  0.08881219  0.87558958  0.65531039  1
  As  As15  1  0.58881219  0.62441042  0.84468961  1
  As  As16  1  0.05569602  0.96426361  0.13512776  1
  As  As17  1  0.55569602  0.53573639  0.36487224  1
  As  As18  1  0.94430398  0.03573639  0.86487224  1
  As  As19  1  0.44430398  0.46426361  0.63512776  1
  As  As20  1  0.67286762  0.87738890  0.99432574  1
  As  As21  1  0.17286762  0.62261110  0.50567426  1
  As  As22  1  0.32713238  0.12261110  0.00567426  1
  As  As23  1  0.82713238  0.37738890  0.49432574  1
  Se  Se24  1  0.75766091  0.28992349  0.33865145  1
  Se  Se25  1  0.25766091  0.21007651  0.16134855  1
  Se  Se26  1  0.24233909  0.71007651  0.66134855  1
  Se  Se27  1  0.74233909  0.78992349  0.83865145  1
  Se  Se28  1  0.26739507  0.96597483  0.55793418  1
  Se  Se29  1  0.76739507  0.53402517  0.94206582  1
  Se  Se30  1  0.73260493  0.03402517  0.44206582  1
  Se  Se31  1  0.23260493  0.46597483  0.05793418  1
  Se  Se32  1  0.79643101  0.06982177  0.18992614  1
  Se  Se33  1  0.29643101  0.43017823  0.31007386  1
  Se  Se34  1  0.20356899  0.93017823  0.81007386  1
  Se  Se35  1  0.70356899  0.56982177  0.68992614  1
  Se  Se36  1  0.18322682  0.92290208  0.27260108  1
  Se  Se37  1  0.68322682  0.57709792  0.22739892  1
  Se  Se38  1  0.81677318  0.07709792  0.72739892  1
  Se  Se39  1  0.31677318  0.42290208  0.77260108  1
  Se  Se40  1  0.90380647  0.79901356  0.08134200  1
  Se  Se41  1  0.40380647  0.70098644  0.41865800  1
  Se  Se42  1  0.09619353  0.20098644  0.91865800  1
  Se  Se43  1  0.59619353  0.29901356  0.58134200  1
  Se  Se44  1  0.92565677  0.70879384  0.46052291  1
  Se  Se45  1  0.42565677  0.79120616  0.03947709  1
  Se  Se46  1  0.07434323  0.29120616  0.53947709  1
  Se  Se47  1  0.57434323  0.20879384  0.96052291  1
