# generated using pymatgen
data_CsRe3(O3F5)2
_symmetry_space_group_name_H-M   'P 1'
_cell_length_a   7.34656576
_cell_length_b   10.10067561
_cell_length_c   10.67801807
_cell_angle_alpha   113.56292525
_cell_angle_beta   91.01045898
_cell_angle_gamma   92.22424985
_symmetry_Int_Tables_number   1
_chemical_formula_structural   CsRe3(O3F5)2
_chemical_formula_sum   'Cs2 Re6 O12 F20'
_cell_volume   725.27644812
_cell_formula_units_Z   2
loop_
 _symmetry_equiv_pos_site_id
 _symmetry_equiv_pos_as_xyz
  1  'x, y, z'
loop_
 _atom_site_type_symbol
 _atom_site_label
 _atom_site_symmetry_multiplicity
 _atom_site_fract_x
 _atom_site_fract_y
 _atom_site_fract_z
 _atom_site_occupancy
  Re  Re0  1  0.23013235  0.62546012  0.36791014  1
  Re  Re1  1  0.76986765  0.37453988  0.63208986  1
  O  O2  1  0.16695588  0.48025984  0.40310744  1
  O  O3  1  0.83304412  0.51974016  0.59689256  1
  O  O4  1  0.12982962  0.76564513  0.49441345  1
  O  O5  1  0.87017038  0.23435487  0.50558655  1
  F  F6  1  0.04274674  0.60254054  0.23499993  1
  F  F7  1  0.95725326  0.39745946  0.76500007  1
  F  F8  1  0.36931326  0.52905124  0.20413249  1
  F  F9  1  0.63068674  0.47094876  0.79586751  1
  F  F10  1  0.46378986  0.66542605  0.45369976  1
  F  F11  1  0.53621014  0.33457395  0.54630024  1
  F  F12  1  0.32655364  0.80531443  0.30574563  1
  F  F13  1  0.67344636  0.19468557  0.69425437  1
  Re  Re14  1  0.25870140  0.01415773  0.32618842  1
  Re  Re15  1  0.74129860  0.98584227  0.67381158  1
  O  O16  1  0.27763592  0.07655063  0.50017095  1
  O  O17  1  0.72236408  0.92344937  0.49982905  1
  O  O18  1  0.20283744  0.16476525  0.30209475  1
  O  O19  1  0.79716256  0.83523475  0.69790525  1
  F  F20  1  0.02176991  0.92831220  0.30457924  1
  F  F21  1  0.97823009  0.07168780  0.69542076  1
  F  F22  1  0.50936342  0.02243804  0.29428921  1
  F  F23  1  0.49063658  0.97756196  0.70571079  1
  F  F24  1  0.25017583  0.89665437  0.11400113  1
  F  F25  1  0.74982417  0.10334563  0.88599887  1
  Re  Re26  1  0.23860685  0.77818487  0.88938213  1
  Re  Re27  1  0.76139315  0.22181513  0.11061787  1
  O  O28  1  0.23743303  0.66891779  0.71952634  1
  O  O29  1  0.76256697  0.33108221  0.28047366  1
  O  O30  1  0.18923144  0.94314098  0.88932225  1
  O  O31  1  0.81076856  0.05685902  0.11067775  1
  F  F32  1  0.29905008  0.63060016  0.95781081  1
  F  F33  1  0.70094992  0.36939984  0.04218919  1
  F  F34  1  0.99835115  0.73244125  0.92507882  1
  F  F35  1  0.00164885  0.26755875  0.07492118  1
  F  F36  1  0.49267184  0.82191348  0.91745949  1
  F  F37  1  0.50732816  0.17808652  0.08254051  1
  Cs  Cs38  1  0.69547504  0.70407779  0.12115528  1
  Cs  Cs39  1  0.30452496  0.29592221  0.87884472  1
