# generated using pymatgen
data_Rb2Cd(PSe3)2
_symmetry_space_group_name_H-M   'P 1'
_cell_length_a   6.76315391
_cell_length_b   8.00477748
_cell_length_c   12.94495541
_cell_angle_alpha   90.00000000
_cell_angle_beta   90.00000000
_cell_angle_gamma   98.08686767
_symmetry_Int_Tables_number   1
_chemical_formula_structural   Rb2Cd(PSe3)2
_chemical_formula_sum   'Rb4 Cd2 P4 Se12'
_cell_volume   693.83918205
_cell_formula_units_Z   2
loop_
 _symmetry_equiv_pos_site_id
 _symmetry_equiv_pos_as_xyz
  1  'x, y, z'
loop_
 _atom_site_type_symbol
 _atom_site_label
 _atom_site_symmetry_multiplicity
 _atom_site_fract_x
 _atom_site_fract_y
 _atom_site_fract_z
 _atom_site_occupancy
  Cd  Cd0  1  0.50000000  0.50000000  0.00000000  1
  Cd  Cd1  1  0.00000000  0.00000000  0.50000000  1
  Rb  Rb2  1  0.74272703  0.02114532  0.82115505  1
  Rb  Rb3  1  0.75727297  0.47885468  0.32115505  1
  Rb  Rb4  1  0.25727297  0.97885468  0.17884495  1
  Rb  Rb5  1  0.24272703  0.52114532  0.67884495  1
  Se  Se6  1  0.79078432  0.54820866  0.82223117  1
  Se  Se7  1  0.70921568  0.95179134  0.32223117  1
  Se  Se8  1  0.20921568  0.45179134  0.17776883  1
  Se  Se9  1  0.29078432  0.04820866  0.67776883  1
  Se  Se10  1  0.80824693  0.76152254  0.06920208  1
  Se  Se11  1  0.69175307  0.73847746  0.56920208  1
  Se  Se12  1  0.19175307  0.23847746  0.93079792  1
  Se  Se13  1  0.30824693  0.26152254  0.43079792  1
  Se  Se14  1  0.77996665  0.24984436  0.57355748  1
  Se  Se15  1  0.72003335  0.25015564  0.07355748  1
  Se  Se16  1  0.22003335  0.75015564  0.42644252  1
  Se  Se17  1  0.27996665  0.74984436  0.92644252  1
  P  P18  1  0.97532670  0.62318764  0.95929013  1
  P  P19  1  0.52467330  0.87681236  0.45929013  1
  P  P20  1  0.02467330  0.37681236  0.04070987  1
  P  P21  1  0.47532670  0.12318764  0.54070987  1
