# generated using pymatgen
data_K3SnSe3
_symmetry_space_group_name_H-M   'P 1'
_cell_length_a   9.05192850
_cell_length_b   9.22906633
_cell_length_c   13.02613057
_cell_angle_alpha   90.00000000
_cell_angle_beta   90.00000000
_cell_angle_gamma   115.84562448
_symmetry_Int_Tables_number   1
_chemical_formula_structural   K3SnSe3
_chemical_formula_sum   'K12 Sn4 Se12'
_cell_volume   979.36203561
_cell_formula_units_Z   4
loop_
 _symmetry_equiv_pos_site_id
 _symmetry_equiv_pos_as_xyz
  1  'x, y, z'
loop_
 _atom_site_type_symbol
 _atom_site_label
 _atom_site_symmetry_multiplicity
 _atom_site_fract_x
 _atom_site_fract_y
 _atom_site_fract_z
 _atom_site_occupancy
  Sn  Sn0  1  0.62884924  0.65989157  0.00803802  1
  Sn  Sn1  1  0.87115076  0.34010843  0.50803802  1
  Sn  Sn2  1  0.37115076  0.34010843  0.99196198  1
  Sn  Sn3  1  0.12884924  0.65989157  0.49196198  1
  Se  Se4  1  0.62024981  0.75810055  0.19090614  1
  Se  Se5  1  0.87975019  0.24189945  0.69090614  1
  Se  Se6  1  0.37975019  0.24189945  0.80909386  1
  Se  Se7  1  0.12024981  0.75810055  0.30909386  1
  Se  Se8  1  0.90397646  0.65410915  0.97108993  1
  Se  Se9  1  0.59602354  0.34589085  0.47108993  1
  Se  Se10  1  0.09602354  0.34589085  0.02891007  1
  Se  Se11  1  0.40397646  0.65410915  0.52891007  1
  Se  Se12  1  0.56972719  0.82809002  0.87118573  1
  Se  Se13  1  0.93027281  0.17190998  0.37118573  1
  Se  Se14  1  0.43027281  0.17190998  0.12881427  1
  Se  Se15  1  0.06972719  0.82809002  0.62881427  1
  K  K16  1  0.28792823  0.77565107  0.06865775  1
  K  K17  1  0.21207177  0.22434893  0.56865775  1
  K  K18  1  0.71207177  0.22434893  0.93134225  1
  K  K19  1  0.78792823  0.77565107  0.43134225  1
  K  K20  1  0.01361162  0.00119754  0.16451927  1
  K  K21  1  0.48638838  0.99880246  0.66451927  1
  K  K22  1  0.98638838  0.99880246  0.83548073  1
  K  K23  1  0.51361162  0.00119754  0.33548073  1
  K  K24  1  0.81145583  0.44112778  0.21217794  1
  K  K25  1  0.68854417  0.55887222  0.71217794  1
  K  K26  1  0.18854417  0.55887222  0.78782206  1
  K  K27  1  0.31145583  0.44112778  0.28782206  1
