# generated using pymatgen
data_K2Ge2S5
_symmetry_space_group_name_H-M   'P 1'
_cell_length_a   8.94814504
_cell_length_b   11.01193082
_cell_length_c   11.01193082
_cell_angle_alpha   90.13531478
_cell_angle_beta   100.13490191
_cell_angle_gamma   100.13490420
_symmetry_Int_Tables_number   1
_chemical_formula_structural   K2Ge2S5
_chemical_formula_sum   'K8 Ge8 S20'
_cell_volume   1050.85505165
_cell_formula_units_Z   4
loop_
 _symmetry_equiv_pos_site_id
 _symmetry_equiv_pos_as_xyz
  1  'x, y, z'
loop_
 _atom_site_type_symbol
 _atom_site_label
 _atom_site_symmetry_multiplicity
 _atom_site_fract_x
 _atom_site_fract_y
 _atom_site_fract_z
 _atom_site_occupancy
  K  K0  1  0.11990352  0.46832890  0.21373050  1
  K  K1  1  0.38009648  0.78626950  0.53167110  1
  K  K2  1  0.88009648  0.53167110  0.78626950  1
  K  K3  1  0.61990352  0.21373050  0.46832890  1
  K  K4  1  0.38214424  0.78771999  0.93923295  1
  K  K5  1  0.11785576  0.06076705  0.21228001  1
  K  K6  1  0.61785576  0.21228001  0.06076705  1
  K  K7  1  0.88214424  0.93923295  0.78771999  1
  Ge  Ge8  1  0.59576175  0.52639827  0.26710845  1
  Ge  Ge9  1  0.90423825  0.73289155  0.47360173  1
  Ge  Ge10  1  0.40423825  0.47360173  0.73289155  1
  Ge  Ge11  1  0.09576175  0.26710845  0.52639827  1
  Ge  Ge12  1  0.11005997  0.26977374  0.86683127  1
  Ge  Ge13  1  0.38994003  0.13316873  0.73022626  1
  Ge  Ge14  1  0.88994003  0.73022626  0.13316873  1
  Ge  Ge15  1  0.61005997  0.86683127  0.26977374  1
  S  S16  1  0.73992940  0.54169942  0.11468137  1
  S  S17  1  0.76007060  0.88531863  0.45830058  1
  S  S18  1  0.26007060  0.45830058  0.88531863  1
  S  S19  1  0.23992940  0.11468137  0.54169942  1
  S  S20  1  0.54894109  0.32098434  0.75528014  1
  S  S21  1  0.95105891  0.24471986  0.67901566  1
  S  S22  1  0.45105891  0.67901566  0.24471986  1
  S  S23  1  0.04894109  0.75528014  0.32098434  1
  S  S24  1  0.44458795  0.35103907  0.24313831  1
  S  S25  1  0.05541205  0.75686169  0.64896093  1
  S  S26  1  0.55541205  0.64896093  0.75686169  1
  S  S27  1  0.94458795  0.24313831  0.35103907  1
  S  S28  1  0.02980738  0.75299486  0.99316608  1
  S  S29  1  0.47019262  0.00683392  0.24700514  1
  S  S30  1  0.97019262  0.24700514  0.00683392  1
  S  S31  1  0.52980738  0.99316608  0.75299486  1
  S  S32  1  0.75000000  0.88467699  0.11532301  1
  S  S33  1  0.25000000  0.11532301  0.88467699  1
  S  S34  1  0.75000000  0.54496168  0.45503832  1
  S  S35  1  0.25000000  0.45503832  0.54496168  1
