# generated using pymatgen
data_Zr2(NiP)3
_symmetry_space_group_name_H-M   'P 1'
_cell_length_a   3.62916839
_cell_length_b   10.06028813
_cell_length_c   12.36415726
_cell_angle_alpha   90.00000000
_cell_angle_beta   90.00000000
_cell_angle_gamma   90.00000000
_symmetry_Int_Tables_number   1
_chemical_formula_structural   Zr2(NiP)3
_chemical_formula_sum   'Zr8 Ni12 P12'
_cell_volume   451.42131235
_cell_formula_units_Z   4
loop_
 _symmetry_equiv_pos_site_id
 _symmetry_equiv_pos_as_xyz
  1  'x, y, z'
loop_
 _atom_site_type_symbol
 _atom_site_label
 _atom_site_symmetry_multiplicity
 _atom_site_fract_x
 _atom_site_fract_y
 _atom_site_fract_z
 _atom_site_occupancy
  Ni  Ni0  1  0.25000000  0.72637166  0.66542457  1
  Ni  Ni1  1  0.75000000  0.27362834  0.33457543  1
  Ni  Ni2  1  0.75000000  0.22637166  0.83457543  1
  Ni  Ni3  1  0.25000000  0.77362834  0.16542457  1
  Ni  Ni4  1  0.25000000  0.36485761  0.21764136  1
  Ni  Ni5  1  0.75000000  0.63514239  0.78235864  1
  Ni  Ni6  1  0.75000000  0.86485761  0.28235864  1
  Ni  Ni7  1  0.25000000  0.13514239  0.71764136  1
  Ni  Ni8  1  0.25000000  0.59606946  0.48402171  1
  Ni  Ni9  1  0.75000000  0.40393054  0.51597829  1
  Ni  Ni10  1  0.75000000  0.09606946  0.01597829  1
  Ni  Ni11  1  0.25000000  0.90393054  0.98402171  1
  Zr  Zr12  1  0.25000000  0.07459766  0.20898580  1
  Zr  Zr13  1  0.75000000  0.92540234  0.79101420  1
  Zr  Zr14  1  0.75000000  0.57459766  0.29101420  1
  Zr  Zr15  1  0.25000000  0.42540234  0.70898580  1
  Zr  Zr16  1  0.25000000  0.16280360  0.49523680  1
  Zr  Zr17  1  0.75000000  0.83719640  0.50476320  1
  Zr  Zr18  1  0.75000000  0.66280360  0.00476320  1
  Zr  Zr19  1  0.25000000  0.33719640  0.99523680  1
  P  P20  1  0.25000000  0.94625310  0.62855889  1
  P  P21  1  0.75000000  0.05374690  0.37144111  1
  P  P22  1  0.75000000  0.44625310  0.87144111  1
  P  P23  1  0.25000000  0.55374690  0.12855889  1
  P  P24  1  0.25000000  0.39753369  0.39807964  1
  P  P25  1  0.75000000  0.60246631  0.60192036  1
  P  P26  1  0.75000000  0.89753369  0.10192036  1
  P  P27  1  0.25000000  0.10246631  0.89807964  1
  P  P28  1  0.25000000  0.76293367  0.35486053  1
  P  P29  1  0.75000000  0.23706633  0.64513947  1
  P  P30  1  0.75000000  0.26293367  0.14513947  1
  P  P31  1  0.25000000  0.73706633  0.85486053  1
