# generated using pymatgen
data_Rb2Ge2Se5
_symmetry_space_group_name_H-M   'P 1'
_cell_length_a   9.62574292
_cell_length_b   11.76847913
_cell_length_c   11.76847942
_cell_angle_alpha   90.03634061
_cell_angle_beta   99.66744896
_cell_angle_gamma   99.66744713
_symmetry_Int_Tables_number   1
_chemical_formula_structural   Rb2Ge2Se5
_chemical_formula_sum   'Rb8 Ge8 Se20'
_cell_volume   1294.97228166
_cell_formula_units_Z   4
loop_
 _symmetry_equiv_pos_site_id
 _symmetry_equiv_pos_as_xyz
  1  'x, y, z'
loop_
 _atom_site_type_symbol
 _atom_site_label
 _atom_site_symmetry_multiplicity
 _atom_site_fract_x
 _atom_site_fract_y
 _atom_site_fract_z
 _atom_site_occupancy
  Rb  Rb0  1  0.11700699  0.47300620  0.21182819  1
  Rb  Rb1  1  0.38299301  0.78817181  0.52699380  1
  Rb  Rb2  1  0.88299301  0.52699380  0.78817181  1
  Rb  Rb3  1  0.61700699  0.21182819  0.47300620  1
  Rb  Rb4  1  0.38590465  0.78831156  0.94662989  1
  Rb  Rb5  1  0.11409535  0.05337011  0.21168844  1
  Rb  Rb6  1  0.61409535  0.21168844  0.05337011  1
  Rb  Rb7  1  0.88590465  0.94662989  0.78831156  1
  Ge  Ge8  1  0.59938550  0.52976205  0.26747636  1
  Ge  Ge9  1  0.90061450  0.73252364  0.47023795  1
  Ge  Ge10  1  0.40061450  0.47023795  0.73252364  1
  Ge  Ge11  1  0.09938550  0.26747636  0.52976205  1
  Ge  Ge12  1  0.11237882  0.26950839  0.86580503  1
  Ge  Ge13  1  0.38762118  0.13419497  0.73049161  1
  Ge  Ge14  1  0.88762118  0.73049161  0.13419497  1
  Ge  Ge15  1  0.61237882  0.86580503  0.26950839  1
  Se  Se16  1  0.73789279  0.54413622  0.11213952  1
  Se  Se17  1  0.76210721  0.88786048  0.45586378  1
  Se  Se18  1  0.26210721  0.45586378  0.88786048  1
  Se  Se19  1  0.23789279  0.11213952  0.54413622  1
  Se  Se20  1  0.54633784  0.31900629  0.75407979  1
  Se  Se21  1  0.95366216  0.24592021  0.68099371  1
  Se  Se22  1  0.45366216  0.68099371  0.24592021  1
  Se  Se23  1  0.04633784  0.75407979  0.31900629  1
  Se  Se24  1  0.44839020  0.35580845  0.24332372  1
  Se  Se25  1  0.05160980  0.75667628  0.64419155  1
  Se  Se26  1  0.55160980  0.64419155  0.75667628  1
  Se  Se27  1  0.94839020  0.24332372  0.35580845  1
  Se  Se28  1  0.02954469  0.75369894  0.99466830  1
  Se  Se29  1  0.47045531  0.00533170  0.24630106  1
  Se  Se30  1  0.97045531  0.24630106  0.00533170  1
  Se  Se31  1  0.52954469  0.99466830  0.75369894  1
  Se  Se32  1  0.75000000  0.88595280  0.11404720  1
  Se  Se33  1  0.25000000  0.11404720  0.88595280  1
  Se  Se34  1  0.75000000  0.54572591  0.45427409  1
  Se  Se35  1  0.25000000  0.45427409  0.54572591  1
