# generated using pymatgen
data_Rb2Ge2S5
_symmetry_space_group_name_H-M   'P 1'
_cell_length_a   9.30532536
_cell_length_b   11.20735814
_cell_length_c   11.20735800
_cell_angle_alpha   90.22607305
_cell_angle_beta   100.41214393
_cell_angle_gamma   100.41214208
_symmetry_Int_Tables_number   1
_chemical_formula_structural   Rb2Ge2S5
_chemical_formula_sum   'Rb8 Ge8 S20'
_cell_volume   1129.80861015
_cell_formula_units_Z   4
loop_
 _symmetry_equiv_pos_site_id
 _symmetry_equiv_pos_as_xyz
  1  'x, y, z'
loop_
 _atom_site_type_symbol
 _atom_site_label
 _atom_site_symmetry_multiplicity
 _atom_site_fract_x
 _atom_site_fract_y
 _atom_site_fract_z
 _atom_site_occupancy
  Rb  Rb0  1  0.12588602  0.47483787  0.21059024  1
  Rb  Rb1  1  0.37411398  0.78940976  0.52516213  1
  Rb  Rb2  1  0.87411398  0.52516213  0.78940976  1
  Rb  Rb3  1  0.62588602  0.21059024  0.47483787  1
  Rb  Rb4  1  0.37256804  0.79138186  0.94040425  1
  Rb  Rb5  1  0.12743196  0.05959575  0.20861814  1
  Rb  Rb6  1  0.62743196  0.20861814  0.05959575  1
  Rb  Rb7  1  0.87256804  0.94040425  0.79138186  1
  Ge  Ge8  1  0.60092770  0.52715308  0.26716373  1
  Ge  Ge9  1  0.89907230  0.73283627  0.47284692  1
  Ge  Ge10  1  0.39907230  0.47284692  0.73283627  1
  Ge  Ge11  1  0.10092770  0.26716373  0.52715308  1
  Ge  Ge12  1  0.11495458  0.27016111  0.86218361  1
  Ge  Ge13  1  0.38504542  0.13781639  0.72983889  1
  Ge  Ge14  1  0.88504542  0.72983889  0.13781639  1
  Ge  Ge15  1  0.61495458  0.86218361  0.27016111  1
  S  S16  1  0.73984576  0.54406229  0.11751611  1
  S  S17  1  0.76015424  0.88248389  0.45593771  1
  S  S18  1  0.26015424  0.45593771  0.88248389  1
  S  S19  1  0.23984576  0.11751611  0.54406229  1
  S  S20  1  0.53763617  0.32295933  0.75515158  1
  S  S21  1  0.96236383  0.24484842  0.67704067  1
  S  S22  1  0.46236383  0.67704067  0.24484842  1
  S  S23  1  0.03763617  0.75515158  0.32295933  1
  S  S24  1  0.45486383  0.35463623  0.24361803  1
  S  S25  1  0.04513617  0.75638197  0.64536377  1
  S  S26  1  0.54513617  0.64536377  0.75638197  1
  S  S27  1  0.95486383  0.24361803  0.35463623  1
  S  S28  1  0.02425510  0.75285607  0.00380111  1
  S  S29  1  0.47574490  0.99619889  0.24714393  1
  S  S30  1  0.97574490  0.24714393  0.99619889  1
  S  S31  1  0.52425510  0.00380111  0.75285607  1
  S  S32  1  0.75000000  0.88106611  0.11893389  1
  S  S33  1  0.25000000  0.11893389  0.88106611  1
  S  S34  1  0.75000000  0.54732410  0.45267590  1
  S  S35  1  0.25000000  0.45267590  0.54732410  1
