# generated using pymatgen
data_Ce3Mg
_symmetry_space_group_name_H-M   'P 1'
_cell_length_a   3.25618944
_cell_length_b   11.02494735
_cell_length_c   6.03450585
_cell_angle_alpha   90.00000000
_cell_angle_beta   90.00000000
_cell_angle_gamma   90.00000000
_symmetry_Int_Tables_number   1
_chemical_formula_structural   Ce3Mg
_chemical_formula_sum   'Ce6 Mg2'
_cell_volume   216.63463928
_cell_formula_units_Z   2
loop_
 _symmetry_equiv_pos_site_id
 _symmetry_equiv_pos_as_xyz
  1  'x, y, z'
loop_
 _atom_site_type_symbol
 _atom_site_label
 _atom_site_symmetry_multiplicity
 _atom_site_fract_x
 _atom_site_fract_y
 _atom_site_fract_z
 _atom_site_occupancy
  Ce  Ce0  1  0.50000000  -0.00000000  0.15274458  1
  Ce  Ce1  1  0.00000000  0.24994273  0.00550230  1
  Ce  Ce2  1  0.50000000  0.25005727  0.50550230  1
  Ce  Ce3  1  0.00000000  0.50000000  0.65274458  1
  Ce  Ce4  1  0.50000000  0.74994273  0.50550230  1
  Ce  Ce5  1  0.00000000  0.75005727  0.00550230  1
  Mg  Mg6  1  -0.00000000  -0.00000000  0.66958482  1
  Mg  Mg7  1  0.50000000  0.50000000  0.16958482  1
