# generated using pymatgen
data_KAgCO3
_symmetry_space_group_name_H-M   'P 1'
_cell_length_a   5.85609207
_cell_length_b   6.06955589
_cell_length_c   11.19422641
_cell_angle_alpha   105.73239053
_cell_angle_beta   105.14520985
_cell_angle_gamma   89.98469914
_symmetry_Int_Tables_number   1
_chemical_formula_structural   KAgCO3
_chemical_formula_sum   'K4 Ag4 C4 O12'
_cell_volume   368.61067131
_cell_formula_units_Z   4
loop_
 _symmetry_equiv_pos_site_id
 _symmetry_equiv_pos_as_xyz
  1  'x, y, z'
loop_
 _atom_site_type_symbol
 _atom_site_label
 _atom_site_symmetry_multiplicity
 _atom_site_fract_x
 _atom_site_fract_y
 _atom_site_fract_z
 _atom_site_occupancy
  Ag  Ag0  1  0.24994474  0.86533143  -0.00002446  1
  Ag  Ag1  1  0.75003349  0.63462500  1.00000752  1
  Ag  Ag2  1  0.75005526  0.13466857  1.00002446  1
  Ag  Ag3  1  0.24996651  0.36537500  -0.00000752  1
  K  K4  1  0.18019899  0.93023607  0.36015554  1
  K  K5  1  0.31978561  0.56976174  0.63982956  1
  K  K6  1  0.81980101  0.06976393  0.63984446  1
  K  K7  1  0.68021439  0.43023826  0.36017044  1
  C  C8  1  0.87263717  0.62266128  0.74547184  1
  C  C9  1  0.62734933  0.87732097  0.25448023  1
  C  C10  1  0.12736283  0.37733872  0.25452816  1
  C  C11  1  0.37265067  0.12267903  0.74551977  1
  O  O12  1  0.81076185  0.56069029  0.62147919  1
  O  O13  1  0.68926783  0.93937502  0.37850428  1
  O  O14  1  0.18923815  0.43930971  0.37852081  1
  O  O15  1  0.31073217  0.06062498  0.62149572  1
  O  O16  1  0.04199032  0.78655415  0.80554923  1
  O  O17  1  0.73668926  0.71339470  0.19446019  1
  O  O18  1  0.45791940  0.98111958  0.19439707  1
  O  O19  1  0.76329667  0.51892185  0.80554005  1
  O  O20  1  0.95800968  0.21344585  0.19445077  1
  O  O21  1  0.26331074  0.28660530  0.80553981  1
  O  O22  1  0.54208060  0.01888042  0.80560293  1
  O  O23  1  0.23670333  0.48107815  0.19445995  1
