# generated using pymatgen
data_H13S2N3O8
_symmetry_space_group_name_H-M   'P 1'
_cell_length_a   5.89898147
_cell_length_b   10.32146565
_cell_length_c   16.08083894
_cell_angle_alpha   101.23768561
_cell_angle_beta   90.00000000
_cell_angle_gamma   90.00000000
_symmetry_Int_Tables_number   1
_chemical_formula_structural   H13S2N3O8
_chemical_formula_sum   'H52 S8 N12 O32'
_cell_volume   960.32802106
_cell_formula_units_Z   4
loop_
 _symmetry_equiv_pos_site_id
 _symmetry_equiv_pos_as_xyz
  1  'x, y, z'
loop_
 _atom_site_type_symbol
 _atom_site_label
 _atom_site_symmetry_multiplicity
 _atom_site_fract_x
 _atom_site_fract_y
 _atom_site_fract_z
 _atom_site_occupancy
  S  S0  1  0.53081306  0.03908171  0.63276608  1
  S  S1  1  0.53081306  0.46091829  0.86723392  1
  S  S2  1  0.46918694  0.96091829  0.36723392  1
  S  S3  1  0.46918694  0.53908171  0.13276608  1
  O  O4  1  0.56752130  0.06811495  0.73152191  1
  O  O5  1  0.56752130  0.43188505  0.76847809  1
  O  O6  1  0.43247870  0.93188505  0.26847809  1
  O  O7  1  0.43247870  0.56811495  0.23152191  1
  O  O8  1  0.74294152  0.07204674  0.59341951  1
  O  O9  1  0.74294152  0.42795326  0.90658049  1
  O  O10  1  0.25705848  0.92795326  0.40658049  1
  O  O11  1  0.25705848  0.57204674  0.09341951  1
  O  O12  1  0.34011757  0.12567132  0.61986430  1
  O  O13  1  0.34011757  0.37432868  0.88013570  1
  O  O14  1  0.65988243  0.87432868  0.38013570  1
  O  O15  1  0.65988243  0.62567132  0.11986430  1
  O  O16  1  0.47447516  0.89743743  0.60722559  1
  O  O17  1  0.47447516  0.60256257  0.89277441  1
  O  O18  1  0.52552484  0.10256257  0.39277441  1
  O  O19  1  0.52552484  0.39743743  0.10722559  1
  S  S20  1  0.04167486  0.03844157  0.14284597  1
  S  S21  1  0.04167486  0.46155843  0.35715403  1
  S  S22  1  0.95832514  0.96155843  0.85715403  1
  S  S23  1  0.95832514  0.53844157  0.64284597  1
  O  O24  1  0.09294143  0.05911948  0.23656807  1
  O  O25  1  0.09294143  0.44088052  0.26343193  1
  O  O26  1  0.90705857  0.94088052  0.76343193  1
  O  O27  1  0.90705857  0.55911948  0.73656807  1
  O  O28  1  0.08737031  0.89692034  0.10462349  1
  O  O29  1  0.08737031  0.60307966  0.39537651  1
  O  O30  1  0.91262969  0.10307966  0.89537651  1
  O  O31  1  0.91262969  0.39692034  0.60462349  1
  O  O32  1  0.19075536  0.12702573  0.10403459  1
  O  O33  1  0.19075536  0.37297427  0.39596541  1
  O  O34  1  0.80924464  0.87297427  0.89596541  1
  O  O35  1  0.80924464  0.62702573  0.60403459  1
  O  O36  1  0.79855581  0.07065855  0.13183890  1
  O  O37  1  0.79855581  0.42934145  0.36816110  1
  O  O38  1  0.20144419  0.92934145  0.86816110  1
  O  O39  1  0.20144419  0.57065855  0.63183890  1
  N  N40  1  0.53988894  0.85519837  0.05099525  1
  N  N41  1  0.53988894  0.64480163  0.44900475  1
  N  N42  1  0.46011106  0.14480163  0.94900475  1
  N  N43  1  0.46011106  0.35519837  0.55099525  1
  N  N44  1  0.02406444  0.84038324  0.55106280  1
  N  N45  1  0.02406444  0.65961676  0.94893720  1
  N  N46  1  0.97593556  0.15961676  0.44893720  1
  N  N47  1  0.97593556  0.34038324  0.05106280  1
  N  N48  1  0.54440495  0.25000000  0.25000000  1
  N  N49  1  0.45559505  0.75000000  0.75000000  1
  N  N50  1  0.04006392  0.25000000  0.75000000  1
  N  N51  1  0.95993608  0.75000000  0.25000000  1
  H  H52  1  0.71055620  0.01285260  0.74621184  1
  H  H53  1  0.71055620  0.48714740  0.75378816  1
  H  H54  1  0.28944380  0.98714740  0.25378816  1
  H  H55  1  0.28944380  0.51285260  0.24621184  1
  H  H56  1  0.57580750  0.84550715  0.98741776  1
  H  H57  1  0.57580750  0.65449285  0.51258224  1
  H  H58  1  0.42419250  0.15449285  0.01258224  1
  H  H59  1  0.42419250  0.34550715  0.48741776  1
  H  H60  1  0.63681044  0.93420901  0.08398258  1
  H  H61  1  0.63681044  0.56579099  0.41601742  1
  H  H62  1  0.36318956  0.06579099  0.91601742  1
  H  H63  1  0.36318956  0.43420901  0.58398258  1
  H  H64  1  0.36738719  0.87370184  0.06397096  1
  H  H65  1  0.36738719  0.62629816  0.43602904  1
  H  H66  1  0.63261281  0.12629816  0.93602904  1
  H  H67  1  0.63261281  0.37370184  0.56397096  1
  H  H68  1  0.58355755  0.76901508  0.07163291  1
  H  H69  1  0.58355755  0.73098492  0.42836709  1
  H  H70  1  0.41644245  0.23098492  0.92836709  1
  H  H71  1  0.41644245  0.26901508  0.57163291  1
  H  H72  1  0.92216535  0.92418677  0.56588988  1
  H  H73  1  0.92216535  0.57581323  0.93411012  1
  H  H74  1  0.07783465  0.07581323  0.43411012  1
  H  H75  1  0.07783465  0.42418677  0.06588988  1
  H  H76  1  0.03877613  0.81259007  0.48641820  1
  H  H77  1  0.03877613  0.68740993  0.01358180  1
  H  H78  1  0.96122387  0.18740993  0.51358180  1
  H  H79  1  0.96122387  0.31259007  0.98641820  1
  H  H80  1  0.18631379  0.86266634  0.57573517  1
  H  H81  1  0.18631379  0.63733366  0.92426483  1
  H  H82  1  0.81368621  0.13733366  0.42426483  1
  H  H83  1  0.81368621  0.36266634  0.07573517  1
  H  H84  1  0.95256243  0.76266346  0.57554605  1
  H  H85  1  0.95256243  0.73733654  0.92445395  1
  H  H86  1  0.04743757  0.23733654  0.42445395  1
  H  H87  1  0.04743757  0.26266346  0.07554605  1
  H  H88  1  0.44460763  0.20960358  0.29067166  1
  H  H89  1  0.44460763  0.29039642  0.20932834  1
  H  H90  1  0.55539237  0.79039642  0.70932834  1
  H  H91  1  0.55539237  0.70960358  0.79067166  1
  H  H92  1  0.64571996  0.32260023  0.28680061  1
  H  H93  1  0.64571996  0.17739977  0.21319939  1
  H  H94  1  0.35428004  0.67739977  0.71319939  1
  H  H95  1  0.35428004  0.82260023  0.78680061  1
  H  H96  1  0.14281085  0.18559248  0.70832250  1
  H  H97  1  0.14281085  0.31440752  0.79167750  1
  H  H98  1  0.85718915  0.81440752  0.29167750  1
  H  H99  1  0.85718915  0.68559248  0.20832250  1
  H  H100  1  0.94147035  0.19928674  0.78587397  1
  H  H101  1  0.94147035  0.30071326  0.71412603  1
  H  H102  1  0.05852965  0.80071326  0.21412603  1
  H  H103  1  0.05852965  0.69928674  0.28587397  1
