# generated using pymatgen
data_Rb2Ag(AsSe2)3
_symmetry_space_group_name_H-M   'P 1'
_cell_length_a   8.03455123
_cell_length_b   13.08547029
_cell_length_c   14.83747808
_cell_angle_alpha   96.69544254
_cell_angle_beta   90.00000000
_cell_angle_gamma   90.00000000
_symmetry_Int_Tables_number   1
_chemical_formula_structural   Rb2Ag(AsSe2)3
_chemical_formula_sum   'Rb8 Ag4 As12 Se24'
_cell_volume   1549.31235350
_cell_formula_units_Z   4
loop_
 _symmetry_equiv_pos_site_id
 _symmetry_equiv_pos_as_xyz
  1  'x, y, z'
loop_
 _atom_site_type_symbol
 _atom_site_label
 _atom_site_symmetry_multiplicity
 _atom_site_fract_x
 _atom_site_fract_y
 _atom_site_fract_z
 _atom_site_occupancy
  Rb  Rb0  1  0.10091976  0.65137147  0.23674240  1
  Rb  Rb1  1  0.60091976  0.84862853  0.26325760  1
  Rb  Rb2  1  0.89908024  0.34862853  0.76325760  1
  Rb  Rb3  1  0.39908024  0.15137147  0.73674240  1
  Rb  Rb4  1  0.62814176  0.82977289  0.61065657  1
  Rb  Rb5  1  0.12814176  0.67022711  0.88934343  1
  Rb  Rb6  1  0.37185824  0.17022711  0.38934343  1
  Rb  Rb7  1  0.87185824  0.32977289  0.11065657  1
  Ag  Ag8  1  0.00678750  0.89934166  0.42696737  1
  Ag  Ag9  1  0.50678750  0.60065834  0.07303263  1
  Ag  Ag10  1  0.99321250  0.10065834  0.57303263  1
  Ag  Ag11  1  0.49321250  0.39934166  0.92696737  1
  As  As12  1  0.91018493  0.12630918  0.34807819  1
  As  As13  1  0.41018493  0.37369082  0.15192181  1
  As  As14  1  0.08981507  0.87369082  0.65192181  1
  As  As15  1  0.58981507  0.62630918  0.84807819  1
  As  As16  1  0.04158054  0.97112164  0.13721773  1
  As  As17  1  0.54158054  0.52887836  0.36278227  1
  As  As18  1  0.95841946  0.02887836  0.86278227  1
  As  As19  1  0.45841946  0.47112164  0.63721773  1
  As  As20  1  0.66751458  0.87845248  0.99383449  1
  As  As21  1  0.16751458  0.62154752  0.50616551  1
  As  As22  1  0.33248542  0.12154752  0.00616551  1
  As  As23  1  0.83248542  0.37845248  0.49383449  1
  Se  Se24  1  0.76135128  0.29016651  0.34221229  1
  Se  Se25  1  0.26135128  0.20983349  0.15778771  1
  Se  Se26  1  0.23864872  0.70983349  0.65778771  1
  Se  Se27  1  0.73864872  0.79016651  0.84221229  1
  Se  Se28  1  0.25752516  0.96575674  0.55373912  1
  Se  Se29  1  0.75752516  0.53424326  0.94626088  1
  Se  Se30  1  0.74247484  0.03424326  0.44626088  1
  Se  Se31  1  0.24247484  0.46575674  0.05373912  1
  Se  Se32  1  0.79524800  0.07615861  0.19547062  1
  Se  Se33  1  0.29524800  0.42384139  0.30452938  1
  Se  Se34  1  0.20475200  0.92384139  0.80452938  1
  Se  Se35  1  0.70475200  0.57615861  0.69547062  1
  Se  Se36  1  0.16990213  0.92610250  0.27092681  1
  Se  Se37  1  0.66990213  0.57389750  0.22907319  1
  Se  Se38  1  0.83009787  0.07389750  0.72907319  1
  Se  Se39  1  0.33009787  0.42610250  0.77092681  1
  Se  Se40  1  0.89397828  0.80846267  0.08437051  1
  Se  Se41  1  0.39397828  0.69153733  0.41562949  1
  Se  Se42  1  0.10602172  0.19153733  0.91562949  1
  Se  Se43  1  0.60602172  0.30846267  0.58437051  1
  Se  Se44  1  0.93093223  0.70893496  0.45991814  1
  Se  Se45  1  0.43093223  0.79106504  0.04008186  1
  Se  Se46  1  0.06906777  0.29106504  0.54008186  1
  Se  Se47  1  0.56906777  0.20893496  0.95991814  1
