# generated using pymatgen
data_CeF4
_symmetry_space_group_name_H-M   'P 1'
_cell_length_a   8.38321489
_cell_length_b   8.37092060
_cell_length_c   8.37092014
_cell_angle_alpha   80.15613692
_cell_angle_beta   63.19037888
_cell_angle_gamma   63.19037737
_symmetry_Int_Tables_number   1
_chemical_formula_structural   CeF4
_chemical_formula_sum   'Ce6 F24'
_cell_volume   467.54387074
_cell_formula_units_Z   6
loop_
 _symmetry_equiv_pos_site_id
 _symmetry_equiv_pos_as_xyz
  1  'x, y, z'
loop_
 _atom_site_type_symbol
 _atom_site_label
 _atom_site_symmetry_multiplicity
 _atom_site_fract_x
 _atom_site_fract_y
 _atom_site_fract_z
 _atom_site_occupancy
  Ce  Ce0  1  0.67068371  0.63146588  0.77605454  1
  Ce  Ce1  1  0.82931629  0.22394546  0.36853412  1
  Ce  Ce2  1  0.32931629  0.36853412  0.22394546  1
  Ce  Ce3  1  0.17068371  0.77605454  0.63146588  1
  Ce  Ce4  1  0.75000000  0.78791887  0.21208113  1
  Ce  Ce5  1  0.25000000  0.21208113  0.78791887  1
  F  F6  1  0.75000000  0.39627080  0.60372920  1
  F  F7  1  0.25000000  0.60372920  0.39627080  1
  F  F8  1  0.78226985  0.50300163  0.26126997  1
  F  F9  1  0.71773015  0.73873003  0.49699837  1
  F  F10  1  0.21773015  0.49699837  0.73873003  1
  F  F11  1  0.28226985  0.26126997  0.50300163  1
  F  F12  1  0.65242090  0.72348723  0.02906207  1
  F  F13  1  0.84757910  0.97093793  0.27651277  1
  F  F14  1  0.34757910  0.27651277  0.97093793  1
  F  F15  1  0.15242090  0.02906207  0.72348723  1
  F  F16  1  0.50000000  0.50000000  0.00000000  1
  F  F17  1  0.00000000  0.00000000  0.50000000  1
  F  F18  1  0.95535659  0.82663125  0.93447035  1
  F  F19  1  0.54464341  0.06552965  0.17336875  1
  F  F20  1  0.04464341  0.17336875  0.06552965  1
  F  F21  1  0.45535659  0.93447035  0.82663125  1
  F  F22  1  0.92700935  0.40420681  0.81467465  1
  F  F23  1  0.57299065  0.18532535  0.59579319  1
  F  F24  1  0.07299065  0.59579319  0.18532535  1
  F  F25  1  0.42700935  0.81467465  0.40420681  1
  F  F26  1  0.89523832  0.74016895  0.68219434  1
  F  F27  1  0.60476168  0.31780566  0.25983105  1
  F  F28  1  0.10476168  0.25983105  0.31780566  1
  F  F29  1  0.39523832  0.68219434  0.74016895  1
