# generated using pymatgen
data_K3(FeSe2)2
_symmetry_space_group_name_H-M   'P 1'
_cell_length_a   7.58327222
_cell_length_b   11.20049968
_cell_length_c   12.28398356
_cell_angle_alpha   90.00000000
_cell_angle_beta   90.00000000
_cell_angle_gamma   90.00000000
_symmetry_Int_Tables_number   1
_chemical_formula_structural   K3(FeSe2)2
_chemical_formula_sum   'K12 Fe8 Se16'
_cell_volume   1043.35780894
_cell_formula_units_Z   4
loop_
 _symmetry_equiv_pos_site_id
 _symmetry_equiv_pos_as_xyz
  1  'x, y, z'
loop_
 _atom_site_type_symbol
 _atom_site_label
 _atom_site_symmetry_multiplicity
 _atom_site_fract_x
 _atom_site_fract_y
 _atom_site_fract_z
 _atom_site_occupancy
  K  K0  1  0.08347314  0.25000000  0.76273028  1
  K  K1  1  0.58347314  0.25000000  0.73726972  1
  K  K2  1  0.91652686  0.75000000  0.23726972  1
  K  K3  1  0.41652686  0.75000000  0.26273028  1
  K  K4  1  0.07042067  0.42755330  0.13708329  1
  K  K5  1  0.57042067  0.07244670  0.36291671  1
  K  K6  1  0.92957933  0.92755330  0.86291671  1
  K  K7  1  0.42957933  0.57244670  0.63708329  1
  K  K8  1  0.92957933  0.57244670  0.86291671  1
  K  K9  1  0.42957933  0.92755330  0.63708329  1
  K  K10  1  0.07042067  0.07244670  0.13708329  1
  K  K11  1  0.57042067  0.42755330  0.36291671  1
  Fe  Fe12  1  0.05067424  0.36734064  0.47051875  1
  Fe  Fe13  1  0.55067424  0.13265936  0.02948125  1
  Fe  Fe14  1  0.94932576  0.86734064  0.52948125  1
  Fe  Fe15  1  0.44932576  0.63265936  0.97051875  1
  Fe  Fe16  1  0.94932576  0.63265936  0.52948125  1
  Fe  Fe17  1  0.44932576  0.86734064  0.97051875  1
  Fe  Fe18  1  0.05067424  0.13265936  0.47051875  1
  Fe  Fe19  1  0.55067424  0.36734064  0.02948125  1
  Se  Se20  1  0.15400882  0.55477788  0.39152581  1
  Se  Se21  1  0.65400882  0.94522212  0.10847419  1
  Se  Se22  1  0.84599118  0.05477788  0.60847419  1
  Se  Se23  1  0.34599118  0.44522212  0.89152581  1
  Se  Se24  1  0.84599118  0.44522212  0.60847419  1
  Se  Se25  1  0.34599118  0.05477788  0.89152581  1
  Se  Se26  1  0.15400882  0.94522212  0.39152581  1
  Se  Se27  1  0.65400882  0.55477788  0.10847419  1
  Se  Se28  1  0.30105313  0.25000000  0.53407434  1
  Se  Se29  1  0.80105313  0.25000000  0.96592566  1
  Se  Se30  1  0.69894687  0.75000000  0.46592566  1
  Se  Se31  1  0.19894687  0.75000000  0.03407434  1
  Se  Se32  1  0.40835319  0.25000000  0.16716473  1
  Se  Se33  1  0.90835319  0.25000000  0.33283527  1
  Se  Se34  1  0.59164681  0.75000000  0.83283527  1
  Se  Se35  1  0.09164681  0.75000000  0.66716473  1
