# generated using pymatgen
data_Tm2Ni12P7
_symmetry_space_group_name_H-M   'P 1'
_cell_length_a   9.01611487
_cell_length_b   9.01611461
_cell_length_c   3.66147326
_cell_angle_alpha   90.00000000
_cell_angle_beta   90.00000000
_cell_angle_gamma   120.00000093
_symmetry_Int_Tables_number   1
_chemical_formula_structural   Tm2Ni12P7
_chemical_formula_sum   'Tm2 Ni12 P7'
_cell_volume   257.76583514
_cell_formula_units_Z   1
loop_
 _symmetry_equiv_pos_site_id
 _symmetry_equiv_pos_as_xyz
  1  'x, y, z'
loop_
 _atom_site_type_symbol
 _atom_site_label
 _atom_site_symmetry_multiplicity
 _atom_site_fract_x
 _atom_site_fract_y
 _atom_site_fract_z
 _atom_site_occupancy
  Tm  Tm0  1  0.66666700  0.33333300  0.50000000  1
  Tm  Tm1  1  0.33333300  0.66666700  0.00000000  1
  Ni  Ni2  1  0.43510096  0.06095640  0.00000000  1
  Ni  Ni3  1  0.62585544  0.56489904  0.00000000  1
  Ni  Ni4  1  0.93904360  0.37414456  0.00000000  1
  Ni  Ni5  1  0.15310424  0.27522698  0.00000000  1
  Ni  Ni6  1  0.12212275  0.84689576  0.00000000  1
  Ni  Ni7  1  0.72477302  0.87787725  0.00000000  1
  Ni  Ni8  1  0.38233272  0.43181998  0.50000000  1
  Ni  Ni9  1  0.04948726  0.61766728  0.50000000  1
  Ni  Ni10  1  0.56818002  0.95051274  0.50000000  1
  Ni  Ni11  1  0.21768360  0.09459555  0.50000000  1
  Ni  Ni12  1  0.87691194  0.78231640  0.50000000  1
  Ni  Ni13  1  0.90540445  0.12308806  0.50000000  1
  P  P14  1  0.00000000  0.00000000  0.00000000  1
  P  P15  1  0.40818990  0.29318886  0.00000000  1
  P  P16  1  0.88499895  0.59181010  0.00000000  1
  P  P17  1  0.70681114  0.11500105  0.00000000  1
  P  P18  1  0.11268735  0.40675278  0.50000000  1
  P  P19  1  0.29406543  0.88731265  0.50000000  1
  P  P20  1  0.59324722  0.70593457  0.50000000  1
