# generated using pymatgen
data_Rb2Th(PSe3)3
_symmetry_space_group_name_H-M   'P 1'
_cell_length_a   10.43172776
_cell_length_b   10.80580694
_cell_length_c   17.05285085
_cell_angle_alpha   89.91528765
_cell_angle_beta   107.43471542
_cell_angle_gamma   91.74366134
_symmetry_Int_Tables_number   1
_chemical_formula_structural   Rb2Th(PSe3)3
_chemical_formula_sum   'Rb8 Th4 P12 Se36'
_cell_volume   1833.03427770
_cell_formula_units_Z   4
loop_
 _symmetry_equiv_pos_site_id
 _symmetry_equiv_pos_as_xyz
  1  'x, y, z'
loop_
 _atom_site_type_symbol
 _atom_site_label
 _atom_site_symmetry_multiplicity
 _atom_site_fract_x
 _atom_site_fract_y
 _atom_site_fract_z
 _atom_site_occupancy
  Th  Th0  1  0.56712218  0.42368941  0.92073409  1
  Th  Th1  1  0.17270275  0.87361710  0.35948768  1
  Th  Th2  1  0.14488873  0.36633846  0.97068337  1
  Th  Th3  1  0.59509833  0.93087942  0.30960243  1
  Rb  Rb4  1  0.39384699  0.90119927  0.67385697  1
  Rb  Rb5  1  0.66488609  0.47763691  0.29101557  1
  Rb  Rb6  1  0.07504427  0.81991669  0.98913760  1
  Rb  Rb7  1  0.82457511  0.39075937  0.59816712  1
  Rb  Rb8  1  0.91239783  0.90912827  0.68076946  1
  Rb  Rb9  1  0.11819266  0.33486126  0.27220730  1
  Rb  Rb10  1  0.63470329  0.97175903  0.01401440  1
  Rb  Rb11  1  0.34436428  0.39574863  0.60709415  1
  Se  Se12  1  0.66597648  0.76524201  0.17943325  1
  Se  Se13  1  0.07345528  0.87023754  0.50890759  1
  Se  Se14  1  0.09884325  0.13410087  0.07460899  1
  Se  Se15  1  0.36404869  0.71444659  0.28930646  1
  Se  Se16  1  0.01826961  0.20250164  0.82396912  1
  Se  Se17  1  0.00142084  0.88095173  0.17348005  1
  Se  Se18  1  0.99395498  0.64105720  0.31350761  1
  Se  Se19  1  0.26291683  0.37661829  0.81626699  1
  Se  Se20  1  0.49940408  0.17162553  0.83239016  1
  Se  Se21  1  0.38595643  0.89729369  0.12923668  1
  Se  Se22  1  0.40150232  0.21630970  0.99253729  1
  Se  Se23  1  0.35457757  0.40068338  0.15081519  1
  Se  Se24  1  0.73798079  0.41619864  0.10662637  1
  Se  Se25  1  0.47676534  0.92107357  0.46358997  1
  Se  Se26  1  0.66645084  0.42675364  0.77109551  1
  Se  Se27  1  0.33840963  0.08095805  0.28777808  1
  Se  Se28  1  0.46559488  0.42178161  0.41735075  1
  Se  Se29  1  0.84309242  0.26830729  0.96847485  1
  Se  Se30  1  0.48748776  0.64478093  0.81113407  1
  Se  Se31  1  0.61635012  0.14325888  0.64495849  1
  Se  Se32  1  0.72226290  0.09376759  0.45661632  1
  Se  Se33  1  0.12327669  0.15360897  0.63516892  1
  Se  Se34  1  0.00099572  0.56319559  0.85544810  1
  Se  Se35  1  0.79128385  0.95102717  0.86102550  1
  Se  Se36  1  0.89678256  0.02899694  0.31171499  1
  Se  Se37  1  0.07361387  0.53235428  0.10086408  1
  Se  Se38  1  0.74510310  0.65697270  0.96729071  1
  Se  Se39  1  0.37587219  0.58199357  0.99124970  1
  Se  Se40  1  0.94813904  0.34603089  0.41948962  1
  Se  Se41  1  0.73903357  0.73394173  0.42508739  1
  Se  Se42  1  0.25245527  0.65207608  0.46932259  1
  Se  Se43  1  0.63943624  0.68112096  0.61470085  1
  Se  Se44  1  0.24079603  0.12538768  0.44794763  1
  Se  Se45  1  0.27690741  0.87606956  0.86454032  1
  Se  Se46  1  0.64116412  0.16357242  0.20600653  1
  Se  Se47  1  0.09974999  0.61810547  0.66606443  1
  P  P48  1  0.64774972  0.22209159  0.76549578  1
  P  P49  1  0.29999856  0.07355992  0.15007504  1
  P  P50  1  0.43998328  0.22401297  0.13025470  1
  P  P51  1  0.86021790  0.57717832  0.08651758  1
  P  P52  1  0.58180331  0.73681359  0.48803396  1
  P  P53  1  0.87927585  0.71997045  0.19384618  1
  P  P54  1  0.83442971  0.14809447  0.85737421  1
  P  P55  1  0.90564533  0.14884418  0.42290639  1
  P  P56  1  0.09227769  0.07486270  0.51468092  1
  P  P57  1  0.32826021  0.68460347  0.86887550  1
  P  P58  1  0.15831194  0.56128076  0.79253316  1
  P  P59  1  0.41229331  0.61299137  0.41207131  1
