# generated using pymatgen
data_Rb3Ta2S11
_symmetry_space_group_name_H-M   'P 1'
_cell_length_a   8.14989396
_cell_length_b   12.01370220
_cell_length_c   19.67654776
_cell_angle_alpha   103.25425324
_cell_angle_beta   90.00000000
_cell_angle_gamma   90.00000000
_symmetry_Int_Tables_number   1
_chemical_formula_structural   Rb3Ta2S11
_chemical_formula_sum   'Rb12 Ta8 S44'
_cell_volume   1875.21997172
_cell_formula_units_Z   4
loop_
 _symmetry_equiv_pos_site_id
 _symmetry_equiv_pos_as_xyz
  1  'x, y, z'
loop_
 _atom_site_type_symbol
 _atom_site_label
 _atom_site_symmetry_multiplicity
 _atom_site_fract_x
 _atom_site_fract_y
 _atom_site_fract_z
 _atom_site_occupancy
  Ta  Ta0  1  0.35909959  0.21102375  0.66280068  1
  Ta  Ta1  1  0.85909959  0.78897625  0.83719932  1
  Ta  Ta2  1  0.64090041  0.78897625  0.33719932  1
  Ta  Ta3  1  0.14090041  0.21102375  0.16280068  1
  Ta  Ta4  1  0.22699780  0.30367399  0.50796389  1
  Ta  Ta5  1  0.72699780  0.69632601  0.99203611  1
  Ta  Ta6  1  0.77300220  0.69632601  0.49203611  1
  Ta  Ta7  1  0.27300220  0.30367399  0.00796389  1
  S  S8  1  0.57041090  0.26741194  0.73538484  1
  S  S9  1  0.07041090  0.73258806  0.76461516  1
  S  S10  1  0.42958910  0.73258806  0.26461516  1
  S  S11  1  0.92958910  0.26741194  0.23538484  1
  S  S12  1  0.27882950  0.02487092  0.68555024  1
  S  S13  1  0.77882950  0.97512908  0.81444976  1
  S  S14  1  0.72117050  0.97512908  0.31444976  1
  S  S15  1  0.22117050  0.02487092  0.18555024  1
  S  S16  1  0.42830795  0.01615252  0.59797899  1
  S  S17  1  0.92830795  0.98384748  0.90202101  1
  S  S18  1  0.57169205  0.98384748  0.40202101  1
  S  S19  1  0.07169205  0.01615252  0.09797899  1
  S  S20  1  0.10900004  0.29627028  0.72107240  1
  S  S21  1  0.60900004  0.70372972  0.77892760  1
  S  S22  1  0.89099996  0.70372972  0.27892760  1
  S  S23  1  0.39099996  0.29627028  0.22107240  1
  S  S24  1  0.22658214  0.39358794  0.65930505  1
  S  S25  1  0.72658214  0.60641206  0.84069495  1
  S  S26  1  0.77341786  0.60641206  0.34069495  1
  S  S27  1  0.27341786  0.39358794  0.15930505  1
  S  S28  1  0.49512924  0.24563067  0.55226531  1
  S  S29  1  0.99512924  0.75436933  0.94773469  1
  S  S30  1  0.50487076  0.75436933  0.44773469  1
  S  S31  1  0.00487076  0.24563067  0.05226531  1
  S  S32  1  0.47947529  0.41757760  0.54768062  1
  S  S33  1  0.97947529  0.58242240  0.95231938  1
  S  S34  1  0.52052471  0.58242240  0.45231938  1
  S  S35  1  0.02052471  0.41757760  0.04768062  1
  S  S36  1  0.13035411  0.13176038  0.54297899  1
  S  S37  1  0.63035411  0.86823962  0.95702101  1
  S  S38  1  0.86964589  0.86823962  0.45702101  1
  S  S39  1  0.36964589  0.13176038  0.04297899  1
  S  S40  1  0.94687324  0.24953621  0.53170094  1
  S  S41  1  0.44687324  0.75046379  0.96829906  1
  S  S42  1  0.05312676  0.75046379  0.46829906  1
  S  S43  1  0.55312676  0.24953621  0.03170094  1
  S  S44  1  0.26354544  0.24222776  0.39270466  1
  S  S45  1  0.76354544  0.75777224  0.10729534  1
  S  S46  1  0.73645456  0.75777224  0.60729534  1
  S  S47  1  0.23645456  0.24222776  0.89270466  1
  S  S48  1  0.12471051  0.50160665  0.51350042  1
  S  S49  1  0.62471051  0.49839335  0.98649958  1
  S  S50  1  0.87528949  0.49839335  0.48649958  1
  S  S51  1  0.37528949  0.50160665  0.01350042  1
  Rb  Rb52  1  0.82701051  0.50183148  0.65976551  1
  Rb  Rb53  1  0.32701051  0.49816852  0.84023449  1
  Rb  Rb54  1  0.17298949  0.49816852  0.34023449  1
  Rb  Rb55  1  0.67298949  0.50183148  0.15976551  1
  Rb  Rb56  1  0.81186044  0.26859342  0.88495480  1
  Rb  Rb57  1  0.31186044  0.73140658  0.61504520  1
  Rb  Rb58  1  0.18813956  0.73140658  0.11504520  1
  Rb  Rb59  1  0.68813956  0.26859342  0.38495480  1
  Rb  Rb60  1  0.84385606  0.03970942  0.64324954  1
  Rb  Rb61  1  0.34385606  0.96029058  0.85675046  1
  Rb  Rb62  1  0.15614394  0.96029058  0.35675046  1
  Rb  Rb63  1  0.65614394  0.03970942  0.14324954  1
