# generated using pymatgen
data_CsTiAsO5
_symmetry_space_group_name_H-M   'P 1'
_cell_length_a   6.95745727
_cell_length_b   10.86187089
_cell_length_c   13.68671033
_cell_angle_alpha   90.00000000
_cell_angle_beta   90.00000000
_cell_angle_gamma   90.00000000
_symmetry_Int_Tables_number   1
_chemical_formula_structural   CsTiAsO5
_chemical_formula_sum   'Cs8 Ti8 As8 O40'
_cell_volume   1034.31842179
_cell_formula_units_Z   8
loop_
 _symmetry_equiv_pos_site_id
 _symmetry_equiv_pos_as_xyz
  1  'x, y, z'
loop_
 _atom_site_type_symbol
 _atom_site_label
 _atom_site_symmetry_multiplicity
 _atom_site_fract_x
 _atom_site_fract_y
 _atom_site_fract_z
 _atom_site_occupancy
  Cs  Cs0  1  0.21499504  0.37300730  0.61389294  1
  Cs  Cs1  1  0.78500496  0.87300730  0.38610706  1
  Cs  Cs2  1  0.28500496  0.37300730  0.11389294  1
  Cs  Cs3  1  0.71499504  0.87300730  0.88610706  1
  Cs  Cs4  1  0.30411755  0.11611316  0.88912251  1
  Cs  Cs5  1  0.69588245  0.61611316  0.11087749  1
  Cs  Cs6  1  0.19588245  0.11611316  0.38912251  1
  Cs  Cs7  1  0.80411755  0.61611316  0.61087749  1
  Ti  Ti8  1  0.49760547  0.02839703  0.62952732  1
  Ti  Ti9  1  0.50239453  0.52839703  0.37047268  1
  Ti  Ti10  1  0.00239453  0.02839703  0.12952732  1
  Ti  Ti11  1  0.99760547  0.52839703  0.87047268  1
  Ti  Ti12  1  0.73680609  0.27895141  0.75041423  1
  Ti  Ti13  1  0.26319391  0.77895141  0.24958577  1
  Ti  Ti14  1  0.76319391  0.27895141  0.25041423  1
  Ti  Ti15  1  0.23680609  0.77895141  0.74958577  1
  As  As16  1  0.67197852  0.28341610  0.49897019  1
  As  As17  1  0.32802148  0.78341610  0.50102981  1
  As  As18  1  0.82802148  0.28341610  0.99897019  1
  As  As19  1  0.17197852  0.78341610  0.00102981  1
  As  As20  1  0.49681041  0.53697535  0.82241510  1
  As  As21  1  0.50318959  0.03697535  0.17758490  1
  As  As22  1  0.00318959  0.53697535  0.32241510  1
  As  As23  1  0.99681041  0.03697535  0.67758490  1
  O  O24  1  0.51926654  0.16274586  0.51410904  1
  O  O25  1  0.48073346  0.66274586  0.48589096  1
  O  O26  1  0.98073346  0.16274586  0.01410904  1
  O  O27  1  0.01926654  0.66274586  0.98589096  1
  O  O28  1  0.53860358  0.41642984  0.48406840  1
  O  O29  1  0.46139642  0.91642984  0.51593160  1
  O  O30  1  0.96139642  0.41642984  0.98406840  1
  O  O31  1  0.03860358  0.91642984  0.01593160  1
  O  O32  1  0.80686252  0.30917670  0.60319508  1
  O  O33  1  0.19313748  0.80917670  0.39680492  1
  O  O34  1  0.69313748  0.30917670  0.10319508  1
  O  O35  1  0.30686252  0.80917670  0.89680492  1
  O  O36  1  0.81525807  0.26092947  0.39691888  1
  O  O37  1  0.18474193  0.76092947  0.60308112  1
  O  O38  1  0.68474193  0.26092947  0.89691888  1
  O  O39  1  0.31525807  0.76092947  0.10308112  1
  O  O40  1  0.56059464  0.16379367  0.71529351  1
  O  O41  1  0.43940536  0.66379367  0.28470649  1
  O  O42  1  0.93940536  0.16379367  0.21529351  1
  O  O43  1  0.06059464  0.66379367  0.78470649  1
  O  O44  1  0.93690538  0.41551574  0.78298829  1
  O  O45  1  0.06309462  0.91551574  0.21701171  1
  O  O46  1  0.56309462  0.41551574  0.28298829  1
  O  O47  1  0.43690538  0.91551574  0.71701171  1
  O  O48  1  0.69871959  0.57613648  0.88810123  1
  O  O49  1  0.30128041  0.07613648  0.11189877  1
  O  O50  1  0.80128041  0.57613648  0.38810123  1
  O  O51  1  0.19871959  0.07613648  0.61189877  1
  O  O52  1  0.29670445  0.49962007  0.89009854  1
  O  O53  1  0.70329555  -0.00037993  0.10990146  1
  O  O54  1  0.20329555  0.49962007  0.39009854  1
  O  O55  1  0.79670445  -0.00037993  0.60990146  1
  O  O56  1  0.45211442  0.66097081  0.74542228  1
  O  O57  1  0.54788558  0.16097081  0.25457772  1
  O  O58  1  0.04788558  0.66097081  0.24542228  1
  O  O59  1  0.95211442  0.16097081  0.75457772  1
  O  O60  1  0.54693913  0.41582102  0.74471769  1
  O  O61  1  0.45306087  0.91582102  0.25528231  1
  O  O62  1  0.95306087  0.41582102  0.24471769  1
  O  O63  1  0.04693913  0.91582102  0.75528231  1
