# generated using pymatgen
data_Sc2GaB2Rh5
_symmetry_space_group_name_H-M   'P 1'
_cell_length_a   3.08165793
_cell_length_b   9.34747577
_cell_length_c   9.34747577
_cell_angle_alpha   90.00000000
_cell_angle_beta   90.00000000
_cell_angle_gamma   90.00000000
_symmetry_Int_Tables_number   1
_chemical_formula_structural   Sc2GaB2Rh5
_chemical_formula_sum   'Sc4 Ga2 B4 Rh10'
_cell_volume   269.26079621
_cell_formula_units_Z   2
loop_
 _symmetry_equiv_pos_site_id
 _symmetry_equiv_pos_as_xyz
  1  'x, y, z'
loop_
 _atom_site_type_symbol
 _atom_site_label
 _atom_site_symmetry_multiplicity
 _atom_site_fract_x
 _atom_site_fract_y
 _atom_site_fract_z
 _atom_site_occupancy
  Rh  Rh0  1  0.50000000  0.21656971  0.07096794  1
  Rh  Rh1  1  0.50000000  0.92903206  0.21656971  1
  Rh  Rh2  1  0.50000000  0.07096794  0.78343029  1
  Rh  Rh3  1  0.50000000  0.78343029  0.92903206  1
  Rh  Rh4  1  0.50000000  0.71656971  0.42903206  1
  Rh  Rh5  1  0.50000000  0.28343029  0.57096794  1
  Rh  Rh6  1  0.50000000  0.57096794  0.71656971  1
  Rh  Rh7  1  0.50000000  0.42903206  0.28343029  1
  Rh  Rh8  1  0.50000000  0.00000000  0.50000000  1
  Rh  Rh9  1  0.50000000  0.50000000  0.00000000  1
  Sc  Sc10  1  0.00000000  0.32514597  0.82514597  1
  Sc  Sc11  1  0.00000000  0.17485403  0.32514597  1
  Sc  Sc12  1  0.00000000  0.82514597  0.67485403  1
  Sc  Sc13  1  0.00000000  0.67485403  0.17485403  1
  B  B14  1  0.00000000  0.12465859  0.62465859  1
  B  B15  1  0.00000000  0.37534141  0.12465859  1
  B  B16  1  0.00000000  0.62465859  0.87534141  1
  B  B17  1  0.00000000  0.87534141  0.37534141  1
  Ga  Ga18  1  0.00000000  0.00000000  0.00000000  1
  Ga  Ga19  1  0.00000000  0.50000000  0.50000000  1
