# generated using pymatgen
data_Yb2Ni12P7
_symmetry_space_group_name_H-M   'P 1'
_cell_length_a   9.01617054
_cell_length_b   9.01617060
_cell_length_c   3.65822277
_cell_angle_alpha   90.00000000
_cell_angle_beta   90.00000000
_cell_angle_gamma   119.99999981
_symmetry_Int_Tables_number   1
_chemical_formula_structural   Yb2Ni12P7
_chemical_formula_sum   'Yb2 Ni12 P7'
_cell_volume   257.54019463
_cell_formula_units_Z   1
loop_
 _symmetry_equiv_pos_site_id
 _symmetry_equiv_pos_as_xyz
  1  'x, y, z'
loop_
 _atom_site_type_symbol
 _atom_site_label
 _atom_site_symmetry_multiplicity
 _atom_site_fract_x
 _atom_site_fract_y
 _atom_site_fract_z
 _atom_site_occupancy
  Yb  Yb0  1  0.33333300  0.66666700  0.00000000  1
  Yb  Yb1  1  0.66666700  0.33333300  0.50000000  1
  Ni  Ni2  1  0.43524446  0.06067469  0.00000000  1
  Ni  Ni3  1  0.62543023  0.56475554  0.00000000  1
  Ni  Ni4  1  0.93932531  0.37456977  0.00000000  1
  Ni  Ni5  1  0.15345332  0.27639078  0.00000000  1
  Ni  Ni6  1  0.12293746  0.84654668  0.00000000  1
  Ni  Ni7  1  0.72360922  0.87706254  0.00000000  1
  Ni  Ni8  1  0.38019898  0.43068576  0.50000000  1
  Ni  Ni9  1  0.05048677  0.61980102  0.50000000  1
  Ni  Ni10  1  0.56931424  0.94951323  0.50000000  1
  Ni  Ni11  1  0.21382289  0.09352659  0.50000000  1
  Ni  Ni12  1  0.87970370  0.78617711  0.50000000  1
  Ni  Ni13  1  0.90647341  0.12029630  0.50000000  1
  P  P14  1  0.40793813  0.29408078  0.00000000  1
  P  P15  1  0.88614265  0.59206187  0.00000000  1
  P  P16  1  0.70591922  0.11385735  0.00000000  1
  P  P17  1  0.10913545  0.40494277  0.50000000  1
  P  P18  1  0.29580732  0.89086455  0.50000000  1
  P  P19  1  0.59505723  0.70419268  0.50000000  1
  P  P20  1  0.00000000  0.00000000  0.00000000  1
