# generated using pymatgen
data_Sc3B2Rh5
_symmetry_space_group_name_H-M   'P 1'
_cell_length_a   3.11500448
_cell_length_b   9.52679159
_cell_length_c   9.52679159
_cell_angle_alpha   90.00000000
_cell_angle_beta   90.00000000
_cell_angle_gamma   90.00000000
_symmetry_Int_Tables_number   1
_chemical_formula_structural   Sc3B2Rh5
_chemical_formula_sum   'Sc6 B4 Rh10'
_cell_volume   282.71705277
_cell_formula_units_Z   2
loop_
 _symmetry_equiv_pos_site_id
 _symmetry_equiv_pos_as_xyz
  1  'x, y, z'
loop_
 _atom_site_type_symbol
 _atom_site_label
 _atom_site_symmetry_multiplicity
 _atom_site_fract_x
 _atom_site_fract_y
 _atom_site_fract_z
 _atom_site_occupancy
  Rh  Rh0  1  0.50000000  0.22277970  0.07151177  1
  Rh  Rh1  1  0.50000000  0.92848823  0.22277970  1
  Rh  Rh2  1  0.50000000  0.07151177  0.77722030  1
  Rh  Rh3  1  0.50000000  0.77722030  0.92848823  1
  Rh  Rh4  1  0.50000000  0.72277970  0.42848823  1
  Rh  Rh5  1  0.50000000  0.27722030  0.57151177  1
  Rh  Rh6  1  0.50000000  0.57151177  0.72277970  1
  Rh  Rh7  1  0.50000000  0.42848823  0.27722030  1
  Rh  Rh8  1  0.50000000  0.00000000  0.50000000  1
  Rh  Rh9  1  0.50000000  0.50000000  0.00000000  1
  Sc  Sc10  1  0.00000000  0.32520231  0.82520231  1
  Sc  Sc11  1  0.00000000  0.17479769  0.32520231  1
  Sc  Sc12  1  0.00000000  0.82520231  0.67479769  1
  Sc  Sc13  1  0.00000000  0.67479769  0.17479769  1
  B  B14  1  0.00000000  0.12220520  0.62220520  1
  B  B15  1  0.00000000  0.37779480  0.12220520  1
  B  B16  1  0.00000000  0.62220520  0.87779480  1
  B  B17  1  0.00000000  0.87779480  0.37779480  1
  Sc  Sc18  1  0.00000000  0.00000000  0.00000000  1
  Sc  Sc19  1  0.00000000  0.50000000  0.50000000  1
