# generated using pymatgen
data_VPPbO6
_symmetry_space_group_name_H-M   'P 1'
_cell_length_a   5.70066799
_cell_length_b   8.57597528
_cell_length_c   9.96355112
_cell_angle_alpha   90.00000000
_cell_angle_beta   90.00000000
_cell_angle_gamma   91.22322600
_symmetry_Int_Tables_number   1
_chemical_formula_structural   VPPbO6
_chemical_formula_sum   'V4 P4 Pb4 O24'
_cell_volume   486.99493016
_cell_formula_units_Z   4
loop_
 _symmetry_equiv_pos_site_id
 _symmetry_equiv_pos_as_xyz
  1  'x, y, z'
loop_
 _atom_site_type_symbol
 _atom_site_label
 _atom_site_symmetry_multiplicity
 _atom_site_fract_x
 _atom_site_fract_y
 _atom_site_fract_z
 _atom_site_occupancy
  Pb  Pb0  1  0.12365243  0.92635154  0.31480021  1
  Pb  Pb1  1  0.87634757  0.57364846  0.81480021  1
  Pb  Pb2  1  0.87634757  0.07364846  0.68519979  1
  Pb  Pb3  1  0.12365243  0.42635154  0.18519979  1
  V  V4  1  0.65313686  0.58881073  0.41096080  1
  V  V5  1  0.34686314  0.91118927  0.91096080  1
  V  V6  1  0.34686314  0.41118927  0.58903920  1
  V  V7  1  0.65313686  0.08881073  0.08903920  1
  P  P8  1  0.33847844  0.78646171  0.60903176  1
  P  P9  1  0.66152156  0.71353829  0.10903176  1
  P  P10  1  0.66152156  0.21353829  0.39096824  1
  P  P11  1  0.33847844  0.28646171  0.89096824  1
  O  O12  1  0.74608559  0.37995345  0.34143714  1
  O  O13  1  0.25391441  0.12004655  0.84143714  1
  O  O14  1  0.25391441  0.62004655  0.65856286  1
  O  O15  1  0.74608559  0.87995345  0.15856286  1
  O  O16  1  0.47929759  0.77283032  0.47415695  1
  O  O17  1  0.52070241  0.72716968  0.97415695  1
  O  O18  1  0.52070241  0.22716968  0.52584305  1
  O  O19  1  0.47929759  0.27283032  0.02584305  1
  O  O20  1  0.50326316  0.63910264  0.21996509  1
  O  O21  1  0.49673584  0.86089736  0.71996509  1
  O  O22  1  0.49673584  0.36089736  0.78003491  1
  O  O23  1  0.50326316  0.13910264  0.28003491  1
  O  O24  1  0.90992121  0.67281887  0.36741441  1
  O  O25  1  0.09007879  0.82718113  0.86741441  1
  O  O26  1  0.09007879  0.32718113  0.63258559  1
  O  O27  1  0.90992121  0.17281887  0.13258559  1
  O  O28  1  0.32141020  0.47230409  0.42428367  1
  O  O29  1  0.67858980  0.02769591  0.92428367  1
  O  O30  1  0.67858980  0.52769591  0.57571633  1
  O  O31  1  0.32141020  0.97230409  0.07571633  1
  O  O32  1  0.12716094  0.88822042  0.57459727  1
  O  O33  1  0.87283906  0.61177958  0.07459727  1
  O  O34  1  0.87283906  0.11177958  0.42540273  1
  O  O35  1  0.12716094  0.38822042  0.92540273  1
