# generated using pymatgen
data_Cs4Ti3S14
_symmetry_space_group_name_H-M   'P 1'
_cell_length_a   8.63839110
_cell_length_b   11.70249778
_cell_length_c   14.20554360
_cell_angle_alpha   112.99067669
_cell_angle_beta   90.00000000
_cell_angle_gamma   111.65908812
_symmetry_Int_Tables_number   1
_chemical_formula_structural   Cs4Ti3S14
_chemical_formula_sum   'Cs8 Ti6 S28'
_cell_volume   1211.07887137
_cell_formula_units_Z   2
loop_
 _symmetry_equiv_pos_site_id
 _symmetry_equiv_pos_as_xyz
  1  'x, y, z'
loop_
 _atom_site_type_symbol
 _atom_site_label
 _atom_site_symmetry_multiplicity
 _atom_site_fract_x
 _atom_site_fract_y
 _atom_site_fract_z
 _atom_site_occupancy
  Cs  Cs0  1  0.02589128  0.40811033  0.11418672  1
  Cs  Cs1  1  0.61778095  0.59188967  0.38581328  1
  Cs  Cs2  1  0.97410872  0.59188967  0.88581328  1
  Cs  Cs3  1  0.38221905  0.40811033  0.61418672  1
  Cs  Cs4  1  0.20084745  0.87525993  0.35295924  1
  Cs  Cs5  1  0.32558752  0.12474007  0.14704076  1
  Cs  Cs6  1  0.79915255  0.12474007  0.64704076  1
  Cs  Cs7  1  0.67441248  0.87525993  0.85295924  1
  Ti  Ti8  1  0.92346727  0.33442576  0.41776336  1
  Ti  Ti9  1  0.58904150  0.66557424  0.08223664  1
  Ti  Ti10  1  0.07653273  0.66557424  0.58223664  1
  Ti  Ti11  1  0.41095850  0.33442576  0.91776336  1
  Ti  Ti12  1  0.76388241  0.00000000  0.25000000  1
  Ti  Ti13  1  0.23611759  0.00000000  0.75000000  1
  S  S14  1  0.88034592  0.07902144  0.11774470  1
  S  S15  1  0.80132448  0.92097856  0.38225530  1
  S  S16  1  0.11965408  0.92097856  0.88225530  1
  S  S17  1  0.19867552  0.07902144  0.61774470  1
  S  S18  1  0.66975184  0.13811618  0.41308602  1
  S  S19  1  0.53163566  0.86188382  0.08691398  1
  S  S20  1  0.33024816  0.86188382  0.58691398  1
  S  S21  1  0.46836434  0.13811618  0.91308602  1
  S  S22  1  0.05600341  0.16979758  0.36855657  1
  S  S23  1  0.88620583  0.83020242  0.13144343  1
  S  S24  1  0.94399659  0.83020242  0.63144343  1
  S  S25  1  0.11379417  0.16979758  0.86855657  1
  S  S26  1  0.76436795  0.19140089  0.21975069  1
  S  S27  1  0.57296706  0.80859911  0.28024931  1
  S  S28  1  0.23563205  0.80859911  0.78024931  1
  S  S29  1  0.42703294  0.19140089  0.71975069  1
  S  S30  1  0.99399105  0.55626620  0.40585086  1
  S  S31  1  0.43772485  0.44373380  0.09414914  1
  S  S32  1  0.00600895  0.44373380  0.59414914  1
  S  S33  1  0.56227515  0.55626620  0.90585086  1
  S  S34  1  0.83423998  0.65734118  0.15604410  1
  S  S35  1  0.17689880  0.34265882  0.34395590  1
  S  S36  1  0.16576002  0.34265882  0.84395590  1
  S  S37  1  0.82310120  0.65734118  0.65604410  1
  S  S38  1  0.32754458  0.70842942  0.10105385  1
  S  S39  1  0.61911516  0.29157058  0.39894615  1
  S  S40  1  0.67245542  0.29157058  0.89894615  1
  S  S41  1  0.38088484  0.70842942  0.60105385  1
