# generated using pymatgen
data_Rb4Zr3Se14
_symmetry_space_group_name_H-M   'P 1'
_cell_length_a   8.80987855
_cell_length_b   12.32666139
_cell_length_c   14.57089913
_cell_angle_alpha   110.22602399
_cell_angle_beta   90.00000000
_cell_angle_gamma   110.93757337
_symmetry_Int_Tables_number   1
_chemical_formula_structural   Rb4Zr3Se14
_chemical_formula_sum   'Rb8 Zr6 Se28'
_cell_volume   1372.88572944
_cell_formula_units_Z   2
loop_
 _symmetry_equiv_pos_site_id
 _symmetry_equiv_pos_as_xyz
  1  'x, y, z'
loop_
 _atom_site_type_symbol
 _atom_site_label
 _atom_site_symmetry_multiplicity
 _atom_site_fract_x
 _atom_site_fract_y
 _atom_site_fract_z
 _atom_site_occupancy
  Rb  Rb0  1  0.02105738  0.39644287  0.10779275  1
  Rb  Rb1  1  0.62461451  0.60355713  0.39220725  1
  Rb  Rb2  1  0.97894262  0.60355713  0.89220725  1
  Rb  Rb3  1  0.37538549  0.39644287  0.60779275  1
  Rb  Rb4  1  0.18180525  0.86374611  0.35059443  1
  Rb  Rb5  1  0.31805915  0.13625389  0.14940557  1
  Rb  Rb6  1  0.81819475  0.13625389  0.64940557  1
  Rb  Rb7  1  0.68194085  0.86374611  0.85059443  1
  Zr  Zr8  1  0.92472071  0.33537675  0.41406506  1
  Zr  Zr9  1  0.58934397  0.66462325  0.08593494  1
  Zr  Zr10  1  0.07527929  0.66462325  0.58593494  1
  Zr  Zr11  1  0.41065603  0.33537675  0.91406506  1
  Zr  Zr12  1  0.76139268  0.00000000  0.25000000  1
  Zr  Zr13  1  0.23860732  0.00000000  0.75000000  1
  Se  Se14  1  0.87307405  0.07252811  0.09694500  1
  Se  Se15  1  0.80054594  0.92747189  0.40305500  1
  Se  Se16  1  0.12692595  0.92747189  0.90305500  1
  Se  Se17  1  0.19945406  0.07252811  0.59694500  1
  Se  Se18  1  0.66092425  0.12967163  0.42149228  1
  Se  Se19  1  0.53125262  0.87032837  0.07850772  1
  Se  Se20  1  0.33907575  0.87032837  0.57850772  1
  Se  Se21  1  0.46874738  0.12967163  0.92149228  1
  Se  Se22  1  0.07233102  0.16344158  0.36708682  1
  Se  Se23  1  0.90888944  0.83655842  0.13291318  1
  Se  Se24  1  0.92766898  0.83655842  0.63291318  1
  Se  Se25  1  0.09111056  0.16344158  0.86708682  1
  Se  Se26  1  0.74311384  0.19898494  0.21611711  1
  Se  Se27  1  0.54412890  0.80101506  0.28388289  1
  Se  Se28  1  0.25688616  0.80101506  0.78388289  1
  Se  Se29  1  0.45587110  0.19898494  0.71611711  1
  Se  Se30  1  0.99325480  0.56129012  0.39574770  1
  Se  Se31  1  0.43196468  0.43870988  0.10425230  1
  Se  Se32  1  0.00674520  0.43870988  0.60425230  1
  Se  Se33  1  0.56803532  0.56129012  0.89574770  1
  Se  Se34  1  0.84830381  0.65021513  0.16964278  1
  Se  Se35  1  0.19808868  0.34978487  0.33035722  1
  Se  Se36  1  0.15169619  0.34978487  0.83035722  1
  Se  Se37  1  0.80191132  0.65021513  0.66964278  1
  Se  Se38  1  0.30415295  0.70804839  0.10938376  1
  Se  Se39  1  0.59610456  0.29195161  0.39061624  1
  Se  Se40  1  0.69584705  0.29195161  0.89061624  1
  Se  Se41  1  0.40389544  0.70804839  0.60938376  1
