# generated using pymatgen
data_CeMg2
_symmetry_space_group_name_H-M   'P 1'
_cell_length_a   3.18551652
_cell_length_b   17.77224651
_cell_length_c   5.53760728
_cell_angle_alpha   90.00000000
_cell_angle_beta   90.00000000
_cell_angle_gamma   90.00000000
_symmetry_Int_Tables_number   1
_chemical_formula_structural   CeMg2
_chemical_formula_sum   'Ce4 Mg8'
_cell_volume   313.50490716
_cell_formula_units_Z   4
loop_
 _symmetry_equiv_pos_site_id
 _symmetry_equiv_pos_as_xyz
  1  'x, y, z'
loop_
 _atom_site_type_symbol
 _atom_site_label
 _atom_site_symmetry_multiplicity
 _atom_site_fract_x
 _atom_site_fract_y
 _atom_site_fract_z
 _atom_site_occupancy
  Ce  Ce0  1  0.00000000  0.88967828  0.25000000  1
  Ce  Ce1  1  0.50000000  0.61032172  0.75000000  1
  Ce  Ce2  1  0.50000000  0.38967828  0.25000000  1
  Ce  Ce3  1  0.00000000  0.11032172  0.75000000  1
  Mg  Mg4  1  0.00000000  0.55610086  0.25000000  1
  Mg  Mg5  1  0.50000000  0.71912437  0.25000000  1
  Mg  Mg6  1  0.00000000  0.78087563  0.75000000  1
  Mg  Mg7  1  0.50000000  0.94389914  0.75000000  1
  Mg  Mg8  1  0.50000000  0.05610086  0.25000000  1
  Mg  Mg9  1  -0.00000000  0.21912437  0.25000000  1
  Mg  Mg10  1  0.50000000  0.28087563  0.75000000  1
  Mg  Mg11  1  -0.00000000  0.44389914  0.75000000  1
