# generated using pymatgen
data_Ce5Ge2Rh
_symmetry_space_group_name_H-M   'P 1'
_cell_length_a   7.85026618
_cell_length_b   8.81276860
_cell_length_c   11.79816148
_cell_angle_alpha   90.00000000
_cell_angle_beta   90.00000000
_cell_angle_gamma   90.00000000
_symmetry_Int_Tables_number   1
_chemical_formula_structural   Ce5Ge2Rh
_chemical_formula_sum   'Ce20 Ge8 Rh4'
_cell_volume   816.22724210
_cell_formula_units_Z   4
loop_
 _symmetry_equiv_pos_site_id
 _symmetry_equiv_pos_as_xyz
  1  'x, y, z'
loop_
 _atom_site_type_symbol
 _atom_site_label
 _atom_site_symmetry_multiplicity
 _atom_site_fract_x
 _atom_site_fract_y
 _atom_site_fract_z
 _atom_site_occupancy
  Ce  Ce0  1  0.70121445  0.46132120  0.93121791  1
  Ce  Ce1  1  0.20121445  0.53867880  0.56878209  1
  Ce  Ce2  1  0.29878555  0.96132120  0.06878209  1
  Ce  Ce3  1  0.79878555  0.03867880  0.43121791  1
  Ce  Ce4  1  0.29878555  0.53867880  0.06878209  1
  Ce  Ce5  1  0.79878555  0.46132120  0.43121791  1
  Ce  Ce6  1  0.70121445  0.03867880  0.93121791  1
  Ce  Ce7  1  0.20121445  0.96132120  0.56878209  1
  Ce  Ce8  1  0.97047157  0.75000000  0.99797904  1
  Ce  Ce9  1  0.47047157  0.25000000  0.50202096  1
  Ce  Ce10  1  0.02952843  0.25000000  0.00202096  1
  Ce  Ce11  1  0.52952843  0.75000000  0.49797904  1
  Ce  Ce12  1  0.35885043  0.75000000  0.79154462  1
  Ce  Ce13  1  0.85885043  0.25000000  0.70845538  1
  Ce  Ce14  1  0.64114957  0.25000000  0.20845538  1
  Ce  Ce15  1  0.14114957  0.75000000  0.29154462  1
  Ce  Ce16  1  0.84120193  0.75000000  0.71545803  1
  Ce  Ce17  1  0.34120193  0.25000000  0.78454197  1
  Ce  Ce18  1  0.15879807  0.25000000  0.28454197  1
  Ce  Ce19  1  0.65879807  0.75000000  0.21545803  1
  Rh  Rh20  1  0.57271704  0.75000000  0.98035517  1
  Rh  Rh21  1  0.07271704  0.25000000  0.51964483  1
  Rh  Rh22  1  0.42728296  0.25000000  0.01964483  1
  Rh  Rh23  1  0.92728296  0.75000000  0.48035517  1
  Ge  Ge24  1  0.57347503  0.49578635  0.67313421  1
  Ge  Ge25  1  0.07347503  0.50421365  0.82686579  1
  Ge  Ge26  1  0.42652497  0.99578635  0.32686579  1
  Ge  Ge27  1  0.92652497  0.00421365  0.17313421  1
  Ge  Ge28  1  0.42652497  0.50421365  0.32686579  1
  Ge  Ge29  1  0.92652497  0.49578635  0.17313421  1
  Ge  Ge30  1  0.57347503  0.00421365  0.67313421  1
  Ge  Ge31  1  0.07347503  0.99578635  0.82686579  1
