# generated using pymatgen
data_Sc2MnB2Rh5
_symmetry_space_group_name_H-M   'P 1'
_cell_length_a   3.06533591
_cell_length_b   9.40727854
_cell_length_c   9.40727854
_cell_angle_alpha   90.00000000
_cell_angle_beta   90.00000000
_cell_angle_gamma   90.00000000
_symmetry_Int_Tables_number   1
_chemical_formula_structural   Sc2MnB2Rh5
_chemical_formula_sum   'Sc4 Mn2 B4 Rh10'
_cell_volume   271.27269340
_cell_formula_units_Z   2
loop_
 _symmetry_equiv_pos_site_id
 _symmetry_equiv_pos_as_xyz
  1  'x, y, z'
loop_
 _atom_site_type_symbol
 _atom_site_label
 _atom_site_symmetry_multiplicity
 _atom_site_fract_x
 _atom_site_fract_y
 _atom_site_fract_z
 _atom_site_occupancy
  Rh  Rh0  1  0.50000000  0.21835706  0.07052890  1
  Rh  Rh1  1  0.50000000  0.92947110  0.21835706  1
  Rh  Rh2  1  0.50000000  0.07052890  0.78164294  1
  Rh  Rh3  1  0.50000000  0.78164294  0.92947110  1
  Rh  Rh4  1  0.50000000  0.71835706  0.42947110  1
  Rh  Rh5  1  0.50000000  0.28164294  0.57052890  1
  Rh  Rh6  1  0.50000000  0.57052890  0.71835706  1
  Rh  Rh7  1  0.50000000  0.42947110  0.28164294  1
  Rh  Rh8  1  0.50000000  0.00000000  0.50000000  1
  Rh  Rh9  1  0.50000000  0.50000000  0.00000000  1
  Sc  Sc10  1  0.00000000  0.32403160  0.82403160  1
  Sc  Sc11  1  0.00000000  0.17596840  0.32403160  1
  Sc  Sc12  1  0.00000000  0.82403160  0.67596840  1
  Sc  Sc13  1  0.00000000  0.67596840  0.17596840  1
  B  B14  1  0.00000000  0.12447652  0.62447652  1
  B  B15  1  0.00000000  0.37552348  0.12447652  1
  B  B16  1  0.00000000  0.62447652  0.87552348  1
  B  B17  1  0.00000000  0.87552348  0.37552348  1
  Mn  Mn18  1  0.00000000  0.00000000  0.00000000  1
  Mn  Mn19  1  0.00000000  0.50000000  0.50000000  1
