# generated using pymatgen
data_Rb4Hf3S14
_symmetry_space_group_name_H-M   'P 1'
_cell_length_a   8.41044752
_cell_length_b   11.81056983
_cell_length_c   13.84202340
_cell_angle_alpha   111.23046669
_cell_angle_beta   90.00000000
_cell_angle_gamma   110.85817552
_symmetry_Int_Tables_number   1
_chemical_formula_structural   Rb4Hf3S14
_chemical_formula_sum   'Rb8 Hf6 S28'
_cell_volume   1184.45542396
_cell_formula_units_Z   2
loop_
 _symmetry_equiv_pos_site_id
 _symmetry_equiv_pos_as_xyz
  1  'x, y, z'
loop_
 _atom_site_type_symbol
 _atom_site_label
 _atom_site_symmetry_multiplicity
 _atom_site_fract_x
 _atom_site_fract_y
 _atom_site_fract_z
 _atom_site_occupancy
  Rb  Rb0  1  0.02161913  0.40531641  0.11007503  1
  Rb  Rb1  1  0.61630272  0.59468359  0.38992497  1
  Rb  Rb2  1  0.97838087  0.59468359  0.88992497  1
  Rb  Rb3  1  0.38369728  0.40531641  0.61007503  1
  Rb  Rb4  1  0.19689445  0.86928871  0.35613152  1
  Rb  Rb5  1  0.32760574  0.13071129  0.14386848  1
  Rb  Rb6  1  0.80310555  0.13071129  0.64386848  1
  Rb  Rb7  1  0.67239426  0.86928871  0.85613152  1
  Hf  Hf8  1  0.92077867  0.33642047  0.41187496  1
  Hf  Hf9  1  0.58435820  0.66357953  0.08812504  1
  Hf  Hf10  1  0.07922133  0.66357953  0.58812504  1
  Hf  Hf11  1  0.41564180  0.33642047  0.91187496  1
  Hf  Hf12  1  0.76572992  0.00000000  0.25000000  1
  Hf  Hf13  1  0.23427008  0.00000000  0.75000000  1
  S  S14  1  0.88450374  0.07958388  0.10574509  1
  S  S15  1  0.80491986  0.92041612  0.39425491  1
  S  S16  1  0.11549626  0.92041612  0.89425491  1
  S  S17  1  0.19508014  0.07958388  0.60574509  1
  S  S18  1  0.65421323  0.13775751  0.41488128  1
  S  S19  1  0.51645572  0.86224249  0.08511872  1
  S  S20  1  0.34578677  0.86224249  0.58511872  1
  S  S21  1  0.48354428  0.13775751  0.91488128  1
  S  S22  1  0.07080611  0.17111181  0.36799181  1
  S  S23  1  0.89969430  0.82888819  0.13200819  1
  S  S24  1  0.92919389  0.82888819  0.63200819  1
  S  S25  1  0.10030570  0.17111181  0.86799181  1
  S  S26  1  0.76061956  0.19169728  0.20670037  1
  S  S27  1  0.56892228  0.80830272  0.29329963  1
  S  S28  1  0.23938044  0.80830272  0.79329963  1
  S  S29  1  0.43107772  0.19169728  0.70670037  1
  S  S30  1  0.99015191  0.55840348  0.39859842  1
  S  S31  1  0.43174843  0.44159652  0.10140158  1
  S  S32  1  0.00984809  0.44159652  0.60140158  1
  S  S33  1  0.56825157  0.55840348  0.89859842  1
  S  S34  1  0.85294298  0.66272183  0.16815193  1
  S  S35  1  0.19022115  0.33727817  0.33184807  1
  S  S36  1  0.14705702  0.33727817  0.83184807  1
  S  S37  1  0.80977885  0.66272183  0.66815193  1
  S  S38  1  0.31050235  0.71520237  0.10960767  1
  S  S39  1  0.59529997  0.28479763  0.39039233  1
  S  S40  1  0.68949765  0.28479763  0.89039233  1
  S  S41  1  0.40470003  0.71520237  0.60960767  1
