# generated using pymatgen
data_K4H6C2O9
_symmetry_space_group_name_H-M   'P 1'
_cell_length_a   7.21738091
_cell_length_b   9.21079935
_cell_length_c   9.21080004
_cell_angle_alpha   97.66289023
_cell_angle_beta   109.62202284
_cell_angle_gamma   109.62202473
_symmetry_Int_Tables_number   1
_chemical_formula_structural   K4H6C2O9
_chemical_formula_sum   'K8 H12 C4 O18'
_cell_volume   521.94277186
_cell_formula_units_Z   2
loop_
 _symmetry_equiv_pos_site_id
 _symmetry_equiv_pos_as_xyz
  1  'x, y, z'
loop_
 _atom_site_type_symbol
 _atom_site_label
 _atom_site_symmetry_multiplicity
 _atom_site_fract_x
 _atom_site_fract_y
 _atom_site_fract_z
 _atom_site_occupancy
  K  K0  1  0.75000000  0.61685422  0.38314578  1
  K  K1  1  0.25000000  0.38314578  0.61685422  1
  K  K2  1  0.75000000  0.31450417  0.68549583  1
  K  K3  1  0.25000000  0.68549583  0.31450417  1
  K  K4  1  0.54030980  0.29306943  0.99499288  1
  K  K5  1  0.95969020  0.00500712  0.70693057  1
  K  K6  1  0.45969020  0.70693057  0.00500712  1
  K  K7  1  0.04030980  0.99499288  0.29306943  1
  C  C8  1  0.84989753  0.63705908  0.97634342  1
  C  C9  1  0.65010247  0.02365658  0.36294092  1
  C  C10  1  0.15010247  0.36294092  0.02365658  1
  C  C11  1  0.34989753  0.97634342  0.63705908  1
  O  O12  1  0.85156891  0.66915051  0.11772816  1
  O  O13  1  0.64843109  0.88227184  0.33084949  1
  O  O14  1  0.14843109  0.33084949  0.88227184  1
  O  O15  1  0.35156891  0.11772816  0.66915051  1
  O  O16  1  0.66703793  0.55386205  0.85117410  1
  O  O17  1  0.83296207  0.14882590  0.44613795  1
  O  O18  1  0.33296207  0.44613795  0.14882590  1
  O  O19  1  0.16703793  0.85117410  0.55386205  1
  O  O20  1  0.03042245  0.68596991  0.95674069  1
  O  O21  1  0.46957755  0.04325931  0.31403009  1
  O  O22  1  0.96957755  0.31403009  0.04325931  1
  O  O23  1  0.53042245  0.95674069  0.68596991  1
  O  O24  1  0.75000000  0.99960248  0.00039752  1
  O  O25  1  0.25000000  0.00039752  0.99960248  1
  H  H26  1  0.84531627  0.11481763  0.02314993  1
  H  H27  1  0.65468373  0.97685007  0.88518237  1
  H  H28  1  0.15468373  0.88518237  0.97685007  1
  H  H29  1  0.34531627  0.02314993  0.11481763  1
  O  O30  1  0.91404943  0.39393062  0.31102501  1
  O  O31  1  0.58595057  0.68897500  0.60606938  1
  O  O32  1  0.08595057  0.60606938  0.68897499  1
  O  O33  1  0.41404943  0.31102500  0.39393062  1
  H  H34  1  0.86915078  0.29954043  0.35368867  1
  H  H35  1  0.63084922  0.64631133  0.70045957  1
  H  H36  1  0.13084922  0.70045957  0.64631133  1
  H  H37  1  0.36915078  0.35368867  0.29954043  1
  H  H38  1  0.95052287  0.35906042  0.21980803  1
  H  H39  1  0.54947713  0.78019197  0.64093958  1
  H  H40  1  0.04947713  0.64093958  0.78019197  1
  H  H41  1  0.45052287  0.21980803  0.35906042  1
