# generated using pymatgen
data_Cs8Ta6O19
_symmetry_space_group_name_H-M   'P 1'
_cell_length_a   10.07067737
_cell_length_b   10.07067716
_cell_length_c   10.04851689
_cell_angle_alpha   120.07297732
_cell_angle_beta   120.07297665
_cell_angle_gamma   90.00000447
_symmetry_Int_Tables_number   1
_chemical_formula_structural   Cs8Ta6O19
_chemical_formula_sum   'Cs8 Ta6 O19'
_cell_volume   719.02400255
_cell_formula_units_Z   1
loop_
 _symmetry_equiv_pos_site_id
 _symmetry_equiv_pos_as_xyz
  1  'x, y, z'
loop_
 _atom_site_type_symbol
 _atom_site_label
 _atom_site_symmetry_multiplicity
 _atom_site_fract_x
 _atom_site_fract_y
 _atom_site_fract_z
 _atom_site_occupancy
  Ta  Ta0  1  0.10432687  0.21362873  0.00000000  1
  Ta  Ta1  1  0.78637127  0.10432687  0.00000000  1
  Ta  Ta2  1  0.21362873  0.89567313  1.00000000  1
  Ta  Ta3  1  0.89567313  0.78637127  1.00000000  1
  Ta  Ta4  1  0.83355103  0.83355103  0.66710206  1
  Ta  Ta5  1  0.16644897  0.16644897  0.33289794  1
  Cs  Cs6  1  0.06800354  0.43530749  0.70365422  1
  Cs  Cs7  1  0.26834673  0.06800354  0.70365422  1
  Cs  Cs8  1  0.43530749  0.63565068  0.70365422  1
  Cs  Cs9  1  0.63565068  0.26834673  0.70365422  1
  Cs  Cs10  1  0.93199646  0.56469251  0.29634578  1
  Cs  Cs11  1  0.73165327  0.93199646  0.29634578  1
  Cs  Cs12  1  0.56469251  0.36434932  0.29634578  1
  Cs  Cs13  1  0.36434932  0.73165327  0.29634578  1
  O  O14  1  0.19670724  0.37036969  1.00000000  1
  O  O15  1  0.62963031  0.19670724  1.00000000  1
  O  O16  1  0.37036969  0.80329276  0.00000000  1
  O  O17  1  0.80329276  0.62963031  0.00000000  1
  O  O18  1  0.70398326  0.70398326  0.40796651  1
  O  O19  1  0.29601674  0.29601674  0.59203349  1
  O  O20  1  0.91293981  0.26028739  1.00000000  1
  O  O21  1  0.73971261  0.91293981  0.00000000  1
  O  O22  1  0.26028739  0.08706019  1.00000000  1
  O  O23  1  0.08706019  0.73971261  0.00000000  1
  O  O24  1  0.22697170  0.31503514  0.27831495  1
  O  O25  1  0.96327981  0.22697170  0.27831495  1
  O  O26  1  0.31503514  0.05134325  0.27831495  1
  O  O27  1  0.05134325  0.96327981  0.27831495  1
  O  O28  1  0.77302830  0.68496486  0.72168505  1
  O  O29  1  0.03672019  0.77302830  0.72168505  1
  O  O30  1  0.68496486  0.94865675  0.72168505  1
  O  O31  1  0.94865675  0.03672019  0.72168505  1
  O  O32  1  0.00000000  0.00000000  0.00000000  1
