# generated using pymatgen
data_UTlH(SeO4)2
_symmetry_space_group_name_H-M   'P 1'
_cell_length_a   8.56306865
_cell_length_b   10.19512117
_cell_length_c   10.40282975
_cell_angle_alpha   90.00000000
_cell_angle_beta   90.00000000
_cell_angle_gamma   94.89742578
_symmetry_Int_Tables_number   1
_chemical_formula_structural   UTlH(SeO4)2
_chemical_formula_sum   'U4 Tl4 H4 Se8 O32'
_cell_volume   904.86722079
_cell_formula_units_Z   4
loop_
 _symmetry_equiv_pos_site_id
 _symmetry_equiv_pos_as_xyz
  1  'x, y, z'
loop_
 _atom_site_type_symbol
 _atom_site_label
 _atom_site_symmetry_multiplicity
 _atom_site_fract_x
 _atom_site_fract_y
 _atom_site_fract_z
 _atom_site_occupancy
  U  U0  1  0.62579562  0.81552656  0.70925032  1
  U  U1  1  0.87420438  0.68447344  0.20925032  1
  U  U2  1  0.37420438  0.18447344  0.29074968  1
  U  U3  1  0.12579562  0.31552656  0.79074968  1
  Tl  Tl4  1  0.22084858  0.95403608  0.94828119  1
  Tl  Tl5  1  0.27915142  0.54596392  0.44828119  1
  Tl  Tl6  1  0.77915142  0.04596392  0.05171881  1
  Tl  Tl7  1  0.72084858  0.45403608  0.55171881  1
  Se  Se8  1  0.00668859  0.81467270  0.52648932  1
  Se  Se9  1  0.49331141  0.68532730  0.02648932  1
  Se  Se10  1  0.99331141  0.18532730  0.47351068  1
  Se  Se11  1  0.50668859  0.31467270  0.97351068  1
  Se  Se12  1  0.61490995  0.90516760  0.37786823  1
  Se  Se13  1  0.88509005  0.59483240  0.87786823  1
  Se  Se14  1  0.38509005  0.09483240  0.62213177  1
  Se  Se15  1  0.11490995  0.40516760  0.12213177  1
  O  O16  1  0.15507097  0.75865612  0.63130557  1
  O  O17  1  0.34492903  0.74134388  0.13130557  1
  O  O18  1  0.84492903  0.24134388  0.36869443  1
  O  O19  1  0.65507097  0.25865612  0.86869443  1
  H  H20  1  0.24092643  0.83124528  0.64553442  1
  H  H21  1  0.25907357  0.66875472  0.14553442  1
  H  H22  1  0.75907357  0.16875472  0.35446558  1
  H  H23  1  0.74092643  0.33124528  0.85446558  1
  O  O24  1  0.85009826  0.73587960  0.60461019  1
  O  O25  1  0.64990174  0.76412040  0.10461019  1
  O  O26  1  0.14990174  0.26412040  0.39538981  1
  O  O27  1  0.35009826  0.23587960  0.89538981  1
  O  O28  1  0.66723087  0.95505046  0.53330619  1
  O  O29  1  0.83276913  0.54494954  0.03330619  1
  O  O30  1  0.33276913  0.04494954  0.46669381  1
  O  O31  1  0.16723087  0.45505046  0.96669381  1
  O  O32  1  0.79744502  0.86705576  0.32502439  1
  O  O33  1  0.70255498  0.63294424  0.82502439  1
  O  O34  1  0.20255498  0.13294424  0.67497561  1
  O  O35  1  0.29744502  0.36705576  0.17497561  1
  O  O36  1  0.39438277  0.94361899  0.69690619  1
  O  O37  1  0.10561723  0.55638101  0.19690619  1
  O  O38  1  0.60561723  0.05638101  0.30309381  1
  O  O39  1  0.89438277  0.44361899  0.80309381  1
  O  O40  1  0.46456362  0.78947584  0.90088487  1
  O  O41  1  0.03543638  0.71052416  0.40088487  1
  O  O42  1  0.53543638  0.21052416  0.09911513  1
  O  O43  1  0.96456362  0.28947584  0.59911513  1
  O  O44  1  0.50942952  0.69842956  0.60658160  1
  O  O45  1  0.99057048  0.80157044  0.10658160  1
  O  O46  1  0.49057048  0.30157044  0.39341840  1
  O  O47  1  0.00942952  0.19842956  0.89341840  1
  O  O48  1  0.75315584  0.93325750  0.80180300  1
  O  O49  1  0.74684416  0.56674250  0.30180300  1
  O  O50  1  0.24684416  0.06674250  0.19819700  1
  O  O51  1  0.25315584  0.43325750  0.69819700  1
