# generated using pymatgen
data_K2LaP2S7
_symmetry_space_group_name_H-M   'P 1'
_cell_length_a   6.93051804
_cell_length_b   9.27786296
_cell_length_c   20.34493700
_cell_angle_alpha   96.70531624
_cell_angle_beta   90.00000000
_cell_angle_gamma   90.00000000
_symmetry_Int_Tables_number   1
_chemical_formula_structural   K2LaP2S7
_chemical_formula_sum   'K8 La4 P8 S28'
_cell_volume   1299.23927968
_cell_formula_units_Z   4
loop_
 _symmetry_equiv_pos_site_id
 _symmetry_equiv_pos_as_xyz
  1  'x, y, z'
loop_
 _atom_site_type_symbol
 _atom_site_label
 _atom_site_symmetry_multiplicity
 _atom_site_fract_x
 _atom_site_fract_y
 _atom_site_fract_z
 _atom_site_occupancy
  La  La0  1  0.02657530  0.68892593  0.84953193  1
  La  La1  1  0.52657530  0.81107407  0.65046807  1
  La  La2  1  0.97342470  0.31107407  0.15046807  1
  La  La3  1  0.47342470  0.18892593  0.34953193  1
  P  P4  1  0.48306021  0.90305541  0.83078029  1
  P  P5  1  0.98306021  0.59694459  0.66921971  1
  P  P6  1  0.51693979  0.09694459  0.16921971  1
  P  P7  1  0.01693979  0.40305541  0.33078029  1
  P  P8  1  0.98920716  0.41655677  0.95608809  1
  P  P9  1  0.48920716  0.08344323  0.54391191  1
  P  P10  1  0.01079284  0.58344323  0.04391191  1
  P  P11  1  0.51079284  0.91655677  0.45608809  1
  S  S12  1  0.03382625  0.77347774  0.00551350  1
  S  S13  1  0.53382625  0.72652226  0.49448650  1
  S  S14  1  0.96617375  0.22652226  0.99448650  1
  S  S15  1  0.46617375  0.27347774  0.50551350  1
  S  S16  1  0.42621985  0.69905719  0.78179030  1
  S  S17  1  0.92621985  0.80094281  0.71820970  1
  S  S18  1  0.57378015  0.30094281  0.21820970  1
  S  S19  1  0.07378015  0.19905719  0.28179030  1
  S  S20  1  0.01185898  0.45538171  0.73918198  1
  S  S21  1  0.51185898  0.04461829  0.76081802  1
  S  S22  1  0.98814102  0.54461829  0.26081802  1
  S  S23  1  0.48814102  0.95538171  0.23918198  1
  S  S24  1  0.72291021  0.91161992  0.88977537  1
  S  S25  1  0.22291021  0.58838008  0.61022463  1
  S  S26  1  0.27708979  0.08838008  0.11022463  1
  S  S27  1  0.77708979  0.41161992  0.38977537  1
  S  S28  1  0.23163845  0.44130008  0.90127712  1
  S  S29  1  0.73163845  0.05869992  0.59872288  1
  S  S30  1  0.76836155  0.55869992  0.09872288  1
  S  S31  1  0.26836155  0.94130008  0.40127712  1
  S  S32  1  0.75579599  0.47242303  0.90369946  1
  S  S33  1  0.25579599  0.02757697  0.59630054  1
  S  S34  1  0.24420401  0.52757697  0.09630054  1
  S  S35  1  0.74420401  0.97242303  0.40369946  1
  S  S36  1  0.25343479  0.95788960  0.89158379  1
  S  S37  1  0.75343479  0.54211040  0.60841621  1
  S  S38  1  0.74656521  0.04211040  0.10841621  1
  S  S39  1  0.24656521  0.45788960  0.39158379  1
  K  K40  1  0.96985677  0.15058182  0.81032157  1
  K  K41  1  0.46985677  0.34941818  0.68967843  1
  K  K42  1  0.03014323  0.84941818  0.18967843  1
  K  K43  1  0.53014323  0.65058182  0.31032157  1
  K  K44  1  0.48750111  0.23804375  0.98974411  1
  K  K45  1  0.98750111  0.26195625  0.51025589  1
  K  K46  1  0.51249889  0.76195625  0.01025589  1
  K  K47  1  0.01249889  0.73804375  0.48974411  1
