# generated using pymatgen
data_Rb4Ti3S14
_symmetry_space_group_name_H-M   'P 1'
_cell_length_a   8.33286650
_cell_length_b   11.53894120
_cell_length_c   13.70156891
_cell_angle_alpha   112.23154101
_cell_angle_beta   90.00000000
_cell_angle_gamma   111.16628367
_symmetry_Int_Tables_number   1
_chemical_formula_structural   Rb4Ti3S14
_chemical_formula_sum   'Rb8 Ti6 S28'
_cell_volume   1122.89997876
_cell_formula_units_Z   2
loop_
 _symmetry_equiv_pos_site_id
 _symmetry_equiv_pos_as_xyz
  1  'x, y, z'
loop_
 _atom_site_type_symbol
 _atom_site_label
 _atom_site_symmetry_multiplicity
 _atom_site_fract_x
 _atom_site_fract_y
 _atom_site_fract_z
 _atom_site_occupancy
  Rb  Rb0  1  0.11884795  0.59471951  0.88650684  1
  Rb  Rb1  1  0.52412844  0.40528049  0.61349316  1
  Rb  Rb2  1  0.88115205  0.40528049  0.11349316  1
  Rb  Rb3  1  0.47587156  0.59471951  0.38650684  1
  Rb  Rb4  1  0.82870833  0.13208685  0.64701791  1
  Rb  Rb5  1  0.69662148  0.86791315  0.85298209  1
  Rb  Rb6  1  0.17129167  0.86791315  0.35298209  1
  Rb  Rb7  1  0.30337852  0.13208685  0.14701791  1
  Ti  Ti8  1  0.08861150  0.66538872  0.58311750  1
  Ti  Ti9  1  0.42322278  0.33461128  0.91688250  1
  Ti  Ti10  1  0.91138850  0.33461128  0.41688250  1
  Ti  Ti11  1  0.57677722  0.66538872  0.08311750  1
  Ti  Ti12  1  0.26435593  0.00000000  0.75000000  1
  Ti  Ti13  1  0.73564407  0.00000000  0.25000000  1
  S  S14  1  0.06996653  0.80928213  0.78592387  1
  S  S15  1  0.26068440  0.19071787  0.71407613  1
  S  S16  1  0.93003347  0.19071787  0.21407613  1
  S  S17  1  0.73931560  0.80928213  0.28592387  1
  S  S18  1  0.93522438  0.44333743  0.59850211  1
  S  S19  1  0.49188695  0.55666257  0.90149789  1
  S  S20  1  0.06477562  0.55666257  0.40149789  1
  S  S21  1  0.50811305  0.44333743  0.09850211  1
  S  S22  1  0.97494288  0.13868245  0.41584787  1
  S  S23  1  0.83626043  0.86131755  0.08415213  1
  S  S24  1  0.02505712  0.86131755  0.58415213  1
  S  S25  1  0.16373957  0.13868245  0.91584787  1
  S  S26  1  0.31505268  0.65654304  0.16045386  1
  S  S27  1  0.65850964  0.34345696  0.33954614  1
  S  S28  1  0.68494732  0.34345696  0.83954614  1
  S  S29  1  0.34149036  0.65654304  0.66045386  1
  S  S30  1  0.30542742  0.92289080  0.88967073  1
  S  S31  1  0.38253662  0.07710920  0.61032927  1
  S  S32  1  0.69457258  0.07710920  0.11032927  1
  S  S33  1  0.61746338  0.92289080  0.38967073  1
  S  S34  1  0.43516829  0.82928130  0.13111375  1
  S  S35  1  0.60588699  0.17071870  0.36888625  1
  S  S36  1  0.56483171  0.17071870  0.86888625  1
  S  S37  1  0.39411301  0.82928130  0.63111375  1
  S  S38  1  0.10887943  0.29219240  0.89803750  1
  S  S39  1  0.81668704  0.70780760  0.60196250  1
  S  S40  1  0.89112057  0.70780760  0.10196250  1
  S  S41  1  0.18331296  0.29219240  0.39803750  1
