# generated using pymatgen
data_Cs4PbO4
_symmetry_space_group_name_H-M   'P 1'
_cell_length_a   7.55853171
_cell_length_b   11.96228373
_cell_length_c   12.08502913
_cell_angle_alpha   111.08296648
_cell_angle_beta   90.00000000
_cell_angle_gamma   90.00000000
_symmetry_Int_Tables_number   1
_chemical_formula_structural   Cs4PbO4
_chemical_formula_sum   'Cs16 Pb4 O16'
_cell_volume   1019.55122977
_cell_formula_units_Z   4
loop_
 _symmetry_equiv_pos_site_id
 _symmetry_equiv_pos_as_xyz
  1  'x, y, z'
loop_
 _atom_site_type_symbol
 _atom_site_label
 _atom_site_symmetry_multiplicity
 _atom_site_fract_x
 _atom_site_fract_y
 _atom_site_fract_z
 _atom_site_occupancy
  Cs  Cs0  1  0.58482878  0.30002613  0.93713669  1
  Cs  Cs1  1  0.66450138  0.89290034  0.37117388  1
  Cs  Cs2  1  0.08482878  0.19997387  0.06286331  1
  Cs  Cs3  1  0.16450138  0.60709966  0.62882612  1
  Cs  Cs4  1  0.33549862  0.10709966  0.62882612  1
  Cs  Cs5  1  0.17905764  0.78921738  0.42155699  1
  Cs  Cs6  1  0.67905764  0.71078262  0.57844301  1
  Cs  Cs7  1  0.11306872  0.41685773  0.84472137  1
  Cs  Cs8  1  0.61306872  0.08314227  0.15527863  1
  Cs  Cs9  1  0.38693128  0.91685773  0.84472137  1
  Cs  Cs10  1  0.41517122  0.69997387  0.06286331  1
  Cs  Cs11  1  0.32094236  0.28921738  0.42155699  1
  Cs  Cs12  1  0.91517122  0.80002613  0.93713669  1
  Cs  Cs13  1  0.88693128  0.58314227  0.15527863  1
  Cs  Cs14  1  0.83549862  0.39290034  0.37117388  1
  Cs  Cs15  1  0.82094236  0.21078262  0.57844301  1
  Pb  Pb16  1  0.62408648  0.50946441  0.75845660  1
  Pb  Pb17  1  0.12408648  0.99053559  0.24154340  1
  Pb  Pb18  1  0.87591352  0.00946441  0.75845660  1
  Pb  Pb19  1  0.37591352  0.49053559  0.24154340  1
  O  O20  1  0.51678187  0.32969319  0.21440121  1
  O  O21  1  0.66660953  0.99093577  0.63637141  1
  O  O22  1  0.48321813  0.67030681  0.78559879  1
  O  O23  1  0.98321813  0.82969319  0.21440121  1
  O  O24  1  0.83339047  0.49093577  0.63637141  1
  O  O25  1  0.46469457  0.35298641  0.68894264  1
  O  O26  1  0.96469457  0.14701359  0.31105736  1
  O  O27  1  0.03530543  0.85298641  0.68894264  1
  O  O28  1  0.33339047  0.00906423  0.36362859  1
  O  O29  1  0.76449861  0.02655610  0.92456085  1
  O  O30  1  0.23550139  0.97344390  0.07543915  1
  O  O31  1  0.53530543  0.64701359  0.31105736  1
  O  O32  1  0.26449861  0.47344390  0.07543915  1
  O  O33  1  0.73550139  0.52655610  0.92456085  1
  O  O34  1  0.16660953  0.50906423  0.36362859  1
  O  O35  1  0.01678187  0.17030681  0.78559879  1
