# generated using pymatgen
data_Hg3Se3O10
_symmetry_space_group_name_H-M   'P 1'
_cell_length_a   5.44745742
_cell_length_b   8.66996570
_cell_length_c   11.39251798
_cell_angle_alpha   108.16497858
_cell_angle_beta   90.00000000
_cell_angle_gamma   90.00000000
_symmetry_Int_Tables_number   1
_chemical_formula_structural   Hg3Se3O10
_chemical_formula_sum   'Hg6 Se6 O20'
_cell_volume   511.24486973
_cell_formula_units_Z   2
loop_
 _symmetry_equiv_pos_site_id
 _symmetry_equiv_pos_as_xyz
  1  'x, y, z'
loop_
 _atom_site_type_symbol
 _atom_site_label
 _atom_site_symmetry_multiplicity
 _atom_site_fract_x
 _atom_site_fract_y
 _atom_site_fract_z
 _atom_site_occupancy
  Hg  Hg0  1  0.75348634  0.99643362  0.87185652  1
  Hg  Hg1  1  0.25348634  0.00356638  0.12814348  1
  Hg  Hg2  1  0.74283417  0.99270785  0.37224883  1
  Hg  Hg3  1  0.24283417  0.00729215  0.62775117  1
  Hg  Hg4  1  0.25757349  0.62072885  0.79289958  1
  Hg  Hg5  1  0.75757349  0.37927115  0.20710042  1
  Se  Se6  1  0.77516792  0.74256257  0.03923764  1
  Se  Se7  1  0.27516792  0.25743743  0.96076236  1
  Se  Se8  1  0.71279734  0.73929283  0.57910942  1
  Se  Se9  1  0.21279734  0.26070717  0.42089058  1
  Se  Se10  1  0.74975624  0.35404838  0.71521954  1
  Se  Se11  1  0.24975624  0.64595162  0.28478046  1
  O  O12  1  0.88049601  0.89733165  0.16777509  1
  O  O13  1  0.38049601  0.10266835  0.83222491  1
  O  O14  1  0.59436539  0.88705811  0.51816845  1
  O  O15  1  0.09436539  0.11294189  0.48183155  1
  O  O16  1  0.93377120  0.85072266  0.68442588  1
  O  O17  1  0.43377120  0.14927734  0.31557412  1
  O  O18  1  0.53697736  0.84009151  0.98652831  1
  O  O19  1  0.03697736  0.15990849  0.01347169  1
  O  O20  1  0.99860220  0.77518660  0.93953436  1
  O  O21  1  0.49860220  0.22481340  0.06046564  1
  O  O22  1  0.47243504  0.75776402  0.68091300  1
  O  O23  1  0.97243504  0.24223598  0.31908700  1
  O  O24  1  0.93749379  0.47789464  0.66581425  1
  O  O25  1  0.43749379  0.52210536  0.33418575  1
  O  O26  1  0.57559855  0.47163539  0.83527553  1
  O  O27  1  0.07559855  0.52836461  0.16472447  1
  O  O28  1  0.56553113  0.25582576  0.60026276  1
  O  O29  1  0.06553113  0.74417424  0.39973724  1
  O  O30  1  0.91965384  0.23361005  0.77249693  1
  O  O31  1  0.41965384  0.76638995  0.22750307  1
