# generated using pymatgen
data_K2LaP2Se7
_symmetry_space_group_name_H-M   'P 1'
_cell_length_a   7.34274923
_cell_length_b   9.61446844
_cell_length_c   21.26896872
_cell_angle_alpha   96.48925798
_cell_angle_beta   90.00000000
_cell_angle_gamma   90.00000000
_symmetry_Int_Tables_number   1
_chemical_formula_structural   K2LaP2Se7
_chemical_formula_sum   'K8 La4 P8 Se28'
_cell_volume   1491.89740131
_cell_formula_units_Z   4
loop_
 _symmetry_equiv_pos_site_id
 _symmetry_equiv_pos_as_xyz
  1  'x, y, z'
loop_
 _atom_site_type_symbol
 _atom_site_label
 _atom_site_symmetry_multiplicity
 _atom_site_fract_x
 _atom_site_fract_y
 _atom_site_fract_z
 _atom_site_occupancy
  La  La0  1  0.52940425  0.19460209  0.85007075  1
  La  La1  1  0.02940425  0.30539791  0.64992925  1
  La  La2  1  0.47059575  0.80539791  0.14992925  1
  La  La3  1  0.97059575  0.69460209  0.35007075  1
  Se  Se4  1  0.54434516  0.28053876  0.00270236  1
  Se  Se5  1  0.04434516  0.21946124  0.49729764  1
  Se  Se6  1  0.45565484  0.71946124  0.99729764  1
  Se  Se7  1  0.95565484  0.78053876  0.50270236  1
  Se  Se8  1  0.22308432  0.40843514  0.89505714  1
  Se  Se9  1  0.72308432  0.09156486  0.60494286  1
  Se  Se10  1  0.77691568  0.59156486  0.10494286  1
  Se  Se11  1  0.27691568  0.90843514  0.39505714  1
  Se  Se12  1  0.91199733  0.19358320  0.78011332  1
  Se  Se13  1  0.41199733  0.30641680  0.71988668  1
  Se  Se14  1  0.08800267  0.80641680  0.21988668  1
  Se  Se15  1  0.58800267  0.69358320  0.28011332  1
  Se  Se16  1  0.53258474  0.95284176  0.74352489  1
  Se  Se17  1  0.03258474  0.54715824  0.75647511  1
  Se  Se18  1  0.46741526  0.04715824  0.25647511  1
  Se  Se19  1  0.96741526  0.45284176  0.24352489  1
  Se  Se20  1  0.73585772  0.94372382  0.90022487  1
  Se  Se21  1  0.23585772  0.55627618  0.59977513  1
  Se  Se22  1  0.26414228  0.05627618  0.09977513  1
  Se  Se23  1  0.76414228  0.44372382  0.40022487  1
  Se  Se24  1  0.25053133  0.98000494  0.90344053  1
  Se  Se25  1  0.75053133  0.51999506  0.59655947  1
  Se  Se26  1  0.74946867  0.01999506  0.09655947  1
  Se  Se27  1  0.24946867  0.48000494  0.40344053  1
  Se  Se28  1  0.74715376  0.47098309  0.89150749  1
  Se  Se29  1  0.24715376  0.02901691  0.60849251  1
  Se  Se30  1  0.25284624  0.52901691  0.10849251  1
  Se  Se31  1  0.75284624  0.97098309  0.39150749  1
  P  P32  1  0.98421957  0.40449717  0.83046007  1
  P  P33  1  0.48421957  0.09550283  0.66953993  1
  P  P34  1  0.01578043  0.59550283  0.16953993  1
  P  P35  1  0.51578043  0.90449717  0.33046007  1
  P  P36  1  0.51148083  0.08070984  0.04258550  1
  P  P37  1  0.01148083  0.41929016  0.45741450  1
  P  P38  1  0.48851917  0.91929016  0.95741450  1
  P  P39  1  0.98851917  0.58070984  0.54258550  1
  K  K40  1  0.98993185  0.74390709  0.99090941  1
  K  K41  1  0.48993185  0.75609291  0.50909059  1
  K  K42  1  0.01006815  0.25609291  0.00909059  1
  K  K43  1  0.51006815  0.24390709  0.49090941  1
  K  K44  1  0.45059227  0.65848647  0.81696395  1
  K  K45  1  0.95059227  0.84151353  0.68303605  1
  K  K46  1  0.54940773  0.34151353  0.18303605  1
  K  K47  1  0.04940773  0.15848647  0.31696395  1
