# generated using pymatgen
data_Rb4H6C2O9
_symmetry_space_group_name_H-M   'P 1'
_cell_length_a   7.59276509
_cell_length_b   9.42426481
_cell_length_c   9.42426509
_cell_angle_alpha   95.82496109
_cell_angle_beta   109.67505581
_cell_angle_gamma   109.67505725
_symmetry_Int_Tables_number   1
_chemical_formula_structural   Rb4H6C2O9
_chemical_formula_sum   'Rb8 H12 C4 O18'
_cell_volume   580.10143515
_cell_formula_units_Z   2
loop_
 _symmetry_equiv_pos_site_id
 _symmetry_equiv_pos_as_xyz
  1  'x, y, z'
loop_
 _atom_site_type_symbol
 _atom_site_label
 _atom_site_symmetry_multiplicity
 _atom_site_fract_x
 _atom_site_fract_y
 _atom_site_fract_z
 _atom_site_occupancy
  Rb  Rb0  1  0.95856719  0.99401021  0.71724222  1
  Rb  Rb1  1  0.54143281  0.28275778  0.00598979  1
  Rb  Rb2  1  0.04143281  0.00598979  0.28275778  1
  Rb  Rb3  1  0.45856719  0.71724222  0.99401021  1
  Rb  Rb4  1  0.75000000  0.31150008  0.68849992  1
  Rb  Rb5  1  0.25000000  0.68849992  0.31150008  1
  Rb  Rb6  1  0.75000000  0.61839810  0.38160190  1
  Rb  Rb7  1  0.25000000  0.38160190  0.61839810  1
  O  O8  1  0.64950443  0.89190008  0.32562642  1
  O  O9  1  0.85049557  0.67437358  0.10809992  1
  O  O10  1  0.35049557  0.10809992  0.67437358  1
  O  O11  1  0.14950443  0.32562642  0.89190008  1
  O  O12  1  0.83068453  0.14707303  0.44243554  1
  O  O13  1  0.66931547  0.55756446  0.85292697  1
  O  O14  1  0.16931547  0.85292697  0.55756446  1
  O  O15  1  0.33068453  0.44243554  0.14707303  1
  O  O16  1  0.48786923  0.05527758  0.31525710  1
  O  O17  1  0.01213077  0.68474290  0.94472242  1
  O  O18  1  0.51213077  0.94472242  0.68474290  1
  O  O19  1  0.98786923  0.31525710  0.05527758  1
  C  C20  1  0.65605598  0.03016919  0.36059937  1
  C  C21  1  0.84394402  0.63940063  0.96983081  1
  C  C22  1  0.34394402  0.96983081  0.63940063  1
  C  C23  1  0.15605598  0.36059937  0.03016919  1
  O  O24  1  0.42884197  0.31301883  0.39124657  1
  O  O25  1  0.07115803  0.60875343  0.68698117  1
  O  O26  1  0.57115803  0.68698117  0.60875343  1
  O  O27  1  0.92884197  0.39124657  0.31301883  1
  O  O28  1  0.25000000  0.98551097  0.01448903  1
  O  O29  1  0.75000000  0.01448903  0.98551097  1
  H  H30  1  0.46385732  0.22449585  0.35858968  1
  H  H31  1  0.03614268  0.64141032  0.77550415  1
  H  H32  1  0.53614268  0.77550415  0.64141032  1
  H  H33  1  0.96385732  0.35858968  0.22449585  1
  H  H34  1  0.37838077  0.35269420  0.29746613  1
  H  H35  1  0.12161923  0.70253387  0.64730580  1
  H  H36  1  0.62161923  0.64730580  0.70253387  1
  H  H37  1  0.87838077  0.29746613  0.35269420  1
  H  H38  1  0.34466449  0.00793858  0.12568575  1
  H  H39  1  0.15533551  0.87431425  0.99206142  1
  H  H40  1  0.65533551  0.99206142  0.87431425  1
  H  H41  1  0.84466449  0.12568575  0.00793858  1
