# generated using pymatgen
data_RbAlBP2HO9
_symmetry_space_group_name_H-M   'P 1'
_cell_length_a   8.53089642
_cell_length_b   9.37819715
_cell_length_c   9.50769095
_cell_angle_alpha   103.77221083
_cell_angle_beta   90.00000000
_cell_angle_gamma   90.00000000
_symmetry_Int_Tables_number   1
_chemical_formula_structural   RbAlBP2HO9
_chemical_formula_sum   'Rb4 Al4 B4 P8 H4 O36'
_cell_volume   738.78837241
_cell_formula_units_Z   4
loop_
 _symmetry_equiv_pos_site_id
 _symmetry_equiv_pos_as_xyz
  1  'x, y, z'
loop_
 _atom_site_type_symbol
 _atom_site_label
 _atom_site_symmetry_multiplicity
 _atom_site_fract_x
 _atom_site_fract_y
 _atom_site_fract_z
 _atom_site_occupancy
  Rb  Rb0  1  0.60815420  0.69079502  0.56063874  1
  Rb  Rb1  1  0.10815420  0.30920498  0.93936126  1
  Rb  Rb2  1  0.39184580  0.30920498  0.43936126  1
  Rb  Rb3  1  0.89184580  0.69079502  0.06063874  1
  P  P4  1  0.06561403  0.57175201  0.70556345  1
  P  P5  1  0.56561403  0.42824799  0.79443655  1
  P  P6  1  0.93438597  0.42824799  0.29443655  1
  P  P7  1  0.43438597  0.57175201  0.20556345  1
  P  P8  1  0.26409738  0.91337091  0.72181769  1
  P  P9  1  0.76409738  0.08662909  0.77818231  1
  P  P10  1  0.73590262  0.08662909  0.27818231  1
  P  P11  1  0.23590262  0.91337091  0.22181769  1
  Al  Al12  1  0.15392332  0.70031456  0.43137810  1
  Al  Al13  1  0.65392332  0.29968544  0.06862190  1
  Al  Al14  1  0.84607668  0.29968544  0.56862190  1
  Al  Al15  1  0.34607668  0.70031456  0.93137810  1
  B  B16  1  0.95048384  0.83637824  0.69878807  1
  B  B17  1  0.45048384  0.16362176  0.80121193  1
  B  B18  1  0.04951616  0.16362176  0.30121193  1
  B  B19  1  0.54951616  0.83637824  0.19878807  1
  O  O20  1  0.93071860  0.69346086  0.73456010  1
  O  O21  1  0.43071860  0.30653914  0.76543990  1
  O  O22  1  0.06928140  0.30653914  0.26543990  1
  O  O23  1  0.56928140  0.69346086  0.23456010  1
  O  O24  1  0.30637198  0.08125257  0.75252733  1
  O  O25  1  0.80637198  0.91874743  0.74747267  1
  O  O26  1  0.69362802  0.91874743  0.24747267  1
  O  O27  1  0.19362802  0.08125257  0.25252733  1
  O  O28  1  0.28075873  0.84371288  0.56054408  1
  O  O29  1  0.78075873  0.15628712  0.93945592  1
  O  O30  1  0.71924127  0.15628712  0.43945592  1
  O  O31  1  0.21924127  0.84371288  0.06054408  1
  O  O32  1  0.01385164  0.57662513  0.30539580  1
  O  O33  1  0.51385164  0.42337487  0.19460420  1
  O  O34  1  0.98614836  0.42337487  0.69460420  1
  O  O35  1  0.48614836  0.57662513  0.80539580  1
  O  O36  1  0.08797909  0.91839511  0.77051650  1
  O  O37  1  0.58797909  0.08160489  0.72948350  1
  O  O38  1  0.91202091  0.08160489  0.22948350  1
  O  O39  1  0.41202091  0.91839511  0.27051650  1
  O  O40  1  0.33052831  0.60191851  0.34166692  1
  O  O41  1  0.83052831  0.39808149  0.15833308  1
  O  O42  1  0.66947169  0.39808149  0.65833308  1
  O  O43  1  0.16947169  0.60191851  0.84166692  1
  O  O44  1  0.36773843  0.83969280  0.81500664  1
  O  O45  1  0.86773843  0.16030720  0.68499336  1
  O  O46  1  0.63226157  0.16030720  0.18499336  1
  O  O47  1  0.13226157  0.83969280  0.31500664  1
  O  O48  1  0.15529422  0.58209449  0.56847317  1
  O  O49  1  0.65529422  0.41790551  0.93152683  1
  O  O50  1  0.84470578  0.41790551  0.43152683  1
  O  O51  1  0.34470578  0.58209449  0.06847317  1
  O  O52  1  0.96380734  0.80521454  0.53682830  1
  O  O53  1  0.46380734  0.19478546  0.96317170  1
  O  O54  1  0.03619266  0.19478546  0.46317170  1
  O  O55  1  0.53619266  0.80521454  0.03682830  1
  H  H56  1  0.93428020  0.88771576  0.49678101  1
  H  H57  1  0.43428020  0.11228424  0.00321899  1
  H  H58  1  0.06571980  0.11228424  0.50321899  1
  H  H59  1  0.56571980  0.88771576  0.99678101  1
