# generated using pymatgen
data_FeNiPO5
_symmetry_space_group_name_H-M   'P 1'
_cell_length_a   6.47320643
_cell_length_b   7.32948295
_cell_length_c   7.53063085
_cell_angle_alpha   90.00000000
_cell_angle_beta   90.00000000
_cell_angle_gamma   90.00000000
_symmetry_Int_Tables_number   1
_chemical_formula_structural   FeNiPO5
_chemical_formula_sum   'Fe4 Ni4 P4 O20'
_cell_volume   357.29270973
_cell_formula_units_Z   4
loop_
 _symmetry_equiv_pos_site_id
 _symmetry_equiv_pos_as_xyz
  1  'x, y, z'
loop_
 _atom_site_type_symbol
 _atom_site_label
 _atom_site_symmetry_multiplicity
 _atom_site_fract_x
 _atom_site_fract_y
 _atom_site_fract_z
 _atom_site_occupancy
  Ni  Ni0  1  0.00000000  0.00000000  0.00000000  1
  Ni  Ni1  1  0.50000000  0.00000000  0.00000000  1
  Ni  Ni2  1  0.50000000  0.50000000  0.50000000  1
  Ni  Ni3  1  0.00000000  0.50000000  0.50000000  1
  Fe  Fe4  1  0.75000000  0.85361794  0.28708604  1
  Fe  Fe5  1  0.25000000  0.14638206  0.71291396  1
  Fe  Fe6  1  0.75000000  0.35361794  0.21291396  1
  Fe  Fe7  1  0.25000000  0.64638206  0.78708604  1
  P  P8  1  0.75000000  0.62618663  0.86219499  1
  P  P9  1  0.25000000  0.37381337  0.13780501  1
  P  P10  1  0.75000000  0.12618663  0.63780501  1
  P  P11  1  0.25000000  0.87381337  0.36219499  1
  O  O12  1  0.75000000  0.59868411  0.35600414  1
  O  O13  1  0.25000000  0.40131589  0.64399586  1
  O  O14  1  0.75000000  0.09868411  0.14399586  1
  O  O15  1  0.25000000  0.90131589  0.85600414  1
  O  O16  1  0.75000000  0.80153532  0.98106041  1
  O  O17  1  0.25000000  0.19846468  0.01893959  1
  O  O18  1  0.75000000  0.30153532  0.51893959  1
  O  O19  1  0.25000000  0.69846468  0.48106041  1
  O  O20  1  0.75000000  0.95431889  0.52339943  1
  O  O21  1  0.25000000  0.04568111  0.47660057  1
  O  O22  1  0.75000000  0.45431889  0.97660057  1
  O  O23  1  0.25000000  0.54568111  0.02339943  1
  O  O24  1  0.94205925  0.63110077  0.73909058  1
  O  O25  1  0.44205925  0.36889923  0.26090942  1
  O  O26  1  0.55794075  0.13110077  0.76090942  1
  O  O27  1  0.05794075  0.86889923  0.23909058  1
  O  O28  1  0.05794075  0.36889923  0.26090942  1
  O  O29  1  0.55794075  0.63110077  0.73909058  1
  O  O30  1  0.44205925  0.86889923  0.23909058  1
  O  O31  1  0.94205925  0.13110077  0.76090942  1
