# generated using pymatgen
data_Ca3Si2Ni3
_symmetry_space_group_name_H-M   'P 1'
_cell_length_a   3.94101952
_cell_length_b   9.24304222
_cell_length_c   18.05014356
_cell_angle_alpha   90.00000000
_cell_angle_beta   90.00000000
_cell_angle_gamma   90.00000000
_symmetry_Int_Tables_number   1
_chemical_formula_structural   Ca3Si2Ni3
_chemical_formula_sum   'Ca12 Si8 Ni12'
_cell_volume   657.51275659
_cell_formula_units_Z   4
loop_
 _symmetry_equiv_pos_site_id
 _symmetry_equiv_pos_as_xyz
  1  'x, y, z'
loop_
 _atom_site_type_symbol
 _atom_site_label
 _atom_site_symmetry_multiplicity
 _atom_site_fract_x
 _atom_site_fract_y
 _atom_site_fract_z
 _atom_site_occupancy
  Ni  Ni0  1  0.75000000  0.55591649  0.80841885  1
  Ni  Ni1  1  0.25000000  0.44408351  0.19158115  1
  Ni  Ni2  1  0.75000000  0.05591649  0.69158115  1
  Ni  Ni3  1  0.25000000  0.94408351  0.30841885  1
  Ni  Ni4  1  0.75000000  0.69185837  0.69126680  1
  Ni  Ni5  1  0.25000000  0.30814163  0.30873320  1
  Ni  Ni6  1  0.75000000  0.19185837  0.80873320  1
  Ni  Ni7  1  0.25000000  0.80814163  0.19126680  1
  Ni  Ni8  1  0.75000000  0.12658108  0.31454503  1
  Ni  Ni9  1  0.25000000  0.87341892  0.68545497  1
  Ni  Ni10  1  0.75000000  0.62658108  0.18545497  1
  Ni  Ni11  1  0.25000000  0.37341892  0.81454503  1
  Ca  Ca12  1  0.75000000  0.89219708  0.43061469  1
  Ca  Ca13  1  0.25000000  0.10780292  0.56938531  1
  Ca  Ca14  1  0.75000000  0.39219708  0.06938531  1
  Ca  Ca15  1  0.25000000  0.60780292  0.93061469  1
  Ca  Ca16  1  0.75000000  0.85768904  0.06735510  1
  Ca  Ca17  1  0.25000000  0.14231096  0.93264490  1
  Ca  Ca18  1  0.75000000  0.35768904  0.43264490  1
  Ca  Ca19  1  0.25000000  0.64231096  0.56735510  1
  Ca  Ca20  1  0.75000000  0.87470799  0.81771884  1
  Ca  Ca21  1  0.25000000  0.12529201  0.18228116  1
  Ca  Ca22  1  0.75000000  0.37470799  0.68228116  1
  Ca  Ca23  1  0.25000000  0.62529201  0.31771884  1
  Si  Si24  1  0.75000000  0.87638272  0.24969339  1
  Si  Si25  1  0.25000000  0.12361728  0.75030661  1
  Si  Si26  1  0.75000000  0.37638272  0.25030661  1
  Si  Si27  1  0.25000000  0.62361728  0.74969339  1
  Si  Si28  1  0.75000000  0.37405837  0.89279199  1
  Si  Si29  1  0.25000000  0.62594163  0.10720801  1
  Si  Si30  1  0.75000000  0.87405837  0.60720801  1
  Si  Si31  1  0.25000000  0.12594163  0.39279199  1
