# generated using pymatgen
data_Sb2N5F11
_symmetry_space_group_name_H-M   'P 1'
_cell_length_a   8.54355159
_cell_length_b   8.54355119
_cell_length_c   17.11307915
_cell_angle_alpha   99.48708286
_cell_angle_beta   99.48708241
_cell_angle_gamma   98.16241449
_symmetry_Int_Tables_number   1
_chemical_formula_structural   Sb2N5F11
_chemical_formula_sum   'Sb8 N20 F44'
_cell_volume   1196.67802758
_cell_formula_units_Z   4
loop_
 _symmetry_equiv_pos_site_id
 _symmetry_equiv_pos_as_xyz
  1  'x, y, z'
loop_
 _atom_site_type_symbol
 _atom_site_label
 _atom_site_symmetry_multiplicity
 _atom_site_fract_x
 _atom_site_fract_y
 _atom_site_fract_z
 _atom_site_occupancy
  Sb  Sb0  1  0.23969773  0.29446155  0.40323747  1
  Sb  Sb1  1  0.70553845  0.76030227  0.09676253  1
  Sb  Sb2  1  0.76030227  0.70553845  0.59676253  1
  Sb  Sb3  1  0.29446155  0.23969773  0.90323747  1
  Sb  Sb4  1  0.64308293  0.11099846  0.37995405  1
  Sb  Sb5  1  0.88900154  0.35691707  0.12004595  1
  Sb  Sb6  1  0.35691707  0.88900154  0.62004595  1
  Sb  Sb7  1  0.11099846  0.64308293  0.87995405  1
  F  F8  1  0.35227642  0.46108448  0.36179522  1
  F  F9  1  0.53891552  0.64772358  0.13820478  1
  F  F10  1  0.64772358  0.53891552  0.63820478  1
  F  F11  1  0.46108448  0.35227642  0.86179522  1
  F  F12  1  0.19807788  0.16030338  0.29838636  1
  F  F13  1  0.83969662  0.80192212  0.20161364  1
  F  F14  1  0.80192212  0.83969662  0.70161364  1
  F  F15  1  0.16030338  0.19807788  0.79838636  1
  F  F16  1  0.15655493  0.11216806  0.44437320  1
  F  F17  1  0.88783194  0.84344507  0.05562680  1
  F  F18  1  0.84344507  0.88783194  0.55562680  1
  F  F19  1  0.11216806  0.15655493  0.94437320  1
  F  F20  1  0.31592158  0.40930950  0.51109636  1
  F  F21  1  0.59069050  0.68407842  0.98890364  1
  F  F22  1  0.68407842  0.59069050  0.48890364  1
  F  F23  1  0.40930950  0.31592158  0.01109636  1
  F  F24  1  0.04551568  0.37663293  0.39012229  1
  F  F25  1  0.62336707  0.95448432  0.10987771  1
  F  F26  1  0.95448432  0.62336707  0.60987771  1
  F  F27  1  0.37663293  0.04551568  0.89012229  1
  F  F28  1  0.45622679  0.20819672  0.41998322  1
  F  F29  1  0.79180328  0.54377321  0.08001678  1
  F  F30  1  0.54377321  0.79180328  0.58001678  1
  F  F31  1  0.20819672  0.45622679  0.91998322  1
  F  F32  1  0.69598571  0.30760349  0.34431758  1
  F  F33  1  0.69239651  0.30401429  0.15568242  1
  F  F34  1  0.30401429  0.69239651  0.65568242  1
  F  F35  1  0.30760349  0.69598571  0.84431758  1
  F  F36  1  0.49912597  0.03322237  0.27797922  1
  F  F37  1  0.96677763  0.50087403  0.22202078  1
  F  F38  1  0.50087403  0.96677763  0.72202078  1
  F  F39  1  0.03322237  0.49912597  0.77797922  1
  F  F40  1  0.55656801  0.92299041  0.41510201  1
  F  F41  1  0.07700959  0.44343199  0.08489799  1
  F  F42  1  0.44343199  0.07700959  0.58489799  1
  F  F43  1  0.92299041  0.55656801  0.91510201  1
  F  F44  1  0.76120710  0.20407353  0.48564050  1
  F  F45  1  0.79592647  0.23879290  0.01435950  1
  F  F46  1  0.23879290  0.79592647  0.51435950  1
  F  F47  1  0.20407353  0.76120710  0.98564050  1
  F  F48  1  0.81409479  0.01561241  0.34647134  1
  F  F49  1  0.98438759  0.18590521  0.15352866  1
  F  F50  1  0.18590521  0.98438759  0.65352866  1
  F  F51  1  0.01561241  0.81409479  0.84647134  1
  N  N52  1  0.21059429  0.83779643  0.15845838  1
  N  N53  1  0.16220357  0.78940571  0.34154162  1
  N  N54  1  0.78940571  0.16220357  0.84154162  1
  N  N55  1  0.83779643  0.21059429  0.65845838  1
  N  N56  1  0.25370092  0.95826884  0.14345552  1
  N  N57  1  0.04173116  0.74629908  0.35654448  1
  N  N58  1  0.74629908  0.04173116  0.85654448  1
  N  N59  1  0.95826884  0.25370092  0.64345552  1
  N  N60  1  0.29869591  0.07513728  0.10922419  1
  N  N61  1  0.92486272  0.70130409  0.39077581  1
  N  N62  1  0.70130409  0.92486272  0.89077581  1
  N  N63  1  0.07513728  0.29869591  0.60922419  1
  N  N64  1  0.33853403  0.21357280  0.15661443  1
  N  N65  1  0.78642720  0.66146597  0.34338557  1
  N  N66  1  0.66146597  0.78642720  0.84338557  1
  N  N67  1  0.21357280  0.33853403  0.65661443  1
  N  N68  1  0.37829587  0.34533144  0.18448913  1
  N  N69  1  0.65466856  0.62170413  0.31551087  1
  N  N70  1  0.62170413  0.65466856  0.81551087  1
  N  N71  1  0.34533144  0.37829587  0.68448913  1
