# generated using pymatgen
data_KMg30SbO32
_symmetry_space_group_name_H-M   'P 1'
_cell_length_a   8.63699221
_cell_length_b   8.63699221
_cell_length_c   8.69195686
_cell_angle_alpha   90.00000000
_cell_angle_beta   90.00000000
_cell_angle_gamma   90.00000000
_symmetry_Int_Tables_number   1
_chemical_formula_structural   KMg30SbO32
_chemical_formula_sum   'K1 Mg30 Sb1 O32'
_cell_volume   648.39942037
_cell_formula_units_Z   1
loop_
 _symmetry_equiv_pos_site_id
 _symmetry_equiv_pos_as_xyz
  1  'x, y, z'
loop_
 _atom_site_type_symbol
 _atom_site_label
 _atom_site_symmetry_multiplicity
 _atom_site_fract_x
 _atom_site_fract_y
 _atom_site_fract_z
 _atom_site_occupancy
  K  K0  1  0.00000000  -0.00000000  -0.00000000  1
  Mg  Mg1  1  0.00000000  0.50000000  -0.00000000  1
  Mg  Mg2  1  0.00000000  0.50000000  0.50000000  1
  Mg  Mg3  1  0.50000000  -0.00000000  -0.00000000  1
  Mg  Mg4  1  0.50000000  -0.00000000  0.50000000  1
  Mg  Mg5  1  0.50000000  0.50000000  -0.00000000  1
  Mg  Mg6  1  0.50000000  0.50000000  0.50000000  1
  Mg  Mg7  1  0.00000000  0.25772471  0.24425709  1
  Mg  Mg8  1  0.00000000  0.25772471  0.75574291  1
  Mg  Mg9  1  0.00000000  0.74227529  0.24425709  1
  Mg  Mg10  1  0.00000000  0.74227529  0.75574291  1
  Mg  Mg11  1  0.50000000  0.25067186  0.24860196  1
  Mg  Mg12  1  0.50000000  0.25067186  0.75139804  1
  Mg  Mg13  1  0.50000000  0.74932814  0.24860196  1
  Mg  Mg14  1  0.50000000  0.74932814  0.75139804  1
  Mg  Mg15  1  0.25772471  -0.00000000  0.24425709  1
  Mg  Mg16  1  0.25772471  -0.00000000  0.75574291  1
  Mg  Mg17  1  0.25067186  0.50000000  0.24860196  1
  Mg  Mg18  1  0.25067186  0.50000000  0.75139804  1
  Mg  Mg19  1  0.74227529  -0.00000000  0.24425709  1
  Mg  Mg20  1  0.74227529  -0.00000000  0.75574291  1
  Mg  Mg21  1  0.74932814  0.50000000  0.24860196  1
  Mg  Mg22  1  0.74932814  0.50000000  0.75139804  1
  Mg  Mg23  1  0.25193083  0.25193083  0.00000000  1
  Mg  Mg24  1  0.25552248  0.25552248  0.50000000  1
  Mg  Mg25  1  0.25193083  0.74806917  -0.00000000  1
  Mg  Mg26  1  0.25552248  0.74447752  0.50000000  1
  Mg  Mg27  1  0.74806917  0.25193083  0.00000000  1
  Mg  Mg28  1  0.74447752  0.25552248  0.50000000  1
  Mg  Mg29  1  0.74806917  0.74806917  -0.00000000  1
  Mg  Mg30  1  0.74447752  0.74447752  0.50000000  1
  Sb  Sb31  1  0.00000000  -0.00000000  0.50000000  1
  O  O32  1  0.27420904  -0.00000000  -0.00000000  1
  O  O33  1  0.26492043  -0.00000000  0.50000000  1
  O  O34  1  0.25452838  0.50000000  0.00000000  1
  O  O35  1  0.25262172  0.50000000  0.50000000  1
  O  O36  1  0.72579096  -0.00000000  0.00000000  1
  O  O37  1  0.73507957  -0.00000000  0.50000000  1
  O  O38  1  0.74547162  0.50000000  -0.00000000  1
  O  O39  1  0.74737828  0.50000000  0.50000000  1
  O  O40  1  0.24911245  0.24911245  0.25063969  1
  O  O41  1  0.24911245  0.24911245  0.74936031  1
  O  O42  1  0.24911245  0.75088755  0.25063969  1
  O  O43  1  0.24911245  0.75088755  0.74936031  1
  O  O44  1  0.75088755  0.24911245  0.25063969  1
  O  O45  1  0.75088755  0.24911245  0.74936031  1
  O  O46  1  0.75088755  0.75088755  0.25063969  1
  O  O47  1  0.75088755  0.75088755  0.74936031  1
  O  O48  1  0.00000000  -0.00000000  0.25834637  1
  O  O49  1  0.00000000  -0.00000000  0.74165363  1
  O  O50  1  0.00000000  0.50000000  0.25320711  1
  O  O51  1  0.00000000  0.50000000  0.74679289  1
  O  O52  1  0.50000000  -0.00000000  0.25320711  1
  O  O53  1  0.50000000  -0.00000000  0.74679289  1
  O  O54  1  0.50000000  0.50000000  0.25126998  1
  O  O55  1  0.50000000  0.50000000  0.74873002  1
  O  O56  1  0.00000000  0.27420904  -0.00000000  1
  O  O57  1  0.00000000  0.26492043  0.50000000  1
  O  O58  1  0.00000000  0.72579096  0.00000000  1
  O  O59  1  0.00000000  0.73507957  0.50000000  1
  O  O60  1  0.50000000  0.25452838  0.00000000  1
  O  O61  1  0.50000000  0.25262172  0.50000000  1
  O  O62  1  0.50000000  0.74547162  -0.00000000  1
  O  O63  1  0.50000000  0.74737828  0.50000000  1
