# generated using pymatgen
data_Mo3Pd2N
_symmetry_space_group_name_H-M   'P 1'
_cell_length_a   6.87822705
_cell_length_b   6.87822705
_cell_length_c   6.87822705
_cell_angle_alpha   90.00000000
_cell_angle_beta   90.00000000
_cell_angle_gamma   90.00000000
_symmetry_Int_Tables_number   1
_chemical_formula_structural   Mo3Pd2N
_chemical_formula_sum   'Mo12 Pd8 N4'
_cell_volume   325.40897230
_cell_formula_units_Z   4
loop_
 _symmetry_equiv_pos_site_id
 _symmetry_equiv_pos_as_xyz
  1  'x, y, z'
loop_
 _atom_site_type_symbol
 _atom_site_label
 _atom_site_symmetry_multiplicity
 _atom_site_fract_x
 _atom_site_fract_y
 _atom_site_fract_z
 _atom_site_occupancy
  Pd  Pd0  1  0.18930754  0.18930754  0.18930754  1
  Pd  Pd1  1  0.43930754  0.06069246  0.93930754  1
  Pd  Pd2  1  0.93930754  0.43930754  0.06069246  1
  Pd  Pd3  1  0.06069246  0.93930754  0.43930754  1
  Pd  Pd4  1  0.31069246  0.81069246  0.68930754  1
  Pd  Pd5  1  0.68930754  0.31069246  0.81069246  1
  Pd  Pd6  1  0.81069246  0.68930754  0.31069246  1
  Pd  Pd7  1  0.56069246  0.56069246  0.56069246  1
  Mo  Mo8  1  0.79734954  0.04734954  0.12500000  1
  Mo  Mo9  1  0.04734954  0.12500000  0.79734954  1
  Mo  Mo10  1  0.54734954  0.37500000  0.20265046  1
  Mo  Mo11  1  0.87500000  0.29734954  0.45265046  1
  Mo  Mo12  1  0.12500000  0.79734954  0.04734954  1
  Mo  Mo13  1  0.20265046  0.54734954  0.37500000  1
  Mo  Mo14  1  0.29734954  0.45265046  0.87500000  1
  Mo  Mo15  1  0.45265046  0.87500000  0.29734954  1
  Mo  Mo16  1  0.62500000  0.70265046  0.95265046  1
  Mo  Mo17  1  0.95265046  0.62500000  0.70265046  1
  Mo  Mo18  1  0.37500000  0.20265046  0.54734954  1
  Mo  Mo19  1  0.70265046  0.95265046  0.62500000  1
  N  N20  1  0.87500000  0.87500000  0.87500000  1
  N  N21  1  0.12500000  0.37500000  0.62500000  1
  N  N22  1  0.62500000  0.12500000  0.37500000  1
  N  N23  1  0.37500000  0.62500000  0.12500000  1
