# generated using pymatgen
data_Cd3Se3O10
_symmetry_space_group_name_H-M   'P 1'
_cell_length_a   5.45225897
_cell_length_b   8.57696753
_cell_length_c   10.98533597
_cell_angle_alpha   108.41863770
_cell_angle_beta   90.00000000
_cell_angle_gamma   90.00000000
_symmetry_Int_Tables_number   1
_chemical_formula_structural   Cd3Se3O10
_chemical_formula_sum   'Cd6 Se6 O20'
_cell_volume   487.40056969
_cell_formula_units_Z   2
loop_
 _symmetry_equiv_pos_site_id
 _symmetry_equiv_pos_as_xyz
  1  'x, y, z'
loop_
 _atom_site_type_symbol
 _atom_site_label
 _atom_site_symmetry_multiplicity
 _atom_site_fract_x
 _atom_site_fract_y
 _atom_site_fract_z
 _atom_site_occupancy
  Cd  Cd0  1  0.74914867  0.00891542  0.87493923  1
  Cd  Cd1  1  0.24914867  0.99108458  0.12506077  1
  Cd  Cd2  1  0.73927020  0.02449016  0.38382603  1
  Cd  Cd3  1  0.23927020  0.97550984  0.61617397  1
  Cd  Cd4  1  0.26455773  0.63298215  0.79614341  1
  Cd  Cd5  1  0.76455773  0.36701785  0.20385659  1
  Se  Se6  1  0.77569050  0.74835876  0.04455489  1
  Se  Se7  1  0.27569050  0.25164124  0.95544511  1
  Se  Se8  1  0.71419033  0.73543609  0.57460253  1
  Se  Se9  1  0.21419033  0.26456391  0.42539747  1
  Se  Se10  1  0.75308905  0.34960940  0.71653918  1
  Se  Se11  1  0.25308905  0.65039060  0.28346082  1
  O  O12  1  0.87126525  0.90605618  0.17816475  1
  O  O13  1  0.37126525  0.09394382  0.82183525  1
  O  O14  1  0.60513973  0.88599784  0.51299932  1
  O  O15  1  0.10513973  0.11400216  0.48700068  1
  O  O16  1  0.92658037  0.84788748  0.68930343  1
  O  O17  1  0.42658037  0.15211252  0.31069657  1
  O  O18  1  0.54621881  0.84525484  0.98118661  1
  O  O19  1  0.04621881  0.15474516  0.01881339  1
  O  O20  1  0.01541415  0.77758494  0.94916229  1
  O  O21  1  0.51541415  0.22241506  0.05083771  1
  O  O22  1  0.46193804  0.75025557  0.67319115  1
  O  O23  1  0.96193804  0.24974443  0.32680885  1
  O  O24  1  0.95674941  0.47387614  0.67663947  1
  O  O25  1  0.45674941  0.52612386  0.32336053  1
  O  O26  1  0.56085167  0.46615950  0.83162933  1
  O  O27  1  0.06085167  0.53384050  0.16837067  1
  O  O28  1  0.58876000  0.25064738  0.58766257  1
  O  O29  1  0.08876000  0.74935262  0.41233743  1
  O  O30  1  0.90303608  0.22277513  0.77921086  1
  O  O31  1  0.40303608  0.77722487  0.22078914  1
