# generated using pymatgen
data_Ta2Tl4Se11
_symmetry_space_group_name_H-M   'P 1'
_cell_length_a   8.28480989
_cell_length_b   9.40097024
_cell_length_c   14.12693356
_cell_angle_alpha   72.83970541
_cell_angle_beta   89.21686086
_cell_angle_gamma   85.68972591
_symmetry_Int_Tables_number   1
_chemical_formula_structural   Ta2Tl4Se11
_chemical_formula_sum   'Ta4 Tl8 Se22'
_cell_volume   1048.28347160
_cell_formula_units_Z   2
loop_
 _symmetry_equiv_pos_site_id
 _symmetry_equiv_pos_as_xyz
  1  'x, y, z'
loop_
 _atom_site_type_symbol
 _atom_site_label
 _atom_site_symmetry_multiplicity
 _atom_site_fract_x
 _atom_site_fract_y
 _atom_site_fract_z
 _atom_site_occupancy
  Tl  Tl0  1  0.04697138  0.76307704  0.98126268  1
  Tl  Tl1  1  0.95302862  0.23692296  0.01873732  1
  Tl  Tl2  1  0.21019828  0.97643921  0.57407063  1
  Tl  Tl3  1  0.78980172  0.02356079  0.42592937  1
  Tl  Tl4  1  0.50572185  0.27101284  0.89010034  1
  Tl  Tl5  1  0.49427815  0.72898716  0.10989966  1
  Tl  Tl6  1  0.23326003  0.41665313  0.58089249  1
  Tl  Tl7  1  0.76673997  0.58334687  0.41910751  1
  Ta  Ta8  1  0.33592167  0.11168010  0.18824597  1
  Ta  Ta9  1  0.66407833  0.88831990  0.81175403  1
  Ta  Ta10  1  0.12489117  0.36485677  0.30395952  1
  Ta  Ta11  1  0.87510883  0.63514323  0.69604048  1
  Se  Se12  1  0.27258587  0.03820854  0.04114820  1
  Se  Se13  1  0.72741413  0.96179146  0.95885180  1
  Se  Se14  1  0.46164774  0.68888080  0.88183419  1
  Se  Se15  1  0.53835226  0.31111920  0.11816581  1
  Se  Se16  1  0.25894250  0.40203786  0.11223887  1
  Se  Se17  1  0.74105750  0.59796214  0.88776113  1
  Se  Se18  1  0.03391788  0.13250946  0.24957340  1
  Se  Se19  1  0.96608212  0.86749054  0.75042660  1
  Se  Se20  1  0.40487135  0.07294734  0.75242374  1
  Se  Se21  1  0.59512865  0.92705266  0.24757626  1
  Se  Se22  1  0.34523523  0.86489244  0.33157848  1
  Se  Se23  1  0.65476477  0.13510756  0.66842152  1
  Se  Se24  1  0.39582100  0.44110375  0.35254929  1
  Se  Se25  1  0.60417900  0.55889625  0.64745071  1
  Se  Se26  1  0.11051328  0.49865819  0.81525052  1
  Se  Se27  1  0.88948672  0.50134181  0.18474948  1
  Se  Se28  1  0.05313757  0.65188157  0.25021273  1
  Se  Se29  1  0.94686243  0.34811843  0.74978727  1
  Se  Se30  1  0.38717929  0.17866583  0.37023100  1
  Se  Se31  1  0.61282071  0.82133417  0.62976900  1
  Se  Se32  1  0.01583888  0.71168768  0.53557810  1
  Se  Se33  1  0.98416112  0.28831232  0.46442190  1
