# generated using pymatgen
data_CsAlBP2HO9
_symmetry_space_group_name_H-M   'P 1'
_cell_length_a   8.81671668
_cell_length_b   9.36154603
_cell_length_c   9.59614083
_cell_angle_alpha   104.56745295
_cell_angle_beta   90.00000000
_cell_angle_gamma   90.00000000
_symmetry_Int_Tables_number   1
_chemical_formula_structural   CsAlBP2HO9
_chemical_formula_sum   'Cs4 Al4 B4 P8 H4 O36'
_cell_volume   766.58464848
_cell_formula_units_Z   4
loop_
 _symmetry_equiv_pos_site_id
 _symmetry_equiv_pos_as_xyz
  1  'x, y, z'
loop_
 _atom_site_type_symbol
 _atom_site_label
 _atom_site_symmetry_multiplicity
 _atom_site_fract_x
 _atom_site_fract_y
 _atom_site_fract_z
 _atom_site_occupancy
  Cs  Cs0  1  0.61774233  0.69541225  0.55653940  1
  Cs  Cs1  1  0.11774233  0.30458775  0.94346060  1
  Cs  Cs2  1  0.38225767  0.30458775  0.44346060  1
  Cs  Cs3  1  0.88225767  0.69541225  0.05653940  1
  P  P4  1  0.07389532  0.57154277  0.70058391  1
  P  P5  1  0.57389532  0.42845723  0.79941609  1
  P  P6  1  0.92610468  0.42845723  0.29941609  1
  P  P7  1  0.42610468  0.57154277  0.20058391  1
  P  P8  1  0.77225147  0.08902700  0.78264034  1
  P  P9  1  0.27225147  0.91097300  0.71735966  1
  P  P10  1  0.22774853  0.91097300  0.21735966  1
  P  P11  1  0.72774853  0.08902700  0.28264034  1
  Al  Al12  1  0.15350396  0.69710271  0.42767255  1
  Al  Al13  1  0.65350396  0.30289729  0.07232745  1
  Al  Al14  1  0.84649604  0.30289729  0.57232745  1
  Al  Al15  1  0.34649604  0.69710271  0.92767255  1
  B  B16  1  0.96681501  0.84368240  0.70131902  1
  B  B17  1  0.46681501  0.15631760  0.79868098  1
  B  B18  1  0.03318499  0.15631760  0.29868098  1
  B  B19  1  0.53318499  0.84368240  0.20131902  1
  O  O20  1  0.95114356  0.70072628  0.73635323  1
  O  O21  1  0.45114356  0.29927372  0.76364677  1
  O  O22  1  0.04885644  0.29927372  0.26364677  1
  O  O23  1  0.54885644  0.70072628  0.23635323  1
  O  O24  1  0.10177129  0.92908508  0.76789569  1
  O  O25  1  0.60177129  0.07091492  0.73210431  1
  O  O26  1  0.89822871  0.07091492  0.23210431  1
  O  O27  1  0.39822871  0.92908508  0.26789569  1
  O  O28  1  0.18135957  0.59497671  0.83035051  1
  O  O29  1  0.68135957  0.40502329  0.66964949  1
  O  O30  1  0.81864043  0.40502329  0.16964949  1
  O  O31  1  0.31864043  0.59497671  0.33035051  1
  O  O32  1  0.82757809  0.92485278  0.75586132  1
  O  O33  1  0.32757809  0.07514722  0.74413868  1
  O  O34  1  0.17242191  0.07514722  0.24413868  1
  O  O35  1  0.67242191  0.92485278  0.25586132  1
  O  O36  1  0.78208599  0.16302576  0.94310899  1
  O  O37  1  0.28208599  0.83697424  0.55689101  1
  O  O38  1  0.21791401  0.83697424  0.05689101  1
  O  O39  1  0.71791401  0.16302576  0.44310899  1
  O  O40  1  0.86645774  0.16533949  0.68852631  1
  O  O41  1  0.36645774  0.83466051  0.81147369  1
  O  O42  1  0.13354226  0.83466051  0.31147369  1
  O  O43  1  0.63354226  0.16533949  0.18852631  1
  O  O44  1  0.98996396  0.42624089  0.69056511  1
  O  O45  1  0.48996396  0.57375911  0.80943489  1
  O  O46  1  0.01003604  0.57375911  0.30943489  1
  O  O47  1  0.51003604  0.42624089  0.19056511  1
  O  O48  1  0.15574198  0.57832617  0.56137171  1
  O  O49  1  0.65574198  0.42167383  0.93862829  1
  O  O50  1  0.84425802  0.42167383  0.43862829  1
  O  O51  1  0.34425802  0.57832617  0.06137171  1
  O  O52  1  0.97468025  0.81108962  0.53994021  1
  O  O53  1  0.47468025  0.18891038  0.96005979  1
  O  O54  1  0.02531975  0.18891038  0.46005979  1
  O  O55  1  0.52531975  0.81108962  0.03994021  1
  H  H56  1  0.94504389  0.89423070  0.50230109  1
  H  H57  1  0.44504389  0.10576930  0.99769891  1
  H  H58  1  0.05495611  0.10576930  0.49769891  1
  H  H59  1  0.55495611  0.89423070  0.00230109  1
