# generated using pymatgen
data_Rb4Nb2Si8O23
_symmetry_space_group_name_H-M   'P 1'
_cell_length_a   7.00142318
_cell_length_b   7.93049889
_cell_length_c   11.18867346
_cell_angle_alpha   76.35257653
_cell_angle_beta   89.16897764
_cell_angle_gamma   71.57357835
_symmetry_Int_Tables_number   1
_chemical_formula_structural   Rb4Nb2Si8O23
_chemical_formula_sum   'Rb4 Nb2 Si8 O23'
_cell_volume   571.53910732
_cell_formula_units_Z   1
loop_
 _symmetry_equiv_pos_site_id
 _symmetry_equiv_pos_as_xyz
  1  'x, y, z'
loop_
 _atom_site_type_symbol
 _atom_site_label
 _atom_site_symmetry_multiplicity
 _atom_site_fract_x
 _atom_site_fract_y
 _atom_site_fract_z
 _atom_site_occupancy
  Rb  Rb0  1  0.68194766  0.28073147  0.35557729  1
  Rb  Rb1  1  0.31805234  0.71926853  0.64442271  1
  Rb  Rb2  1  0.71028338  0.22009255  0.00988835  1
  Rb  Rb3  1  0.28971662  0.77990745  0.99011165  1
  Nb  Nb4  1  0.21406272  0.25885523  0.18317181  1
  Nb  Nb5  1  0.78593728  0.74114477  0.81682819  1
  Si  Si6  1  0.50191255  0.19403138  0.69922016  1
  Si  Si7  1  0.49808745  0.80596862  0.30077984  1
  Si  Si8  1  0.05155544  0.86722168  0.28567203  1
  Si  Si9  1  0.94844456  0.13277832  0.71432797  1
  Si  Si10  1  0.15668532  0.29840017  0.49906961  1
  Si  Si11  1  0.84331468  0.70159983  0.50093039  1
  Si  Si12  1  0.83295435  0.67233234  0.13076726  1
  Si  Si13  1  0.16704565  0.32766766  0.86923274  1
  O  O14  1  0.54435891  0.97788610  0.75462062  1
  O  O15  1  0.45564109  0.02211390  0.24537938  1
  O  O16  1  0.37620606  0.31227490  0.79441207  1
  O  O17  1  0.62379394  0.68772510  0.20558793  1
  O  O18  1  0.37689218  0.27547277  0.56306782  1
  O  O19  1  0.62310782  0.72452723  0.43693218  1
  O  O20  1  0.70793567  0.25045785  0.67464815  1
  O  O21  1  0.29206433  0.74954215  0.32535185  1
  O  O22  1  0.01902651  0.07581270  0.21715344  1
  O  O23  1  0.98097349  0.92418730  0.78284656  1
  O  O24  1  0.97231983  0.75977714  0.19853714  1
  O  O25  1  0.02768017  0.24022286  0.80146286  1
  O  O26  1  0.93237973  0.85556659  0.41479623  1
  O  O27  1  0.06762027  0.14443341  0.58520377  1
  O  O28  1  0.00000000  0.50000000  0.50000000  1
  O  O29  1  0.18286223  0.26811318  0.36314442  1
  O  O30  1  0.81713777  0.73188682  0.63685558  1
  O  O31  1  0.94353475  0.45568617  0.14170317  1
  O  O32  1  0.05646525  0.54431383  0.85829683  1
  O  O33  1  0.77949881  0.79146060  0.98923524  1
  O  O34  1  0.22050119  0.20853940  0.01076476  1
  O  O35  1  0.37444806  0.39909891  0.14772636  1
  O  O36  1  0.62555194  0.60090109  0.85227364  1
