# generated using pymatgen
data_Th(TeI)2
_symmetry_space_group_name_H-M   'P 1'
_cell_length_a   7.83747655
_cell_length_b   8.11308188
_cell_length_c   8.23015491
_cell_angle_alpha   81.04827779
_cell_angle_beta   61.56985336
_cell_angle_gamma   70.91800459
_symmetry_Int_Tables_number   1
_chemical_formula_structural   Th(TeI)2
_chemical_formula_sum   'Th2 Te4 I4'
_cell_volume   434.92188001
_cell_formula_units_Z   2
loop_
 _symmetry_equiv_pos_site_id
 _symmetry_equiv_pos_as_xyz
  1  'x, y, z'
loop_
 _atom_site_type_symbol
 _atom_site_label
 _atom_site_symmetry_multiplicity
 _atom_site_fract_x
 _atom_site_fract_y
 _atom_site_fract_z
 _atom_site_occupancy
  Th  Th0  1  0.85721725  0.99999326  0.28557729  1
  Th  Th1  1  0.14278275  0.00000674  0.71442271  1
  Te  Te2  1  0.11995060  0.67512071  0.99997981  1
  Te  Te3  1  0.88004940  0.32487929  0.00002019  1
  Te  Te4  1  0.66863830  0.11137985  -0.00000970  1
  Te  Te5  1  0.33136170  0.88862015  1.00000970  1
  I  I6  1  0.02099605  0.24317339  0.41921637  1
  I  I7  1  0.55975565  0.75684753  0.41920643  1
  I  I8  1  0.97900395  0.75682661  0.58078363  1
  I  I9  1  0.44024435  0.24315247  0.58079357  1
