# generated using pymatgen
data_NaCu4(AsO4)3
_symmetry_space_group_name_H-M   'P 1'
_cell_length_a   7.53493783
_cell_length_b   8.74516304
_cell_length_c   8.74516336
_cell_angle_alpha   91.54560444
_cell_angle_beta   109.44314831
_cell_angle_gamma   109.44315313
_symmetry_Int_Tables_number   1
_chemical_formula_structural   NaCu4(AsO4)3
_chemical_formula_sum   'Na2 Cu8 As6 O24'
_cell_volume   506.21674179
_cell_formula_units_Z   2
loop_
 _symmetry_equiv_pos_site_id
 _symmetry_equiv_pos_as_xyz
  1  'x, y, z'
loop_
 _atom_site_type_symbol
 _atom_site_label
 _atom_site_symmetry_multiplicity
 _atom_site_fract_x
 _atom_site_fract_y
 _atom_site_fract_z
 _atom_site_occupancy
  As  As0  1  0.88122452  0.39223830  0.15462822  1
  As  As1  1  0.61877548  0.84537178  0.60776170  1
  As  As2  1  0.11877548  0.60776170  0.84537178  1
  As  As3  1  0.38122452  0.15462822  0.39223830  1
  As  As4  1  0.75000000  0.77289940  0.22710060  1
  As  As5  1  0.25000000  0.22710060  0.77289940  1
  Cu  Cu6  1  0.75000000  0.99329609  0.00670391  1
  Cu  Cu7  1  0.25000000  0.00670391  0.99329609  1
  Cu  Cu8  1  0.14151835  0.87714780  0.56501670  1
  Cu  Cu9  1  0.35848165  0.43498330  0.12285220  1
  Cu  Cu10  1  0.85848165  0.12285220  0.43498330  1
  Cu  Cu11  1  0.64151835  0.56501670  0.87714780  1
  Cu  Cu12  1  0.75000000  0.23552739  0.76447261  1
  Cu  Cu13  1  0.25000000  0.76447261  0.23552739  1
  Na  Na14  1  0.75000000  0.50604649  0.49395351  1
  Na  Na15  1  0.25000000  0.49395351  0.50604649  1
  O  O16  1  0.88516895  0.33087827  0.34046541  1
  O  O17  1  0.61483105  0.65953459  0.66912173  1
  O  O18  1  0.11483105  0.66912173  0.65953459  1
  O  O19  1  0.38516895  0.34046541  0.33087827  1
  O  O20  1  0.76039767  0.98079875  0.22651664  1
  O  O21  1  0.73960233  0.77348336  0.01920125  1
  O  O22  1  0.23960233  0.01920125  0.77348336  1
  O  O23  1  0.26039767  0.22651664  0.98079875  1
  O  O24  1  0.82393619  0.22675188  0.00473847  1
  O  O25  1  0.67606381  0.99526153  0.77324812  1
  O  O26  1  0.17606381  0.77324812  0.99526153  1
  O  O27  1  0.32393619  0.00473847  0.22675188  1
  O  O28  1  0.69461565  0.47435513  0.08485413  1
  O  O29  1  0.80538435  0.91514587  0.52564487  1
  O  O30  1  0.30538435  0.52564487  0.91514587  1
  O  O31  1  0.19461565  0.08485413  0.47435513  1
  O  O32  1  0.12592904  0.52285131  0.19017363  1
  O  O33  1  0.37407096  0.80982637  0.47714869  1
  O  O34  1  0.87407096  0.47714869  0.80982637  1
  O  O35  1  0.62592904  0.19017363  0.52285131  1
  O  O36  1  0.96294851  0.74191997  0.34613994  1
  O  O37  1  0.53705149  0.65386006  0.25808003  1
  O  O38  1  0.03705149  0.25808003  0.65386006  1
  O  O39  1  0.46294851  0.34613994  0.74191997  1
