# generated using pymatgen
data_Ag4HgGe2S7
_symmetry_space_group_name_H-M   'P 1'
_cell_length_a   6.94876600
_cell_length_b   9.56909021
_cell_length_c   10.66264863
_cell_angle_alpha   92.88282450
_cell_angle_beta   90.00000000
_cell_angle_gamma   111.28971273
_symmetry_Int_Tables_number   1
_chemical_formula_structural   Ag4HgGe2S7
_chemical_formula_sum   'Ag8 Hg2 Ge4 S14'
_cell_volume   659.64799176
_cell_formula_units_Z   2
loop_
 _symmetry_equiv_pos_site_id
 _symmetry_equiv_pos_as_xyz
  1  'x, y, z'
loop_
 _atom_site_type_symbol
 _atom_site_label
 _atom_site_symmetry_multiplicity
 _atom_site_fract_x
 _atom_site_fract_y
 _atom_site_fract_z
 _atom_site_occupancy
  Ag  Ag0  1  0.82038898  0.99144380  1.00070661  1
  Ag  Ag1  1  0.17105482  0.99144380  0.50070661  1
  Ag  Ag2  1  0.73877845  0.12877020  0.38704983  1
  Ag  Ag3  1  0.38999175  0.12877020  0.88704983  1
  Ag  Ag4  1  0.89420713  0.42385461  0.09778219  1
  Ag  Ag5  1  0.52964747  0.42385461  0.59778219  1
  Ag  Ag6  1  0.14806132  0.54882347  0.44535347  1
  Ag  Ag7  1  0.40076216  0.54882347  0.94535347  1
  Hg  Hg8  1  0.66554193  0.69884088  0.28713263  1
  Hg  Hg9  1  0.03329894  0.69884088  0.78713263  1
  Ge  Ge10  1  0.25479398  0.85433613  0.17054029  1
  Ge  Ge11  1  0.59954215  0.85433613  0.67054029  1
  Ge  Ge12  1  0.30984800  0.27370255  0.24451077  1
  Ge  Ge13  1  0.96385455  0.27370255  0.74451077  1
  S  S14  1  0.86164674  0.06157538  0.59651901  1
  S  S15  1  0.19992864  0.06157538  0.09651901  1
  S  S16  1  0.03260271  0.33093612  0.28287864  1
  S  S17  1  0.29833341  0.33093612  0.78287864  1
  S  S18  1  0.54765728  0.45976105  0.14105741  1
  S  S19  1  0.91210377  0.45976105  0.64105741  1
  S  S20  1  0.14297946  0.66972362  0.01861912  1
  S  S21  1  0.52674416  0.66972362  0.51861912  1
  S  S22  1  0.06484949  0.77032018  0.34110280  1
  S  S23  1  0.70547069  0.77032018  0.84110280  1
  S  S24  1  0.32702550  0.92516542  0.70454216  1
  S  S25  1  0.59813992  0.92516542  0.20454216  1
  S  S26  1  0.44051219  0.22294659  0.41760507  1
  S  S27  1  0.78243439  0.22294659  0.91760507  1
