# generated using pymatgen
data_Cr2(Bi2O5)3
_symmetry_space_group_name_H-M   'P 1'
_cell_length_a   5.99156798
_cell_length_b   11.94956102
_cell_length_c   11.94956116
_cell_angle_alpha   115.42900946
_cell_angle_beta   90.00000000
_cell_angle_gamma   90.00000000
_symmetry_Int_Tables_number   1
_chemical_formula_structural   Cr2(Bi2O5)3
_chemical_formula_sum   'Cr4 Bi12 O30'
_cell_volume   772.66083358
_cell_formula_units_Z   2
loop_
 _symmetry_equiv_pos_site_id
 _symmetry_equiv_pos_as_xyz
  1  'x, y, z'
loop_
 _atom_site_type_symbol
 _atom_site_label
 _atom_site_symmetry_multiplicity
 _atom_site_fract_x
 _atom_site_fract_y
 _atom_site_fract_z
 _atom_site_occupancy
  O  O0  1  0.07729773  0.22191686  0.67603411  1
  O  O1  1  0.07729773  0.77808314  0.32396589  1
  O  O2  1  0.57729773  0.32396589  0.77808314  1
  O  O3  1  0.57729773  0.67603411  0.22191686  1
  O  O4  1  0.14003209  0.34497190  0.53145182  1
  O  O5  1  0.14003209  0.65502810  0.46854818  1
  O  O6  1  0.64003209  0.46854818  0.65502810  1
  O  O7  1  0.64003209  0.53145182  0.34497190  1
  O  O8  1  0.94921721  0.11994887  0.43346775  1
  O  O9  1  0.94921721  0.88005113  0.56653225  1
  O  O10  1  0.44921721  0.56653225  0.88005113  1
  O  O11  1  0.44921721  0.43346775  0.11994887  1
  O  O12  1  0.39913041  0.14669157  0.49273539  1
  O  O13  1  0.39913041  0.85330843  0.50726461  1
  O  O14  1  0.89913041  0.50726461  0.85330843  1
  O  O15  1  0.89913041  0.49273539  0.14669157  1
  O  O16  1  0.90997300  0.25415397  0.24983717  1
  O  O17  1  0.90997300  0.74584603  0.75016283  1
  O  O18  1  0.40997300  0.75016283  0.74584603  1
  O  O19  1  0.40997300  0.24983717  0.25415397  1
  O  O20  1  0.88980198  0.16871252  0.85697799  1
  O  O21  1  0.88980198  0.83128748  0.14302201  1
  O  O22  1  0.38980198  0.14302201  0.83128748  1
  O  O23  1  0.38980198  0.85697799  0.16871252  1
  O  O24  1  0.61986440  0.94213862  0.74580140  1
  O  O25  1  0.61986440  0.05786138  0.25419860  1
  O  O26  1  0.11986440  0.25419860  0.05786138  1
  O  O27  1  0.11986440  0.74580140  0.94213862  1
  O  O28  1  0.95969208  0.00000000  0.00000000  1
  O  O29  1  0.45969208  0.00000000  0.00000000  1
  Cr  Cr30  1  0.14600107  0.20910585  0.53459235  1
  Cr  Cr31  1  0.14600107  0.79089415  0.46540765  1
  Cr  Cr32  1  0.64600107  0.46540765  0.79089415  1
  Cr  Cr33  1  0.64600107  0.53459235  0.20910585  1
  Bi  Bi34  1  0.67540974  0.24797201  0.38524858  1
  Bi  Bi35  1  0.67540974  0.75202799  0.61475142  1
  Bi  Bi36  1  0.17540974  0.61475142  0.75202799  1
  Bi  Bi37  1  0.17540974  0.38524858  0.24797201  1
  Bi  Bi38  1  0.66984193  0.89425405  0.29785730  1
  Bi  Bi39  1  0.66984193  0.10574595  0.70214270  1
  Bi  Bi40  1  0.16984193  0.70214270  0.10574595  1
  Bi  Bi41  1  0.16984193  0.29785730  0.89425405  1
  Bi  Bi42  1  0.27603390  0.04606872  0.17119549  1
  Bi  Bi43  1  0.27603390  0.95393128  0.82880451  1
  Bi  Bi44  1  0.77603390  0.82880451  0.95393128  1
  Bi  Bi45  1  0.77603390  0.17119549  0.04606872  1
