# generated using pymatgen
data_CsTb2Ag3Se5
_symmetry_space_group_name_H-M   'P 1'
_cell_length_a   4.32957517
_cell_length_b   8.12359688
_cell_length_c   17.63785250
_cell_angle_alpha   90.00000000
_cell_angle_beta   90.00000000
_cell_angle_gamma   105.45499731
_symmetry_Int_Tables_number   1
_chemical_formula_structural   CsTb2Ag3Se5
_chemical_formula_sum   'Cs2 Tb4 Ag6 Se10'
_cell_volume   597.92171521
_cell_formula_units_Z   2
loop_
 _symmetry_equiv_pos_site_id
 _symmetry_equiv_pos_as_xyz
  1  'x, y, z'
loop_
 _atom_site_type_symbol
 _atom_site_label
 _atom_site_symmetry_multiplicity
 _atom_site_fract_x
 _atom_site_fract_y
 _atom_site_fract_z
 _atom_site_occupancy
  Cs  Cs0  1  0.43832157  0.87664314  0.75000000  1
  Cs  Cs1  1  0.56167843  0.12335686  0.25000000  1
  Tb  Tb2  1  0.30722291  0.61444582  0.40492545  1
  Tb  Tb3  1  0.69277709  0.38555418  0.59507455  1
  Tb  Tb4  1  0.69277709  0.38555418  0.90492545  1
  Tb  Tb5  1  0.30722291  0.61444582  0.09507455  1
  Ag  Ag6  1  0.15643041  0.31286082  0.75000000  1
  Ag  Ag7  1  0.84356959  0.68713918  0.25000000  1
  Ag  Ag8  1  0.08289649  0.16579298  0.45828255  1
  Ag  Ag9  1  0.91710351  0.83420702  0.54171745  1
  Ag  Ag10  1  0.91710351  0.83420702  0.95828255  1
  Ag  Ag11  1  0.08289649  0.16579298  0.04171745  1
  Se  Se12  1  0.06929958  0.13859916  0.88418365  1
  Se  Se13  1  0.93070042  0.86140084  0.11581635  1
  Se  Se14  1  0.93070042  0.86140084  0.38418365  1
  Se  Se15  1  0.06929958  0.13859916  0.61581635  1
  Se  Se16  1  0.75256950  0.50513900  0.75000000  1
  Se  Se17  1  0.24743050  0.49486100  0.25000000  1
  Se  Se18  1  0.31839940  0.63679880  0.93041516  1
  Se  Se19  1  0.68160060  0.36320120  0.06958484  1
  Se  Se20  1  0.68160060  0.36320120  0.43041516  1
  Se  Se21  1  0.31839940  0.63679880  0.56958484  1
