# generated using pymatgen
data_YbMgGe
_symmetry_space_group_name_H-M   'P 1'
_cell_length_a   4.43347466
_cell_length_b   7.47782341
_cell_length_c   8.33072517
_cell_angle_alpha   90.00000000
_cell_angle_beta   90.00000000
_cell_angle_gamma   90.00000000
_symmetry_Int_Tables_number   1
_chemical_formula_structural   YbMgGe
_chemical_formula_sum   'Yb4 Mg4 Ge4'
_cell_volume   276.18637057
_cell_formula_units_Z   4
loop_
 _symmetry_equiv_pos_site_id
 _symmetry_equiv_pos_as_xyz
  1  'x, y, z'
loop_
 _atom_site_type_symbol
 _atom_site_label
 _atom_site_symmetry_multiplicity
 _atom_site_fract_x
 _atom_site_fract_y
 _atom_site_fract_z
 _atom_site_occupancy
  Mg  Mg0  1  0.75000000  0.85623078  0.93713908  1
  Mg  Mg1  1  0.25000000  0.14376922  0.06286092  1
  Mg  Mg2  1  0.75000000  0.35623078  0.56286092  1
  Mg  Mg3  1  0.25000000  0.64376922  0.43713908  1
  Yb  Yb4  1  0.75000000  0.97948506  0.31991810  1
  Yb  Yb5  1  0.25000000  0.02051494  0.68008190  1
  Yb  Yb6  1  0.75000000  0.47948506  0.18008190  1
  Yb  Yb7  1  0.25000000  0.52051494  0.81991810  1
  Ge  Ge8  1  0.75000000  0.73311612  0.61588177  1
  Ge  Ge9  1  0.25000000  0.26688388  0.38411823  1
  Ge  Ge10  1  0.75000000  0.23311612  0.88411823  1
  Ge  Ge11  1  0.25000000  0.76688388  0.11588177  1
