# generated using pymatgen
data_Ba3LiOs2O9
_symmetry_space_group_name_H-M   'P 1'
_cell_length_a   5.90026744
_cell_length_b   5.90026707
_cell_length_c   14.21731987
_cell_angle_alpha   90.00000000
_cell_angle_beta   90.00000000
_cell_angle_gamma   120.00000205
_symmetry_Int_Tables_number   1
_chemical_formula_structural   Ba3LiOs2O9
_chemical_formula_sum   'Ba6 Li2 Os4 O18'
_cell_volume   428.63904125
_cell_formula_units_Z   2
loop_
 _symmetry_equiv_pos_site_id
 _symmetry_equiv_pos_as_xyz
  1  'x, y, z'
loop_
 _atom_site_type_symbol
 _atom_site_label
 _atom_site_symmetry_multiplicity
 _atom_site_fract_x
 _atom_site_fract_y
 _atom_site_fract_z
 _atom_site_occupancy
  Ba  Ba0  1  0.00000000  0.00000000  0.25000000  1
  Ba  Ba1  1  0.00000000  0.00000000  0.75000000  1
  Ba  Ba2  1  0.33333300  0.66666700  0.91314420  1
  Ba  Ba3  1  0.66666700  0.33333300  0.41314420  1
  Ba  Ba4  1  0.66666700  0.33333300  0.08685580  1
  Ba  Ba5  1  0.33333300  0.66666700  0.58685580  1
  Li  Li6  1  0.00000000  0.00000000  0.00000000  1
  Li  Li7  1  0.00000000  0.00000000  0.50000000  1
  Os  Os8  1  0.33333300  0.66666700  0.16001731  1
  Os  Os9  1  0.66666700  0.33333300  0.66001731  1
  Os  Os10  1  0.66666700  0.33333300  0.83998269  1
  Os  Os11  1  0.33333300  0.66666700  0.33998269  1
  O  O12  1  0.49202476  0.98404952  0.25000000  1
  O  O13  1  0.50797524  0.49202476  0.75000000  1
  O  O14  1  0.98404952  0.49202476  0.75000000  1
  O  O15  1  0.01595048  0.50797524  0.25000000  1
  O  O16  1  0.49202476  0.50797524  0.25000000  1
  O  O17  1  0.50797524  0.01595048  0.75000000  1
  O  O18  1  0.17691268  0.35382537  0.41249992  1
  O  O19  1  0.82308732  0.17691268  0.91249992  1
  O  O20  1  0.35382537  0.17691268  0.91249992  1
  O  O21  1  0.64617463  0.82308732  0.41249992  1
  O  O22  1  0.17691268  0.82308732  0.41249992  1
  O  O23  1  0.82308732  0.64617463  0.58750008  1
  O  O24  1  0.82308732  0.17691268  0.58750008  1
  O  O25  1  0.82308732  0.64617463  0.91249992  1
  O  O26  1  0.35382537  0.17691268  0.58750008  1
  O  O27  1  0.64617463  0.82308732  0.08750008  1
  O  O28  1  0.17691268  0.35382537  0.08750008  1
  O  O29  1  0.17691268  0.82308732  0.08750008  1
