# generated using pymatgen
data_Lu5(Si5Ir2)2
_symmetry_space_group_name_H-M   'P 1'
_cell_length_a   4.20477934
_cell_length_b   12.54886777
_cell_length_c   12.54886777
_cell_angle_alpha   90.00000000
_cell_angle_beta   90.00000000
_cell_angle_gamma   90.00000000
_symmetry_Int_Tables_number   1
_chemical_formula_structural   Lu5(Si5Ir2)2
_chemical_formula_sum   'Lu10 Si20 Ir8'
_cell_volume   662.14376788
_cell_formula_units_Z   2
loop_
 _symmetry_equiv_pos_site_id
 _symmetry_equiv_pos_as_xyz
  1  'x, y, z'
loop_
 _atom_site_type_symbol
 _atom_site_label
 _atom_site_symmetry_multiplicity
 _atom_site_fract_x
 _atom_site_fract_y
 _atom_site_fract_z
 _atom_site_occupancy
  Lu  Lu0  1  0.00000000  0.00000000  0.00000000  1
  Lu  Lu1  1  0.00000000  0.50000000  0.50000000  1
  Lu  Lu2  1  0.50000000  0.17427121  0.32572879  1
  Lu  Lu3  1  0.50000000  0.67427121  0.17427121  1
  Lu  Lu4  1  0.50000000  0.32572879  0.82572879  1
  Lu  Lu5  1  0.50000000  0.82572879  0.67427121  1
  Lu  Lu6  1  0.50000000  0.88434011  0.38434011  1
  Lu  Lu7  1  0.50000000  0.61565989  0.88434011  1
  Lu  Lu8  1  0.50000000  0.38434011  0.11565989  1
  Lu  Lu9  1  0.50000000  0.11565989  0.61565989  1
  Ir  Ir10  1  0.00000000  0.01902219  0.24581978  1
  Ir  Ir11  1  0.00000000  0.75418022  0.01902219  1
  Ir  Ir12  1  0.00000000  0.24581978  0.98097781  1
  Ir  Ir13  1  0.00000000  0.98097781  0.75418022  1
  Ir  Ir14  1  0.00000000  0.51902219  0.25418022  1
  Ir  Ir15  1  0.00000000  0.48097781  0.74581978  1
  Ir  Ir16  1  0.00000000  0.74581978  0.51902219  1
  Ir  Ir17  1  0.00000000  0.25418022  0.48097781  1
  Si  Si18  1  0.00000000  0.06607124  0.43392876  1
  Si  Si19  1  0.00000000  0.56607124  0.06607124  1
  Si  Si20  1  0.00000000  0.43392876  0.93392876  1
  Si  Si21  1  0.00000000  0.93392876  0.56607124  1
  Si  Si22  1  0.00000000  0.20033375  0.16497720  1
  Si  Si23  1  0.00000000  0.83502280  0.20033375  1
  Si  Si24  1  0.00000000  0.16497720  0.79966625  1
  Si  Si25  1  0.00000000  0.79966625  0.83502280  1
  Si  Si26  1  0.00000000  0.70033375  0.33502280  1
  Si  Si27  1  0.00000000  0.29966625  0.66497720  1
  Si  Si28  1  0.00000000  0.66497720  0.70033375  1
  Si  Si29  1  0.00000000  0.33502280  0.29966625  1
  Si  Si30  1  0.50000000  0.00371287  0.15468805  1
  Si  Si31  1  0.50000000  0.84531195  0.00371287  1
  Si  Si32  1  0.50000000  0.15468805  0.99628713  1
  Si  Si33  1  0.50000000  0.99628713  0.84531195  1
  Si  Si34  1  0.50000000  0.50371287  0.34531195  1
  Si  Si35  1  0.50000000  0.49628713  0.65468805  1
  Si  Si36  1  0.50000000  0.65468805  0.50371287  1
  Si  Si37  1  0.50000000  0.34531195  0.49628713  1
