# generated using pymatgen
data_SmP4HO12
_symmetry_space_group_name_H-M   'P 1'
_cell_length_a   7.28343274
_cell_length_b   8.74468713
_cell_length_c   8.99975943
_cell_angle_alpha   99.46927542
_cell_angle_beta   112.32899960
_cell_angle_gamma   105.93686823
_symmetry_Int_Tables_number   1
_chemical_formula_structural   SmP4HO12
_chemical_formula_sum   'Sm2 P8 H2 O24'
_cell_volume   486.00129087
_cell_formula_units_Z   2
loop_
 _symmetry_equiv_pos_site_id
 _symmetry_equiv_pos_as_xyz
  1  'x, y, z'
loop_
 _atom_site_type_symbol
 _atom_site_label
 _atom_site_symmetry_multiplicity
 _atom_site_fract_x
 _atom_site_fract_y
 _atom_site_fract_z
 _atom_site_occupancy
  Sm  Sm0  1  0.09363482  0.26720210  0.25841583  1
  Sm  Sm1  1  0.90636518  0.73279790  0.74158417  1
  P  P2  1  0.61330555  0.28943397  0.58015472  1
  P  P3  1  0.38669445  0.71056603  0.41984528  1
  P  P4  1  0.06707638  0.37771634  0.65592356  1
  P  P5  1  0.93292362  0.62228366  0.34407644  1
  P  P6  1  0.20997296  0.18576418  0.89446023  1
  P  P7  1  0.79002704  0.81423582  0.10553977  1
  P  P8  1  0.57958787  0.13433433  0.85010635  1
  P  P9  1  0.42041213  0.86566567  0.14989365  1
  O  O10  1  0.67513980  0.46180988  0.68836984  1
  O  O11  1  0.32486020  0.53819012  0.31163016  1
  O  O12  1  0.43940149  0.22781530  0.40139839  1
  O  O13  1  0.56059851  0.77218470  0.59860161  1
  O  O14  1  0.54342156  0.15312249  0.66939966  1
  O  O15  1  0.45657844  0.84687751  0.33060034  1
  O  O16  1  0.81661192  0.25805353  0.57037946  1
  O  O17  1  0.18338808  0.74194647  0.42962054  1
  O  O18  1  0.09397708  0.55793363  0.70125709  1
  O  O19  1  0.90602292  0.44206637  0.29874291  1
  O  O20  1  0.15762420  0.31501582  0.54518036  1
  O  O21  1  0.84237580  0.68498418  0.45481964  1
  O  O22  1  0.15977704  0.33753646  0.83235892  1
  O  O23  1  0.84022296  0.66246354  0.16764108  1
  O  O24  1  0.06042444  0.01855916  0.76863228  1
  O  O25  1  0.93957556  0.98144084  0.23136772  1
  O  O26  1  0.23570949  0.21741679  0.07055916  1
  O  O27  1  0.76429051  0.78258321  0.92944084  1
  O  O28  1  0.44832560  0.22619668  0.90680698  1
  O  O29  1  0.55167440  0.77380332  0.09319302  1
  O  O30  1  0.80768374  0.20500709  0.97711805  1
  O  O31  1  0.19231626  0.79499291  0.02288195  1
  O  O32  1  0.45751894  0.94447438  0.81030878  1
  O  O33  1  0.54248106  0.05552562  0.18969122  1
  H  H34  1  0.49997932  0.86884237  0.74216853  1
  H  H35  1  0.50002068  0.13115763  0.25783147  1
