# generated using pymatgen
data_Na4Ca(PO3)6
_symmetry_space_group_name_H-M   'P 1'
_cell_length_a   7.78123897
_cell_length_b   7.78123871
_cell_length_c   14.46879875
_cell_angle_alpha   86.30387723
_cell_angle_beta   86.30387737
_cell_angle_gamma   62.84192187
_symmetry_Int_Tables_number   1
_chemical_formula_structural   Na4Ca(PO3)6
_chemical_formula_sum   'Na8 Ca2 P12 O36'
_cell_volume   777.24067200
_cell_formula_units_Z   2
loop_
 _symmetry_equiv_pos_site_id
 _symmetry_equiv_pos_as_xyz
  1  'x, y, z'
loop_
 _atom_site_type_symbol
 _atom_site_label
 _atom_site_symmetry_multiplicity
 _atom_site_fract_x
 _atom_site_fract_y
 _atom_site_fract_z
 _atom_site_occupancy
  Ca  Ca0  1  0.62243806  0.37756194  0.25000000  1
  Ca  Ca1  1  0.37756194  0.62243806  0.75000000  1
  P  P2  1  0.04167310  0.14445457  0.38488189  1
  P  P3  1  0.85554543  0.95832690  0.11511811  1
  P  P4  1  0.95832690  0.85554543  0.61511811  1
  P  P5  1  0.14445457  0.04167310  0.88488189  1
  P  P6  1  0.36592580  0.08906348  0.25248050  1
  P  P7  1  0.91093652  0.63407420  0.24751950  1
  P  P8  1  0.63407420  0.91093652  0.74751950  1
  P  P9  1  0.08906348  0.36592580  0.75248050  1
  P  P10  1  0.39491912  0.77902655  0.38876921  1
  P  P11  1  0.22097345  0.60508088  0.11123079  1
  P  P12  1  0.60508088  0.22097345  0.61123079  1
  P  P13  1  0.77902655  0.39491912  0.88876921  1
  Na  Na14  1  0.78505712  0.53929484  0.54541584  1
  Na  Na15  1  0.46070516  0.21494288  0.95458416  1
  Na  Na16  1  0.21494288  0.46070516  0.45458416  1
  Na  Na17  1  0.53929484  0.78505712  0.04541584  1
  Na  Na18  1  0.29116942  0.04089019  0.58342722  1
  Na  Na19  1  0.95910981  0.70883058  0.91657278  1
  Na  Na20  1  0.70883058  0.95910981  0.41657278  1
  Na  Na21  1  0.04089019  0.29116942  0.08342722  1
  O  O22  1  0.83900153  0.18669643  0.36534309  1
  O  O23  1  0.81330357  0.16099847  0.13465691  1
  O  O24  1  0.16099847  0.81330357  0.63465691  1
  O  O25  1  0.18669643  0.83900153  0.86534309  1
  O  O26  1  0.07867488  0.24139271  0.46201125  1
  O  O27  1  0.75860729  0.92132512  0.03798875  1
  O  O28  1  0.92132512  0.75860729  0.53798875  1
  O  O29  1  0.24139271  0.07867488  0.96201125  1
  O  O30  1  0.16207157  0.91040007  0.40015052  1
  O  O31  1  0.08959993  0.83792843  0.09984948  1
  O  O32  1  0.83792843  0.08959993  0.59984948  1
  O  O33  1  0.91040007  0.16207157  0.90015052  1
  O  O34  1  0.13964478  0.17973069  0.28760183  1
  O  O35  1  0.82026931  0.86035522  0.21239817  1
  O  O36  1  0.86035522  0.82026931  0.71239817  1
  O  O37  1  0.17973069  0.13964478  0.78760183  1
  O  O38  1  0.46555818  0.18163946  0.30194578  1
  O  O39  1  0.81836054  0.53444182  0.19805422  1
  O  O40  1  0.53444182  0.81836054  0.69805422  1
  O  O41  1  0.18163946  0.46555818  0.80194578  1
  O  O42  1  0.36997877  0.09296690  0.14925438  1
  O  O43  1  0.90703310  0.63002123  0.35074562  1
  O  O44  1  0.63002123  0.90703310  0.85074562  1
  O  O45  1  0.09296690  0.36997877  0.64925438  1
  O  O46  1  0.44401625  0.86530034  0.29066810  1
  O  O47  1  0.13469966  0.55598375  0.20933190  1
  O  O48  1  0.55598375  0.13469966  0.70933190  1
  O  O49  1  0.86530034  0.44401625  0.79066810  1
  O  O50  1  0.42766528  0.57782082  0.37160087  1
  O  O51  1  0.42217918  0.57233472  0.12839913  1
  O  O52  1  0.57233472  0.42217918  0.62839913  1
  O  O53  1  0.57782082  0.42766528  0.87160087  1
  O  O54  1  0.49510425  0.81249064  0.46563969  1
  O  O55  1  0.18750936  0.50489575  0.03436031  1
  O  O56  1  0.50489575  0.18750936  0.53436031  1
  O  O57  1  0.81249064  0.49510425  0.96563969  1
