# generated using pymatgen
data_Cs5Hg19
_symmetry_space_group_name_H-M   'P 1'
_cell_length_a   10.48108666
_cell_length_b   10.48108693
_cell_length_c   10.48108712
_cell_angle_alpha   106.96546276
_cell_angle_beta   106.96546324
_cell_angle_gamma   114.60811621
_symmetry_Int_Tables_number   1
_chemical_formula_structural   Cs5Hg19
_chemical_formula_sum   'Cs5 Hg19'
_cell_volume   880.94115757
_cell_formula_units_Z   1
loop_
 _symmetry_equiv_pos_site_id
 _symmetry_equiv_pos_as_xyz
  1  'x, y, z'
loop_
 _atom_site_type_symbol
 _atom_site_label
 _atom_site_symmetry_multiplicity
 _atom_site_fract_x
 _atom_site_fract_y
 _atom_site_fract_z
 _atom_site_occupancy
  Hg  Hg0  1  0.52593760  0.34308956  0.58933239  1
  Hg  Hg1  1  0.34308956  0.75375717  0.81715197  1
  Hg  Hg2  1  0.93660521  0.52593760  0.18284803  1
  Hg  Hg3  1  0.75375717  0.93660521  0.41066761  1
  Hg  Hg4  1  0.47406240  0.65691044  0.41066761  1
  Hg  Hg5  1  0.65691044  0.24624283  0.18284803  1
  Hg  Hg6  1  0.06339479  0.47406240  0.81715197  1
  Hg  Hg7  1  0.24624283  0.06339479  0.58933239  1
  Hg  Hg8  1  0.75000000  0.25000000  0.50000000  1
  Hg  Hg9  1  0.25000000  0.75000000  0.50000000  1
  Hg  Hg10  1  0.39073542  0.29804403  0.25251439  1
  Hg  Hg11  1  0.29804403  0.04552964  0.90730861  1
  Hg  Hg12  1  0.13822103  0.39073542  0.09269139  1
  Hg  Hg13  1  0.04552964  0.13822103  0.74748561  1
  Hg  Hg14  1  0.60926458  0.70195597  0.74748561  1
  Hg  Hg15  1  0.70195597  0.95447036  0.09269139  1
  Hg  Hg16  1  0.86177897  0.60926458  0.90730861  1
  Hg  Hg17  1  0.95447036  0.86177897  0.25251439  1
  Hg  Hg18  1  0.00000000  0.00000000  0.00000000  1
  Cs  Cs19  1  0.11911790  0.32430328  0.44342117  1
  Cs  Cs20  1  0.32430328  0.88088210  0.20518538  1
  Cs  Cs21  1  0.67569672  0.11911790  0.79481462  1
  Cs  Cs22  1  0.88088210  0.67569672  0.55657883  1
  Cs  Cs23  1  0.50000000  0.50000000  0.00000000  1
