# generated using pymatgen
data_Rb3As11
_symmetry_space_group_name_H-M   'P 1'
_cell_length_a   11.16687223
_cell_length_b   11.67560760
_cell_length_c   15.41860979
_cell_angle_alpha   90.00000000
_cell_angle_beta   90.00000000
_cell_angle_gamma   90.00000000
_symmetry_Int_Tables_number   1
_chemical_formula_structural   Rb3As11
_chemical_formula_sum   'Rb12 As44'
_cell_volume   2010.27862622
_cell_formula_units_Z   4
loop_
 _symmetry_equiv_pos_site_id
 _symmetry_equiv_pos_as_xyz
  1  'x, y, z'
loop_
 _atom_site_type_symbol
 _atom_site_label
 _atom_site_symmetry_multiplicity
 _atom_site_fract_x
 _atom_site_fract_y
 _atom_site_fract_z
 _atom_site_occupancy
  Rb  Rb0  1  0.91030582  0.26891857  0.48356038  1
  Rb  Rb1  1  0.25000000  0.00000000  0.29380994  1
  Rb  Rb2  1  0.08969418  0.76891857  0.01643962  1
  Rb  Rb3  1  0.41030582  0.26891857  0.51643962  1
  Rb  Rb4  1  0.91030582  0.23108143  0.98356038  1
  Rb  Rb5  1  0.75000000  0.50000000  0.20619006  1
  Rb  Rb6  1  0.75000000  0.00000000  0.70619006  1
  Rb  Rb7  1  0.25000000  0.50000000  0.79380994  1
  Rb  Rb8  1  0.41030582  0.23108143  0.01643962  1
  Rb  Rb9  1  0.58969418  0.76891857  0.98356038  1
  Rb  Rb10  1  0.58969418  0.73108143  0.48356038  1
  Rb  Rb11  1  0.08969418  0.73108143  0.51643962  1
  As  As12  1  0.56820560  0.88676155  0.28288229  1
  As  As13  1  0.39745777  0.93245791  0.63569618  1
  As  As14  1  0.50329106  0.46274751  0.35379954  1
  As  As15  1  0.60254223  0.43245791  0.86430382  1
  As  As16  1  0.67313023  0.42296415  0.61651920  1
  As  As17  1  0.93179440  0.38676155  0.78288229  1
  As  As18  1  0.99670894  0.53725249  0.35379954  1
  As  As19  1  0.00329106  0.03725249  0.14620046  1
  As  As20  1  0.27873346  0.82075706  0.74493293  1
  As  As21  1  0.75000000  0.50000000  0.96830407  1
  As  As22  1  0.25000000  0.50000000  0.03169593  1
  As  As23  1  0.77873346  0.82075706  0.25506707  1
  As  As24  1  0.50329106  0.03725249  0.85379954  1
  As  As25  1  0.06820560  0.88676155  0.71711771  1
  As  As26  1  0.10254223  0.43245791  0.13569618  1
  As  As27  1  0.77873346  0.67924294  0.75506707  1
  As  As28  1  0.60254223  0.06754209  0.36430382  1
  As  As29  1  0.49670894  0.96274751  0.14620046  1
  As  As30  1  0.17313023  0.07703585  0.88348080  1
  As  As31  1  0.99670894  0.96274751  0.85379954  1
  As  As32  1  0.75000000  0.00000000  0.46830407  1
  As  As33  1  0.06820560  0.61323845  0.21711771  1
  As  As34  1  0.82686977  0.92296415  0.11651920  1
  As  As35  1  0.17313023  0.42296415  0.38348080  1
  As  As36  1  0.89745777  0.93245791  0.36430382  1
  As  As37  1  0.82686977  0.57703585  0.61651920  1
  As  As38  1  0.32686977  0.57703585  0.38348080  1
  As  As39  1  0.22126654  0.17924294  0.74493293  1
  As  As40  1  0.43179440  0.11323845  0.71711771  1
  As  As41  1  0.72126654  0.17924294  0.25506707  1
  As  As42  1  0.49670894  0.53725249  0.64620046  1
  As  As43  1  0.00329106  0.46274751  0.64620046  1
  As  As44  1  0.27873346  0.67924294  0.24493293  1
  As  As45  1  0.56820560  0.61323845  0.78288229  1
  As  As46  1  0.39745777  0.56754209  0.13569618  1
  As  As47  1  0.10254223  0.06754209  0.63569618  1
  As  As48  1  0.32686977  0.92296415  0.88348080  1
  As  As49  1  0.72126654  0.32075706  0.75506707  1
  As  As50  1  0.22126654  0.32075706  0.24493293  1
  As  As51  1  0.89745777  0.56754209  0.86430382  1
  As  As52  1  0.67313023  0.07703585  0.11651920  1
  As  As53  1  0.43179440  0.38676155  0.21711771  1
  As  As54  1  0.93179440  0.11323845  0.28288229  1
  As  As55  1  0.25000000  0.00000000  0.53169593  1
