# generated using pymatgen
data_KSmP3HO10
_symmetry_space_group_name_H-M   'P 1'
_cell_length_a   7.04099447
_cell_length_b   7.81925374
_cell_length_c   8.66897241
_cell_angle_alpha   73.73011514
_cell_angle_beta   73.58332205
_cell_angle_gamma   82.56454637
_symmetry_Int_Tables_number   1
_chemical_formula_structural   KSmP3HO10
_chemical_formula_sum   'K2 Sm2 P6 H2 O20'
_cell_volume   438.82685438
_cell_formula_units_Z   2
loop_
 _symmetry_equiv_pos_site_id
 _symmetry_equiv_pos_as_xyz
  1  'x, y, z'
loop_
 _atom_site_type_symbol
 _atom_site_label
 _atom_site_symmetry_multiplicity
 _atom_site_fract_x
 _atom_site_fract_y
 _atom_site_fract_z
 _atom_site_occupancy
  Sm  Sm0  1  0.77300578  0.36938603  0.98921909  1
  Sm  Sm1  1  0.22699422  0.63061397  0.01078091  1
  K  K2  1  0.78872138  0.28495681  0.46406388  1
  K  K3  1  0.21127862  0.71504319  0.53593612  1
  P  P4  1  0.67243996  0.69221242  0.15750712  1
  P  P5  1  0.32756004  0.30778758  0.84249288  1
  P  P6  1  0.85534664  0.96079246  0.86115024  1
  P  P7  1  0.14465336  0.03920754  0.13884976  1
  P  P8  1  0.67316616  0.76940190  0.68620286  1
  P  P9  1  0.32683384  0.23059810  0.31379714  1
  O  O10  1  0.58934786  0.70214832  0.33535011  1
  O  O11  1  0.41065214  0.29785168  0.66464989  1
  O  O12  1  0.53421223  0.62985030  0.07741143  1
  O  O13  1  0.46578777  0.37014970  0.92258857  1
  O  O14  1  0.86588102  0.57230524  0.12728112  1
  O  O15  1  0.13411898  0.42769476  0.87271888  1
  O  O16  1  0.72290995  0.89663937  0.04966885  1
  O  O17  1  0.27709005  0.10336063  0.95033115  1
  O  O18  1  0.95545037  0.15335470  0.16350911  1
  O  O19  1  0.04454963  0.84664530  0.83649089  1
  O  O20  1  0.86422986  0.15996844  0.82636934  1
  O  O21  1  0.13577014  0.84003156  0.17363066  1
  O  O22  1  0.72146104  0.93539395  0.74717183  1
  O  O23  1  0.27853896  0.06460605  0.25282817  1
  O  O24  1  0.54813762  0.25121281  0.25575799  1
  O  O25  1  0.45186238  0.74878719  0.74424201  1
  O  O26  1  0.80521782  0.60682530  0.74091199  1
  O  O27  1  0.19478218  0.39317470  0.25908801  1
  O  O28  1  0.74594420  0.85415996  0.49341257  1
  O  O29  1  0.25405580  0.14584004  0.50658743  1
  H  H30  1  0.68862288  0.80054381  0.42132555  1
  H  H31  1  0.31137712  0.19945619  0.57867445  1
