# generated using pymatgen
data_Tb2H16S3O20
_symmetry_space_group_name_H-M   'P 1'
_cell_length_a   6.76570287
_cell_length_b   7.56067780
_cell_length_c   18.39173775
_cell_angle_alpha   101.18248429
_cell_angle_beta   90.00000000
_cell_angle_gamma   116.57872286
_symmetry_Int_Tables_number   1
_chemical_formula_structural   Tb2H16S3O20
_chemical_formula_sum   'Tb4 H32 S6 O40'
_cell_volume   821.35416161
_cell_formula_units_Z   2
loop_
 _symmetry_equiv_pos_site_id
 _symmetry_equiv_pos_as_xyz
  1  'x, y, z'
loop_
 _atom_site_type_symbol
 _atom_site_label
 _atom_site_symmetry_multiplicity
 _atom_site_fract_x
 _atom_site_fract_y
 _atom_site_fract_z
 _atom_site_occupancy
  Tb  Tb0  1  0.14651278  0.33499295  0.39253616  1
  Tb  Tb1  1  0.81151983  0.66500705  0.10746384  1
  Tb  Tb2  1  0.85348722  0.66500705  0.60746384  1
  Tb  Tb3  1  0.18848017  0.33499295  0.89253616  1
  O  O4  1  0.17227968  0.02871212  0.35750641  1
  O  O5  1  0.14356756  0.97128788  0.14249359  1
  O  O6  1  0.82772032  0.97128788  0.64249359  1
  O  O7  1  0.85643244  0.02871212  0.85750641  1
  O  O8  1  0.27087097  0.51237388  0.29799318  1
  O  O9  1  0.75849709  0.48762612  0.20200682  1
  O  O10  1  0.72912903  0.48762612  0.70200682  1
  O  O11  1  0.24150291  0.51237388  0.79799318  1
  O  O12  1  0.35883390  0.68451324  0.45718977  1
  O  O13  1  0.67432066  0.31548676  0.04281023  1
  O  O14  1  0.64116610  0.31548676  0.54281023  1
  O  O15  1  0.32567934  0.68451324  0.95718977  1
  O  O16  1  0.80138767  0.08415442  0.43593458  1
  O  O17  1  0.71723325  0.91584558  0.06406542  1
  O  O18  1  0.19861233  0.91584558  0.56406542  1
  O  O19  1  0.28276675  0.08415442  0.93593458  1
  S  S20  1  0.67430520  0.00000000  0.25000000  1
  S  S21  1  0.32569480  0.00000000  0.75000000  1
  O  O22  1  0.88667247  0.17089292  0.28736982  1
  O  O23  1  0.71577955  0.82910708  0.21263018  1
  O  O24  1  0.11332753  0.82910708  0.71263018  1
  O  O25  1  0.28422045  0.17089292  0.78736982  1
  O  O26  1  0.51480300  0.93233339  0.30705348  1
  O  O27  1  0.58246960  0.06766661  0.19294652  1
  O  O28  1  0.48519700  0.06766661  0.69294652  1
  O  O29  1  0.41753040  0.93233339  0.80705348  1
  S  S30  1  0.24587346  0.43519347  0.59027824  1
  S  S31  1  0.81067999  0.56480653  0.90972176  1
  S  S32  1  0.75412654  0.56480653  0.40972176  1
  S  S33  1  0.18932001  0.43519347  0.09027824  1
  O  O34  1  0.22180426  0.28750128  0.51774540  1
  O  O35  1  0.93430298  0.71249872  0.98225460  1
  O  O36  1  0.77819574  0.71249872  0.48225460  1
  O  O37  1  0.06569702  0.28750128  0.01774540  1
  O  O38  1  0.08958518  0.51903863  0.58171314  1
  O  O39  1  0.57054655  0.48096137  0.91828686  1
  O  O40  1  0.91041482  0.48096137  0.41828686  1
  O  O41  1  0.42945345  0.51903863  0.08171314  1
  O  O42  1  0.47687885  0.60072645  0.60315747  1
  O  O43  1  0.87615241  0.39927355  0.89684253  1
  O  O44  1  0.52312115  0.39927355  0.39684253  1
  O  O45  1  0.12384759  0.60072645  0.10315747  1
  O  O46  1  0.19500368  0.32495429  0.65141470  1
  O  O47  1  0.87004939  0.67504571  0.84858530  1
  O  O48  1  0.80499632  0.67504571  0.34858530  1
  O  O49  1  0.12995061  0.32495429  0.15141470  1
  H  H50  1  0.30148828  0.01224461  0.33908545  1
  H  H51  1  0.28924366  0.98775539  0.16091455  1
  H  H52  1  0.69851172  0.98775539  0.66091455  1
  H  H53  1  0.71075634  0.01224461  0.83908545  1
  H  H54  1  0.04297089  0.89174336  0.35026629  1
  H  H55  1  0.15122753  0.10825664  0.14973371  1
  H  H56  1  0.95702911  0.10825664  0.64973371  1
  H  H57  1  0.84877247  0.89174336  0.85026629  1
  H  H58  1  0.37498102  0.65697256  0.30253960  1
  H  H59  1  0.71800846  0.34302744  0.19746040  1
  H  H60  1  0.62501898  0.34302744  0.69746040  1
  H  H61  1  0.28199154  0.65697256  0.80253960  1
  H  H62  1  0.21315507  0.45214633  0.24484390  1
  H  H63  1  0.76100874  0.54785367  0.25515610  1
  H  H64  1  0.78684493  0.54785367  0.75515610  1
  H  H65  1  0.23899126  0.45214633  0.74484390  1
  H  H66  1  0.29068926  0.75394438  0.49154953  1
  H  H67  1  0.53674488  0.24605562  0.00845047  1
  H  H68  1  0.70931074  0.24605562  0.50845047  1
  H  H69  1  0.46325512  0.75394438  0.99154953  1
  H  H70  1  0.50137684  0.71317587  0.48277145  1
  H  H71  1  0.78820097  0.28682413  0.01722855  1
  H  H72  1  0.49862316  0.28682413  0.51722855  1
  H  H73  1  0.21179903  0.71317587  0.98277145  1
  H  H74  1  0.68183138  0.01598363  0.39361660  1
  H  H75  1  0.66584775  0.98401637  0.10638340  1
  H  H76  1  0.31816862  0.98401637  0.60638340  1
  H  H77  1  0.33415225  0.01598363  0.89361660  1
  H  H78  1  0.81158083  0.97441306  0.45436520  1
  H  H79  1  0.83716777  0.02558694  0.04563480  1
  H  H80  1  0.18841917  0.02558694  0.54563480  1
  H  H81  1  0.16283223  0.97441306  0.95436520  1
