# generated using pymatgen
data_LaCdAu
_symmetry_space_group_name_H-M   'P 1'
_cell_length_a   7.97003438
_cell_length_b   7.97003462
_cell_length_c   4.21948630
_cell_angle_alpha   90.00000000
_cell_angle_beta   90.00000000
_cell_angle_gamma   119.99999900
_symmetry_Int_Tables_number   1
_chemical_formula_structural   LaCdAu
_chemical_formula_sum   'La3 Cd3 Au3'
_cell_volume   232.11896206
_cell_formula_units_Z   3
loop_
 _symmetry_equiv_pos_site_id
 _symmetry_equiv_pos_as_xyz
  1  'x, y, z'
loop_
 _atom_site_type_symbol
 _atom_site_label
 _atom_site_symmetry_multiplicity
 _atom_site_fract_x
 _atom_site_fract_y
 _atom_site_fract_z
 _atom_site_occupancy
  La  La0  1  0.40891687  0.00000000  0.00000000  1
  La  La1  1  0.59108313  0.59108313  0.00000000  1
  La  La2  1  1.00000000  0.40891687  0.00000000  1
  Au  Au3  1  0.66666700  0.33333300  0.50000000  1
  Au  Au4  1  0.33333300  0.66666700  0.50000000  1
  Au  Au5  1  0.00000000  0.00000000  0.00000000  1
  Cd  Cd6  1  0.75043243  0.00000000  0.50000000  1
  Cd  Cd7  1  0.24956757  0.24956757  0.50000000  1
  Cd  Cd8  1  1.00000000  0.75043243  0.50000000  1
