# generated using pymatgen
data_Pr4(GeS4)3
_symmetry_space_group_name_H-M   'P 1'
_cell_length_a   11.61100630
_cell_length_b   11.61100583
_cell_length_c   11.61100629
_cell_angle_alpha   114.79227538
_cell_angle_beta   114.79227428
_cell_angle_gamma   114.79227521
_symmetry_Int_Tables_number   1
_chemical_formula_structural   Pr4(GeS4)3
_chemical_formula_sum   'Pr8 Ge6 S24'
_cell_volume   892.41060705
_cell_formula_units_Z   2
loop_
 _symmetry_equiv_pos_site_id
 _symmetry_equiv_pos_as_xyz
  1  'x, y, z'
loop_
 _atom_site_type_symbol
 _atom_site_label
 _atom_site_symmetry_multiplicity
 _atom_site_fract_x
 _atom_site_fract_y
 _atom_site_fract_z
 _atom_site_occupancy
  Pr  Pr0  1  0.99570511  0.99570511  0.99570511  1
  Pr  Pr1  1  0.49570511  0.49570511  0.49570511  1
  Pr  Pr2  1  0.20806905  0.43179164  0.97163428  1
  Pr  Pr3  1  0.97163428  0.20806905  0.43179164  1
  Pr  Pr4  1  0.43179164  0.97163428  0.20806905  1
  Pr  Pr5  1  0.93179164  0.70806905  0.47163428  1
  Pr  Pr6  1  0.47163428  0.93179164  0.70806905  1
  Pr  Pr7  1  0.70806905  0.47163428  0.93179164  1
  Ge  Ge8  1  0.35253638  0.14048692  0.96516618  1
  Ge  Ge9  1  0.96516618  0.35253638  0.14048692  1
  Ge  Ge10  1  0.14048692  0.96516618  0.35253638  1
  Ge  Ge11  1  0.64048692  0.85253638  0.46516618  1
  Ge  Ge12  1  0.46516618  0.64048692  0.85253638  1
  Ge  Ge13  1  0.85253638  0.46516618  0.64048692  1
  S  S14  1  0.31101554  0.38384946  0.77948841  1
  S  S15  1  0.77948841  0.31101554  0.38384946  1
  S  S16  1  0.38384946  0.77948841  0.31101554  1
  S  S17  1  0.88384946  0.81101554  0.27948841  1
  S  S18  1  0.27948841  0.88384946  0.81101554  1
  S  S19  1  0.81101554  0.27948841  0.88384946  1
  S  S20  1  0.36933441  0.18370500  0.18382697  1
  S  S21  1  0.18382697  0.36933441  0.18370500  1
  S  S22  1  0.18370500  0.18382697  0.36933441  1
  S  S23  1  0.68370500  0.86933441  0.68382697  1
  S  S24  1  0.68382697  0.68370500  0.86933441  1
  S  S25  1  0.86933441  0.68382697  0.68370500  1
  S  S26  1  0.11011177  0.08273374  0.79344845  1
  S  S27  1  0.79344845  0.11011177  0.08273374  1
  S  S28  1  0.08273374  0.79344845  0.11011177  1
  S  S29  1  0.58273374  0.61011177  0.29344845  1
  S  S30  1  0.29344845  0.58273374  0.61011177  1
  S  S31  1  0.61011177  0.29344845  0.58273374  1
  S  S32  1  0.58230745  0.84960500  0.12668425  1
  S  S33  1  0.12668425  0.58230745  0.84960500  1
  S  S34  1  0.84960500  0.12668425  0.58230745  1
  S  S35  1  0.34960500  0.08230745  0.62668425  1
  S  S36  1  0.62668425  0.34960500  0.08230745  1
  S  S37  1  0.08230745  0.62668425  0.34960500  1
