# generated using pymatgen
data_HgNO3
_symmetry_space_group_name_H-M   'P 1'
_cell_length_a   6.37441515
_cell_length_b   8.71823226
_cell_length_c   12.28751869
_cell_angle_alpha   90.00000000
_cell_angle_beta   94.15447183
_cell_angle_gamma   90.00000000
_symmetry_Int_Tables_number   1
_chemical_formula_structural   HgNO3
_chemical_formula_sum   'Hg8 N8 O24'
_cell_volume   681.06772234
_cell_formula_units_Z   8
loop_
 _symmetry_equiv_pos_site_id
 _symmetry_equiv_pos_as_xyz
  1  'x, y, z'
loop_
 _atom_site_type_symbol
 _atom_site_label
 _atom_site_symmetry_multiplicity
 _atom_site_fract_x
 _atom_site_fract_y
 _atom_site_fract_z
 _atom_site_occupancy
  Hg  Hg0  1  0.18011399  0.66180775  0.35931464  1
  Hg  Hg1  1  0.81988601  0.16180775  0.64068536  1
  Hg  Hg2  1  0.19229132  0.04681252  0.67718003  1
  Hg  Hg3  1  0.80770868  0.54681252  0.32281997  1
  Hg  Hg4  1  0.34661405  0.02520059  0.08708123  1
  Hg  Hg5  1  0.65338595  0.52520059  0.91291877  1
  Hg  Hg6  1  0.71977154  0.00739549  0.18310009  1
  Hg  Hg7  1  0.28022846  0.50739549  0.81689991  1
  N  N8  1  0.00296527  0.16312216  0.94013001  1
  N  N9  1  0.99703473  0.66312216  0.05986999  1
  N  N10  1  0.06375562  0.13113352  0.32720915  1
  N  N11  1  0.93624438  0.63113352  0.67279085  1
  N  N12  1  0.46082991  0.39861589  0.17843230  1
  N  N13  1  0.53917009  0.89861589  0.82156770  1
  N  N14  1  0.49850963  0.37867030  0.55329374  1
  N  N15  1  0.50149037  0.87867030  0.44670626  1
  O  O16  1  0.17507970  0.70566927  0.09508060  1
  O  O17  1  0.82492030  0.20566927  0.90491940  1
  O  O18  1  0.17100227  0.20655356  0.90260120  1
  O  O19  1  0.82899773  0.70655356  0.09739880  1
  O  O20  1  0.01517799  0.06362168  0.02163595  1
  O  O21  1  0.98482201  0.56362168  0.97836405  1
  O  O22  1  0.23593214  0.15378685  0.37643135  1
  O  O23  1  0.76406786  0.65378685  0.62356865  1
  O  O24  1  0.09325389  0.71709948  0.67070537  1
  O  O25  1  0.90674611  0.21709948  0.32929463  1
  O  O26  1  0.04196693  1.00321508  0.26618170  1
  O  O27  1  0.95803307  0.50321508  0.73381830  1
  O  O28  1  0.28364061  0.34931506  0.14801628  1
  O  O29  1  0.71635939  0.84931506  0.85198372  1
  O  O30  1  0.62313333  0.37662574  0.12867008  1
  O  O31  1  0.37686667  0.87662574  0.87132992  1
  O  O32  1  0.47875424  0.47748134  0.27074724  1
  O  O33  1  0.52124576  0.97748134  0.72925276  1
  O  O34  1  0.64727282  0.37339473  0.49226206  1
  O  O35  1  0.35272718  0.87339473  0.50773794  1
  O  O36  1  0.34474693  0.46510402  0.54181454  1
  O  O37  1  0.65525307  0.96510402  0.45818546  1
  O  O38  1  0.50812721  0.28346497  0.63837637  1
  O  O39  1  0.49187279  0.78346497  0.36162363  1
