# generated using pymatgen
data_Eu2SO6
_symmetry_space_group_name_H-M   'P 1'
_cell_length_a   4.26466609
_cell_length_b   7.25001156
_cell_length_c   8.29102772
_cell_angle_alpha   106.94064694
_cell_angle_beta   90.00000000
_cell_angle_gamma   107.10444260
_symmetry_Int_Tables_number   1
_chemical_formula_structural   Eu2SO6
_chemical_formula_sum   'Eu4 S2 O12'
_cell_volume   233.34739462
_cell_formula_units_Z   2
loop_
 _symmetry_equiv_pos_site_id
 _symmetry_equiv_pos_as_xyz
  1  'x, y, z'
loop_
 _atom_site_type_symbol
 _atom_site_label
 _atom_site_symmetry_multiplicity
 _atom_site_fract_x
 _atom_site_fract_y
 _atom_site_fract_z
 _atom_site_occupancy
  Eu  Eu0  1  0.67674595  0.33728570  0.08372844  1
  Eu  Eu1  1  0.33946025  0.66271430  0.41627156  1
  Eu  Eu2  1  0.32325405  0.66271430  0.91627156  1
  Eu  Eu3  1  0.66053975  0.33728570  0.58372844  1
  O  O4  1  0.26287465  0.49057787  0.12270546  1
  O  O5  1  0.77229678  0.50942213  0.37729454  1
  O  O6  1  0.73712535  0.50942213  0.87729454  1
  O  O7  1  0.22770322  0.49057787  0.62270546  1
  S  S8  1  0.94470368  0.00000000  0.25000000  1
  S  S9  1  0.05529632  0.00000000  0.75000000  1
  O  O10  1  0.73780182  0.99884938  0.10365735  1
  O  O11  1  0.73895244  0.00115062  0.39634265  1
  O  O12  1  0.26219818  0.00115062  0.89634265  1
  O  O13  1  0.26104756  0.99884938  0.60365735  1
  O  O14  1  0.23301451  0.18594177  0.29637537  1
  O  O15  1  0.04707274  0.81405823  0.20362463  1
  O  O16  1  0.76698549  0.81405823  0.70362463  1
  O  O17  1  0.95292726  0.18594177  0.79637537  1
