# generated using pymatgen
data_K2Cu(CO3)2
_symmetry_space_group_name_H-M   'P 1'
_cell_length_a   6.24813373
_cell_length_b   6.59620423
_cell_length_c   9.47593070
_cell_angle_alpha   81.01686243
_cell_angle_beta   70.75037637
_cell_angle_gamma   61.73073370
_symmetry_Int_Tables_number   1
_chemical_formula_structural   K2Cu(CO3)2
_chemical_formula_sum   'K4 Cu2 C4 O12'
_cell_volume   324.73101697
_cell_formula_units_Z   2
loop_
 _symmetry_equiv_pos_site_id
 _symmetry_equiv_pos_as_xyz
  1  'x, y, z'
loop_
 _atom_site_type_symbol
 _atom_site_label
 _atom_site_symmetry_multiplicity
 _atom_site_fract_x
 _atom_site_fract_y
 _atom_site_fract_z
 _atom_site_occupancy
  Cu  Cu0  1  0.00248020  0.00000000  0.00000000  1
  Cu  Cu1  1  0.75248020  0.50000000  0.50000000  1
  K  K2  1  0.41497234  0.15975681  0.39981076  1
  K  K3  1  0.97453991  0.84024319  0.60018924  1
  K  K4  1  0.32472915  0.34024319  0.89981076  1
  K  K5  1  0.56478310  0.65975681  0.10018924  1
  O  O6  1  0.83686173  0.16282332  0.19193749  1
  O  O7  1  0.19162253  0.83717668  0.80806251  1
  O  O8  1  0.74968504  0.33717668  0.69193749  1
  O  O9  1  0.77879921  0.66282332  0.30806251  1
  O  O10  1  0.91011480  0.20104557  0.39931149  1
  O  O11  1  0.51047187  0.79895443  0.60068851  1
  O  O12  1  0.86116037  0.29895443  0.89931149  1
  O  O13  1  0.05942630  0.70104557  0.10068851  1
  O  O14  1  0.22386358  0.12039459  0.17900413  1
  O  O15  1  0.52326229  0.87960541  0.82099587  1
  O  O16  1  0.09425817  0.37960541  0.67900413  1
  O  O17  1  0.15286771  0.62039459  0.32099587  1
  C  C18  1  0.99726160  0.16261357  0.25379399  1
  C  C19  1  0.41366916  0.83738643  0.74620601  1
  C  C20  1  0.90987517  0.33738643  0.75379399  1
  C  C21  1  0.00105559  0.66261357  0.24620601  1
