# generated using pymatgen
data_Ce2O3
_symmetry_space_group_name_H-M   'P 1'
_cell_length_a   9.61775689
_cell_length_b   9.61775660
_cell_length_c   9.61775710
_cell_angle_alpha   109.47121978
_cell_angle_beta   109.47121916
_cell_angle_gamma   109.47122272
_symmetry_Int_Tables_number   1
_chemical_formula_structural   Ce2O3
_chemical_formula_sum   'Ce16 O24'
_cell_volume   684.85635867
_cell_formula_units_Z   8
loop_
 _symmetry_equiv_pos_site_id
 _symmetry_equiv_pos_as_xyz
  1  'x, y, z'
loop_
 _atom_site_type_symbol
 _atom_site_label
 _atom_site_symmetry_multiplicity
 _atom_site_fract_x
 _atom_site_fract_y
 _atom_site_fract_z
 _atom_site_occupancy
  Ce  Ce0  1  0.50000000  0.50000000  0.50000000  1
  Ce  Ce1  1  0.00000000  0.00000000  0.50000000  1
  Ce  Ce2  1  0.50000000  0.00000000  0.00000000  1
  Ce  Ce3  1  0.00000000  0.50000000  0.00000000  1
  Ce  Ce4  1  0.25000000  0.22856313  0.97856313  1
  Ce  Ce5  1  0.27143687  0.52143687  0.75000000  1
  Ce  Ce6  1  0.52143687  0.75000000  0.27143687  1
  Ce  Ce7  1  0.22856313  0.97856313  0.25000000  1
  Ce  Ce8  1  0.97856313  0.25000000  0.22856313  1
  Ce  Ce9  1  0.75000000  0.27143687  0.52143687  1
  Ce  Ce10  1  0.75000000  0.77143687  0.02143687  1
  Ce  Ce11  1  0.72856313  0.47856313  0.25000000  1
  Ce  Ce12  1  0.47856313  0.25000000  0.72856313  1
  Ce  Ce13  1  0.77143687  0.02143687  0.75000000  1
  Ce  Ce14  1  0.02143687  0.75000000  0.77143687  1
  Ce  Ce15  1  0.25000000  0.72856313  0.47856313  1
  O  O16  1  0.52308511  0.76463977  0.53228530  1
  O  O17  1  0.99079981  0.96771470  0.73235447  1
  O  O18  1  0.25844534  0.76764553  0.73536023  1
  O  O19  1  0.50920019  0.24155466  0.97691489  1
  O  O20  1  0.96771470  0.73235447  0.99079981  1
  O  O21  1  0.73536023  0.25844534  0.76764553  1
  O  O22  1  0.24155466  0.97691489  0.50920019  1
  O  O23  1  0.53228530  0.52308511  0.76463977  1
  O  O24  1  0.76463977  0.53228530  0.52308511  1
  O  O25  1  0.73235447  0.99079981  0.96771470  1
  O  O26  1  0.76764553  0.73536023  0.25844534  1
  O  O27  1  0.97691489  0.50920019  0.24155466  1
  O  O28  1  0.47691489  0.23536023  0.46771470  1
  O  O29  1  0.00920019  0.03228530  0.26764553  1
  O  O30  1  0.74155466  0.23235447  0.26463977  1
  O  O31  1  0.49079981  0.75844534  0.02308511  1
  O  O32  1  0.03228530  0.26764553  0.00920019  1
  O  O33  1  0.26463977  0.74155466  0.23235447  1
  O  O34  1  0.75844534  0.02308511  0.49079981  1
  O  O35  1  0.46771470  0.47691489  0.23536023  1
  O  O36  1  0.23536023  0.46771470  0.47691489  1
  O  O37  1  0.26764553  0.00920019  0.03228530  1
  O  O38  1  0.23235447  0.26463977  0.74155466  1
  O  O39  1  0.02308511  0.49079981  0.75844534  1
