# generated using pymatgen
data_Ag2F5
_symmetry_space_group_name_H-M   'P 1'
_cell_length_a   5.19665679
_cell_length_b   7.58895201
_cell_length_c   11.44632351
_cell_angle_alpha   88.02099924
_cell_angle_beta   90.78796383
_cell_angle_gamma   107.16705429
_symmetry_Int_Tables_number   1
_chemical_formula_structural   Ag2F5
_chemical_formula_sum   'Ag8 F20'
_cell_volume   431.03932447
_cell_formula_units_Z   4
loop_
 _symmetry_equiv_pos_site_id
 _symmetry_equiv_pos_as_xyz
  1  'x, y, z'
loop_
 _atom_site_type_symbol
 _atom_site_label
 _atom_site_symmetry_multiplicity
 _atom_site_fract_x
 _atom_site_fract_y
 _atom_site_fract_z
 _atom_site_occupancy
  Ag  Ag0  1  0.50000000  0.50000000  0.00000000  1
  Ag  Ag1  1  0.50000000  0.00000000  0.50000000  1
  Ag  Ag2  1  0.04280754  0.72210951  0.24662981  1
  Ag  Ag3  1  0.95719246  0.27789049  0.75337019  1
  Ag  Ag4  1  0.50000000  0.00000000  0.00000000  1
  Ag  Ag5  1  0.50000000  0.50000000  0.50000000  1
  Ag  Ag6  1  0.04598479  0.21518521  0.23438849  1
  Ag  Ag7  1  0.95401521  0.78481479  0.76561151  1
  F  F8  1  0.44979261  0.73328276  0.57233440  1
  F  F9  1  0.55020739  0.26671724  0.42766560  1
  F  F10  1  0.67274095  0.22909051  0.90450039  1
  F  F11  1  0.32725905  0.77090949  0.09549961  1
  F  F12  1  0.47990332  0.83841488  0.86758527  1
  F  F13  1  0.52009668  0.16158512  0.13241473  1
  F  F14  1  0.94403465  0.97653717  0.15349430  1
  F  F15  1  0.05596535  0.02346283  0.84650570  1
  F  F16  1  0.63892031  0.12201806  0.65407895  1
  F  F17  1  0.36107969  0.87798194  0.34592105  1
  F  F18  1  0.79353303  0.66091932  0.39896402  1
  F  F19  1  0.20646697  0.33908068  0.60103598  1
  F  F20  1  0.87205747  0.64405790  0.91874087  1
  F  F21  1  0.12794253  0.35594210  0.08125913  1
  F  F22  1  0.72173768  0.56155365  0.15088171  1
  F  F23  1  0.27826232  0.43844635  0.84911829  1
  F  F24  1  0.15385897  0.45489069  0.31385636  1
  F  F25  1  0.84614103  0.54510931  0.68614364  1
  F  F26  1  0.95131822  0.07756925  0.38252464  1
  F  F27  1  0.04868178  0.92243075  0.61747536  1
