# generated using pymatgen
data_Na2B8O13
_symmetry_space_group_name_H-M   'P 1'
_cell_length_a   6.62301925
_cell_length_b   8.55123875
_cell_length_c   18.01312364
_cell_angle_alpha   90.00000000
_cell_angle_beta   90.00000000
_cell_angle_gamma   95.03937016
_symmetry_Int_Tables_number   1
_chemical_formula_structural   Na2B8O13
_chemical_formula_sum   'Na8 B32 O52'
_cell_volume   1016.23019262
_cell_formula_units_Z   4
loop_
 _symmetry_equiv_pos_site_id
 _symmetry_equiv_pos_as_xyz
  1  'x, y, z'
loop_
 _atom_site_type_symbol
 _atom_site_label
 _atom_site_symmetry_multiplicity
 _atom_site_fract_x
 _atom_site_fract_y
 _atom_site_fract_z
 _atom_site_occupancy
  Na  Na0  1  0.42170549  0.03947411  0.63813880  1
  Na  Na1  1  0.07829451  0.96052589  0.13813880  1
  Na  Na2  1  0.57829451  0.96052589  0.36186120  1
  Na  Na3  1  0.92170549  0.03947411  0.86186120  1
  Na  Na4  1  0.04029376  0.57903302  0.59996120  1
  Na  Na5  1  0.45970624  0.42096698  0.09996120  1
  Na  Na6  1  0.95970624  0.42096698  0.40003880  1
  Na  Na7  1  0.54029376  0.57903302  0.90003880  1
  O  O8  1  0.27285770  0.85039907  0.43768772  1
  O  O9  1  0.22714230  0.14960093  0.93768772  1
  O  O10  1  0.72714230  0.14960093  0.56231228  1
  O  O11  1  0.77285770  0.85039907  0.06231228  1
  O  O12  1  0.60772749  0.81772345  0.46697775  1
  O  O13  1  0.89227251  0.18227655  0.96697775  1
  O  O14  1  0.39227251  0.18227655  0.53302225  1
  O  O15  1  0.10772749  0.81772345  0.03302225  1
  O  O16  1  0.94438963  0.73099900  0.47839211  1
  O  O17  1  0.55561037  0.26900100  0.97839211  1
  O  O18  1  0.05561037  0.26900100  0.52160789  1
  O  O19  1  0.44438963  0.73099900  0.02160789  1
  O  O20  1  0.70565809  0.67500942  0.57325104  1
  O  O21  1  0.79434191  0.32499058  0.07325104  1
  O  O22  1  0.29434191  0.32499058  0.42674896  1
  O  O23  1  0.20565809  0.67500942  0.92674896  1
  O  O24  1  0.35382091  0.74141453  0.55788179  1
  O  O25  1  0.14617909  0.25858547  0.05788179  1
  O  O26  1  0.64617909  0.25858547  0.44211821  1
  O  O27  1  0.85382091  0.74141453  0.94211821  1
  O  O28  1  0.42558804  0.52532177  0.63251808  1
  O  O29  1  0.07441196  0.47467823  0.13251808  1
  O  O30  1  0.57441196  0.47467823  0.36748192  1
  O  O31  1  0.92558804  0.52532177  0.86748192  1
  O  O32  1  0.50897545  0.57898283  0.76011254  1
  O  O33  1  0.99102455  0.42101717  0.26011254  1
  O  O34  1  0.49102455  0.42101717  0.23988746  1
  O  O35  1  0.00897545  0.57898283  0.73988746  1
  O  O36  1  0.53661864  0.83098643  0.80840567  1
  O  O37  1  0.96338136  0.16901357  0.30840567  1
  O  O38  1  0.46338136  0.16901357  0.19159433  1
  O  O39  1  0.03661864  0.83098643  0.69159433  1
  O  O40  1  0.52777013  0.79434792  0.67411072  1
  O  O41  1  0.97222987  0.20565208  0.17411072  1
  O  O42  1  0.47222987  0.20565208  0.32588928  1
  O  O43  1  0.02777013  0.79434792  0.82588928  1
  O  O44  1  0.40627519  0.31757794  0.71850627  1
  O  O45  1  0.09372481  0.68242206  0.21850627  1
  O  O46  1  0.59372481  0.68242206  0.28149373  1
  O  O47  1  0.90627519  0.31757794  0.78149373  1
  O  O48  1  0.40853902  0.07251802  0.77107837  1
  O  O49  1  0.09146098  0.92748198  0.27107837  1
  O  O50  1  0.59146098  0.92748198  0.22892163  1
  O  O51  1  0.90853902  0.07251802  0.72892163  1
  O  O52  1  0.52666586  0.03883208  0.89501808  1
  O  O53  1  0.97333414  0.96116792  0.39501808  1
  O  O54  1  0.47333414  0.96116792  0.10498192  1
  O  O55  1  0.02666586  0.03883208  0.60498192  1
  O  O56  1  0.44444528  0.29790584  0.85254657  1
  O  O57  1  0.05555472  0.70209416  0.35254657  1
  O  O58  1  0.55555472  0.70209416  0.14745343  1
  O  O59  1  0.94444528  0.29790584  0.64745343  1
  B  B60  1  0.40271329  0.79983842  0.48884629  1
  B  B61  1  0.09728671  0.20016158  0.98884629  1
  B  B62  1  0.59728671  0.20016158  0.51115371  1
  B  B63  1  0.90271329  0.79983842  0.01115371  1
  B  B64  1  0.75463519  0.74409987  0.50592958  1
  B  B65  1  0.74536481  0.25590013  0.00592958  1
  B  B66  1  0.24536481  0.25590013  0.49407042  1
  B  B67  1  0.25463519  0.74409987  0.99407042  1
  B  B68  1  0.50640539  0.68280365  0.60794770  1
  B  B69  1  0.99359461  0.31719635  0.10794770  1
  B  B70  1  0.49359461  0.31719635  0.39205230  1
  B  B71  1  0.00640539  0.68280365  0.89205230  1
  B  B72  1  0.44742784  0.47496721  0.70279605  1
  B  B73  1  0.05257216  0.52503279  0.20279605  1
  B  B74  1  0.55257216  0.52503279  0.29720395  1
  B  B75  1  0.94742784  0.47496721  0.79720395  1
  B  B76  1  0.52427831  0.74003831  0.74468618  1
  B  B77  1  0.97572169  0.25996169  0.24468618  1
  B  B78  1  0.47572169  0.25996169  0.25531382  1
  B  B79  1  0.02427831  0.74003831  0.75531382  1
  B  B80  1  0.41994636  0.23555679  0.78420964  1
  B  B81  1  0.08005364  0.76444321  0.28420964  1
  B  B82  1  0.58005364  0.76444321  0.21579036  1
  B  B83  1  0.91994636  0.23555679  0.71579036  1
  B  B84  1  0.48634193  0.97992669  0.82644715  1
  B  B85  1  0.01365807  0.02007331  0.32644715  1
  B  B86  1  0.51365807  0.02007331  0.17355285  1
  B  B87  1  0.98634193  0.97992669  0.67355285  1
  B  B88  1  0.44176658  0.18752562  0.91847283  1
  B  B89  1  0.05823342  0.81247438  0.41847283  1
  B  B90  1  0.55823342  0.81247438  0.08152717  1
  B  B91  1  0.94176658  0.18752562  0.58152717  1
