# generated using pymatgen
data_Ba11Bi10
_symmetry_space_group_name_H-M   'P 1'
_cell_length_a   13.47771035
_cell_length_b   13.47770978
_cell_length_c   13.73820936
_cell_angle_alpha   119.37471083
_cell_angle_beta   119.37470941
_cell_angle_gamma   90.00000044
_symmetry_Int_Tables_number   1
_chemical_formula_structural   Ba11Bi10
_chemical_formula_sum   'Ba22 Bi20'
_cell_volume   1797.44147775
_cell_formula_units_Z   2
loop_
 _symmetry_equiv_pos_site_id
 _symmetry_equiv_pos_as_xyz
  1  'x, y, z'
loop_
 _atom_site_type_symbol
 _atom_site_label
 _atom_site_symmetry_multiplicity
 _atom_site_fract_x
 _atom_site_fract_y
 _atom_site_fract_z
 _atom_site_occupancy
  Bi  Bi0  1  0.75000000  0.25000000  0.50000000  1
  Bi  Bi1  1  0.25000000  0.75000000  0.50000000  1
  Bi  Bi2  1  0.11890695  0.11890695  0.23781390  1
  Bi  Bi3  1  0.88109305  0.88109305  0.76218610  1
  Bi  Bi4  1  0.53145969  0.53145969  0.64205876  1
  Bi  Bi5  1  0.11059906  0.53145969  0.64205876  1
  Bi  Bi6  1  0.53145969  0.11059906  0.64205876  1
  Bi  Bi7  1  0.88940094  0.46854031  0.35794124  1
  Bi  Bi8  1  0.46854031  0.88940094  0.35794124  1
  Bi  Bi9  1  0.88940094  0.88940094  0.35794124  1
  Bi  Bi10  1  0.46854031  0.46854031  0.35794124  1
  Bi  Bi11  1  0.11059906  0.11059906  0.64205876  1
  Bi  Bi12  1  0.35727208  1.00000000  1.00000000  1
  Bi  Bi13  1  0.00000000  0.35727208  0.00000000  1
  Bi  Bi14  1  0.00000000  0.64272792  0.00000000  1
  Bi  Bi15  1  0.64272792  0.00000000  0.00000000  1
  Bi  Bi16  1  0.62010252  0.62010252  0.00000000  1
  Bi  Bi17  1  0.37989748  0.62010252  1.00000000  1
  Bi  Bi18  1  0.62010252  0.37989748  0.00000000  1
  Bi  Bi19  1  0.37989748  0.37989748  1.00000000  1
  Ba  Ba20  1  0.44148288  0.19127288  0.38254575  1
  Ba  Ba21  1  0.19127288  0.44148288  0.38254575  1
  Ba  Ba22  1  0.19127288  0.94106287  0.38254575  1
  Ba  Ba23  1  0.05893713  0.80872712  0.61745425  1
  Ba  Ba24  1  0.55851712  0.80872712  0.61745425  1
  Ba  Ba25  1  0.80872712  0.05893713  0.61745425  1
  Ba  Ba26  1  0.80872712  0.55851712  0.61745425  1
  Ba  Ba27  1  0.94106287  0.19127288  0.38254575  1
  Ba  Ba28  1  0.34621599  0.34621599  0.69243198  1
  Ba  Ba29  1  0.65378401  0.65378401  0.30756802  1
  Ba  Ba30  1  0.60443897  0.27227378  0.20887795  1
  Ba  Ba31  1  0.93660417  0.60443897  0.20887795  1
  Ba  Ba32  1  0.27227378  0.60443897  0.20887795  1
  Ba  Ba33  1  0.39556103  0.72772622  0.79112205  1
  Ba  Ba34  1  0.39556103  0.06339583  0.79112205  1
  Ba  Ba35  1  0.06339583  0.39556103  0.79112205  1
  Ba  Ba36  1  0.72772622  0.39556103  0.79112205  1
  Ba  Ba37  1  0.60443897  0.93660417  0.20887795  1
  Ba  Ba38  1  0.16791247  0.16791247  0.00000000  1
  Ba  Ba39  1  0.83208753  0.16791247  1.00000000  1
  Ba  Ba40  1  0.16791247  0.83208753  0.00000000  1
  Ba  Ba41  1  0.83208753  0.83208753  1.00000000  1
