# generated using pymatgen
data_Dy5Ga3
_symmetry_space_group_name_H-M   'P 1'
_cell_length_a   7.63496290
_cell_length_b   7.63496281
_cell_length_c   8.92186257
_cell_angle_alpha   115.33306141
_cell_angle_beta   115.33306109
_cell_angle_gamma   89.99999702
_symmetry_Int_Tables_number   1
_chemical_formula_structural   Dy5Ga3
_chemical_formula_sum   'Dy10 Ga6'
_cell_volume   414.05557501
_cell_formula_units_Z   2
loop_
 _symmetry_equiv_pos_site_id
 _symmetry_equiv_pos_as_xyz
  1  'x, y, z'
loop_
 _atom_site_type_symbol
 _atom_site_label
 _atom_site_symmetry_multiplicity
 _atom_site_fract_x
 _atom_site_fract_y
 _atom_site_fract_z
 _atom_site_occupancy
  Dy  Dy0  1  0.00000000  0.00000000  0.00000000  1
  Dy  Dy1  1  0.50000000  0.50000000  0.00000000  1
  Dy  Dy2  1  0.31731739  0.81731739  0.29447720  1
  Dy  Dy3  1  0.47715981  0.31731739  0.29447720  1
  Dy  Dy4  1  0.81731739  0.97715981  0.29447720  1
  Dy  Dy5  1  0.52284019  0.68268261  0.70552280  1
  Dy  Dy6  1  0.18268261  0.02284019  0.70552280  1
  Dy  Dy7  1  0.02284019  0.52284019  0.70552280  1
  Dy  Dy8  1  0.68268261  0.18268261  0.70552280  1
  Dy  Dy9  1  0.97715981  0.47715981  0.29447720  1
  Ga  Ga10  1  0.25000000  0.25000000  0.50000000  1
  Ga  Ga11  1  0.75000000  0.75000000  0.50000000  1
  Ga  Ga12  1  0.37782904  0.87782904  0.00000000  1
  Ga  Ga13  1  0.12217096  0.37782904  0.00000000  1
  Ga  Ga14  1  0.87782904  0.62217096  1.00000000  1
  Ga  Ga15  1  0.62217096  0.12217096  1.00000000  1
