# generated using pymatgen
data_TlCr3S5
_symmetry_space_group_name_H-M   'P 1'
_cell_length_a   3.51075447
_cell_length_b   9.91345455
_cell_length_c   10.89883937
_cell_angle_alpha   70.84979853
_cell_angle_beta   80.73279176
_cell_angle_gamma   79.79988509
_symmetry_Int_Tables_number   1
_chemical_formula_structural   TlCr3S5
_chemical_formula_sum   'Tl2 Cr6 S10'
_cell_volume   350.49722672
_cell_formula_units_Z   2
loop_
 _symmetry_equiv_pos_site_id
 _symmetry_equiv_pos_as_xyz
  1  'x, y, z'
loop_
 _atom_site_type_symbol
 _atom_site_label
 _atom_site_symmetry_multiplicity
 _atom_site_fract_x
 _atom_site_fract_y
 _atom_site_fract_z
 _atom_site_occupancy
  Tl  Tl0  1  0.73867180  0.34849473  0.17426391  1
  Tl  Tl1  1  0.26132820  0.65150527  0.82573609  1
  Cr  Cr2  1  0.50000000  0.00000000  0.00000000  1
  Cr  Cr3  1  0.50000000  0.50000000  0.50000000  1
  Cr  Cr4  1  0.83550813  0.94085627  0.38811798  1
  Cr  Cr5  1  0.16449187  0.05914373  0.61188202  1
  Cr  Cr6  1  0.01647377  0.73971336  0.22741659  1
  Cr  Cr7  1  0.98352623  0.26028664  0.77258341  1
  S  S8  1  0.92401138  0.00077547  0.15122418  1
  S  S9  1  0.07598862  0.99922453  0.84877582  1
  S  S10  1  0.58969246  0.73800445  0.08266614  1
  S  S11  1  0.41030754  0.26199555  0.91733386  1
  S  S12  1  0.42411730  0.75938674  0.39254932  1
  S  S13  1  0.57588270  0.24061326  0.60745068  1
  S  S14  1  0.25558124  0.10657731  0.38221710  1
  S  S15  1  0.74441876  0.89342269  0.61778290  1
  S  S16  1  0.07990135  0.49202806  0.34809259  1
  S  S17  1  0.92009865  0.50797194  0.65190741  1
