# generated using pymatgen
data_Gd2Zn17
_symmetry_space_group_name_H-M   'P 1'
_cell_length_a   6.82047726
_cell_length_b   6.82047653
_cell_length_c   6.82047732
_cell_angle_alpha   82.60392440
_cell_angle_beta   82.60392513
_cell_angle_gamma   82.60392725
_symmetry_Int_Tables_number   1
_chemical_formula_structural   Gd2Zn17
_chemical_formula_sum   'Gd2 Zn17'
_cell_volume   309.98770086
_cell_formula_units_Z   1
loop_
 _symmetry_equiv_pos_site_id
 _symmetry_equiv_pos_as_xyz
  1  'x, y, z'
loop_
 _atom_site_type_symbol
 _atom_site_label
 _atom_site_symmetry_multiplicity
 _atom_site_fract_x
 _atom_site_fract_y
 _atom_site_fract_z
 _atom_site_occupancy
  Gd  Gd0  1  0.66465287  0.66465287  0.66465287  1
  Gd  Gd1  1  0.33534713  0.33534713  0.33534713  1
  Zn  Zn2  1  0.35095984  0.35095984  0.83873899  1
  Zn  Zn3  1  0.29628083  0.70371917  0.00000000  1
  Zn  Zn4  1  0.00000000  0.29628083  0.70371917  1
  Zn  Zn5  1  0.35095984  0.83873899  0.35095984  1
  Zn  Zn6  1  0.64904016  0.64904016  0.16126101  1
  Zn  Zn7  1  0.83873899  0.35095984  0.35095984  1
  Zn  Zn8  1  0.70371917  1.00000000  0.29628083  1
  Zn  Zn9  1  0.16126101  0.64904016  0.64904016  1
  Zn  Zn10  1  0.64904016  0.16126101  0.64904016  1
  Zn  Zn11  1  0.00000000  0.00000000  0.50000000  1
  Zn  Zn12  1  0.70371917  0.29628083  1.00000000  1
  Zn  Zn13  1  0.10000942  0.10000942  0.10000942  1
  Zn  Zn14  1  1.00000000  0.70371917  0.29628083  1
  Zn  Zn15  1  0.00000000  0.50000000  0.00000000  1
  Zn  Zn16  1  0.89999058  0.89999058  0.89999058  1
  Zn  Zn17  1  0.50000000  0.00000000  0.00000000  1
  Zn  Zn18  1  0.29628083  0.00000000  0.70371917  1
