# generated using pymatgen
data_CaSb3P3O13
_symmetry_space_group_name_H-M   'P 1'
_cell_length_a   6.97776520
_cell_length_b   8.20479615
_cell_length_c   11.16964240
_cell_angle_alpha   102.12181824
_cell_angle_beta   90.00000000
_cell_angle_gamma   90.00000000
_symmetry_Int_Tables_number   1
_chemical_formula_structural   CaSb3P3O13
_chemical_formula_sum   'Ca2 Sb6 P6 O26'
_cell_volume   625.21662279
_cell_formula_units_Z   2
loop_
 _symmetry_equiv_pos_site_id
 _symmetry_equiv_pos_as_xyz
  1  'x, y, z'
loop_
 _atom_site_type_symbol
 _atom_site_label
 _atom_site_symmetry_multiplicity
 _atom_site_fract_x
 _atom_site_fract_y
 _atom_site_fract_z
 _atom_site_occupancy
  Ca  Ca0  1  0.75000000  0.62572633  0.17771022  1
  Ca  Ca1  1  0.25000000  0.37427367  0.82228978  1
  Sb  Sb2  1  0.25000000  0.35126729  0.23064158  1
  Sb  Sb3  1  0.75000000  0.64873271  0.76935842  1
  Sb  Sb4  1  0.25000000  0.76073408  0.43920562  1
  Sb  Sb5  1  0.50000000  0.00000000  -0.00000000  1
  Sb  Sb6  1  0.75000000  0.23926592  0.56079438  1
  Sb  Sb7  1  0.00000000  0.00000000  -0.00000000  1
  P  P8  1  0.25000000  0.19183840  0.51347589  1
  P  P9  1  0.75000000  0.80816160  0.48652411  1
  P  P10  1  0.25000000  0.73868718  0.76313232  1
  P  P11  1  0.75000000  0.26131282  0.23686768  1
  P  P12  1  0.75000000  0.31489222  0.89375401  1
  P  P13  1  0.25000000  0.68510778  0.10624599  1
  O  O14  1  0.75000000  0.32295853  0.75535740  1
  O  O15  1  0.57429628  0.77110816  0.39927111  1
  O  O16  1  0.25000000  0.80581354  0.64659630  1
  O  O17  1  0.55879313  0.22516991  0.91432927  1
  O  O18  1  0.75000000  0.69781952  0.58369666  1
  O  O19  1  0.75000000  0.87024373  0.88766109  1
  O  O20  1  0.25000000  0.30218048  0.41630334  1
  O  O21  1  0.05879313  0.77483009  0.08567073  1
  O  O22  1  0.25000000  0.00668796  0.43870103  1
  O  O23  1  0.75000000  0.99331204  0.56129897  1
  O  O24  1  0.07695147  0.62525361  0.77988570  1
  O  O25  1  0.25000000  0.12975627  0.11233891  1
  O  O26  1  0.57695147  0.37474639  0.22011430  1
  O  O27  1  0.75000000  0.49539704  0.96902220  1
  O  O28  1  0.75000000  0.19418646  0.35340370  1
  O  O29  1  0.44120687  0.77483009  0.08567073  1
  O  O30  1  0.92570372  0.77110816  0.39927111  1
  O  O31  1  0.42570372  0.22889184  0.60072889  1
  O  O32  1  0.42304853  0.62525361  0.77988570  1
  O  O33  1  0.25000000  0.67704147  0.24464260  1
  O  O34  1  0.75000000  0.10042713  0.12978372  1
  O  O35  1  0.25000000  0.89957287  0.87021628  1
  O  O36  1  0.92304853  0.37474639  0.22011430  1
  O  O37  1  0.94120687  0.22516991  0.91432927  1
  O  O38  1  0.07429628  0.22889184  0.60072889  1
  O  O39  1  0.25000000  0.50460296  0.03097780  1
