# generated using pymatgen
data_Ho(SiNi5)2
_symmetry_space_group_name_H-M   'P 1'
_cell_length_a   4.66919108
_cell_length_b   8.15331553
_cell_length_c   8.15331553
_cell_angle_alpha   90.00000000
_cell_angle_beta   90.00000000
_cell_angle_gamma   90.00000000
_symmetry_Int_Tables_number   1
_chemical_formula_structural   Ho(SiNi5)2
_chemical_formula_sum   'Ho2 Si4 Ni20'
_cell_volume   310.39173358
_cell_formula_units_Z   2
loop_
 _symmetry_equiv_pos_site_id
 _symmetry_equiv_pos_as_xyz
  1  'x, y, z'
loop_
 _atom_site_type_symbol
 _atom_site_label
 _atom_site_symmetry_multiplicity
 _atom_site_fract_x
 _atom_site_fract_y
 _atom_site_fract_z
 _atom_site_occupancy
  Ho  Ho0  1  0.22227300  0.25000000  0.25000000  1
  Ho  Ho1  1  0.77772700  0.75000000  0.75000000  1
  Ni  Ni2  1  0.00000000  0.00000000  0.00000000  1
  Ni  Ni3  1  0.00000000  0.50000000  0.00000000  1
  Ni  Ni4  1  0.00000000  0.00000000  0.50000000  1
  Ni  Ni5  1  0.00000000  0.50000000  0.50000000  1
  Si  Si6  1  0.50000000  0.50000000  0.00000000  1
  Si  Si7  1  0.50000000  0.50000000  0.50000000  1
  Si  Si8  1  0.50000000  0.00000000  0.00000000  1
  Si  Si9  1  0.50000000  0.00000000  0.50000000  1
  Ni  Ni10  1  0.23878106  0.25000000  0.60275878  1
  Ni  Ni11  1  0.23878106  0.89724122  0.25000000  1
  Ni  Ni12  1  0.23878106  0.60275878  0.25000000  1
  Ni  Ni13  1  0.23878106  0.25000000  0.89724122  1
  Ni  Ni14  1  0.76121894  0.75000000  0.39724122  1
  Ni  Ni15  1  0.76121894  0.75000000  0.10275878  1
  Ni  Ni16  1  0.76121894  0.10275878  0.75000000  1
  Ni  Ni17  1  0.76121894  0.39724122  0.75000000  1
  Ni  Ni18  1  0.72909450  0.25000000  0.02717973  1
  Ni  Ni19  1  0.72909450  0.47282027  0.25000000  1
  Ni  Ni20  1  0.72909450  0.02717973  0.25000000  1
  Ni  Ni21  1  0.72909450  0.25000000  0.47282027  1
  Ni  Ni22  1  0.27090550  0.75000000  0.97282027  1
  Ni  Ni23  1  0.27090550  0.75000000  0.52717973  1
  Ni  Ni24  1  0.27090550  0.52717973  0.75000000  1
  Ni  Ni25  1  0.27090550  0.97282027  0.75000000  1
