# generated using pymatgen
data_K2PaF7
_symmetry_space_group_name_H-M   'P 1'
_cell_length_a   6.82731190
_cell_length_b   7.78346265
_cell_length_c   7.84774681
_cell_angle_alpha   63.77566787
_cell_angle_beta   64.21562973
_cell_angle_gamma   63.98680909
_symmetry_Int_Tables_number   1
_chemical_formula_structural   K2PaF7
_chemical_formula_sum   'K4 Pa2 F14'
_cell_volume   320.80849019
_cell_formula_units_Z   2
loop_
 _symmetry_equiv_pos_site_id
 _symmetry_equiv_pos_as_xyz
  1  'x, y, z'
loop_
 _atom_site_type_symbol
 _atom_site_label
 _atom_site_symmetry_multiplicity
 _atom_site_fract_x
 _atom_site_fract_y
 _atom_site_fract_z
 _atom_site_occupancy
  K  K0  1  0.68191267  0.39527112  0.25558496  1
  K  K1  1  0.33276875  0.10472888  0.24441504  1
  K  K2  1  0.31808733  0.60472888  0.74441504  1
  K  K3  1  0.66723125  0.89527112  0.75558496  1
  Pa  Pa4  1  0.02423029  0.75000000  0.25000000  1
  Pa  Pa5  1  0.97576971  0.25000000  0.75000000  1
  F  F6  1  0.05923715  0.58542218  0.56461146  1
  F  F7  1  0.20927078  0.91457782  0.93538854  1
  F  F8  1  0.94076285  0.41457782  0.43538854  1
  F  F9  1  0.79072922  0.08542218  0.06461146  1
  F  F10  1  0.88994626  0.70685996  0.06884325  1
  F  F11  1  0.66564946  0.79314004  0.43115675  1
  F  F12  1  0.11005374  0.29314004  0.93115675  1
  F  F13  1  0.33435054  0.20685996  0.56884325  1
  F  F14  1  0.93781157  0.99867326  0.35414572  1
  F  F15  1  0.29063056  0.50132674  0.14585428  1
  F  F16  1  0.06218843  0.00132674  0.64585428  1
  F  F17  1  0.70936944  0.49867326  0.85414572  1
  F  F18  1  0.34854542  0.75000000  0.25000000  1
  F  F19  1  0.65145458  0.25000000  0.75000000  1
