# generated using pymatgen
data_Cs2MgH12(SO7)2
_symmetry_space_group_name_H-M   'P 1'
_cell_length_a   6.42130360
_cell_length_b   9.39430520
_cell_length_c   12.97004324
_cell_angle_alpha   90.00000000
_cell_angle_beta   90.00000000
_cell_angle_gamma   106.66366042
_symmetry_Int_Tables_number   1
_chemical_formula_structural   Cs2MgH12(SO7)2
_chemical_formula_sum   'Cs4 Mg2 H24 S4 O28'
_cell_volume   749.54354601
_cell_formula_units_Z   2
loop_
 _symmetry_equiv_pos_site_id
 _symmetry_equiv_pos_as_xyz
  1  'x, y, z'
loop_
 _atom_site_type_symbol
 _atom_site_label
 _atom_site_symmetry_multiplicity
 _atom_site_fract_x
 _atom_site_fract_y
 _atom_site_fract_z
 _atom_site_occupancy
  Mg  Mg0  1  0.00000000  0.00000000  0.00000000  1
  Mg  Mg1  1  0.00000000  0.50000000  0.50000000  1
  S  S2  1  0.74121656  0.39558528  0.14851882  1
  S  S3  1  0.25878344  0.10441472  0.64851882  1
  S  S4  1  0.25878344  0.60441472  0.85148118  1
  S  S5  1  0.74121656  0.89558528  0.35148118  1
  O  O6  1  0.61062755  0.41787280  0.23912764  1
  O  O7  1  0.38937245  0.08212720  0.73912764  1
  O  O8  1  0.38937245  0.58212720  0.76087236  1
  O  O9  1  0.61062755  0.91787280  0.26087236  1
  O  O10  1  0.80279616  0.53252435  0.08412178  1
  O  O11  1  0.19720384  0.96747565  0.58412178  1
  O  O12  1  0.19720384  0.46747565  0.91587822  1
  O  O13  1  0.80279616  0.03252435  0.41587822  1
  O  O14  1  0.60279009  0.27038883  0.08481531  1
  O  O15  1  0.39720991  0.22961117  0.58481531  1
  O  O16  1  0.39720991  0.72961117  0.91518469  1
  O  O17  1  0.60279009  0.77038883  0.41518469  1
  O  O18  1  0.94066577  0.35737329  0.18479488  1
  O  O19  1  0.05933423  0.14262671  0.68479488  1
  O  O20  1  0.05933423  0.64262671  0.81520512  1
  O  O21  1  0.94066577  0.85737329  0.31520512  1
  O  O22  1  0.15998038  0.16202746  0.10861186  1
  O  O23  1  0.84001962  0.33797254  0.60861186  1
  O  O24  1  0.84001962  0.83797254  0.89138814  1
  O  O25  1  0.15998038  0.66202746  0.39138814  1
  O  O26  1  0.00694409  0.83105579  0.10897091  1
  O  O27  1  0.99305591  0.66894421  0.60897091  1
  O  O28  1  0.99305591  0.16894421  0.89102909  1
  O  O29  1  0.00694409  0.33105579  0.39102909  1
  O  O30  1  0.29167159  0.99265717  0.93492474  1
  O  O31  1  0.70832841  0.50734283  0.43492474  1
  O  O32  1  0.70832841  0.00734283  0.06507526  1
  O  O33  1  0.29167159  0.49265717  0.56507526  1
  Cs  Cs34  1  0.35176237  0.12706631  0.35686083  1
  Cs  Cs35  1  0.64823763  0.37293369  0.85686083  1
  Cs  Cs36  1  0.64823763  0.87293369  0.64313917  1
  Cs  Cs37  1  0.35176237  0.62706631  0.14313917  1
  H  H38  1  0.31766990  0.21289369  0.09996218  1
  H  H39  1  0.68233010  0.28710631  0.59996218  1
  H  H40  1  0.68233010  0.78710631  0.90003782  1
  H  H41  1  0.31766990  0.71289369  0.40003782  1
  H  H42  1  0.08425600  0.23511903  0.13090178  1
  H  H43  1  0.91574400  0.26488097  0.63090178  1
  H  H44  1  0.91574400  0.76488097  0.86909822  1
  H  H45  1  0.08425600  0.73511903  0.36909822  1
  H  H46  1  0.92776932  0.72494948  0.09721851  1
  H  H47  1  0.07223068  0.77505052  0.59721851  1
  H  H48  1  0.07223068  0.27505052  0.90278149  1
  H  H49  1  0.92776932  0.22494948  0.40278149  1
  H  H50  1  0.98364242  0.84863328  0.18335820  1
  H  H51  1  0.01635758  0.65136672  0.68335820  1
  H  H52  1  0.01635758  0.15136672  0.81664180  1
  H  H53  1  0.98364242  0.34863328  0.31664180  1
  H  H54  1  0.33747524  0.90069260  0.93905707  1
  H  H55  1  0.66252476  0.59930740  0.43905707  1
  H  H56  1  0.66252476  0.09930740  0.06094293  1
  H  H57  1  0.33747524  0.40069260  0.56094293  1
  H  H58  1  0.31399130  0.02268636  0.86120417  1
  H  H59  1  0.68600870  0.47731364  0.36120417  1
  H  H60  1  0.68600870  0.97731364  0.13879583  1
  H  H61  1  0.31399130  0.52268636  0.63879583  1
