# generated using pymatgen
data_Dy(SiNi5)2
_symmetry_space_group_name_H-M   'P 1'
_cell_length_a   4.66751575
_cell_length_b   8.16281813
_cell_length_c   8.16281813
_cell_angle_alpha   90.00000000
_cell_angle_beta   90.00000000
_cell_angle_gamma   90.00000000
_symmetry_Int_Tables_number   1
_chemical_formula_structural   Dy(SiNi5)2
_chemical_formula_sum   'Dy2 Si4 Ni20'
_cell_volume   311.00404162
_cell_formula_units_Z   2
loop_
 _symmetry_equiv_pos_site_id
 _symmetry_equiv_pos_as_xyz
  1  'x, y, z'
loop_
 _atom_site_type_symbol
 _atom_site_label
 _atom_site_symmetry_multiplicity
 _atom_site_fract_x
 _atom_site_fract_y
 _atom_site_fract_z
 _atom_site_occupancy
  Dy  Dy0  1  0.22115946  0.25000000  0.25000000  1
  Dy  Dy1  1  0.77884054  0.75000000  0.75000000  1
  Ni  Ni2  1  0.00000000  0.00000000  0.00000000  1
  Ni  Ni3  1  0.00000000  0.50000000  0.00000000  1
  Ni  Ni4  1  0.00000000  0.00000000  0.50000000  1
  Ni  Ni5  1  0.00000000  0.50000000  0.50000000  1
  Si  Si6  1  0.50000000  0.50000000  0.00000000  1
  Si  Si7  1  0.50000000  0.50000000  0.50000000  1
  Si  Si8  1  0.50000000  0.00000000  0.00000000  1
  Si  Si9  1  0.50000000  0.00000000  0.50000000  1
  Ni  Ni10  1  0.23855786  0.25000000  0.60288011  1
  Ni  Ni11  1  0.23855786  0.89711989  0.25000000  1
  Ni  Ni12  1  0.23855786  0.60288011  0.25000000  1
  Ni  Ni13  1  0.23855786  0.25000000  0.89711989  1
  Ni  Ni14  1  0.76144214  0.75000000  0.39711989  1
  Ni  Ni15  1  0.76144214  0.75000000  0.10288011  1
  Ni  Ni16  1  0.76144214  0.10288011  0.75000000  1
  Ni  Ni17  1  0.76144214  0.39711989  0.75000000  1
  Ni  Ni18  1  0.72884140  0.25000000  0.02641067  1
  Ni  Ni19  1  0.72884140  0.47358933  0.25000000  1
  Ni  Ni20  1  0.72884140  0.02641067  0.25000000  1
  Ni  Ni21  1  0.72884140  0.25000000  0.47358933  1
  Ni  Ni22  1  0.27115860  0.75000000  0.97358933  1
  Ni  Ni23  1  0.27115860  0.75000000  0.52641067  1
  Ni  Ni24  1  0.27115860  0.52641067  0.75000000  1
  Ni  Ni25  1  0.27115860  0.97358933  0.75000000  1
