# generated using pymatgen
data_KSn
_symmetry_space_group_name_H-M   'P 1'
_cell_length_a   11.52309984
_cell_length_b   11.52309987
_cell_length_c   12.47524987
_cell_angle_alpha   117.50580180
_cell_angle_beta   117.50580186
_cell_angle_gamma   90.00000136
_symmetry_Int_Tables_number   1
_chemical_formula_structural   KSn
_chemical_formula_sum   'K16 Sn16'
_cell_volume   1254.35576840
_cell_formula_units_Z   16
loop_
 _symmetry_equiv_pos_site_id
 _symmetry_equiv_pos_as_xyz
  1  'x, y, z'
loop_
 _atom_site_type_symbol
 _atom_site_label
 _atom_site_symmetry_multiplicity
 _atom_site_fract_x
 _atom_site_fract_y
 _atom_site_fract_z
 _atom_site_occupancy
  K  K0  1  0.75000000  0.11245615  0.00000000  1
  K  K1  1  0.24679706  0.25320294  0.25000000  1
  K  K2  1  0.50320294  0.75320294  0.25000000  1
  K  K3  1  0.25000000  0.88754385  0.00000000  1
  K  K4  1  0.74679706  0.99679706  0.25000000  1
  K  K5  1  0.00320294  0.49679706  0.25000000  1
  K  K6  1  0.11245615  0.25000000  0.50000000  1
  K  K7  1  0.25000000  0.38754385  0.00000000  1
  K  K8  1  0.99679706  0.50320294  0.75000000  1
  K  K9  1  0.75000000  0.61245615  0.00000000  1
  K  K10  1  0.38754385  0.75000000  0.50000000  1
  K  K11  1  0.75320294  0.74679706  0.75000000  1
  K  K12  1  0.88754385  0.75000000  0.50000000  1
  K  K13  1  0.25320294  0.00320294  0.75000000  1
  K  K14  1  0.49679706  0.24679706  0.75000000  1
  K  K15  1  0.61245615  0.25000000  0.50000000  1
  Sn  Sn16  1  0.56819542  0.49633794  0.36256902  1
  Sn  Sn17  1  0.93180458  0.13376891  0.63743098  1
  Sn  Sn18  1  0.13376891  0.70562640  0.13743098  1
  Sn  Sn19  1  0.06819542  0.86623109  0.36256902  1
  Sn  Sn20  1  0.63376891  0.43180458  0.13743098  1
  Sn  Sn21  1  0.86623109  0.29437360  0.86256902  1
  Sn  Sn22  1  0.99633794  0.06819542  0.86256902  1
  Sn  Sn23  1  0.50366206  0.20562640  0.13743098  1
  Sn  Sn24  1  0.49633794  0.79437360  0.86256902  1
  Sn  Sn25  1  0.43180458  0.50366206  0.63743098  1
  Sn  Sn26  1  0.70562640  0.00366206  0.63743098  1
  Sn  Sn27  1  0.00366206  0.93180458  0.13743098  1
  Sn  Sn28  1  0.29437360  0.99633794  0.36256902  1
  Sn  Sn29  1  0.79437360  0.36623109  0.36256902  1
  Sn  Sn30  1  0.36623109  0.56819542  0.86256902  1
  Sn  Sn31  1  0.20562640  0.63376891  0.63743098  1
