# generated using pymatgen
data_Cs3GaSe3
_symmetry_space_group_name_H-M   'P 1'
_cell_length_a   8.70984957
_cell_length_b   9.33581838
_cell_length_c   14.07486362
_cell_angle_alpha   90.00000000
_cell_angle_beta   90.00000000
_cell_angle_gamma   101.74727408
_symmetry_Int_Tables_number   1
_chemical_formula_structural   Cs3GaSe3
_chemical_formula_sum   'Cs12 Ga4 Se12'
_cell_volume   1120.50656326
_cell_formula_units_Z   4
loop_
 _symmetry_equiv_pos_site_id
 _symmetry_equiv_pos_as_xyz
  1  'x, y, z'
loop_
 _atom_site_type_symbol
 _atom_site_label
 _atom_site_symmetry_multiplicity
 _atom_site_fract_x
 _atom_site_fract_y
 _atom_site_fract_z
 _atom_site_occupancy
  Cs  Cs0  1  0.25774876  0.61318262  0.07845085  1
  Cs  Cs1  1  0.24225124  0.88681738  0.57845085  1
  Cs  Cs2  1  0.74225124  0.38681738  0.92154915  1
  Cs  Cs3  1  0.75774876  0.11318262  0.42154915  1
  Cs  Cs4  1  0.28473137  0.41491587  0.80684379  1
  Cs  Cs5  1  0.21526863  0.08508413  0.30684379  1
  Cs  Cs6  1  0.71526863  0.58508413  0.19315621  1
  Cs  Cs7  1  0.78473137  0.91491587  0.69315621  1
  Cs  Cs8  1  0.13722850  0.51407472  0.37215158  1
  Cs  Cs9  1  0.36277150  0.98592528  0.87215158  1
  Cs  Cs10  1  0.86277150  0.48592528  0.62784842  1
  Cs  Cs11  1  0.63722850  0.01407472  0.12784842  1
  Se  Se12  1  0.47285620  0.60876484  0.60400625  1
  Se  Se13  1  0.02714380  0.89123516  0.10400625  1
  Se  Se14  1  0.52714380  0.39123516  0.39599375  1
  Se  Se15  1  0.97285620  0.10876484  0.89599375  1
  Se  Se16  1  0.45848078  0.80453608  0.33943802  1
  Se  Se17  1  0.04151922  0.69546392  0.83943802  1
  Se  Se18  1  0.54151922  0.19546392  0.66056198  1
  Se  Se19  1  0.95848078  0.30453608  0.16056198  1
  Se  Se20  1  0.87048859  0.75940772  0.44590556  1
  Se  Se21  1  0.62951141  0.74059228  0.94590556  1
  Se  Se22  1  0.12951141  0.24059228  0.55409444  1
  Se  Se23  1  0.37048859  0.25940772  0.05409444  1
  Ga  Ga24  1  0.09171472  0.15912226  0.05701277  1
  Ga  Ga25  1  0.40828528  0.34087774  0.55701277  1
  Ga  Ga26  1  0.90828528  0.84087774  0.94298723  1
  Ga  Ga27  1  0.59171472  0.65912226  0.44298723  1
