# generated using pymatgen
data_BaSnHgS4
_symmetry_space_group_name_H-M   'P 1'
_cell_length_a   6.74250434
_cell_length_b   11.04342761
_cell_length_c   11.09066980
_cell_angle_alpha   90.00000000
_cell_angle_beta   90.00000000
_cell_angle_gamma   90.00000000
_symmetry_Int_Tables_number   1
_chemical_formula_structural   BaSnHgS4
_chemical_formula_sum   'Ba4 Sn4 Hg4 S16'
_cell_volume   825.81525030
_cell_formula_units_Z   4
loop_
 _symmetry_equiv_pos_site_id
 _symmetry_equiv_pos_as_xyz
  1  'x, y, z'
loop_
 _atom_site_type_symbol
 _atom_site_label
 _atom_site_symmetry_multiplicity
 _atom_site_fract_x
 _atom_site_fract_y
 _atom_site_fract_z
 _atom_site_occupancy
  Ba  Ba0  1  0.05109539  0.00000000  0.50000000  1
  Ba  Ba1  1  0.55109539  0.50000000  0.00000000  1
  Ba  Ba2  1  0.54975483  0.50000000  0.50000000  1
  Ba  Ba3  1  0.04975483  0.00000000  0.00000000  1
  Sn  Sn4  1  0.53639570  0.78814710  0.25335270  1
  Sn  Sn5  1  0.03639570  0.28814710  0.24664730  1
  Sn  Sn6  1  0.03639570  0.71185290  0.75335270  1
  Sn  Sn7  1  0.53639570  0.21185290  0.74664730  1
  Hg  Hg8  1  0.99814576  0.67140016  0.24870051  1
  Hg  Hg9  1  0.49814576  0.17140016  0.25129949  1
  Hg  Hg10  1  0.99814576  0.32859984  0.75129949  1
  Hg  Hg11  1  0.49814576  0.82859984  0.74870051  1
  S  S12  1  0.76651354  0.76468471  0.42068579  1
  S  S13  1  0.26451944  0.73433182  0.58418101  1
  S  S14  1  0.79925469  0.44782957  0.24936589  1
  S  S15  1  0.29925469  0.05217043  0.74936589  1
  S  S16  1  0.76451944  0.76566818  0.08418101  1
  S  S17  1  0.76651354  0.23531529  0.57931421  1
  S  S18  1  0.26651354  0.73531529  0.92068579  1
  S  S19  1  0.79925469  0.55217043  0.75063411  1
  S  S20  1  0.34434577  0.59833262  0.25161862  1
  S  S21  1  0.84434577  0.09833262  0.24838138  1
  S  S22  1  0.34434577  0.40166738  0.74838138  1
  S  S23  1  0.29925469  0.94782957  0.25063411  1
  S  S24  1  0.84434577  0.90166738  0.75161862  1
  S  S25  1  0.26451944  0.26566818  0.41581899  1
  S  S26  1  0.76451944  0.23433182  0.91581899  1
  S  S27  1  0.26651354  0.26468471  0.07931421  1
