# generated using pymatgen
data_Mo2As3
_symmetry_space_group_name_H-M   'P 1'
_cell_length_a   3.26544138
_cell_length_b   6.94340801
_cell_length_c   8.26844569
_cell_angle_alpha   78.94157584
_cell_angle_beta   78.61130380
_cell_angle_gamma   76.39971770
_symmetry_Int_Tables_number   1
_chemical_formula_structural   Mo2As3
_chemical_formula_sum   'Mo4 As6'
_cell_volume   176.53690664
_cell_formula_units_Z   2
loop_
 _symmetry_equiv_pos_site_id
 _symmetry_equiv_pos_as_xyz
  1  'x, y, z'
loop_
 _atom_site_type_symbol
 _atom_site_label
 _atom_site_symmetry_multiplicity
 _atom_site_fract_x
 _atom_site_fract_y
 _atom_site_fract_z
 _atom_site_occupancy
  Mo  Mo0  1  0.24803099  0.87561075  0.62832728  1
  Mo  Mo1  1  0.75196901  0.12438925  0.37167272  1
  Mo  Mo2  1  0.35052673  0.43375728  0.86518926  1
  Mo  Mo3  1  0.64947327  0.56624272  0.13481074  1
  As  As4  1  0.12726796  0.79248910  0.95297499  1
  As  As5  1  0.87273204  0.20751090  0.04702501  1
  As  As6  1  0.41460962  0.85637327  0.31440748  1
  As  As7  1  0.58539038  0.14362673  0.68559252  1
  As  As8  1  0.10463512  0.41953953  0.37119024  1
  As  As9  1  0.89536488  0.58046047  0.62880976  1
