# generated using pymatgen
data_Rb2NaAl3F12
_symmetry_space_group_name_H-M   'P 1'
_cell_length_a   7.10707413
_cell_length_b   7.20736834
_cell_length_c   10.02867016
_cell_angle_alpha   91.04319374
_cell_angle_beta   90.00000000
_cell_angle_gamma   90.00000000
_symmetry_Int_Tables_number   1
_chemical_formula_structural   Rb2NaAl3F12
_chemical_formula_sum   'Rb4 Na2 Al6 F24'
_cell_volume   513.61644705
_cell_formula_units_Z   2
loop_
 _symmetry_equiv_pos_site_id
 _symmetry_equiv_pos_as_xyz
  1  'x, y, z'
loop_
 _atom_site_type_symbol
 _atom_site_label
 _atom_site_symmetry_multiplicity
 _atom_site_fract_x
 _atom_site_fract_y
 _atom_site_fract_z
 _atom_site_occupancy
  Rb  Rb0  1  0.75000000  0.99585313  0.11650580  1
  Rb  Rb1  1  0.25000000  0.00414687  0.88349420  1
  Rb  Rb2  1  0.25000000  0.51981819  0.63820542  1
  Rb  Rb3  1  0.75000000  0.48018181  0.36179458  1
  Na  Na4  1  0.75000000  0.78144840  0.75519509  1
  Na  Na5  1  0.25000000  0.21855160  0.24480491  1
  Al  Al6  1  0.50000000  0.00000000  0.50000000  1
  Al  Al7  1  0.00000000  0.00000000  0.50000000  1
  Al  Al8  1  0.00000000  0.50000000  0.00000000  1
  Al  Al9  1  0.50000000  0.50000000  0.00000000  1
  Al  Al10  1  0.75000000  0.28875166  0.72901151  1
  Al  Al11  1  0.25000000  0.71124834  0.27098849  1
  F  F12  1  0.75000000  0.92319455  0.48959241  1
  F  F13  1  0.25000000  0.07680545  0.51040759  1
  F  F14  1  0.75000000  0.50009563  0.63908630  1
  F  F15  1  0.25000000  0.49990437  0.36091370  1
  F  F16  1  0.25000000  0.50687321  0.94358263  1
  F  F17  1  0.75000000  0.49312679  0.05641737  1
  F  F18  1  0.25000000  0.91506556  0.17714035  1
  F  F19  1  0.75000000  0.08493444  0.82285965  1
  F  F20  1  0.96866272  0.14488577  0.36068854  1
  F  F21  1  0.46866272  0.85511423  0.63931146  1
  F  F22  1  0.03133728  0.85511423  0.63931146  1
  F  F23  1  0.53133728  0.14488577  0.36068854  1
  F  F24  1  0.93662953  0.19793032  0.61471844  1
  F  F25  1  0.43662953  0.80206968  0.38528156  1
  F  F26  1  0.06337047  0.80206968  0.38528156  1
  F  F27  1  0.56337047  0.19793032  0.61471844  1
  F  F28  1  0.03632742  0.27801501  0.06946288  1
  F  F29  1  0.53632742  0.72198499  0.93053712  1
  F  F30  1  0.96367258  0.72198499  0.93053712  1
  F  F31  1  0.46367258  0.27801501  0.06946288  1
  F  F32  1  0.44020441  0.61157218  0.16321468  1
  F  F33  1  0.94020441  0.38842782  0.83678532  1
  F  F34  1  0.55979559  0.38842782  0.83678532  1
  F  F35  1  0.05979559  0.61157218  0.16321468  1
