# generated using pymatgen
data_Ca(NiO2)2
_symmetry_space_group_name_H-M   'P 1'
_cell_length_a   6.14074906
_cell_length_b   6.14295438
_cell_length_c   18.38564987
_cell_angle_alpha   59.90149104
_cell_angle_beta   59.94917024
_cell_angle_gamma   60.00909445
_symmetry_Int_Tables_number   1
_chemical_formula_structural   Ca(NiO2)2
_chemical_formula_sum   'Ca6 Ni12 O24'
_cell_volume   489.89292961
_cell_formula_units_Z   6
loop_
 _symmetry_equiv_pos_site_id
 _symmetry_equiv_pos_as_xyz
  1  'x, y, z'
loop_
 _atom_site_type_symbol
 _atom_site_label
 _atom_site_symmetry_multiplicity
 _atom_site_fract_x
 _atom_site_fract_y
 _atom_site_fract_z
 _atom_site_occupancy
  Ca  Ca0  1  0.12009962  0.12002794  0.04680919  1
  Ca  Ca1  1  0.11310471  0.11444549  0.38591790  1
  Ca  Ca2  1  0.49713326  0.49750357  0.33584771  1
  Ca  Ca3  1  0.08797137  0.08785102  0.74542312  1
  Ca  Ca4  1  0.51055447  0.51062880  0.98937917  1
  Ca  Ca5  1  0.87476287  0.87425205  0.62567638  1
  Ni  Ni6  1  0.49694089  0.49685408  0.16558894  1
  Ni  Ni7  1  0.49680291  0.00941123  0.16568642  1
  Ni  Ni8  1  0.48744151  0.48760840  0.51072525  1
  Ni  Ni9  1  0.00934803  0.49677549  0.16569264  1
  Ni  Ni10  1  0.48748253  0.99286401  0.51068544  1
  Ni  Ni11  1  0.50522974  0.50512417  0.66161588  1
  Ni  Ni12  1  0.89012117  0.88957522  0.27667406  1
  Ni  Ni13  1  0.50050124  0.50036834  0.82703422  1
  Ni  Ni14  1  0.99265764  0.48808702  0.51040722  1
  Ni  Ni15  1  0.50045593  0.01807408  0.82704143  1
  Ni  Ni16  1  0.01809497  0.50046944  0.82702557  1
  Ni  Ni17  1  0.88003062  0.88005612  0.95315730  1
  O  O18  1  0.25459931  0.25494559  0.10122407  1
  O  O19  1  0.25911289  0.25883847  0.24163840  1
  O  O20  1  0.25484643  0.68718490  0.10099886  1
  O  O21  1  0.68724428  0.25483394  0.10110427  1
  O  O22  1  0.23445334  0.23470840  0.45061220  1
  O  O23  1  0.29327148  0.75889233  0.22956302  1
  O  O24  1  0.24219029  0.24509488  0.58891792  1
  O  O25  1  0.75889799  0.29294101  0.22976221  1
  O  O26  1  0.75639469  0.75650879  0.07616097  1
  O  O27  1  0.23471025  0.67873595  0.45056934  1
  O  O28  1  0.67793520  0.23468205  0.45097644  1
  O  O29  1  0.75911019  0.75884606  0.22952663  1
  O  O30  1  0.29517002  0.29540146  0.73829831  1
  O  O31  1  0.31885382  0.72457157  0.57735818  1
  O  O32  1  0.72454936  0.31857261  0.57755894  1
  O  O33  1  0.27385109  0.27327062  0.89329826  1
  O  O34  1  0.75215170  0.74777717  0.41778575  1
  O  O35  1  0.29576445  0.69486974  0.73816150  1
  O  O36  1  0.69482582  0.29542643  0.73832653  1
  O  O37  1  0.72475221  0.72447822  0.57746593  1
  O  O38  1  0.25369737  0.77898723  0.89591382  1
  O  O39  1  0.77874633  0.25393449  0.89598113  1
  O  O40  1  0.72684608  0.72742651  0.77264495  1
  O  O41  1  0.77929394  0.77909409  0.89576154  1
