# generated using pymatgen
data_Ba2Li3(PO3)7
_symmetry_space_group_name_H-M   'P 1'
_cell_length_a   8.71382984
_cell_length_b   11.79190104
_cell_length_c   18.25136175
_cell_angle_alpha   104.41844348
_cell_angle_beta   90.00000000
_cell_angle_gamma   90.00000000
_symmetry_Int_Tables_number   1
_chemical_formula_structural   Ba2Li3(PO3)7
_chemical_formula_sum   'Ba8 Li12 P28 O84'
_cell_volume   1816.30663807
_cell_formula_units_Z   4
loop_
 _symmetry_equiv_pos_site_id
 _symmetry_equiv_pos_as_xyz
  1  'x, y, z'
loop_
 _atom_site_type_symbol
 _atom_site_label
 _atom_site_symmetry_multiplicity
 _atom_site_fract_x
 _atom_site_fract_y
 _atom_site_fract_z
 _atom_site_occupancy
  Ba  Ba0  1  0.55587095  0.52741046  0.18138421  1
  Ba  Ba1  1  0.94412905  0.52741046  0.68138421  1
  Ba  Ba2  1  0.44412905  0.47258954  0.81861579  1
  Ba  Ba3  1  0.93162447  0.96544402  0.80376639  1
  Ba  Ba4  1  0.56837553  0.96544402  0.30376639  1
  Ba  Ba5  1  0.06837553  0.03455598  0.19623361  1
  Ba  Ba6  1  0.05587095  0.47258954  0.31861579  1
  Ba  Ba7  1  0.43162447  0.03455598  0.69623361  1
  Li  Li8  1  0.64658665  0.48415605  0.53500879  1
  Li  Li9  1  0.13535281  0.99875550  0.54467856  1
  Li  Li10  1  0.35341335  0.51584395  0.46499121  1
  Li  Li11  1  0.36464719  0.99875550  0.04467856  1
  Li  Li12  1  0.14658665  0.51584395  0.96499121  1
  Li  Li13  1  0.85341335  0.48415605  0.03500879  1
  Li  Li14  1  0.86464719  0.00124450  0.45532144  1
  Li  Li15  1  0.77454144  0.63565529  0.84531119  1
  Li  Li16  1  0.63535281  0.00124450  0.95532144  1
  Li  Li17  1  0.27454144  0.36434471  0.65468881  1
  Li  Li18  1  0.22545856  0.36434471  0.15468881  1
  Li  Li19  1  0.72545856  0.63565529  0.34531119  1
  P  P20  1  0.05973769  0.24621375  0.74439410  1
  P  P21  1  0.83630445  0.11784997  0.63779794  1
  P  P22  1  0.90307097  0.29555634  0.11361877  1
  P  P23  1  0.12078101  0.15728997  0.00098880  1
  P  P24  1  0.10606717  0.78275506  0.61393323  1
  P  P25  1  0.94026231  0.75378625  0.25560590  1
  P  P26  1  0.36334905  0.33101791  0.99115858  1
  P  P27  1  0.39393283  0.78275506  0.11393323  1
  P  P28  1  0.66369555  0.11784997  0.13779794  1
  P  P29  1  0.14311484  0.61320365  0.13787386  1
  P  P30  1  0.87921899  0.84271003  0.99901120  1
  P  P31  1  0.37921899  0.15728997  0.50098880  1
  P  P32  1  0.63665095  0.66898209  0.00884142  1
  P  P33  1  0.40307097  0.70444366  0.38638123  1
  P  P34  1  0.60606717  0.21724494  0.88606677  1
  P  P35  1  0.16369555  0.88215003  0.36220206  1
  P  P36  1  0.33630445  0.88215003  0.86220206  1
  P  P37  1  0.86334905  0.66898209  0.50884142  1
  P  P38  1  0.59692903  0.29555634  0.61361877  1
  P  P39  1  0.44026231  0.24621375  0.24439410  1
  P  P40  1  0.35688516  0.61320365  0.63787386  1
  P  P41  1  0.09692903  0.70444366  0.88638123  1
  P  P42  1  0.62078101  0.84271003  0.49901120  1
  P  P43  1  0.13665095  0.33101791  0.49115858  1
  P  P44  1  0.64311484  0.38679635  0.36212614  1
  P  P45  1  0.55973769  0.75378625  0.75560590  1
  P  P46  1  0.89393283  0.21724494  0.38606677  1
  P  P47  1  0.85688516  0.38679635  0.86212614  1
  O  O48  1  0.31457077  0.82444593  0.38914224  1
  O  O49  1  0.63571374  0.86866800  0.75975078  1
  O  O50  1  0.84850298  0.64518687  0.25613535  1
  O  O51  1  0.51816641  0.25658359  0.96654353  1
  O  O52  1  0.29346496  0.60858626  0.39135446  1
  O  O53  1  0.78694157  0.05942816  0.69800041  1
  O  O54  1  0.79575931  0.44969688  0.80531428  1
  O  O55  1  0.48183359  0.74341641  0.03345647  1
  O  O56  1  0.84198396  0.57754318  0.55277727  1
  O  O57  1  0.13320872  0.37175740  0.57599226  1
  O  O58  1  0.80544574  0.10913199  0.38795487  1
  O  O59  1  0.70424069  0.44969688  0.30531428  1
  O  O60  1  0.68542923  0.17555407  0.61085776  1
  O  O61  1  0.81457077  0.17555407  0.11085776  1
  O  O62  1  0.93567084  0.23569561  0.67647834  1
  O  O63  1  0.01816641  0.74341641  0.53345647  1
  O  O64  1  0.15801604  0.42245682  0.44722273  1
  O  O65  1  0.48297658  0.31707091  0.67809654  1
  O  O66  1  0.19455426  0.89086801  0.61204513  1
  O  O67  1  0.63320872  0.62824260  0.92400774  1
  O  O68  1  0.98183359  0.25658359  0.46654353  1
  O  O69  1  0.69455426  0.10913199  0.88795487  1
  O  O70  1  0.30544574  0.89086801  0.11204513  1
  O  O71  1  0.04826595  0.72867576  0.18045924  1
  O  O72  1  0.65801604  0.57754318  0.05277727  1
  O  O73  1  0.08221451  0.94881743  0.43210748  1
  O  O74  1  0.99462068  0.26093658  0.03504757  1
  O  O75  1  0.49462068  0.73906342  0.46495243  1
  O  O76  1  0.65149702  0.64518687  0.75613535  1
  O  O77  1  0.01702342  0.31707091  0.17809654  1
  O  O78  1  0.28694157  0.94057184  0.80199959  1
  O  O79  1  0.36428626  0.13133200  0.24024922  1
  O  O80  1  0.70653504  0.39141374  0.60864554  1
  O  O81  1  0.20653504  0.60858626  0.89135446  1
  O  O82  1  0.41778549  0.94881743  0.93210748  1
  O  O83  1  0.43567084  0.76430439  0.82352166  1
  O  O84  1  0.54908908  0.93101444  0.56182119  1
  O  O85  1  0.50208300  0.22075752  0.82106616  1
  O  O86  1  0.95091092  0.93101444  0.06182119  1
  O  O87  1  0.79909236  0.87582947  0.93404801  1
  O  O88  1  0.49791700  0.77924248  0.17893384  1
  O  O89  1  0.70090764  0.87582947  0.43404801  1
  O  O90  1  0.18542923  0.82444593  0.88914224  1
  O  O91  1  0.91778549  0.05118257  0.56789252  1
  O  O92  1  0.36679128  0.37175740  0.07599226  1
  O  O93  1  0.76578777  0.76620401  0.03836642  1
  O  O94  1  0.71849226  0.33096251  0.89907916  1
  O  O95  1  0.29909236  0.12417053  0.56595199  1
  O  O96  1  0.98297658  0.68292909  0.82190346  1
  O  O97  1  0.23421223  0.23379599  0.96163358  1
  O  O98  1  0.45173405  0.72867576  0.68045924  1
  O  O99  1  0.13571374  0.13133200  0.74024922  1
  O  O100  1  0.71305843  0.05942816  0.19800041  1
  O  O101  1  0.21849226  0.66903749  0.60092084  1
  O  O102  1  0.00208300  0.77924248  0.67893384  1
  O  O103  1  0.34198396  0.42245682  0.94722273  1
  O  O104  1  0.95173405  0.27132424  0.81954076  1
  O  O105  1  0.73421223  0.76620401  0.53836642  1
  O  O106  1  0.55451368  0.45631434  0.42851538  1
  O  O107  1  0.99791700  0.22075752  0.32106616  1
  O  O108  1  0.04908908  0.06898556  0.93817881  1
  O  O109  1  0.44548632  0.54368566  0.57148462  1
  O  O110  1  0.21305843  0.94057184  0.30199959  1
  O  O111  1  0.94548632  0.45631434  0.92851538  1
  O  O112  1  0.05451368  0.54368566  0.07148462  1
  O  O113  1  0.45091092  0.06898556  0.43817881  1
  O  O114  1  0.54826595  0.27132424  0.31954076  1
  O  O115  1  0.28150774  0.66903749  0.10092084  1
  O  O116  1  0.56432916  0.23569561  0.17647834  1
  O  O117  1  0.58221451  0.05118257  0.06789252  1
  O  O118  1  0.86679128  0.62824260  0.42400774  1
  O  O119  1  0.79346496  0.39141374  0.10864554  1
  O  O120  1  0.51702342  0.68292909  0.32190346  1
  O  O121  1  0.15149702  0.35481313  0.74386465  1
  O  O122  1  0.20424069  0.55030312  0.19468572  1
  O  O123  1  0.29575931  0.55030312  0.69468572  1
  O  O124  1  0.34850298  0.35481313  0.24386465  1
  O  O125  1  0.26578777  0.23379599  0.46163358  1
  O  O126  1  0.20090764  0.12417053  0.06595199  1
  O  O127  1  0.50537932  0.26093658  0.53504757  1
  O  O128  1  0.06432916  0.76430439  0.32352166  1
  O  O129  1  0.86428626  0.86866800  0.25975078  1
  O  O130  1  0.78150774  0.33096251  0.39907916  1
  O  O131  1  0.00537932  0.73906342  0.96495243  1
