# generated using pymatgen
data_Sc5Cl8
_symmetry_space_group_name_H-M   'P 1'
_cell_length_a   3.55967613
_cell_length_b   9.71388823
_cell_length_c   9.99862026
_cell_angle_alpha   86.29189438
_cell_angle_beta   79.73682425
_cell_angle_gamma   79.43662819
_symmetry_Int_Tables_number   1
_chemical_formula_structural   Sc5Cl8
_chemical_formula_sum   'Sc5 Cl8'
_cell_volume   334.25471734
_cell_formula_units_Z   1
loop_
 _symmetry_equiv_pos_site_id
 _symmetry_equiv_pos_as_xyz
  1  'x, y, z'
loop_
 _atom_site_type_symbol
 _atom_site_label
 _atom_site_symmetry_multiplicity
 _atom_site_fract_x
 _atom_site_fract_y
 _atom_site_fract_z
 _atom_site_occupancy
  Sc  Sc0  1  0.00000000  0.00000000  0.00000000  1
  Sc  Sc1  1  0.51382912  0.32072662  0.65171507  1
  Sc  Sc2  1  0.48617088  0.67927338  0.34828493  1
  Sc  Sc3  1  0.11199339  0.39438396  0.38186650  1
  Sc  Sc4  1  0.88800661  0.60561604  0.61813350  1
  Cl  Cl5  1  0.68649607  0.19612172  0.43115176  1
  Cl  Cl6  1  0.31350393  0.80387828  0.56884824  1
  Cl  Cl7  1  0.37276126  0.14724290  0.10701775  1
  Cl  Cl8  1  0.62723874  0.85275710  0.89298225  1
  Cl  Cl9  1  0.66493474  0.47242598  0.19797188  1
  Cl  Cl10  1  0.33506526  0.52757402  0.80202812  1
  Cl  Cl11  1  0.97649391  0.83097753  0.21615425  1
  Cl  Cl12  1  0.02350609  0.16902247  0.78384575  1
