# generated using pymatgen
data_Mg(AlCl4)2
_symmetry_space_group_name_H-M   'P 1'
_cell_length_a   8.20955221
_cell_length_b   9.80948928
_cell_length_c   10.18330032
_cell_angle_alpha   71.58315939
_cell_angle_beta   66.22857236
_cell_angle_gamma   65.26326025
_symmetry_Int_Tables_number   1
_chemical_formula_structural   Mg(AlCl4)2
_chemical_formula_sum   'Mg2 Al4 Cl16'
_cell_volume   670.85345510
_cell_formula_units_Z   2
loop_
 _symmetry_equiv_pos_site_id
 _symmetry_equiv_pos_as_xyz
  1  'x, y, z'
loop_
 _atom_site_type_symbol
 _atom_site_label
 _atom_site_symmetry_multiplicity
 _atom_site_fract_x
 _atom_site_fract_y
 _atom_site_fract_z
 _atom_site_occupancy
  Mg  Mg0  1  0.00183704  0.75000000  0.25000000  1
  Mg  Mg1  1  0.99816296  0.25000000  0.75000000  1
  Al  Al2  1  0.33121430  0.35981741  0.46818853  1
  Al  Al3  1  0.15922023  0.14018259  0.03181147  1
  Al  Al4  1  0.66878570  0.64018259  0.53181147  1
  Al  Al5  1  0.84077977  0.85981741  0.96818853  1
  Cl  Cl6  1  0.61677626  0.23902011  0.45102205  1
  Cl  Cl7  1  0.30681842  0.26097989  0.04897795  1
  Cl  Cl8  1  0.38322374  0.76097989  0.54897795  1
  Cl  Cl9  1  0.69318158  0.73902011  0.95102205  1
  Cl  Cl10  1  0.17574504  0.21534273  0.48712890  1
  Cl  Cl11  1  0.87821667  0.28465727  0.01287110  1
  Cl  Cl12  1  0.82425496  0.78465727  0.51287110  1
  Cl  Cl13  1  0.12178333  0.71534273  0.98712890  1
  Cl  Cl14  1  0.31105379  0.54814039  0.28268227  1
  Cl  Cl15  1  0.14187646  0.95185961  0.21731773  1
  Cl  Cl16  1  0.68894621  0.45185961  0.71731773  1
  Cl  Cl17  1  0.85812354  0.04814039  0.78268227  1
  Cl  Cl18  1  0.16087777  0.44820375  0.67153520  1
  Cl  Cl19  1  0.28061671  0.05179625  0.82846480  1
  Cl  Cl20  1  0.83912223  0.55179625  0.32846480  1
  Cl  Cl21  1  0.71938329  0.94820375  0.17153520  1
