# generated using pymatgen
data_OsCl4O
_symmetry_space_group_name_H-M   'P 1'
_cell_length_a   6.00873181
_cell_length_b   10.20948170
_cell_length_c   12.73120739
_cell_angle_alpha   110.51700528
_cell_angle_beta   90.00000000
_cell_angle_gamma   90.00000000
_symmetry_Int_Tables_number   1
_chemical_formula_structural   OsCl4O
_chemical_formula_sum   'Os4 Cl16 O4'
_cell_volume   731.46831611
_cell_formula_units_Z   4
loop_
 _symmetry_equiv_pos_site_id
 _symmetry_equiv_pos_as_xyz
  1  'x, y, z'
loop_
 _atom_site_type_symbol
 _atom_site_label
 _atom_site_symmetry_multiplicity
 _atom_site_fract_x
 _atom_site_fract_y
 _atom_site_fract_z
 _atom_site_occupancy
  Os  Os0  1  0.61071973  0.77074112  0.02977451  1
  Os  Os1  1  0.38928027  0.22925888  0.97022549  1
  Os  Os2  1  0.11071973  0.22925888  0.47022549  1
  Os  Os3  1  0.88928027  0.77074112  0.52977451  1
  Cl  Cl4  1  0.33650222  0.73061959  0.89931013  1
  Cl  Cl5  1  0.26168220  0.29344058  0.82755951  1
  Cl  Cl6  1  0.73831780  0.70655942  0.17244049  1
  Cl  Cl7  1  0.83650222  0.26938041  0.60068987  1
  Cl  Cl8  1  0.24157582  0.44141890  0.58167162  1
  Cl  Cl9  1  0.34033447  0.88475405  0.15327048  1
  Cl  Cl10  1  0.15966553  0.88475405  0.65327048  1
  Cl  Cl11  1  0.23831780  0.29344058  0.32755951  1
  Cl  Cl12  1  0.16349778  0.73061959  0.39931013  1
  Cl  Cl13  1  0.76168220  0.70655942  0.67244049  1
  Cl  Cl14  1  0.74157582  0.55858110  0.91832838  1
  Cl  Cl15  1  0.25842418  0.44141890  0.08167162  1
  Cl  Cl16  1  0.66349778  0.26938041  0.10068987  1
  Cl  Cl17  1  0.84033447  0.11524595  0.34672952  1
  Cl  Cl18  1  0.75842418  0.55858110  0.41832838  1
  Cl  Cl19  1  0.65966553  0.11524595  0.84672952  1
  O  O20  1  0.28320904  0.10761952  0.48505533  1
  O  O21  1  0.21679096  0.10761952  0.98505533  1
  O  O22  1  0.78320904  0.89238048  0.01494467  1
  O  O23  1  0.71679096  0.89238048  0.51494467  1
