# generated using pymatgen
data_Li2Pr(NO3)5
_symmetry_space_group_name_H-M   'P 1'
_cell_length_a   9.16971306
_cell_length_b   10.67340818
_cell_length_c   11.92478953
_cell_angle_alpha   90.00000000
_cell_angle_beta   90.00000000
_cell_angle_gamma   90.00000000
_symmetry_Int_Tables_number   1
_chemical_formula_structural   Li2Pr(NO3)5
_chemical_formula_sum   'Li8 Pr4 N20 O60'
_cell_volume   1167.10407868
_cell_formula_units_Z   4
loop_
 _symmetry_equiv_pos_site_id
 _symmetry_equiv_pos_as_xyz
  1  'x, y, z'
loop_
 _atom_site_type_symbol
 _atom_site_label
 _atom_site_symmetry_multiplicity
 _atom_site_fract_x
 _atom_site_fract_y
 _atom_site_fract_z
 _atom_site_occupancy
  Li  Li0  1  0.61866218  0.77221768  0.81973603  1
  Li  Li1  1  0.38133782  0.22778232  0.18026397  1
  Li  Li2  1  0.11866218  0.72778232  0.31973603  1
  Li  Li3  1  0.38133782  0.22778232  0.81973603  1
  Li  Li4  1  0.11866218  0.72778232  0.68026397  1
  Li  Li5  1  0.88133782  0.27221768  0.31973603  1
  Li  Li6  1  0.88133782  0.27221768  0.68026397  1
  Li  Li7  1  0.61866218  0.77221768  0.18026397  1
  Pr  Pr8  1  0.00000000  0.50000000  0.00000000  1
  Pr  Pr9  1  0.00000000  0.00000000  0.00000000  1
  Pr  Pr10  1  0.50000000  0.50000000  0.50000000  1
  Pr  Pr11  1  0.50000000  0.00000000  0.50000000  1
  N  N12  1  0.59979276  0.34521715  0.70708056  1
  N  N13  1  0.40020724  0.65478285  0.29291944  1
  N  N14  1  0.90020724  0.84521715  0.20708056  1
  N  N15  1  0.50000000  0.00000000  0.75873153  1
  N  N16  1  0.67062979  0.75091282  0.50000000  1
  N  N17  1  0.17062979  0.74908718  0.00000000  1
  N  N18  1  0.09979276  0.15478285  0.79291944  1
  N  N19  1  0.00000000  0.50000000  0.74126847  1
  N  N20  1  0.70971708  0.64700690  0.00000000  1
  N  N21  1  0.00000000  0.50000000  0.25873153  1
  N  N22  1  0.20971708  0.85299310  0.50000000  1
  N  N23  1  0.50000000  0.00000000  0.24126847  1
  N  N24  1  0.29028292  0.35299310  0.00000000  1
  N  N25  1  0.09979276  0.15478285  0.20708056  1
  N  N26  1  0.82937021  0.25091282  0.00000000  1
  N  N27  1  0.79028292  0.14700690  0.50000000  1
  N  N28  1  0.40020724  0.65478285  0.70708056  1
  N  N29  1  0.59979276  0.34521715  0.29291944  1
  N  N30  1  0.90020724  0.84521715  0.79291944  1
  N  N31  1  0.32937021  0.24908718  0.50000000  1
  O  O32  1  0.46483601  0.37358109  0.70014171  1
  O  O33  1  0.96483601  0.12641891  0.20014171  1
  O  O34  1  0.94328872  0.41006773  0.20132524  1
  O  O35  1  0.10184501  0.78024525  0.50000000  1
  O  O36  1  0.81368109  0.88765606  0.86907697  1
  O  O37  1  0.94328872  0.41006773  0.79867476  1
  O  O38  1  0.85359369  0.77660764  0.28301701  1
  O  O39  1  0.50000000  0.00000000  0.86178188  1
  O  O40  1  0.23335783  0.38909033  0.09181555  1
  O  O41  1  0.73335783  0.11090967  0.40818445  1
  O  O42  1  0.35359369  0.72339236  0.21698299  1
  O  O43  1  0.85359369  0.77660764  0.71698299  1
  O  O44  1  0.03516399  0.87358109  0.20014171  1
  O  O45  1  0.35359369  0.72339236  0.78301701  1
  O  O46  1  0.53516399  0.62641891  0.70014171  1
  O  O47  1  0.05671128  0.58993227  0.79867476  1
  O  O48  1  0.00000000  0.50000000  0.63821812  1
  O  O49  1  0.23335783  0.38909033  0.90818445  1
  O  O50  1  0.76664217  0.61090967  0.90818445  1
  O  O51  1  0.31368109  0.61234394  0.63092303  1
  O  O52  1  0.03516399  0.87358109  0.79985829  1
  O  O53  1  0.81368109  0.88765606  0.13092303  1
  O  O54  1  0.96483601  0.12641891  0.79985829  1
  O  O55  1  0.76664217  0.61090967  0.09181555  1
  O  O56  1  0.55671128  0.91006773  0.70132524  1
  O  O57  1  0.26664217  0.88909033  0.40818445  1
  O  O58  1  0.52853292  0.75310821  0.50000000  1
  O  O59  1  0.00000000  0.50000000  0.36178188  1
  O  O60  1  0.68631891  0.38765606  0.36907697  1
  O  O61  1  0.14640631  0.22339236  0.71698299  1
  O  O62  1  0.53516399  0.62641891  0.29985829  1
  O  O63  1  0.26372944  0.14652852  0.50000000  1
  O  O64  1  0.44328872  0.08993227  0.29867476  1
  O  O65  1  0.76372944  0.35347148  0.00000000  1
  O  O66  1  0.14640631  0.22339236  0.28301701  1
  O  O67  1  0.60184501  0.71975475  0.00000000  1
  O  O68  1  0.47146708  0.24689179  0.50000000  1
  O  O69  1  0.44328872  0.08993227  0.70132524  1
  O  O70  1  0.18631891  0.11234394  0.13092303  1
  O  O71  1  0.73260313  0.64630395  0.50000000  1
  O  O72  1  0.18631891  0.11234394  0.86907697  1
  O  O73  1  0.76739687  0.14630395  0.00000000  1
  O  O74  1  0.64640631  0.27660764  0.21698299  1
  O  O75  1  0.05671128  0.58993227  0.20132524  1
  O  O76  1  0.73335783  0.11090967  0.59181555  1
  O  O77  1  0.39815499  0.28024525  0.00000000  1
  O  O78  1  0.46483601  0.37358109  0.29985829  1
  O  O79  1  0.55671128  0.91006773  0.29867476  1
  O  O80  1  0.31368109  0.61234394  0.36907697  1
  O  O81  1  0.02853292  0.74689179  0.00000000  1
  O  O82  1  0.50000000  0.00000000  0.13821812  1
  O  O83  1  0.23627056  0.64652852  0.00000000  1
  O  O84  1  0.97146708  0.25310821  0.00000000  1
  O  O85  1  0.64640631  0.27660764  0.78301701  1
  O  O86  1  0.73627056  0.85347148  0.50000000  1
  O  O87  1  0.26664217  0.88909033  0.59181555  1
  O  O88  1  0.89815499  0.21975475  0.50000000  1
  O  O89  1  0.23260313  0.85369605  0.00000000  1
  O  O90  1  0.68631891  0.38765606  0.63092303  1
  O  O91  1  0.26739687  0.35369605  0.50000000  1
