# generated using pymatgen
data_Ba2Zn3(PO3)10
_symmetry_space_group_name_H-M   'P 1'
_cell_length_a   5.43476507
_cell_length_b   10.89607399
_cell_length_c   22.02010540
_cell_angle_alpha   99.60532788
_cell_angle_beta   90.00000000
_cell_angle_gamma   90.00000000
_symmetry_Int_Tables_number   1
_chemical_formula_structural   Ba2Zn3(PO3)10
_chemical_formula_sum   'Ba4 Zn6 P20 O60'
_cell_volume   1285.69676000
_cell_formula_units_Z   2
loop_
 _symmetry_equiv_pos_site_id
 _symmetry_equiv_pos_as_xyz
  1  'x, y, z'
loop_
 _atom_site_type_symbol
 _atom_site_label
 _atom_site_symmetry_multiplicity
 _atom_site_fract_x
 _atom_site_fract_y
 _atom_site_fract_z
 _atom_site_occupancy
  Ba  Ba0  1  0.49530264  0.31416245  0.92440760  1
  Ba  Ba1  1  0.50469736  0.68583755  0.07559240  1
  Ba  Ba2  1  0.50469736  0.81416245  0.42440760  1
  Ba  Ba3  1  0.49530264  0.18583755  0.57559240  1
  Zn  Zn4  1  0.44925913  0.75000000  0.25000000  1
  Zn  Zn5  1  0.50000000  0.00000000  0.00000000  1
  Zn  Zn6  1  0.55074087  0.25000000  0.75000000  1
  Zn  Zn7  1  0.52843512  0.25000000  0.25000000  1
  Zn  Zn8  1  0.50000000  0.50000000  0.50000000  1
  Zn  Zn9  1  0.47156488  0.75000000  0.75000000  1
  P  P10  1  0.04386273  0.37785245  0.69567834  1
  P  P11  1  0.09360992  0.05464171  0.42565609  1
  P  P12  1  0.22304537  0.02056173  0.29568019  1
  P  P13  1  0.98458692  0.18306867  0.02216894  1
  P  P14  1  0.95613727  0.62214755  0.30432166  1
  P  P15  1  0.01541308  0.68306867  0.52216894  1
  P  P16  1  0.90639008  0.55464171  0.92565609  1
  P  P17  1  0.77695463  0.97943827  0.70431981  1
  P  P18  1  0.98458692  0.31693133  0.47783106  1
  P  P19  1  0.04386273  0.12214755  0.80432166  1
  P  P20  1  0.22304537  0.47943827  0.20431981  1
  P  P21  1  0.01541308  0.81693133  0.97783106  1
  P  P22  1  0.78427431  0.08672263  0.12954288  1
  P  P23  1  0.78427431  0.41327737  0.37045712  1
  P  P24  1  0.95613727  0.87785245  0.19567834  1
  P  P25  1  0.21572569  0.91327737  0.87045712  1
  P  P26  1  0.09360992  0.44535829  0.07434391  1
  P  P27  1  0.90639008  0.94535829  0.57434391  1
  P  P28  1  0.77695463  0.52056173  0.79568019  1
  P  P29  1  0.21572569  0.58672263  0.62954288  1
  O  O30  1  0.65526375  0.94167036  0.54550875  1
  O  O31  1  0.04996816  0.06381573  0.57924843  1
  O  O32  1  0.43759970  0.96249675  0.90720168  1
  O  O33  1  0.00786953  0.63273233  0.58606931  1
  O  O34  1  0.23443414  0.63279645  0.48370983  1
  O  O35  1  0.24709517  0.68903924  0.68340574  1
  O  O36  1  0.39398223  0.58082873  0.19044981  1
  O  O37  1  0.02970780  0.46032939  0.76367047  1
  O  O38  1  0.76232055  0.66300162  0.49482463  1
  O  O39  1  0.75290483  0.18903924  0.18340574  1
  O  O40  1  0.31668896  0.11031059  0.25670722  1
  O  O41  1  0.97029220  0.53967061  0.23632953  1
  O  O42  1  0.68331104  0.88968941  0.74329278  1
  O  O43  1  0.94441793  0.97557021  0.14905831  1
  O  O44  1  0.99213047  0.36726767  0.41393069  1
  O  O45  1  0.24709517  0.81096076  0.81659426  1
  O  O46  1  0.31668896  0.38968941  0.24329278  1
  O  O47  1  0.07465054  0.83034137  0.54098086  1
  O  O48  1  0.23443414  0.86720355  0.01629017  1
  O  O49  1  0.95003184  0.93618427  0.42075157  1
  O  O50  1  0.05558207  0.02442979  0.85094169  1
  O  O51  1  0.65526375  0.55832964  0.95449125  1
  O  O52  1  0.28234551  0.19412688  0.80927082  1
  O  O53  1  0.99213047  0.13273233  0.08606931  1
  O  O54  1  0.11562585  0.40292897  0.14189286  1
  O  O55  1  0.34473625  0.44167036  0.04550875  1
  O  O56  1  0.60601777  0.08082873  0.69044981  1
  O  O57  1  0.56240030  0.46249675  0.40720168  1
  O  O58  1  0.56240030  0.03750325  0.09279832  1
  O  O59  1  0.71765449  0.80587312  0.19072918  1
  O  O60  1  0.39398223  0.91917127  0.30955019  1
  O  O61  1  0.11562585  0.09707103  0.35810714  1
  O  O62  1  0.07465054  0.66965863  0.95901914  1
  O  O63  1  0.23767945  0.16300162  0.99482463  1
  O  O64  1  0.34473625  0.05832964  0.45449125  1
  O  O65  1  0.95003184  0.56381573  0.07924843  1
  O  O66  1  0.92534946  0.33034137  0.04098086  1
  O  O67  1  0.76232055  0.83699838  0.00517537  1
  O  O68  1  0.76556586  0.13279645  0.98370983  1
  O  O69  1  0.80549196  0.30847237  0.68229663  1
  O  O70  1  0.28234551  0.30587312  0.69072918  1
  O  O71  1  0.76556586  0.36720355  0.51629017  1
  O  O72  1  0.80549196  0.19152763  0.81770337  1
  O  O73  1  0.23767945  0.33699838  0.50517537  1
  O  O74  1  0.71765449  0.69412688  0.30927082  1
  O  O75  1  0.97029220  0.96032939  0.26367047  1
  O  O76  1  0.04996816  0.43618427  0.92075157  1
  O  O77  1  0.68331104  0.61031059  0.75670722  1
  O  O78  1  0.88437415  0.59707103  0.85810714  1
  O  O79  1  0.19450804  0.69152763  0.31770337  1
  O  O80  1  0.05558207  0.47557021  0.64905831  1
  O  O81  1  0.00786953  0.86726767  0.91393069  1
  O  O82  1  0.88437415  0.90292897  0.64189286  1
  O  O83  1  0.02970780  0.03967061  0.73632953  1
  O  O84  1  0.43759970  0.53750325  0.59279832  1
  O  O85  1  0.19450804  0.80847237  0.18229663  1
  O  O86  1  0.92534946  0.16965863  0.45901914  1
  O  O87  1  0.94441793  0.52442979  0.35094169  1
  O  O88  1  0.75290483  0.31096076  0.31659426  1
  O  O89  1  0.60601777  0.41917127  0.80955019  1
