# generated using pymatgen
data_NaBeSi3HO8
_symmetry_space_group_name_H-M   'P 1'
_cell_length_a   7.44132819
_cell_length_b   12.84561910
_cell_length_c   13.78132260
_cell_angle_alpha   90.00000000
_cell_angle_beta   90.00000000
_cell_angle_gamma   90.00000000
_symmetry_Int_Tables_number   1
_chemical_formula_structural   NaBeSi3HO8
_chemical_formula_sum   'Na8 Be8 Si24 H8 O64'
_cell_volume   1317.33550783
_cell_formula_units_Z   8
loop_
 _symmetry_equiv_pos_site_id
 _symmetry_equiv_pos_as_xyz
  1  'x, y, z'
loop_
 _atom_site_type_symbol
 _atom_site_label
 _atom_site_symmetry_multiplicity
 _atom_site_fract_x
 _atom_site_fract_y
 _atom_site_fract_z
 _atom_site_occupancy
  Na  Na0  1  0.50135126  0.10174463  0.07082056  1
  Na  Na1  1  0.50135126  0.10174463  0.42917944  1
  Na  Na2  1  0.00135126  0.39825537  0.57082056  1
  Na  Na3  1  0.99864874  0.60174463  0.42917944  1
  Na  Na4  1  0.49864874  0.89825537  0.92917944  1
  Na  Na5  1  0.99864874  0.60174463  0.07082056  1
  Na  Na6  1  0.49864874  0.89825537  0.57082056  1
  Na  Na7  1  0.00135126  0.39825537  0.92917944  1
  Be  Be8  1  0.65607445  0.50537417  0.49965951  1
  Be  Be9  1  0.65607445  0.50537417  0.00034049  1
  Be  Be10  1  0.15607445  0.99462583  0.99965951  1
  Be  Be11  1  0.84392555  0.00537417  0.00034049  1
  Be  Be12  1  0.34392555  0.49462583  0.50034049  1
  Be  Be13  1  0.34392555  0.49462583  0.99965951  1
  Be  Be14  1  0.84392555  0.00537417  0.49965951  1
  Be  Be15  1  0.15607445  0.99462583  0.50034049  1
  Si  Si16  1  0.98397231  0.84085683  0.86193752  1
  Si  Si17  1  0.48397231  0.65914317  0.13806248  1
  Si  Si18  1  0.19394285  0.83207562  0.36215417  1
  Si  Si19  1  0.30605715  0.33207562  0.13784583  1
  Si  Si20  1  0.80605715  0.16792438  0.86215417  1
  Si  Si21  1  0.26916534  0.65657334  0.86337429  1
  Si  Si22  1  0.73083466  0.34342666  0.13662571  1
  Si  Si23  1  0.73083466  0.34342666  0.36337429  1
  Si  Si24  1  0.26916534  0.65657334  0.63662571  1
  Si  Si25  1  0.01602769  0.15914317  0.36193752  1
  Si  Si26  1  0.80605715  0.16792438  0.63784583  1
  Si  Si27  1  0.98397231  0.84085683  0.63806248  1
  Si  Si28  1  0.69394285  0.66792438  0.86215417  1
  Si  Si29  1  0.76916534  0.84342666  0.36337429  1
  Si  Si30  1  0.23083466  0.15657334  0.63662571  1
  Si  Si31  1  0.51602769  0.34085683  0.63806248  1
  Si  Si32  1  0.01602769  0.15914317  0.13806248  1
  Si  Si33  1  0.51602769  0.34085683  0.86193752  1
  Si  Si34  1  0.30605715  0.33207562  0.36215417  1
  Si  Si35  1  0.19394285  0.83207562  0.13784583  1
  Si  Si36  1  0.48397231  0.65914317  0.36193752  1
  Si  Si37  1  0.76916534  0.84342666  0.13662571  1
  Si  Si38  1  0.23083466  0.15657334  0.86337429  1
  Si  Si39  1  0.69394285  0.66792438  0.63784583  1
  H  H40  1  0.11682655  0.50881441  0.25000000  1
  H  H41  1  0.88317345  0.49118559  0.75000000  1
  H  H42  1  0.38317345  0.00881441  0.25000000  1
  H  H43  1  0.58858750  0.00159191  0.25000000  1
  H  H44  1  0.91141250  0.50159191  0.25000000  1
  H  H45  1  0.08858750  0.49840809  0.75000000  1
  H  H46  1  0.61682655  0.99118559  0.75000000  1
  H  H47  1  0.41141250  0.99840809  0.75000000  1
  O  O48  1  0.77170332  0.58471016  0.56216091  1
  O  O49  1  0.28929054  0.71711288  0.37659718  1
  O  O50  1  0.76559204  0.38122962  0.25000000  1
  O  O51  1  0.27170332  0.91528984  0.06216091  1
  O  O52  1  0.23440796  0.61877038  0.75000000  1
  O  O53  1  0.49948809  0.61850902  0.25000000  1
  O  O54  1  0.47882391  0.69611867  0.87480669  1
  O  O55  1  0.76841698  0.12730635  0.75000000  1
  O  O56  1  1.00051191  0.11850902  0.25000000  1
  O  O57  1  0.73158302  0.62730635  0.75000000  1
  O  O58  1  0.71070946  0.28288712  0.87659718  1
  O  O59  1  0.34948703  0.26174980  0.88447323  1
  O  O60  1  0.97882391  0.80388133  0.37480669  1
  O  O61  1  0.50659889  0.43897370  0.93445739  1
  O  O62  1  0.84948703  0.23825020  0.38447323  1
  O  O63  1  0.28808472  0.06497511  0.56363101  1
  O  O64  1  0.00659889  0.06102630  0.06554261  1
  O  O65  1  0.97882391  0.80388133  0.12519331  1
  O  O66  1  0.72829668  0.08471016  0.56216091  1
  O  O67  1  -0.00051191  0.88149098  0.75000000  1
  O  O68  1  0.02117609  0.19611867  0.62519331  1
  O  O69  1  0.02117609  0.19611867  0.87480669  1
  O  O70  1  0.22829668  0.41528984  0.43783909  1
  O  O71  1  0.72829668  0.08471016  0.93783909  1
  O  O72  1  0.28808472  0.06497511  0.93636899  1
  O  O73  1  0.50659889  0.43897370  0.56554261  1
  O  O74  1  0.49054870  0.05336526  0.25000000  1
  O  O75  1  0.34948703  0.26174980  0.61552677  1
  O  O76  1  0.78808472  0.43502489  0.43636899  1
  O  O77  1  0.71070946  0.28288712  0.62340282  1
  O  O78  1  0.99054870  0.44663474  0.75000000  1
  O  O79  1  0.47882391  0.69611867  0.62519331  1
  O  O80  1  0.52117609  0.30388133  0.12519331  1
  O  O81  1  0.22829668  0.41528984  0.06216091  1
  O  O82  1  0.23158302  0.87269365  0.25000000  1
  O  O83  1  0.77170332  0.58471016  0.93783909  1
  O  O84  1  0.99340111  0.93897370  0.56554261  1
  O  O85  1  0.78808472  0.43502489  0.06363101  1
  O  O86  1  0.15051297  0.76174980  0.61552677  1
  O  O87  1  0.21070946  0.21711288  0.37659718  1
  O  O88  1  0.73440796  0.88122962  0.25000000  1
  O  O89  1  0.49340111  0.56102630  0.06554261  1
  O  O90  1  0.78929054  0.78288712  0.87659718  1
  O  O91  1  0.65051297  0.73825020  0.11552677  1
  O  O92  1  0.50945130  0.94663474  0.75000000  1
  O  O93  1  0.21191528  0.56497511  0.56363101  1
  O  O94  1  0.27170332  0.91528984  0.43783909  1
  O  O95  1  0.26841698  0.37269365  0.25000000  1
  O  O96  1  0.21191528  0.56497511  0.93636899  1
  O  O97  1  0.00659889  0.06102630  0.43445739  1
  O  O98  1  0.78929054  0.78288712  0.62340282  1
  O  O99  1  0.71191528  0.93502489  0.06363101  1
  O  O100  1  0.28929054  0.71711288  0.12340282  1
  O  O101  1  0.52117609  0.30388133  0.37480669  1
  O  O102  1  0.00945130  0.55336526  0.25000000  1
  O  O103  1  0.49340111  0.56102630  0.43445739  1
  O  O104  1  0.65051297  0.73825020  0.38447323  1
  O  O105  1  0.21070946  0.21711288  0.12340282  1
  O  O106  1  0.50051191  0.38149098  0.75000000  1
  O  O107  1  0.71191528  0.93502489  0.43636899  1
  O  O108  1  0.15051297  0.76174980  0.88447323  1
  O  O109  1  0.99340111  0.93897370  0.93445739  1
  O  O110  1  0.84948703  0.23825020  0.11552677  1
  O  O111  1  0.26559204  0.11877038  0.75000000  1
