# generated using pymatgen
data_ZnCr2(CuO4)2
_symmetry_space_group_name_H-M   'P 1'
_cell_length_a   6.48331718
_cell_length_b   8.31957222
_cell_length_c   11.92922697
_cell_angle_alpha   90.00000000
_cell_angle_beta   90.60056189
_cell_angle_gamma   90.00000000
_symmetry_Int_Tables_number   1
_chemical_formula_structural   ZnCr2(CuO4)2
_chemical_formula_sum   'Zn4 Cr8 Cu8 O32'
_cell_volume   643.40837398
_cell_formula_units_Z   4
loop_
 _symmetry_equiv_pos_site_id
 _symmetry_equiv_pos_as_xyz
  1  'x, y, z'
loop_
 _atom_site_type_symbol
 _atom_site_label
 _atom_site_symmetry_multiplicity
 _atom_site_fract_x
 _atom_site_fract_y
 _atom_site_fract_z
 _atom_site_occupancy
  Zn  Zn0  1  0.11500736  0.15853546  0.04821143  1
  Zn  Zn1  1  0.88499264  0.84146454  0.95178857  1
  Zn  Zn2  1  0.88499264  0.65853546  0.45178857  1
  Zn  Zn3  1  0.11500736  0.34146454  0.54821143  1
  Cr  Cr4  1  0.10270935  0.46076305  0.84666245  1
  Cr  Cr5  1  0.10270935  0.03923695  0.34666245  1
  Cr  Cr6  1  0.61069852  0.08908994  0.13183451  1
  Cr  Cr7  1  0.89729065  0.96076305  0.65333755  1
  Cr  Cr8  1  0.38930148  0.91091006  0.86816549  1
  Cr  Cr9  1  0.38930148  0.58908994  0.36816549  1
  Cr  Cr10  1  0.61069852  0.41091006  0.63183451  1
  Cr  Cr11  1  0.89729065  0.53923695  0.15333755  1
  Cu  Cu12  1  0.75416445  0.18466855  0.87261103  1
  Cu  Cu13  1  0.38310665  0.05906510  0.63508115  1
  Cu  Cu14  1  0.61689335  0.94093490  0.36491885  1
  Cu  Cu15  1  0.24583555  0.81533145  0.12738897  1
  Cu  Cu16  1  0.75416445  0.31533145  0.37261103  1
  Cu  Cu17  1  0.38310665  0.44093490  0.13508115  1
  Cu  Cu18  1  0.24583555  0.68466855  0.62738897  1
  Cu  Cu19  1  0.61689335  0.55906510  0.86491885  1
  O  O20  1  0.03650595  0.22647375  0.39278889  1
  O  O21  1  0.67034228  0.01249541  0.59750423  1
  O  O22  1  0.18594669  0.58111926  0.47335660  1
  O  O23  1  0.81405331  0.08111926  0.02664340  1
  O  O24  1  0.03650595  0.27352625  0.89278889  1
  O  O25  1  0.96349405  0.77352625  0.60721111  1
  O  O26  1  0.07920705  0.09849320  0.61582618  1
  O  O27  1  0.51681031  0.89696745  0.13950765  1
  O  O28  1  0.51681031  0.60303255  0.63950765  1
  O  O29  1  0.31873224  0.86719684  0.72707195  1
  O  O30  1  0.68126776  0.36719684  0.77292805  1
  O  O31  1  0.48318969  0.10303255  0.86049235  1
  O  O32  1  0.92079295  0.90150680  0.38417382  1
  O  O33  1  0.87877264  0.53632487  0.29235334  1
  O  O34  1  0.40855764  0.27979022  0.58452513  1
  O  O35  1  0.40855764  0.22020978  0.08452513  1
  O  O36  1  0.12122736  0.03632487  0.20764666  1
  O  O37  1  0.48318969  0.39696745  0.36049235  1
  O  O38  1  0.12122736  0.46367513  0.70764666  1
  O  O39  1  0.81405331  0.41888074  0.52664340  1
  O  O40  1  0.67034228  0.48750459  0.09750423  1
  O  O41  1  0.68126776  0.13280316  0.27292805  1
  O  O42  1  0.96349405  0.72647375  0.10721111  1
  O  O43  1  0.07920705  0.40150680  0.11582618  1
  O  O44  1  0.18594669  0.91888074  0.97335660  1
  O  O45  1  0.59144236  0.77979022  0.91547487  1
  O  O46  1  0.32965772  0.98750459  0.40249577  1
  O  O47  1  0.32965772  0.51249541  0.90249577  1
  O  O48  1  0.92079295  0.59849320  0.88417382  1
  O  O49  1  0.59144236  0.72020978  0.41547487  1
  O  O50  1  0.31873224  0.63280316  0.22707195  1
  O  O51  1  0.87877264  0.96367513  0.79235334  1
