# generated using pymatgen
data_Rb2ZnO2
_symmetry_space_group_name_H-M   'P 1'
_cell_length_a   6.43856112
_cell_length_b   9.73424047
_cell_length_c   14.28370536
_cell_angle_alpha   97.84751296
_cell_angle_beta   90.00000000
_cell_angle_gamma   90.00000000
_symmetry_Int_Tables_number   1
_chemical_formula_structural   Rb2ZnO2
_chemical_formula_sum   'Rb16 Zn8 O16'
_cell_volume   886.84031104
_cell_formula_units_Z   8
loop_
 _symmetry_equiv_pos_site_id
 _symmetry_equiv_pos_as_xyz
  1  'x, y, z'
loop_
 _atom_site_type_symbol
 _atom_site_label
 _atom_site_symmetry_multiplicity
 _atom_site_fract_x
 _atom_site_fract_y
 _atom_site_fract_z
 _atom_site_occupancy
  Rb  Rb0  1  0.41798961  0.08347358  0.76115854  1
  Rb  Rb1  1  0.62998580  0.74381368  0.66338496  1
  Rb  Rb2  1  0.37001420  0.25618632  0.33661504  1
  Rb  Rb3  1  0.12998580  0.75618632  0.83661504  1
  Rb  Rb4  1  0.67566194  0.82770516  0.97229862  1
  Rb  Rb5  1  0.58201039  0.91652642  0.23884146  1
  Rb  Rb6  1  0.43371502  0.44612568  0.87903938  1
  Rb  Rb7  1  0.82433806  0.32770516  0.47229862  1
  Rb  Rb8  1  0.93371502  0.05387432  0.62096062  1
  Rb  Rb9  1  0.06628498  0.94612568  0.37903938  1
  Rb  Rb10  1  0.32433806  0.17229484  0.02770138  1
  Rb  Rb11  1  0.91798961  0.41652642  0.73884146  1
  Rb  Rb12  1  0.87001420  0.24381368  0.16338496  1
  Rb  Rb13  1  0.17566194  0.67229484  0.52770138  1
  Rb  Rb14  1  0.56628498  0.55387432  0.12096062  1
  Rb  Rb15  1  0.08201039  0.58347358  0.26115854  1
  Zn  Zn16  1  0.44698160  0.12749429  0.54005516  1
  Zn  Zn17  1  0.12725622  0.88872253  0.12865852  1
  Zn  Zn18  1  0.55301840  0.87250571  0.45994484  1
  Zn  Zn19  1  0.87274378  0.11127747  0.87134148  1
  Zn  Zn20  1  0.37274378  0.38872253  0.62865852  1
  Zn  Zn21  1  0.05301840  0.62749429  0.04005516  1
  Zn  Zn22  1  0.94698160  0.37250571  0.95994484  1
  Zn  Zn23  1  0.62725622  0.61127747  0.37134148  1
  O  O24  1  0.13313605  0.43905582  0.07259357  1
  O  O25  1  0.77880088  0.73037439  0.47244729  1
  O  O26  1  0.80459861  0.94061900  0.80207569  1
  O  O27  1  0.69540139  0.44061900  0.30207569  1
  O  O28  1  0.27880088  0.76962561  0.02755271  1
  O  O29  1  0.60129837  0.26018806  0.64188538  1
  O  O30  1  0.39870163  0.73981194  0.35811462  1
  O  O31  1  0.86686395  0.56094418  0.92740643  1
  O  O32  1  0.72119912  0.23037439  0.97244729  1
  O  O33  1  0.19540139  0.05938100  0.19792431  1
  O  O34  1  0.10129837  0.23981194  0.85811462  1
  O  O35  1  0.30459861  0.55938100  0.69792431  1
  O  O36  1  0.89870163  0.76018806  0.14188538  1
  O  O37  1  0.22119912  0.26962561  0.52755271  1
  O  O38  1  0.63313605  0.06094418  0.42740643  1
  O  O39  1  0.36686395  0.93905582  0.57259357  1
