# generated using pymatgen
data_Si2Ge3P6O25
_symmetry_space_group_name_H-M   'P 1'
_cell_length_a   8.08318280
_cell_length_b   8.08318273
_cell_length_c   16.65663816
_cell_angle_alpha   90.00000000
_cell_angle_beta   90.00000000
_cell_angle_gamma   120.00000028
_symmetry_Int_Tables_number   1
_chemical_formula_structural   Si2Ge3P6O25
_chemical_formula_sum   'Si4 Ge6 P12 O50'
_cell_volume   942.50308222
_cell_formula_units_Z   2
loop_
 _symmetry_equiv_pos_site_id
 _symmetry_equiv_pos_as_xyz
  1  'x, y, z'
loop_
 _atom_site_type_symbol
 _atom_site_label
 _atom_site_symmetry_multiplicity
 _atom_site_fract_x
 _atom_site_fract_y
 _atom_site_fract_z
 _atom_site_occupancy
  Si  Si0  1  0.00000000  0.00000000  0.84673783  1
  Si  Si1  1  0.00000000  0.00000000  0.34673783  1
  Si  Si2  1  0.00000000  0.00000000  0.15326217  1
  Si  Si3  1  0.00000000  0.00000000  0.65326217  1
  Ge  Ge4  1  0.33333300  0.66666700  0.47590385  1
  Ge  Ge5  1  0.66666700  0.33333300  0.97590385  1
  Ge  Ge6  1  0.66666700  0.33333300  0.52409615  1
  Ge  Ge7  1  0.33333300  0.66666700  0.02409615  1
  Ge  Ge8  1  0.66666700  0.33333300  0.25000000  1
  Ge  Ge9  1  0.33333300  0.66666700  0.75000000  1
  P  P10  1  0.95248915  0.61471862  0.39189019  1
  P  P11  1  0.38528138  0.04751085  0.10810981  1
  P  P12  1  0.04751085  0.38528138  0.60810981  1
  P  P13  1  0.66222947  0.61471862  0.10810981  1
  P  P14  1  0.04751085  0.66222947  0.89189019  1
  P  P15  1  0.61471862  0.66222947  0.60810981  1
  P  P16  1  0.61471862  0.95248915  0.89189019  1
  P  P17  1  0.95248915  0.33777053  0.10810981  1
  P  P18  1  0.33777053  0.95248915  0.60810981  1
  P  P19  1  0.33777053  0.38528138  0.89189019  1
  P  P20  1  0.38528138  0.33777053  0.39189019  1
  P  P21  1  0.66222947  0.04751085  0.39189019  1
  O  O22  1  0.83837165  0.79439403  0.61748589  1
  O  O23  1  0.46094386  0.57707894  0.09029813  1
  O  O24  1  0.42292106  0.53905614  0.40970187  1
  O  O25  1  0.47119266  0.33502427  0.31072085  1
  O  O26  1  0.53905614  0.42292106  0.90970187  1
  O  O27  1  0.66497573  0.13616839  0.31072085  1
  O  O28  1  0.16162835  0.20560597  0.38251411  1
  O  O29  1  0.16162835  0.95602239  0.11748589  1
  O  O30  1  0.53905614  0.11613509  0.59029813  1
  O  O31  1  0.88386491  0.42292106  0.59029813  1
  O  O32  1  0.19732282  0.44389578  0.54090976  1
  O  O33  1  0.11613509  0.53905614  0.09029813  1
  O  O34  1  0.66497573  0.52880734  0.18927915  1
  O  O35  1  0.47119266  0.13616839  0.18927915  1
  O  O36  1  0.44389578  0.24657295  0.45909024  1
  O  O37  1  0.55610422  0.75342705  0.54090976  1
  O  O38  1  0.75342705  0.19732282  0.45909024  1
  O  O39  1  0.33502427  0.86383161  0.68927915  1
  O  O40  1  0.80267718  0.55610422  0.45909024  1
  O  O41  1  0.42292106  0.88386491  0.09029813  1
  O  O42  1  0.11613509  0.57707894  0.40970187  1
  O  O43  1  0.33502427  0.47119266  0.81072085  1
  O  O44  1  0.04397761  0.83837165  0.38251411  1
  O  O45  1  0.86383161  0.33502427  0.18927915  1
  O  O46  1  0.20560597  0.04397761  0.61748589  1
  O  O47  1  0.44389578  0.19732282  0.04090976  1
  O  O48  1  0.13616839  0.66497573  0.81072085  1
  O  O49  1  0.52880734  0.66497573  0.68927915  1
  O  O50  1  0.80267718  0.24657295  0.04090976  1
  O  O51  1  0.57707894  0.11613509  0.90970187  1
  O  O52  1  0.00000000  0.00000000  0.25000000  1
  O  O53  1  0.19732282  0.75342705  0.95909024  1
  O  O54  1  0.88386491  0.46094386  0.90970187  1
  O  O55  1  0.24657295  0.80267718  0.54090976  1
  O  O56  1  0.95602239  0.16162835  0.61748589  1
  O  O57  1  0.13616839  0.47119266  0.68927915  1
  O  O58  1  0.20560597  0.16162835  0.88251411  1
  O  O59  1  0.75342705  0.55610422  0.04090976  1
  O  O60  1  0.46094386  0.88386491  0.40970187  1
  O  O61  1  0.83837165  0.04397761  0.88251411  1
  O  O62  1  0.79439403  0.95602239  0.38251411  1
  O  O63  1  0.52880734  0.86383161  0.81072085  1
  O  O64  1  0.04397761  0.20560597  0.11748589  1
  O  O65  1  0.79439403  0.83837165  0.11748589  1
  O  O66  1  0.24657295  0.44389578  0.95909024  1
  O  O67  1  0.86383161  0.52880734  0.31072085  1
  O  O68  1  0.57707894  0.46094386  0.59029813  1
  O  O69  1  0.95602239  0.79439403  0.88251411  1
  O  O70  1  0.00000000  0.00000000  0.75000000  1
  O  O71  1  0.55610422  0.80267718  0.95909024  1
