# generated using pymatgen
data_Rb2U(SiO3)4
_symmetry_space_group_name_H-M   'P 1'
_cell_length_a   6.91552501
_cell_length_b   8.49144611
_cell_length_c   11.37301667
_cell_angle_alpha   72.99600358
_cell_angle_beta   88.79001769
_cell_angle_gamma   77.27044074
_symmetry_Int_Tables_number   1
_chemical_formula_structural   Rb2U(SiO3)4
_chemical_formula_sum   'Rb4 U2 Si8 O24'
_cell_volume   622.28988079
_cell_formula_units_Z   2
loop_
 _symmetry_equiv_pos_site_id
 _symmetry_equiv_pos_as_xyz
  1  'x, y, z'
loop_
 _atom_site_type_symbol
 _atom_site_label
 _atom_site_symmetry_multiplicity
 _atom_site_fract_x
 _atom_site_fract_y
 _atom_site_fract_z
 _atom_site_occupancy
  Rb  Rb0  1  0.80372558  0.30951297  0.00549818  1
  Rb  Rb1  1  0.17714648  0.72960546  0.35384163  1
  Rb  Rb2  1  0.19627442  0.69048703  0.99450182  1
  Rb  Rb3  1  0.82285352  0.27039454  0.64615837  1
  U  U4  1  0.67538499  0.71746314  0.17394129  1
  U  U5  1  0.32461501  0.28253686  0.82605871  1
  Si  Si6  1  0.69889880  0.75715647  0.48379568  1
  Si  Si7  1  0.67468914  0.13803247  0.37460537  1
  Si  Si8  1  0.61781354  0.86828015  0.83307632  1
  Si  Si9  1  0.96957004  0.67775201  0.71248322  1
  Si  Si10  1  0.03042996  0.32224799  0.28751678  1
  Si  Si11  1  0.30110120  0.24284353  0.51620432  1
  Si  Si12  1  0.32531086  0.86196753  0.62539463  1
  Si  Si13  1  0.38218646  0.13171985  0.16692368  1
  O  O14  1  0.94022356  0.49532175  0.18166542  1
  O  O15  1  0.44343251  0.82654233  0.75549015  1
  O  O16  1  0.57520668  0.06879433  0.81872030  1
  O  O17  1  0.05977644  0.50467825  0.81833458  1
  O  O18  1  0.42479332  0.93120567  0.18127970  1
  O  O19  1  0.50823578  0.41754456  0.79664296  1
  O  O20  1  0.62274415  0.74843790  0.97336132  1
  O  O21  1  0.53266094  0.20221591  0.47633497  1
  O  O22  1  0.14590539  0.76451949  0.64114045  1
  O  O23  1  0.15986323  0.35852354  0.39307290  1
  O  O24  1  0.77282209  0.93636399  0.43446964  1
  O  O25  1  0.22717791  0.06363601  0.56553036  1
  O  O26  1  0.37725585  0.25156210  0.02663868  1
  O  O27  1  0.85409461  0.23548051  0.35885955  1
  O  O28  1  0.55656749  0.17345767  0.24450985  1
  O  O29  1  0.16822562  0.18047629  0.23081361  1
  O  O30  1  0.27816611  0.33958758  0.61893870  1
  O  O31  1  0.46733906  0.79778409  0.52366503  1
  O  O32  1  0.14377923  0.14406489  0.85848722  1
  O  O33  1  0.84013677  0.64147646  0.60692710  1
  O  O34  1  0.85622077  0.85593511  0.14151278  1
  O  O35  1  0.49176422  0.58245544  0.20335704  1
  O  O36  1  0.83177438  0.81952371  0.76918639  1
  O  O37  1  0.72183389  0.66041242  0.38106130  1
