# generated using pymatgen
data_Li2ZnSn3O8
_symmetry_space_group_name_H-M   'P 1'
_cell_length_a   10.05516142
_cell_length_b   10.66681254
_cell_length_c   10.67483246
_cell_angle_alpha   119.97515296
_cell_angle_beta   90.00000000
_cell_angle_gamma   90.00000000
_symmetry_Int_Tables_number   1
_chemical_formula_structural   Li2ZnSn3O8
_chemical_formula_sum   'Li12 Zn6 Sn18 O48'
_cell_volume   991.79997065
_cell_formula_units_Z   6
loop_
 _symmetry_equiv_pos_site_id
 _symmetry_equiv_pos_as_xyz
  1  'x, y, z'
loop_
 _atom_site_type_symbol
 _atom_site_label
 _atom_site_symmetry_multiplicity
 _atom_site_fract_x
 _atom_site_fract_y
 _atom_site_fract_z
 _atom_site_occupancy
  Li  Li0  1  0.27992983  0.69706066  0.36194350  1
  Li  Li1  1  0.50839570  0.83373224  0.49971879  1
  Li  Li2  1  0.77992983  0.30293934  0.63805650  1
  Li  Li3  1  0.50839570  0.33401345  0.50028121  1
  Li  Li4  1  0.01030992  0.16599269  1.00000000  1
  Li  Li5  1  0.77992983  0.66488284  0.36194350  1
  Li  Li6  1  0.00839570  0.16626776  0.50028121  1
  Li  Li7  1  0.00839570  0.66598655  0.49971879  1
  Li  Li8  1  0.28386351  0.97834166  1.00000000  1
  Li  Li9  1  0.27992983  0.33511716  0.63805650  1
  Li  Li10  1  0.78386351  0.02165834  0.00000000  1
  Li  Li11  1  0.51030992  0.83400731  0.00000000  1
  Zn  Zn12  1  0.69472292  1.00034958  0.33374914  1
  Zn  Zn13  1  0.19472292  0.33339955  0.33374914  1
  Zn  Zn14  1  0.19084616  0.66662700  0.00000000  1
  Zn  Zn15  1  0.69084616  0.33337300  1.00000000  1
  Zn  Zn16  1  0.19472292  -0.00034958  0.66625086  1
  Zn  Zn17  1  0.69472292  0.66660045  0.66625086  1
  Sn  Sn18  1  0.50215885  0.50596094  0.34466771  1
  Sn  Sn19  1  0.50359275  0.98454942  0.82544013  1
  Sn  Sn20  1  0.50367361  0.68115188  0.17272160  1
  Sn  Sn21  1  0.50359275  0.15910929  0.17455987  1
  Sn  Sn22  1  0.50367361  0.50843028  0.82727840  1
  Sn  Sn23  1  0.50215885  0.16129323  0.65533229  1
  Sn  Sn24  1  0.00367361  0.49156972  0.17272160  1
  Sn  Sn25  1  0.28300293  0.66686794  0.66304353  1
  Sn  Sn26  1  0.78416824  0.67072360  1.00000000  1
  Sn  Sn27  1  0.00215885  0.49403906  0.65533229  1
  Sn  Sn28  1  0.00359275  0.84089071  0.82544013  1
  Sn  Sn29  1  0.28300293  0.00382441  0.33695647  1
  Sn  Sn30  1  0.78300293  0.33313206  0.33695647  1
  Sn  Sn31  1  0.78300293  0.99617559  0.66304353  1
  Sn  Sn32  1  0.00215885  0.83870677  0.34466771  1
  Sn  Sn33  1  0.28416824  0.32927640  0.00000000  1
  Sn  Sn34  1  0.00367361  0.31884812  0.82727840  1
  Sn  Sn35  1  0.00359275  0.01545058  0.17455987  1
  O  O36  1  0.88369971  0.16774230  0.67089895  1
  O  O37  1  0.10059451  0.66573472  0.33045632  1
  O  O38  1  0.38447741  0.00044142  0.16747091  1
  O  O39  1  0.38369971  0.50315665  0.67089895  1
  O  O40  1  0.88764872  0.84201456  0.00000000  1
  O  O41  1  0.39304026  0.66319597  1.00000000  1
  O  O42  1  0.89304026  0.33680403  0.00000000  1
  O  O43  1  0.38278589  0.16910881  0.50438242  1
  O  O44  1  0.62939414  0.15030308  0.81885569  1
  O  O45  1  0.63236765  0.51784212  0.00000000  1
  O  O46  1  0.89657033  0.99691054  0.33005195  1
  O  O47  1  0.10059451  0.33527839  0.66954368  1
  O  O48  1  0.38278589  0.66472639  0.49561758  1
  O  O49  1  0.12939414  0.66855261  0.81885569  1
  O  O50  1  0.88447741  0.99955858  0.83252909  1
  O  O51  1  0.89657033  0.66685859  0.66994805  1
  O  O52  1  0.60059451  0.66472161  0.33045632  1
  O  O53  1  0.60059451  0.33426528  0.66954368  1
  O  O54  1  0.14158451  0.50891310  0.51926316  1
  O  O55  1  0.14158451  0.98964994  0.48073684  1
  O  O56  1  0.14037646  0.15066275  0.32991014  1
  O  O57  1  0.38447741  0.83297051  0.83252909  1
  O  O58  1  0.13236765  0.48215788  1.00000000  1
  O  O59  1  0.64037646  0.84933725  0.67008986  1
  O  O60  1  0.64372407  0.81540209  0.15425382  1
  O  O61  1  0.62939414  0.33144739  0.18114431  1
  O  O62  1  0.39657033  0.00308946  0.66994805  1
  O  O63  1  0.89014170  0.66453064  0.16893811  1
  O  O64  1  0.39657033  0.33314141  0.33005195  1
  O  O65  1  0.88369971  0.49684335  0.32910105  1
  O  O66  1  0.14372407  0.18459791  0.84574618  1
  O  O67  1  0.38369971  0.83225770  0.32910105  1
  O  O68  1  0.10210493  0.99769532  1.00000000  1
  O  O69  1  0.88447741  0.16702949  0.16747091  1
  O  O70  1  0.60210493  0.00230468  0.00000000  1
  O  O71  1  0.38764872  0.15798544  1.00000000  1
  O  O72  1  0.14037646  0.82075261  0.67008986  1
  O  O73  1  0.12939414  0.84969692  0.18114431  1
  O  O74  1  0.14372407  0.33885173  0.15425382  1
  O  O75  1  0.64372407  0.66114827  0.84574618  1
  O  O76  1  0.88278589  0.33527361  0.50438242  1
  O  O77  1  0.64158451  0.49108690  0.48073684  1
  O  O78  1  0.39014170  0.50440746  0.16893811  1
  O  O79  1  0.64158451  0.01035006  0.51926316  1
  O  O80  1  0.88278589  0.83089119  0.49561758  1
  O  O81  1  0.64037646  0.17924739  0.32991014  1
  O  O82  1  0.89014170  0.49559254  0.83106189  1
  O  O83  1  0.39014170  0.33546936  0.83106189  1
