# generated using pymatgen
data_Er2SiO5
_symmetry_space_group_name_H-M   'P 1'
_cell_length_a   6.73472081
_cell_length_b   7.97064302
_cell_length_c   9.56469268
_cell_angle_alpha   72.02033488
_cell_angle_beta   69.38654048
_cell_angle_gamma   65.00935189
_symmetry_Int_Tables_number   1
_chemical_formula_structural   Er2SiO5
_chemical_formula_sum   'Er8 Si4 O20'
_cell_volume   427.75851526
_cell_formula_units_Z   4
loop_
 _symmetry_equiv_pos_site_id
 _symmetry_equiv_pos_as_xyz
  1  'x, y, z'
loop_
 _atom_site_type_symbol
 _atom_site_label
 _atom_site_symmetry_multiplicity
 _atom_site_fract_x
 _atom_site_fract_y
 _atom_site_fract_z
 _atom_site_occupancy
  Er  Er0  1  0.76375853  0.05404249  0.66412746  1
  Er  Er1  1  0.29291009  0.39316284  0.53373820  1
  Er  Er2  1  0.23624147  0.94595751  0.33587254  1
  Er  Er3  1  0.51807152  0.55404249  0.16412746  1
  Er  Er4  1  0.48192848  0.44595751  0.83587254  1
  Er  Er5  1  0.70708991  0.60683716  0.46626180  1
  Er  Er6  1  0.78018887  0.89316284  0.03373820  1
  Er  Er7  1  0.21981113  0.10683716  0.96626180  1
  Si  Si8  1  0.09134552  0.44367883  0.19273406  1
  Si  Si9  1  0.90865448  0.55632117  0.80726594  1
  Si  Si10  1  0.72775841  0.05632117  0.30726594  1
  Si  Si11  1  0.27224159  0.94367883  0.69273406  1
  O  O12  1  0.84919619  0.77101697  0.82432364  1
  O  O13  1  0.59251016  0.91678567  0.32155887  1
  O  O14  1  0.09133546  0.96241131  0.86064013  1
  O  O15  1  0.86917877  0.96470271  0.43811514  1
  O  O16  1  0.15080381  0.22898303  0.17567636  1
  O  O17  1  0.42176778  0.86197194  0.10235156  1
  O  O18  1  0.55546320  0.27101697  0.32432364  1
  O  O19  1  0.16914531  0.41678567  0.82155887  1
  O  O20  1  0.13082123  0.03529729  0.56188486  1
  O  O21  1  0.61390872  0.36197194  0.60235156  1
  O  O22  1  0.38609128  0.63802806  0.39764844  1
  O  O23  1  0.91438691  0.53758869  0.63935987  1
  O  O24  1  0.40748984  0.08321433  0.67844113  1
  O  O25  1  0.27199662  0.53529729  0.06188486  1
  O  O26  1  0.08561309  0.46241131  0.36064013  1
  O  O27  1  0.44453680  0.72898303  0.67567636  1
  O  O28  1  0.90866454  0.03758869  0.13935987  1
  O  O29  1  0.57823222  0.13802806  0.89764844  1
  O  O30  1  0.83085469  0.58321433  0.17844113  1
  O  O31  1  0.72800338  0.46470271  0.93811514  1
