# generated using pymatgen
data_Na2Be(SiO3)2
_symmetry_space_group_name_H-M   'P 1'
_cell_length_a   6.94192419
_cell_length_b   11.21512159
_cell_length_c   11.23609406
_cell_angle_alpha   84.51386078
_cell_angle_beta   72.00633796
_cell_angle_gamma   71.97153341
_symmetry_Int_Tables_number   1
_chemical_formula_structural   Na2Be(SiO3)2
_chemical_formula_sum   'Na12 Be6 Si12 O36'
_cell_volume   791.14722390
_cell_formula_units_Z   6
loop_
 _symmetry_equiv_pos_site_id
 _symmetry_equiv_pos_as_xyz
  1  'x, y, z'
loop_
 _atom_site_type_symbol
 _atom_site_label
 _atom_site_symmetry_multiplicity
 _atom_site_fract_x
 _atom_site_fract_y
 _atom_site_fract_z
 _atom_site_occupancy
  Na  Na0  1  0.45928707  0.15306683  0.43899615  1
  Na  Na1  1  0.51752689  0.31597902  0.67060424  1
  Na  Na2  1  0.51133231  0.00000000  0.97733538  1
  Na  Na3  1  0.39042423  0.50000000  0.21915154  1
  Na  Na4  1  0.74588985  0.81597902  0.17060424  1
  Na  Na5  1  0.81186887  0.68402098  0.67060424  1
  Na  Na6  1  0.19864996  0.65306683  0.93899615  1
  Na  Na7  1  0.08350590  0.18402098  0.17060424  1
  Na  Na8  1  0.10171679  0.84693317  0.43899615  1
  Na  Na9  1  0.14042423  0.00000000  0.71915154  1
  Na  Na10  1  0.76133231  0.50000000  0.47733538  1
  Na  Na11  1  0.86235390  0.34693317  0.93899615  1
  Be  Be12  1  0.89147187  0.83632958  0.84827560  1
  Be  Be13  1  0.26025253  0.16367042  0.84827560  1
  Be  Be14  1  0.67392295  0.33632958  0.34827560  1
  Be  Be15  1  0.97780145  0.66367042  0.34827560  1
  Be  Be16  1  0.61488521  0.50000000  0.77022959  1
  Be  Be17  1  0.36488521  0.00000000  0.27022959  1
  Si  Si18  1  0.33557423  0.36657822  0.97601088  1
  Si  Si19  1  0.26242148  0.80061983  0.14982236  1
  Si  Si20  1  0.91013746  0.50000000  0.17972508  1
  Si  Si21  1  0.58775616  0.19938017  0.14982236  1
  Si  Si22  1  0.95215245  0.13342178  0.47601088  1
  Si  Si23  1  0.57183667  0.86657822  0.47601088  1
  Si  Si24  1  0.31304131  0.69938017  0.64982236  1
  Si  Si25  1  0.00040601  0.00000000  0.99918798  1
  Si  Si26  1  0.68841490  0.63342178  0.97601088  1
  Si  Si27  1  0.25040601  0.50000000  0.49918798  1
  Si  Si28  1  0.03713633  0.30061983  0.64982236  1
  Si  Si29  1  0.66013746  0.00000000  0.67972508  1
  O  O30  1  0.73886007  0.23329984  0.45695610  1
  O  O31  1  0.80418382  0.76670016  0.45695610  1
  O  O32  1  0.75401563  0.52816921  0.08530558  1
  O  O33  1  0.88250958  0.02816921  0.58530558  1
  O  O34  1  0.52761333  0.60924642  0.67471191  1
  O  O35  1  0.37559940  0.80163676  0.53656920  1
  O  O36  1  0.38685975  0.89075358  0.17471191  1
  O  O37  1  0.16067879  0.47183079  0.08530558  1
  O  O38  1  0.87058709  0.96379704  0.91867454  1
  O  O39  1  0.43842834  0.10924642  0.17471191  1
  O  O40  1  0.82088398  0.73329984  0.95695610  1
  O  O41  1  0.53006821  0.94563694  0.35390818  1
  O  O42  1  0.79767476  0.39075358  0.67471191  1
  O  O43  1  0.08438413  0.53620296  0.41867454  1
  O  O44  1  0.53218484  0.97183079  0.58530558  1
  O  O45  1  0.72570514  0.55436306  0.85390818  1
  O  O46  1  0.14125318  0.77849372  0.76925466  1
  O  O47  1  0.50673607  0.12393662  0.76000184  1
  O  O48  1  0.42723616  0.69836324  0.03656920  1
  O  O49  1  0.11602362  0.05436306  0.35390818  1
  O  O50  1  0.88067269  0.37606338  0.26000184  1
  O  O51  1  0.73326209  0.87606338  0.76000184  1
  O  O52  1  0.21073838  0.03620296  0.91867454  1
  O  O53  1  0.08783140  0.19836324  0.53656920  1
  O  O54  1  0.49694133  0.46379704  0.41867454  1
  O  O55  1  0.42038668  0.44563694  0.85390818  1
  O  O56  1  0.21676228  0.37788754  0.59229398  1
  O  O57  1  0.53619464  0.30163676  0.03656920  1
  O  O58  1  0.85932547  0.62393662  0.26000184  1
  O  O59  1  0.56099844  0.27849372  0.26925466  1
  O  O60  1  0.22215991  0.26670016  0.95695610  1
  O  O61  1  0.19094374  0.62211246  0.59229398  1
  O  O62  1  0.84464982  0.12211246  0.09229398  1
  O  O63  1  0.16974690  0.72150628  0.26925466  1
  O  O64  1  0.08949216  0.22150628  0.76925466  1
  O  O65  1  0.06305620  0.87788754  0.09229398  1
