# generated using pymatgen
data_MgTlAs(H6O5)2
_symmetry_space_group_name_H-M   'P 1'
_cell_length_a   6.25789247
_cell_length_b   7.05974931
_cell_length_c   11.44785174
_cell_angle_alpha   90.00000000
_cell_angle_beta   90.00000000
_cell_angle_gamma   90.00000000
_symmetry_Int_Tables_number   1
_chemical_formula_structural   MgTlAs(H6O5)2
_chemical_formula_sum   'Mg2 Tl2 As2 H24 O20'
_cell_volume   505.75638263
_cell_formula_units_Z   2
loop_
 _symmetry_equiv_pos_site_id
 _symmetry_equiv_pos_as_xyz
  1  'x, y, z'
loop_
 _atom_site_type_symbol
 _atom_site_label
 _atom_site_symmetry_multiplicity
 _atom_site_fract_x
 _atom_site_fract_y
 _atom_site_fract_z
 _atom_site_occupancy
  Mg  Mg0  1  0.37957606  0.50000000  0.11965654  1
  Mg  Mg1  1  0.62042394  0.00000000  0.61965654  1
  Tl  Tl2  1  0.36950040  0.50000000  0.77687587  1
  Tl  Tl3  1  0.63049960  0.00000000  0.27687587  1
  As  As4  1  -0.00631660  0.50000000  0.49138619  1
  As  As5  1  1.00631660  0.00000000  0.99138619  1
  H  H6  1  0.61057882  0.67976348  0.47403926  1
  H  H7  1  0.99982088  0.11425210  0.50104004  1
  H  H8  1  0.18291302  0.17766767  0.19252309  1
  H  H9  1  0.38942118  0.17976348  0.97403926  1
  H  H10  1  0.21636357  0.29563802  0.31037264  1
  H  H11  1  0.21636357  0.70436198  0.31037264  1
  H  H12  1  0.78363643  0.79563802  0.81037264  1
  H  H13  1  0.62999190  0.74450186  0.98729622  1
  H  H14  1  0.27922664  0.00000000  0.78237515  1
  H  H15  1  0.81708698  0.32233233  0.69252309  1
  H  H16  1  0.78363643  0.20436198  0.81037264  1
  H  H17  1  0.00017912  0.61425210  1.00104004  1
  H  H18  1  0.61057882  0.32023652  0.47403926  1
  H  H19  1  0.18291302  0.82233233  0.19252309  1
  H  H20  1  0.17494101  0.00000000  0.65338738  1
  H  H21  1  0.99982088  0.88574790  0.50104004  1
  H  H22  1  0.81708698  0.67766767  0.69252309  1
  H  H23  1  0.82505899  0.50000000  0.15338738  1
  H  H24  1  0.37000810  0.24450186  0.48729622  1
  H  H25  1  0.62999190  0.25549814  0.98729622  1
  H  H26  1  0.38942118  0.82023652  0.97403926  1
  H  H27  1  0.72077336  0.50000000  0.28237515  1
  H  H28  1  0.00017912  0.38574790  1.00104004  1
  H  H29  1  0.37000810  0.75549814  0.48729622  1
  O  O30  1  0.27792582  0.27657673  0.22982459  1
  O  O31  1  0.52354085  0.20606104  0.49877141  1
  O  O32  1  0.31184506  0.00000000  0.69606393  1
  O  O33  1  0.87391683  0.20133756  0.94607900  1
  O  O34  1  0.87391683  0.79866244  0.94607900  1
  O  O35  1  0.68815494  0.50000000  0.19606393  1
  O  O36  1  0.03578936  0.00000000  0.14068081  1
  O  O37  1  0.25637258  0.00000000  0.92635564  1
  O  O38  1  0.27792582  0.72342327  0.22982459  1
  O  O39  1  0.93675518  0.00000000  0.54170601  1
  O  O40  1  0.52354085  0.79393896  0.49877141  1
  O  O41  1  0.06324482  0.50000000  0.04170601  1
  O  O42  1  0.72207418  0.77657673  0.72982459  1
  O  O43  1  0.12608317  0.70133756  0.44607900  1
  O  O44  1  0.72207418  0.22342327  0.72982459  1
  O  O45  1  0.12608317  0.29866244  0.44607900  1
  O  O46  1  0.47645915  0.29393896  -0.00122859  1
  O  O47  1  0.96421064  0.50000000  0.64068081  1
  O  O48  1  0.74362742  0.50000000  0.42635564  1
  O  O49  1  0.47645915  0.70606104  -0.00122859  1
