# generated using pymatgen
data_Th2P2O9
_symmetry_space_group_name_H-M   'P 1'
_cell_length_a   5.89523704
_cell_length_b   5.89523711
_cell_length_c   12.99896344
_cell_angle_alpha   90.00000000
_cell_angle_beta   90.00000000
_cell_angle_gamma   103.90760912
_symmetry_Int_Tables_number   1
_chemical_formula_structural   Th2P2O9
_chemical_formula_sum   'Th4 P4 O18'
_cell_volume   438.51999235
_cell_formula_units_Z   2
loop_
 _symmetry_equiv_pos_site_id
 _symmetry_equiv_pos_as_xyz
  1  'x, y, z'
loop_
 _atom_site_type_symbol
 _atom_site_label
 _atom_site_symmetry_multiplicity
 _atom_site_fract_x
 _atom_site_fract_y
 _atom_site_fract_z
 _atom_site_occupancy
  Th  Th0  1  0.29278995  0.70721005  0.57292334  1
  Th  Th1  1  0.70721005  0.29278995  0.42707666  1
  Th  Th2  1  0.20721005  0.79278995  0.07292334  1
  Th  Th3  1  0.79278995  0.20721005  0.92707666  1
  P  P4  1  0.38884818  0.61115182  0.85960729  1
  P  P5  1  0.11115182  0.88884818  0.35960729  1
  P  P6  1  0.61115182  0.38884818  0.14039271  1
  P  P7  1  0.88884818  0.11115182  0.64039271  1
  O  O8  1  0.05210969  0.94789031  0.62303045  1
  O  O9  1  0.98349731  0.35105940  0.58399521  1
  O  O10  1  0.14636144  0.85363856  0.24457084  1
  O  O11  1  0.48349731  0.85105940  0.91600479  1
  O  O12  1  0.64894060  0.01650269  0.58399521  1
  O  O13  1  0.44789031  0.55210969  0.12303045  1
  O  O14  1  0.85105940  0.48349731  0.08399521  1
  O  O15  1  0.64636144  0.35363856  0.25542916  1
  O  O16  1  0.94789031  0.05210969  0.37696955  1
  O  O17  1  0.35105940  0.98349731  0.41600479  1
  O  O18  1  0.35363856  0.64636144  0.74457084  1
  O  O19  1  0.51650269  0.14894060  0.08399521  1
  O  O20  1  0.55210969  0.44789031  0.87696955  1
  O  O21  1  0.50000000  0.50000000  0.50000000  1
  O  O22  1  0.85363856  0.14636144  0.75542916  1
  O  O23  1  0.14894060  0.51650269  0.91600479  1
  O  O24  1  0.01650269  0.64894060  0.41600479  1
  O  O25  1  0.00000000  0.00000000  0.00000000  1
