# generated using pymatgen
data_Na2TiF6
_symmetry_space_group_name_H-M   'P 1'
_cell_length_a   5.23774772
_cell_length_b   9.32216710
_cell_length_c   9.32362664
_cell_angle_alpha   120.00517933
_cell_angle_beta   90.00000000
_cell_angle_gamma   89.95146876
_symmetry_Int_Tables_number   1
_chemical_formula_structural   Na2TiF6
_chemical_formula_sum   'Na6 Ti3 F18'
_cell_volume   394.23401190
_cell_formula_units_Z   3
loop_
 _symmetry_equiv_pos_site_id
 _symmetry_equiv_pos_as_xyz
  1  'x, y, z'
loop_
 _atom_site_type_symbol
 _atom_site_label
 _atom_site_symmetry_multiplicity
 _atom_site_fract_x
 _atom_site_fract_y
 _atom_site_fract_z
 _atom_site_occupancy
  Na  Na0  1  0.99967421  0.62452394  0.00231368  1
  Na  Na1  1  0.00032579  0.37547606  0.37778974  1
  Na  Na2  1  0.49999357  0.28894279  0.00108613  1
  Na  Na3  1  0.50000000  0.00000000  0.29056003  1
  Na  Na4  1  0.50000643  0.71105721  0.71214334  1
  Na  Na5  1  0.00000000  0.00000000  0.62509358  1
  Ti  Ti6  1  0.50612033  0.66623450  0.33459055  1
  Ti  Ti7  1  0.49387967  0.33376550  0.66835605  1
  Ti  Ti8  1  0.00000000  0.00000000  0.00138786  1
  F  F9  1  0.30078027  0.47370877  0.25465577  1
  F  F10  1  0.79398802  0.19233229  0.10835465  1
  F  F11  1  0.28729447  0.45338585  0.59687842  1
  F  F12  1  0.70005343  0.25308698  0.47589782  1
  F  F13  1  0.28662492  0.14313467  0.54875767  1
  F  F14  1  0.20601198  0.80766771  0.91602235  1
  F  F15  1  0.20477176  0.08593893  0.89454865  1
  F  F16  1  0.79522824  0.91406107  0.80860972  1
  F  F17  1  0.20473827  0.10705111  0.19418735  1
  F  F18  1  0.70025805  0.22153371  0.74842710  1
  F  F19  1  0.79526173  0.89294889  0.08713624  1
  F  F20  1  0.71395384  0.59541763  0.45417707  1
  F  F21  1  0.28604616  0.40458237  0.85875944  1
  F  F22  1  0.29974195  0.77846629  0.52689339  1
  F  F23  1  0.71270553  0.54661415  0.14349258  1
  F  F24  1  0.71337508  0.85686533  0.40562299  1
  F  F25  1  0.29994657  0.74691302  0.22281084  1
  F  F26  1  0.69921973  0.52629123  0.78094700  1
