# generated using pymatgen
data_MnAl(WO4)2
_symmetry_space_group_name_H-M   'P 1'
_cell_length_a   5.10278670
_cell_length_b   5.67296496
_cell_length_c   9.27102680
_cell_angle_alpha   90.00000000
_cell_angle_beta   91.56162209
_cell_angle_gamma   90.00000000
_symmetry_Int_Tables_number   1
_chemical_formula_structural   MnAl(WO4)2
_chemical_formula_sum   'Mn2 Al2 W4 O16'
_cell_volume   268.27735947
_cell_formula_units_Z   2
loop_
 _symmetry_equiv_pos_site_id
 _symmetry_equiv_pos_as_xyz
  1  'x, y, z'
loop_
 _atom_site_type_symbol
 _atom_site_label
 _atom_site_symmetry_multiplicity
 _atom_site_fract_x
 _atom_site_fract_y
 _atom_site_fract_z
 _atom_site_occupancy
  Mn  Mn0  1  0.75000000  0.34896770  0.25000000  1
  Mn  Mn1  1  0.25000000  0.65103130  0.75000000  1
  Al  Al2  1  0.25000000  0.65825871  0.25000000  1
  Al  Al3  1  0.74999900  0.34174029  0.75000000  1
  W  W4  1  0.25116793  0.16647084  0.50185838  1
  W  W5  1  0.24883107  0.16647084  0.99814262  1
  W  W6  1  0.74883207  0.83352916  0.49814162  1
  W  W7  1  0.75116893  0.83352916  0.00185738  1
  O  O8  1  0.37584005  0.39660280  0.12812099  1
  O  O9  1  0.12415895  0.39660280  0.37187801  1
  O  O10  1  0.62415995  0.60339620  0.87187901  1
  O  O11  1  0.87584005  0.60339620  0.62812199  1
  O  O12  1  0.42589367  0.88859695  0.61007497  1
  O  O13  1  0.07410633  0.88859695  0.88992503  1
  O  O14  1  0.57410633  0.11140305  0.38992503  1
  O  O15  1  0.92589367  0.11140305  0.11007497  1
  O  O16  1  0.93111099  0.63584882  0.14121039  1
  O  O17  1  0.56888901  0.63584882  0.35878961  1
  O  O18  1  0.06888901  0.36415218  0.85878961  1
  O  O19  1  0.43111099  0.36415218  0.64121039  1
  O  O20  1  0.42389439  0.88232334  0.11613736  1
  O  O21  1  0.57610561  0.11767766  0.88386264  1
  O  O22  1  0.07610661  0.88232334  0.38386364  1
  O  O23  1  0.92389339  0.11767766  0.61613636  1
