# generated using pymatgen
data_CaS2(ClO3)2
_symmetry_space_group_name_H-M   'P 1'
_cell_length_a   9.38964682
_cell_length_b   10.44626428
_cell_length_c   17.63812564
_cell_angle_alpha   90.00000000
_cell_angle_beta   90.00000000
_cell_angle_gamma   90.00000000
_symmetry_Int_Tables_number   1
_chemical_formula_structural   CaS2(ClO3)2
_chemical_formula_sum   'Ca8 S16 Cl16 O48'
_cell_volume   1730.06610577
_cell_formula_units_Z   8
loop_
 _symmetry_equiv_pos_site_id
 _symmetry_equiv_pos_as_xyz
  1  'x, y, z'
loop_
 _atom_site_type_symbol
 _atom_site_label
 _atom_site_symmetry_multiplicity
 _atom_site_fract_x
 _atom_site_fract_y
 _atom_site_fract_z
 _atom_site_occupancy
  Ca  Ca0  1  0.63901929  0.40194677  0.62838239  1
  Ca  Ca1  1  0.86098071  0.90194677  0.37161761  1
  Ca  Ca2  1  0.63901929  0.90194677  0.87161761  1
  Ca  Ca3  1  0.13901929  0.09805323  0.62838239  1
  Ca  Ca4  1  0.36098071  0.59805323  0.37161761  1
  Ca  Ca5  1  0.13901929  0.59805323  0.87161761  1
  Ca  Ca6  1  0.86098071  0.40194677  0.12838239  1
  Ca  Ca7  1  0.36098071  0.09805323  0.12838239  1
  S  S8  1  0.03191778  0.64960312  0.25358144  1
  S  S9  1  0.22151875  0.38721043  0.03092416  1
  S  S10  1  0.96808222  0.35039688  0.74641856  1
  S  S11  1  0.46808222  0.14960312  0.74641856  1
  S  S12  1  0.27848125  0.38721043  0.53092416  1
  S  S13  1  0.22151875  0.88721043  0.46907584  1
  S  S14  1  0.96808222  0.85039688  0.75358144  1
  S  S15  1  0.46808222  0.64960312  0.75358144  1
  S  S16  1  0.03191778  0.14960312  0.24641856  1
  S  S17  1  0.77848125  0.11278957  0.53092416  1
  S  S18  1  0.72151875  0.61278957  0.46907584  1
  S  S19  1  0.27848125  0.88721043  0.96907584  1
  S  S20  1  0.53191778  0.35039688  0.24641856  1
  S  S21  1  0.53191778  0.85039688  0.25358144  1
  S  S22  1  0.72151875  0.11278957  0.03092416  1
  S  S23  1  0.77848125  0.61278957  0.96907584  1
  Cl  Cl24  1  0.85826183  0.48776623  0.41637543  1
  Cl  Cl25  1  0.38085338  0.25697914  0.83207351  1
  Cl  Cl26  1  0.35826183  0.01223377  0.41637543  1
  Cl  Cl27  1  0.61914662  0.24302086  0.33207351  1
  Cl  Cl28  1  0.88085338  0.74302086  0.66792649  1
  Cl  Cl29  1  0.61914662  0.74302086  0.16792649  1
  Cl  Cl30  1  0.11914662  0.25697914  0.33207351  1
  Cl  Cl31  1  0.11914662  0.75697914  0.16792649  1
  Cl  Cl32  1  0.88085338  0.24302086  0.83207351  1
  Cl  Cl33  1  0.14173817  0.01223377  0.91637543  1
  Cl  Cl34  1  0.64173817  0.98776623  0.58362457  1
  Cl  Cl35  1  0.85826183  0.98776623  0.08362457  1
  Cl  Cl36  1  0.14173817  0.51223377  0.58362457  1
  Cl  Cl37  1  0.35826183  0.51223377  0.08362457  1
  Cl  Cl38  1  0.64173817  0.48776623  0.91637543  1
  Cl  Cl39  1  0.38085338  0.75697914  0.66792649  1
  O  O40  1  0.78533129  0.23886723  0.04132649  1
  O  O41  1  0.56225561  0.23744601  0.70660818  1
  O  O42  1  0.95675997  0.54673404  0.21505937  1
  O  O43  1  0.28001296  0.42984342  0.45199500  1
  O  O44  1  0.08562060  0.90376057  0.43048623  1
  O  O45  1  0.71998704  0.57015658  0.54800500  1
  O  O46  1  0.54324003  0.04673404  0.78494063  1
  O  O47  1  0.91437940  0.59623943  0.93048623  1
  O  O48  1  0.08562060  0.40376057  0.06951377  1
  O  O49  1  0.84782376  0.39422063  0.70108013  1
  O  O50  1  0.28533129  0.76113277  0.45867351  1
  O  O51  1  0.54324003  0.54673404  0.71505937  1
  O  O52  1  0.78001296  0.57015658  0.04800500  1
  O  O53  1  0.41437940  0.40376057  0.56951377  1
  O  O54  1  0.95675997  0.04673404  0.28494063  1
  O  O55  1  0.56225561  0.73744601  0.79339182  1
  O  O56  1  0.58562060  0.09623943  0.06951377  1
  O  O57  1  0.15217624  0.60577937  0.29891987  1
  O  O58  1  0.04324003  0.45326596  0.78494063  1
  O  O59  1  0.71466871  0.73886723  0.95867351  1
  O  O60  1  0.15217624  0.10577937  0.20108013  1
  O  O61  1  0.28533129  0.26113277  0.04132649  1
  O  O62  1  0.34782376  0.60577937  0.79891987  1
  O  O63  1  0.78533129  0.73886723  0.45867351  1
  O  O64  1  0.91437940  0.09623943  0.56951377  1
  O  O65  1  0.43774439  0.76255399  0.29339182  1
  O  O66  1  0.06225561  0.26255399  0.70660818  1
  O  O67  1  0.41437940  0.90376057  0.93048623  1
  O  O68  1  0.21998704  0.92984342  0.54800500  1
  O  O69  1  0.43774439  0.26255399  0.20660818  1
  O  O70  1  0.21998704  0.42984342  0.95199500  1
  O  O71  1  0.58562060  0.59623943  0.43048623  1
  O  O72  1  0.71466871  0.23886723  0.54132649  1
  O  O73  1  0.28001296  0.92984342  0.04800500  1
  O  O74  1  0.45675997  0.95326596  0.21505937  1
  O  O75  1  0.21466871  0.26113277  0.54132649  1
  O  O76  1  0.65217624  0.39422063  0.20108013  1
  O  O77  1  0.06225561  0.76255399  0.79339182  1
  O  O78  1  0.04324003  0.95326596  0.71505937  1
  O  O79  1  0.71998704  0.07015658  0.95199500  1
  O  O80  1  0.21466871  0.76113277  0.95867351  1
  O  O81  1  0.65217624  0.89422063  0.29891987  1
  O  O82  1  0.93774439  0.23744601  0.20660818  1
  O  O83  1  0.93774439  0.73744601  0.29339182  1
  O  O84  1  0.84782376  0.89422063  0.79891987  1
  O  O85  1  0.45675997  0.45326596  0.28494063  1
  O  O86  1  0.78001296  0.07015658  0.45199500  1
  O  O87  1  0.34782376  0.10577937  0.70108013  1
