# generated using pymatgen
data_K2OsCBr5O
_symmetry_space_group_name_H-M   'P 1'
_cell_length_a   7.51728730
_cell_length_b   10.87060313
_cell_length_c   14.83268385
_cell_angle_alpha   90.00000000
_cell_angle_beta   90.00000000
_cell_angle_gamma   90.00000000
_symmetry_Int_Tables_number   1
_chemical_formula_structural   K2OsCBr5O
_chemical_formula_sum   'K8 Os4 C4 Br20 O4'
_cell_volume   1212.08905419
_cell_formula_units_Z   4
loop_
 _symmetry_equiv_pos_site_id
 _symmetry_equiv_pos_as_xyz
  1  'x, y, z'
loop_
 _atom_site_type_symbol
 _atom_site_label
 _atom_site_symmetry_multiplicity
 _atom_site_fract_x
 _atom_site_fract_y
 _atom_site_fract_z
 _atom_site_occupancy
  K  K0  1  0.67138687  0.88716979  0.14708556  1
  K  K1  1  0.32742781  0.88790388  0.85472266  1
  K  K2  1  0.17257219  0.88790388  0.35472266  1
  K  K3  1  0.17138687  0.38716979  0.35291444  1
  K  K4  1  0.82742781  0.38790388  0.64527734  1
  K  K5  1  0.67257219  0.38790388  0.14527734  1
  K  K6  1  0.32861313  0.38716979  0.85291444  1
  K  K7  1  0.82861313  0.88716979  0.64708556  1
  Os  Os8  1  0.80976887  0.63731708  0.88637366  1
  Os  Os9  1  0.19023113  0.13731708  0.11362634  1
  Os  Os10  1  0.30976887  0.13731708  0.61362634  1
  Os  Os11  1  0.69023113  0.63731708  0.38637366  1
  C  C12  1  0.97431443  0.63658710  0.97723297  1
  C  C13  1  0.52568557  0.63658710  0.47723297  1
  C  C14  1  0.02568557  0.13658710  0.02276703  1
  C  C15  1  0.47431443  0.13658710  0.52276703  1
  Br  Br16  1  0.58589605  0.64044687  0.74958024  1
  Br  Br17  1  0.29687805  0.90572481  0.61667025  1
  Br  Br18  1  0.95397157  0.63811330  0.49368455  1
  Br  Br19  1  0.45397157  0.13811330  0.00631545  1
  Br  Br20  1  0.70312195  0.40572481  0.38332975  1
  Br  Br21  1  0.93991874  0.13569716  0.22800088  1
  Br  Br22  1  0.19497259  0.36894738  0.11469230  1
  Br  Br23  1  0.08589605  0.14044687  0.75041976  1
  Br  Br24  1  0.80502741  0.86894738  0.88530770  1
  Br  Br25  1  0.69497259  0.86894738  0.38530770  1
  Br  Br26  1  0.20312195  0.90572481  0.11667025  1
  Br  Br27  1  0.43991874  0.63569716  0.27199912  1
  Br  Br28  1  0.79687805  0.40572481  0.88332975  1
  Br  Br29  1  0.41410395  0.14044687  0.25041976  1
  Br  Br30  1  0.04602843  0.13811330  0.50631545  1
  Br  Br31  1  0.91410395  0.64044687  0.24958024  1
  Br  Br32  1  0.30502741  0.36894738  0.61469230  1
  Br  Br33  1  0.06008126  0.63569716  0.77199912  1
  Br  Br34  1  0.54602843  0.63811330  0.99368455  1
  Br  Br35  1  0.56008126  0.13569716  0.72800088  1
  O  O36  1  0.91450177  0.13709363  0.96732042  1
  O  O37  1  0.41450177  0.63709363  0.53267958  1
  O  O38  1  0.58549823  0.13709363  0.46732042  1
  O  O39  1  0.08549823  0.63709363  0.03267958  1
