# generated using pymatgen
data_Na3Y(BO3)2
_symmetry_space_group_name_H-M   'P 1'
_cell_length_a   6.61607773
_cell_length_b   8.59783844
_cell_length_c   10.66805815
_cell_angle_alpha   90.00000000
_cell_angle_beta   94.01124265
_cell_angle_gamma   90.00000000
_symmetry_Int_Tables_number   1
_chemical_formula_structural   Na3Y(BO3)2
_chemical_formula_sum   'Na12 Y4 B8 O24'
_cell_volume   605.35491912
_cell_formula_units_Z   4
loop_
 _symmetry_equiv_pos_site_id
 _symmetry_equiv_pos_as_xyz
  1  'x, y, z'
loop_
 _atom_site_type_symbol
 _atom_site_label
 _atom_site_symmetry_multiplicity
 _atom_site_fract_x
 _atom_site_fract_y
 _atom_site_fract_z
 _atom_site_occupancy
  Na  Na0  1  0.48340269  0.70243084  0.88268236  1
  Na  Na1  1  0.21213284  0.05534660  0.88419637  1
  Na  Na2  1  0.01659731  0.20243084  0.61731764  1
  Na  Na3  1  0.01261131  0.29577267  0.07205253  1
  Na  Na4  1  0.51659731  0.29756916  0.11731764  1
  Na  Na5  1  0.28786716  0.55534660  0.61580363  1
  Na  Na6  1  0.51261131  0.20422733  0.57205253  1
  Na  Na7  1  0.48738869  0.79577267  0.42794747  1
  Na  Na8  1  0.71213284  0.44465340  0.38419637  1
  Na  Na9  1  0.98738869  0.70422733  0.92794747  1
  Na  Na10  1  0.98340269  0.79756916  0.38268236  1
  Na  Na11  1  0.78786716  0.94465340  0.11580363  1
  Y  Y12  1  0.26463865  0.62662847  0.17069363  1
  Y  Y13  1  0.23536135  0.12662847  0.32930637  1
  Y  Y14  1  0.76463865  0.87337153  0.67069363  1
  Y  Y15  1  0.73536135  0.37337153  0.82930637  1
  B  B16  1  0.78540480  0.55852988  0.61972936  1
  B  B17  1  0.28540480  0.94147012  0.11972936  1
  B  B18  1  0.21459520  0.44147012  0.38027064  1
  B  B19  1  0.74040549  0.08858070  0.37511467  1
  B  B20  1  0.24040549  0.41141930  0.87511467  1
  B  B21  1  0.75959451  0.58858070  0.12488533  1
  B  B22  1  0.71459520  0.05852988  0.88027064  1
  B  B23  1  0.25959451  0.91141930  0.62488533  1
  O  O24  1  0.24096593  0.49402671  0.98749884  1
  O  O25  1  0.25903407  0.99402671  0.51250116  1
  O  O26  1  0.71516457  0.16405470  0.97770410  1
  O  O27  1  0.92019421  0.68805087  0.16002597  1
  O  O28  1  0.31255229  0.88248991  0.24343196  1
  O  O29  1  0.74096593  0.00597329  0.48749884  1
  O  O30  1  0.74828755  0.90107058  0.89390663  1
  O  O31  1  0.78483543  0.66405470  0.52229590  1
  O  O32  1  0.59849160  0.57021380  0.20103941  1
  O  O33  1  0.07980579  0.31194913  0.83997403  1
  O  O34  1  0.25171245  0.09892942  0.10609337  1
  O  O35  1  0.68744771  0.11751009  0.75656804  1
  O  O36  1  0.42019421  0.81194913  0.66002597  1
  O  O37  1  0.40150840  0.42978620  0.79896059  1
  O  O38  1  0.75171245  0.40107058  0.60609337  1
  O  O39  1  0.18744771  0.38248991  0.25656804  1
  O  O40  1  0.90150840  0.07021380  0.29896059  1
  O  O41  1  0.75903407  0.50597329  0.01250116  1
  O  O42  1  0.24828755  0.59892942  0.39390663  1
  O  O43  1  0.21516457  0.33594530  0.47770410  1
  O  O44  1  0.57980579  0.18805087  0.33997403  1
  O  O45  1  0.81255229  0.61751009  0.74343196  1
  O  O46  1  0.28483543  0.83594530  0.02229590  1
  O  O47  1  0.09849160  0.92978620  0.70103941  1
