# generated using pymatgen
data_Nd3S2Cl5
_symmetry_space_group_name_H-M   'P 1'
_cell_length_a   6.62883125
_cell_length_b   7.09429318
_cell_length_c   22.12207972
_cell_angle_alpha   97.84251248
_cell_angle_beta   90.00000000
_cell_angle_gamma   90.00000000
_symmetry_Int_Tables_number   1
_chemical_formula_structural   Nd3S2Cl5
_chemical_formula_sum   'Nd12 S8 Cl20'
_cell_volume   1030.60185528
_cell_formula_units_Z   4
loop_
 _symmetry_equiv_pos_site_id
 _symmetry_equiv_pos_as_xyz
  1  'x, y, z'
loop_
 _atom_site_type_symbol
 _atom_site_label
 _atom_site_symmetry_multiplicity
 _atom_site_fract_x
 _atom_site_fract_y
 _atom_site_fract_z
 _atom_site_occupancy
  Nd  Nd0  1  0.04536150  0.66251661  0.09958105  1
  Nd  Nd1  1  0.45453439  0.29585197  0.40378253  1
  Nd  Nd2  1  0.95463850  0.33748339  0.90041895  1
  Nd  Nd3  1  0.45553919  0.64314177  0.25112781  1
  Nd  Nd4  1  0.45463850  0.16251661  0.09958105  1
  Nd  Nd5  1  0.95553919  0.85685823  0.74887219  1
  Nd  Nd6  1  0.04446081  0.14314177  0.25112781  1
  Nd  Nd7  1  0.54446081  0.35685823  0.74887219  1
  Nd  Nd8  1  0.04546561  0.79585197  0.40378253  1
  Nd  Nd9  1  0.54546561  0.70414803  0.59621747  1
  Nd  Nd10  1  0.54536150  0.83748339  0.90041895  1
  Nd  Nd11  1  0.95453439  0.20414803  0.59621747  1
  S  S12  1  0.69052544  0.09809439  0.82637583  1
  S  S13  1  0.80947456  0.59809439  0.82637583  1
  S  S14  1  0.69003820  0.03225767  0.66847573  1
  S  S15  1  0.30996180  0.96774233  0.33152427  1
  S  S16  1  0.19003820  0.46774233  0.33152427  1
  S  S17  1  0.19052544  0.40190561  0.17362417  1
  S  S18  1  0.80996180  0.53225767  0.66847573  1
  S  S19  1  0.30947456  0.90190561  0.17362417  1
  Cl  Cl20  1  0.27045564  0.60128934  0.48710864  1
  Cl  Cl21  1  0.22954436  0.10128934  0.48710864  1
  Cl  Cl22  1  0.13947861  0.22290050  0.75314909  1
  Cl  Cl23  1  0.77045564  0.89871066  0.51289136  1
  Cl  Cl24  1  0.65678192  0.51784353  0.11990393  1
  Cl  Cl25  1  0.18125967  0.34319073  0.01858163  1
  Cl  Cl26  1  0.84321808  0.01784353  0.11990393  1
  Cl  Cl27  1  0.34321808  0.48215647  0.88009607  1
  Cl  Cl28  1  0.36052139  0.72290050  0.75314909  1
  Cl  Cl29  1  0.33101390  0.37937962  0.62522473  1
  Cl  Cl30  1  0.83101390  0.12062038  0.37477527  1
  Cl  Cl31  1  0.63947861  0.27709950  0.24685091  1
  Cl  Cl32  1  0.31874033  0.84319073  0.01858163  1
  Cl  Cl33  1  0.68125967  0.15680927  0.98141837  1
  Cl  Cl34  1  0.81874033  0.65680927  0.98141837  1
  Cl  Cl35  1  0.66898610  0.62062038  0.37477527  1
  Cl  Cl36  1  0.72954436  0.39871066  0.51289136  1
  Cl  Cl37  1  0.86052139  0.77709950  0.24685091  1
  Cl  Cl38  1  0.16898610  0.87937962  0.62522473  1
  Cl  Cl39  1  0.15678192  0.98215647  0.88009607  1
