# generated using pymatgen
data_Dy9(SbO)5
_symmetry_space_group_name_H-M   'P 1'
_cell_length_a   8.87761015
_cell_length_b   9.87512717
_cell_length_c   9.87512717
_cell_angle_alpha   90.00000000
_cell_angle_beta   90.00000000
_cell_angle_gamma   90.00000000
_symmetry_Int_Tables_number   1
_chemical_formula_structural   Dy9(SbO)5
_chemical_formula_sum   'Dy18 Sb10 O10'
_cell_volume   865.72799950
_cell_formula_units_Z   2
loop_
 _symmetry_equiv_pos_site_id
 _symmetry_equiv_pos_as_xyz
  1  'x, y, z'
loop_
 _atom_site_type_symbol
 _atom_site_label
 _atom_site_symmetry_multiplicity
 _atom_site_fract_x
 _atom_site_fract_y
 _atom_site_fract_z
 _atom_site_occupancy
  Dy  Dy0  1  0.67231363  0.75000000  0.75000000  1
  Dy  Dy1  1  0.34173577  0.85462804  0.04455284  1
  Dy  Dy2  1  0.00179673  0.83260716  0.52408871  1
  Dy  Dy3  1  0.00179673  0.97591129  0.83260716  1
  Dy  Dy4  1  0.34173577  0.64537196  0.45544716  1
  Dy  Dy5  1  0.34173577  0.45544716  0.85462804  1
  Dy  Dy6  1  0.65826423  0.35462804  0.54455284  1
  Dy  Dy7  1  0.00179673  0.52408871  0.66739284  1
  Dy  Dy8  1  0.99820327  0.16739284  0.47591129  1
  Dy  Dy9  1  0.65826423  0.54455284  0.14537196  1
  Dy  Dy10  1  0.32768637  0.25000000  0.25000000  1
  Dy  Dy11  1  0.99820327  0.47591129  0.33260716  1
  Dy  Dy12  1  0.99820327  0.02408871  0.16739284  1
  Dy  Dy13  1  0.99820327  0.33260716  0.02408871  1
  Dy  Dy14  1  0.00179673  0.66739284  0.97591129  1
  Dy  Dy15  1  0.34173577  0.04455284  0.64537196  1
  Dy  Dy16  1  0.65826423  0.14537196  0.95544716  1
  Dy  Dy17  1  0.65826423  0.95544716  0.35462804  1
  Sb  Sb18  1  0.69823872  0.44543184  0.84552151  1
  Sb  Sb19  1  0.30176128  0.55456816  0.15447849  1
  Sb  Sb20  1  0.30176128  0.15447849  0.94543184  1
  Sb  Sb21  1  0.68146438  0.25000000  0.25000000  1
  Sb  Sb22  1  0.30176128  0.34552151  0.55456816  1
  Sb  Sb23  1  0.69823872  0.84552151  0.05456816  1
  Sb  Sb24  1  0.69823872  0.05456816  0.65447849  1
  Sb  Sb25  1  0.69823872  0.65447849  0.44543184  1
  Sb  Sb26  1  0.30176128  0.94543184  0.34552151  1
  Sb  Sb27  1  0.31853562  0.75000000  0.75000000  1
  O  O28  1  0.08683387  0.62991009  0.47491218  1
  O  O29  1  0.91316613  0.37008991  0.52508782  1
  O  O30  1  0.91316613  0.97491218  0.37008991  1
  O  O31  1  0.91316613  0.52508782  0.12991009  1
  O  O32  1  0.91316613  0.12991009  0.97491218  1
  O  O33  1  0.93618443  0.75000000  0.75000000  1
  O  O34  1  0.08683387  0.87008991  0.02508782  1
  O  O35  1  0.06381557  0.25000000  0.25000000  1
  O  O36  1  0.08683387  0.02508782  0.62991009  1
  O  O37  1  0.08683387  0.47491218  0.87008991  1
