# generated using pymatgen
data_Pr10S14O
_symmetry_space_group_name_H-M   'P 1'
_cell_length_a   14.79030466
_cell_length_b   14.79030794
_cell_length_c   14.79030786
_cell_angle_alpha   93.71422626
_cell_angle_beta   117.87925977
_cell_angle_gamma   117.87925732
_symmetry_Int_Tables_number   1
_chemical_formula_structural   Pr10S14O
_chemical_formula_sum   'Pr40 S56 O4'
_cell_volume   2355.77294345
_cell_formula_units_Z   4
loop_
 _symmetry_equiv_pos_site_id
 _symmetry_equiv_pos_as_xyz
  1  'x, y, z'
loop_
 _atom_site_type_symbol
 _atom_site_label
 _atom_site_symmetry_multiplicity
 _atom_site_fract_x
 _atom_site_fract_y
 _atom_site_fract_z
 _atom_site_occupancy
  Pr  Pr0  1  0.25000000  0.00974142  0.49025858  1
  Pr  Pr1  1  0.11126749  0.42528851  0.30139399  1
  Pr  Pr2  1  0.51948277  0.50974141  0.25974143  1
  Pr  Pr3  1  0.12389440  0.92528848  0.81402092  1
  Pr  Pr4  1  0.65538032  0.67459601  0.57415231  1
  Pr  Pr5  1  0.38873251  0.19860601  0.07471149  1
  Pr  Pr6  1  0.88873251  0.57471149  0.69860601  1
  Pr  Pr7  1  0.34461968  0.32540399  0.42584769  1
  Pr  Pr8  1  0.89955614  0.82540373  0.48078431  1
  Pr  Pr9  1  0.61126749  0.80139399  0.92528851  1
  Pr  Pr10  1  0.25000000  0.74025845  0.75974155  1
  Pr  Pr11  1  0.11126741  0.18597911  0.80987349  1
  Pr  Pr12  1  0.89955627  0.57415248  0.41877187  1
  Pr  Pr13  1  0.87610567  0.30139413  0.69012669  1
  Pr  Pr14  1  0.62389433  0.80987331  0.19860587  1
  Pr  Pr15  1  0.34461969  0.51921581  0.91877189  1
  Pr  Pr16  1  0.12389433  0.69860587  0.30987331  1
  Pr  Pr17  1  0.38873259  0.69012651  0.31402089  1
  Pr  Pr18  1  0.10044386  0.17459627  0.51921569  1
  Pr  Pr19  1  0.62389440  0.31402092  0.42528848  1
  Pr  Pr20  1  0.65538031  0.48078419  0.08122811  1
  Pr  Pr21  1  0.60044386  0.01921569  0.67459627  1
  Pr  Pr22  1  0.75000000  0.25974155  0.24025845  1
  Pr  Pr23  1  0.88873259  0.81402089  0.19012651  1
  Pr  Pr24  1  0.48051723  0.49025859  0.74025857  1
  Pr  Pr25  1  0.37610560  0.68597908  0.57471152  1
  Pr  Pr26  1  0.15538031  0.58122811  0.98078419  1
  Pr  Pr27  1  0.84461968  0.92584769  0.82540399  1
  Pr  Pr28  1  0.60044373  0.08122813  0.92584752  1
  Pr  Pr29  1  0.10044373  0.42584752  0.58122813  1
  Pr  Pr30  1  0.39955614  0.98078431  0.32540373  1
  Pr  Pr31  1  0.39955627  0.91877187  0.07415248  1
  Pr  Pr32  1  0.01948277  0.75974143  0.00974141  1
  Pr  Pr33  1  0.15538032  0.07415231  0.17459601  1
  Pr  Pr34  1  0.98051723  0.24025857  0.99025859  1
  Pr  Pr35  1  0.61126741  0.30987349  0.68597911  1
  Pr  Pr36  1  0.75000000  0.99025858  0.50974142  1
  Pr  Pr37  1  0.84461969  0.41877189  0.01921581  1
  Pr  Pr38  1  0.87610560  0.07471152  0.18597908  1
  Pr  Pr39  1  0.37610567  0.19012669  0.80139413  1
  S  S40  1  0.64173540  0.02769484  0.12034281  1
  S  S41  1  0.64754956  0.39754965  0.24999992  1
  S  S42  1  0.89101835  0.75770951  0.79028600  1
  S  S43  1  0.03257666  0.79028617  0.39926787  1
  S  S44  1  0.08448228  0.06391824  0.33414214  1
  S  S45  1  0.58448228  0.83414214  0.56391824  1
  S  S46  1  0.91551785  0.47943613  0.24966009  1
  S  S47  1  0.72977603  0.66585758  0.25034000  1
  S  S48  1  0.85826447  0.97860731  0.38595943  1
  S  S49  1  0.53257670  0.13330912  0.24229015  1
  S  S50  1  0.40735192  0.38595926  0.02769490  1
  S  S51  1  0.85245025  0.10245021  0.74999981  1
  S  S52  1  0.58448215  0.25033991  0.02056387  1
  S  S53  1  0.35826447  0.88595943  0.47860731  1
  S  S54  1  0.10898165  0.24229049  0.20971400  1
  S  S55  1  0.96742330  0.25770985  0.36669088  1
  S  S56  1  0.22977603  0.75034000  0.16585758  1
  S  S57  1  0.14173540  0.62034281  0.52769484  1
  S  S58  1  0.85826460  0.37965719  0.47230516  1
  S  S59  1  0.08448215  0.52056387  0.75033991  1
  S  S60  1  0.39101824  0.60073232  0.13330880  1
  S  S61  1  0.14754975  0.89754979  0.25000019  1
  S  S62  1  0.41551772  0.16585786  0.43608176  1
  S  S63  1  0.35245025  0.24999981  0.60245021  1
  S  S64  1  0.91551772  0.93608176  0.66585786  1
  S  S65  1  0.77022394  0.02056388  0.93608156  1
  S  S66  1  0.22977606  0.97943612  0.06391844  1
  S  S67  1  0.27022397  0.33414242  0.74966000  1
  S  S68  1  0.14754956  0.74999992  0.89754965  1
  S  S69  1  0.27022394  0.43608156  0.52056388  1
  S  S70  1  0.09264821  0.12034298  0.97860749  1
  S  S71  1  0.53257666  0.89926787  0.29028617  1
  S  S72  1  0.96742334  0.20971383  0.60073213  1
  S  S73  1  0.39101835  0.29028600  0.25770951  1
  S  S74  1  0.03257670  0.74229015  0.63330912  1
  S  S75  1  0.64754975  0.75000019  0.39754979  1
  S  S76  1  0.59264821  0.47860749  0.62034298  1
  S  S77  1  0.09264808  0.47230510  0.11404074  1
  S  S78  1  0.77022397  0.24966000  0.83414242  1
  S  S79  1  0.60898176  0.39926768  0.86669120  1
  S  S80  1  0.90735179  0.87965702  0.02139251  1
  S  S81  1  0.14173553  0.02139269  0.61404057  1
  S  S82  1  0.59264808  0.61404074  0.97230510  1
  S  S83  1  0.46742334  0.10073213  0.70971383  1
  S  S84  1  0.72977606  0.56391844  0.47943612  1
  S  S85  1  0.90735192  0.52769490  0.88595926  1
  S  S86  1  0.64173553  0.11404057  0.52139269  1
  S  S87  1  0.35826460  0.97230516  0.87965719  1
  S  S88  1  0.85245044  0.25000008  0.10245035  1
  S  S89  1  0.89101824  0.63330880  0.10073232  1
  S  S90  1  0.46742330  0.86669088  0.75770985  1
  S  S91  1  0.60898165  0.70971400  0.74229049  1
  S  S92  1  0.35245044  0.60245035  0.75000008  1
  S  S93  1  0.41551785  0.74966009  0.97943613  1
  S  S94  1  0.10898176  0.36669120  0.89926768  1
  S  S95  1  0.40735179  0.52139251  0.37965702  1
  O  O96  1  0.74999973  0.87499981  0.12500003  1
  O  O97  1  0.25000027  0.12500019  0.87499997  1
  O  O98  1  0.75000027  0.37499997  0.62500019  1
  O  O99  1  0.24999973  0.62500003  0.37499981  1
