# generated using pymatgen
data_CsSb2F11
_symmetry_space_group_name_H-M   'P 1'
_cell_length_a   7.92522752
_cell_length_b   9.78905306
_cell_length_c   14.64633032
_cell_angle_alpha   90.00000000
_cell_angle_beta   90.00000000
_cell_angle_gamma   112.95227885
_symmetry_Int_Tables_number   1
_chemical_formula_structural   CsSb2F11
_chemical_formula_sum   'Cs4 Sb8 F44'
_cell_volume   1046.31076153
_cell_formula_units_Z   4
loop_
 _symmetry_equiv_pos_site_id
 _symmetry_equiv_pos_as_xyz
  1  'x, y, z'
loop_
 _atom_site_type_symbol
 _atom_site_label
 _atom_site_symmetry_multiplicity
 _atom_site_fract_x
 _atom_site_fract_y
 _atom_site_fract_z
 _atom_site_occupancy
  Cs  Cs0  1  0.98357916  0.72572525  0.37220254  1
  Cs  Cs1  1  0.01642084  0.27427475  0.62779746  1
  Cs  Cs2  1  0.48357916  0.22572525  0.12779746  1
  Cs  Cs3  1  0.51642084  0.77427475  0.87220254  1
  Sb  Sb4  1  0.02386538  0.75665687  0.05017973  1
  Sb  Sb5  1  0.97613462  0.24334313  0.94982027  1
  Sb  Sb6  1  0.52386538  0.25665687  0.44982027  1
  Sb  Sb7  1  0.41127508  0.69060249  0.19464690  1
  Sb  Sb8  1  0.58872492  0.30939751  0.80535310  1
  Sb  Sb9  1  0.08872492  0.80939751  0.69464690  1
  Sb  Sb10  1  0.91127508  0.19060249  0.30535310  1
  Sb  Sb11  1  0.47613462  0.74334313  0.55017973  1
  F  F12  1  0.11417837  0.99416781  0.64167827  1
  F  F13  1  0.93275055  0.34906099  0.04968900  1
  F  F14  1  0.61119302  0.65966471  0.47863770  1
  F  F15  1  0.63151369  0.71815247  0.25714247  1
  F  F16  1  0.36848631  0.28184753  0.74285753  1
  F  F17  1  0.16574637  0.65618925  0.12731818  1
  F  F18  1  0.13151369  0.21815247  0.24285753  1
  F  F19  1  0.75948175  0.08949788  0.20588780  1
  F  F20  1  0.86848631  0.78184753  0.75714247  1
  F  F21  1  0.38880698  0.34033529  0.52136230  1
  F  F22  1  0.24051825  0.91050212  0.79411220  1
  F  F23  1  0.48776406  0.64535398  0.66105508  1
  F  F24  1  0.43275055  0.84906099  0.45031100  1
  F  F25  1  0.61417837  0.49416781  0.85832173  1
  F  F26  1  0.89249031  0.36896643  0.26426918  1
  F  F27  1  0.60750969  0.13103357  0.76426918  1
  F  F28  1  0.56724945  0.15093901  0.54968900  1
  F  F29  1  0.25742202  0.91149745  0.02704320  1
  F  F30  1  0.96916328  0.71229715  0.58619822  1
  F  F31  1  0.74051825  0.41050212  0.70588780  1
  F  F32  1  0.31086602  0.09087921  0.41409994  1
  F  F33  1  0.74257798  0.08850255  0.97295680  1
  F  F34  1  0.98776406  0.14535398  0.83894492  1
  F  F35  1  0.38582163  0.50583219  0.14167827  1
  F  F36  1  0.25948175  0.58949788  0.29411220  1
  F  F37  1  0.66574637  0.15618925  0.37268182  1
  F  F38  1  0.18913398  0.40912079  0.91409994  1
  F  F39  1  0.11119302  0.15966471  0.02136230  1
  F  F40  1  0.88582163  0.00583219  0.35832173  1
  F  F41  1  0.03083672  0.28770285  0.41380178  1
  F  F42  1  0.81086602  0.59087921  0.08590006  1
  F  F43  1  0.39249031  0.86896643  0.23573082  1
  F  F44  1  0.06724945  0.65093901  0.95031100  1
  F  F45  1  0.33425363  0.84381075  0.62731818  1
  F  F46  1  0.10750969  0.63103357  0.73573082  1
  F  F47  1  0.24257798  0.58850255  0.52704320  1
  F  F48  1  0.68913398  0.90912079  0.58590006  1
  F  F49  1  0.75742202  0.41149745  0.47295680  1
  F  F50  1  0.88880698  0.84033529  0.97863770  1
  F  F51  1  0.51223594  0.35464602  0.33894492  1
  F  F52  1  0.01223594  0.85464602  0.16105508  1
  F  F53  1  0.53083672  0.78770285  0.08619822  1
  F  F54  1  0.83425363  0.34381075  0.87268182  1
  F  F55  1  0.46916328  0.21229715  0.91380178  1
