# generated using pymatgen
data_Rb2GeO3
_symmetry_space_group_name_H-M   'P 1'
_cell_length_a   6.75039386
_cell_length_b   13.75889857
_cell_length_c   16.30437019
_cell_angle_alpha   90.00000000
_cell_angle_beta   95.99889767
_cell_angle_gamma   90.00000000
_symmetry_Int_Tables_number   1
_chemical_formula_structural   Rb2GeO3
_chemical_formula_sum   'Rb24 Ge12 O36'
_cell_volume   1506.02449821
_cell_formula_units_Z   12
loop_
 _symmetry_equiv_pos_site_id
 _symmetry_equiv_pos_as_xyz
  1  'x, y, z'
loop_
 _atom_site_type_symbol
 _atom_site_label
 _atom_site_symmetry_multiplicity
 _atom_site_fract_x
 _atom_site_fract_y
 _atom_site_fract_z
 _atom_site_occupancy
  Rb  Rb0  1  0.24453858  0.41391870  0.97173578  1
  Rb  Rb1  1  0.42784244  0.14417604  0.00437719  1
  Rb  Rb2  1  0.06678965  0.49554417  0.72058392  1
  Rb  Rb3  1  0.92784244  0.35582396  0.50437719  1
  Rb  Rb4  1  0.68810685  0.69709821  0.80130772  1
  Rb  Rb5  1  0.31189315  0.30290179  0.19869228  1
  Rb  Rb6  1  0.75546142  0.58608130  0.02826422  1
  Rb  Rb7  1  0.60123995  0.61541955  0.58162884  1
  Rb  Rb8  1  0.74453858  0.08608130  0.47173578  1
  Rb  Rb9  1  0.56678965  0.00445583  0.22058392  1
  Rb  Rb10  1  0.43321035  0.99554417  0.77941608  1
  Rb  Rb11  1  0.25546142  0.91391870  0.52826422  1
  Rb  Rb12  1  0.18810685  0.80290179  0.30130772  1
  Rb  Rb13  1  0.89876005  0.11541955  0.91837116  1
  Rb  Rb14  1  0.75249857  0.88284834  0.63964590  1
  Rb  Rb15  1  0.07215756  0.64417604  0.49562281  1
  Rb  Rb16  1  0.10123995  0.88458045  0.08162884  1
  Rb  Rb17  1  0.25249857  0.61715166  0.13964590  1
  Rb  Rb18  1  0.81189315  0.19709821  0.69869228  1
  Rb  Rb19  1  0.93321035  0.50445583  0.27941608  1
  Rb  Rb20  1  0.39876005  0.38458045  0.41837116  1
  Rb  Rb21  1  0.74750143  0.38284834  0.86035410  1
  Rb  Rb22  1  0.57215756  0.85582396  0.99562281  1
  Rb  Rb23  1  0.24750143  0.11715166  0.36035410  1
  Ge  Ge24  1  0.16985870  0.65200562  0.89928363  1
  Ge  Ge25  1  0.81833847  0.25349295  0.28622271  1
  Ge  Ge26  1  0.33014130  0.15200562  0.60071637  1
  Ge  Ge27  1  0.83014130  0.34799438  0.10071637  1
  Ge  Ge28  1  0.68166153  0.75349295  0.21377729  1
  Ge  Ge29  1  0.31833847  0.24650705  0.78622271  1
  Ge  Ge30  1  0.03450582  0.88208965  0.86463541  1
  Ge  Ge31  1  0.66985870  0.84799438  0.39928363  1
  Ge  Ge32  1  0.18166153  0.74650705  0.71377729  1
  Ge  Ge33  1  0.96549418  0.11791035  0.13536459  1
  Ge  Ge34  1  0.46549418  0.38208965  0.63536459  1
  Ge  Ge35  1  0.53450582  0.61791035  0.36463541  1
  O  O36  1  0.70778496  0.54139153  0.41958563  1
  O  O37  1  0.60922796  0.63902910  0.26074905  1
  O  O38  1  0.98642955  0.56125138  0.88693170  1
  O  O39  1  0.46540634  0.80516527  0.16331102  1
  O  O40  1  0.77777636  0.82956505  0.30156786  1
  O  O41  1  0.48642955  0.93874862  0.38693170  1
  O  O42  1  0.20778496  0.95860847  0.91958563  1
  O  O43  1  0.61776527  0.23032450  0.34277741  1
  O  O44  1  0.46631864  0.26422998  0.58161724  1
  O  O45  1  0.63215324  0.36632094  0.02531272  1
  O  O46  1  0.28528543  0.58222607  0.35247978  1
  O  O47  1  0.21471457  0.08222607  0.14752022  1
  O  O48  1  0.36784676  0.63367906  0.97468728  1
  O  O49  1  0.13215324  0.13367906  0.52531272  1
  O  O50  1  0.38223473  0.76967550  0.65722259  1
  O  O51  1  0.11776527  0.26967550  0.84277741  1
  O  O52  1  0.88223473  0.73032450  0.15722259  1
  O  O53  1  0.03459366  0.30516527  0.33668898  1
  O  O54  1  0.53368136  0.73577002  0.41838276  1
  O  O55  1  0.29221504  0.45860847  0.58041437  1
  O  O56  1  0.71471457  0.41777393  0.64752022  1
  O  O57  1  0.22222364  0.17043495  0.69843214  1
  O  O58  1  0.86784676  0.86632094  0.47468728  1
  O  O59  1  0.89077204  0.13902910  0.23925095  1
  O  O60  1  0.72222364  0.32956505  0.19843214  1
  O  O61  1  0.53459366  0.19483473  0.83668898  1
  O  O62  1  0.51357045  0.06125138  0.61306830  1
  O  O63  1  0.10922796  0.86097090  0.76074905  1
  O  O64  1  0.96540634  0.69483473  0.66331102  1
  O  O65  1  0.03368136  0.76422998  0.91838276  1
  O  O66  1  0.27777636  0.67043495  0.80156786  1
  O  O67  1  0.96631864  0.23577002  0.08161724  1
  O  O68  1  0.78528543  0.91777393  0.85247978  1
  O  O69  1  0.79221504  0.04139153  0.08041437  1
  O  O70  1  0.39077204  0.36097090  0.73925095  1
  O  O71  1  0.01357045  0.43874862  0.11306830  1
