# generated using pymatgen
data_NaNb4Tl3P2O17
_symmetry_space_group_name_H-M   'P 1'
_cell_length_a   7.49101857
_cell_length_b   10.09422667
_cell_length_c   11.95469951
_cell_angle_alpha   114.97595223
_cell_angle_beta   90.00000000
_cell_angle_gamma   90.00000000
_symmetry_Int_Tables_number   1
_chemical_formula_structural   NaNb4Tl3P2O17
_chemical_formula_sum   'Na2 Nb8 Tl6 P4 O34'
_cell_volume   819.43263057
_cell_formula_units_Z   2
loop_
 _symmetry_equiv_pos_site_id
 _symmetry_equiv_pos_as_xyz
  1  'x, y, z'
loop_
 _atom_site_type_symbol
 _atom_site_label
 _atom_site_symmetry_multiplicity
 _atom_site_fract_x
 _atom_site_fract_y
 _atom_site_fract_z
 _atom_site_occupancy
  Na  Na0  1  0.50000428  0.63211065  0.00001148  1
  Na  Na1  1  0.99999572  0.63211065  0.00001148  1
  Nb  Nb2  1  0.00065349  0.34580014  0.30732563  1
  Nb  Nb3  1  0.75000000  0.67303114  0.52649356  1
  Nb  Nb4  1  0.49934651  0.34580014  0.30732563  1
  Nb  Nb5  1  0.99999756  0.00101099  0.99999251  1
  Nb  Nb6  1  0.50065355  0.03850456  0.69267806  1
  Nb  Nb7  1  0.50000244  0.00101099  0.99999251  1
  Nb  Nb8  1  0.99934645  0.03850456  0.69267806  1
  Nb  Nb9  1  0.25000000  0.14650155  0.47348610  1
  Tl  Tl10  1  0.25000000  0.68781187  0.72207925  1
  Tl  Tl11  1  0.25000000  0.71383025  0.39588549  1
  Tl  Tl12  1  0.75000000  0.31790889  0.60411503  1
  Tl  Tl13  1  0.25000000  0.36678477  0.05625534  1
  Tl  Tl14  1  0.75000000  0.31049925  0.94376863  1
  Tl  Tl15  1  0.75000000  0.96578027  0.27794468  1
  P  P16  1  0.25000000  0.35133951  0.77013253  1
  P  P17  1  0.75000000  0.68675649  0.82475569  1
  P  P18  1  0.75000000  0.58120247  0.22987422  1
  P  P19  1  0.25000000  0.86199718  0.17522531  1
  O  O20  1  0.75000000  0.11663621  0.69986906  1
  O  O21  1  0.75000000  0.65392691  0.14074761  1
  O  O22  1  0.07624340  0.89949074  0.12270516  1
  O  O23  1  0.54122866  0.06017446  0.86982246  1
  O  O24  1  0.43746637  0.07393606  0.54440383  1
  O  O25  1  0.95877134  0.06017446  0.86982246  1
  O  O26  1  0.75000000  1.00056212  0.05599833  1
  O  O27  1  0.42032174  0.27259769  0.78725909  1
  O  O28  1  0.06253363  0.07393606  0.54440383  1
  O  O29  1  0.42375660  0.89949074  0.12270516  1
  O  O30  1  0.75000000  0.28579805  0.29384058  1
  O  O31  1  0.25000000  0.41676699  0.30021489  1
  O  O32  1  0.56254774  0.52952983  0.45558245  1
  O  O33  1  0.43158895  0.23599272  0.39506407  1
  O  O34  1  0.25000000  0.94455522  0.94399713  1
  O  O35  1  0.92031909  0.48534769  0.21274575  1
  O  O36  1  0.25000000  0.70053924  0.15011411  1
  O  O37  1  0.04121491  0.19037862  0.13016296  1
  O  O38  1  0.92375666  0.77674527  0.87731812  1
  O  O39  1  0.57624334  0.77674527  0.87731812  1
  O  O40  1  0.25000000  0.95745442  0.31804502  1
  O  O41  1  0.75000000  0.70361174  0.36770294  1
  O  O42  1  0.75000000  0.55036531  0.84983987  1
  O  O43  1  0.25000000  0.99204190  0.70616803  1
  O  O44  1  0.56842953  0.84098347  0.60491009  1
  O  O45  1  0.45878509  0.19037862  0.13016296  1
  O  O46  1  0.25000000  0.51316110  0.85923253  1
  O  O47  1  0.07967826  0.27259769  0.78725909  1
  O  O48  1  0.93157047  0.84098347  0.60491009  1
  O  O49  1  0.06841105  0.23599272  0.39506407  1
  O  O50  1  0.93745226  0.52952983  0.45558245  1
  O  O51  1  0.75000000  0.63946627  0.68195763  1
  O  O52  1  0.57968091  0.48534769  0.21274575  1
  O  O53  1  0.25000000  0.33586512  0.63229309  1
