# generated using pymatgen
data_Sr2Co2O5
_symmetry_space_group_name_H-M   'P 1'
_cell_length_a   5.43022257
_cell_length_b   5.55978806
_cell_length_c   8.98530263
_cell_angle_alpha   108.34837952
_cell_angle_beta   108.05011397
_cell_angle_gamma   88.52613994
_symmetry_Int_Tables_number   1
_chemical_formula_structural   Sr2Co2O5
_chemical_formula_sum   'Sr4 Co4 O10'
_cell_volume   244.03444647
_cell_formula_units_Z   2
loop_
 _symmetry_equiv_pos_site_id
 _symmetry_equiv_pos_as_xyz
  1  'x, y, z'
loop_
 _atom_site_type_symbol
 _atom_site_label
 _atom_site_symmetry_multiplicity
 _atom_site_fract_x
 _atom_site_fract_y
 _atom_site_fract_z
 _atom_site_occupancy
  Sr  Sr0  1  0.60264676  0.12321508  0.22277944  1
  Sr  Sr1  1  0.88156667  0.39914122  0.77696741  1
  Sr  Sr2  1  0.10179213  0.59999521  0.22265775  1
  Sr  Sr3  1  0.38007711  0.87636005  0.77760174  1
  Co  Co4  1  0.77834368  0.81567233  0.50203075  1
  Co  Co5  1  0.98869412  0.99987512  1.00020427  1
  Co  Co6  1  0.27438526  0.18520277  0.49828855  1
  Co  Co7  1  0.48844258  0.49910606  -0.00088463  1
  O  O8  1  0.62220610  0.60711775  0.29161526  1
  O  O9  1  0.32872080  0.39276704  0.70990440  1
  O  O10  1  0.63027763  0.13475909  0.49995074  1
  O  O11  1  0.83771224  0.82654911  0.71844753  1
  O  O12  1  0.74295948  0.23868670  0.99123925  1
  O  O13  1  0.24382965  0.25280710  0.98997078  1
  O  O14  1  0.11785474  0.17094901  0.28033631  1
  O  O15  1  0.73717837  0.74278779  0.01013673  1
  O  O16  1  0.13041761  0.87106396  0.50025921  1
  O  O17  1  0.23689607  0.76394460  0.00849553  1
