# generated using pymatgen
data_Sr4Br6O
_symmetry_space_group_name_H-M   'P 1'
_cell_length_a   9.99661437
_cell_length_b   9.99661480
_cell_length_c   7.67159353
_cell_angle_alpha   90.00000000
_cell_angle_beta   90.00000000
_cell_angle_gamma   119.99999853
_symmetry_Int_Tables_number   1
_chemical_formula_structural   Sr4Br6O
_chemical_formula_sum   'Sr8 Br12 O2'
_cell_volume   663.92973461
_cell_formula_units_Z   2
loop_
 _symmetry_equiv_pos_site_id
 _symmetry_equiv_pos_as_xyz
  1  'x, y, z'
loop_
 _atom_site_type_symbol
 _atom_site_label
 _atom_site_symmetry_multiplicity
 _atom_site_fract_x
 _atom_site_fract_y
 _atom_site_fract_z
 _atom_site_occupancy
  Sr  Sr0  1  0.79891236  0.59782472  0.99703948  1
  Sr  Sr1  1  0.40217528  0.20108764  0.99703948  1
  Sr  Sr2  1  0.66666700  0.33333300  0.58470522  1
  Sr  Sr3  1  0.20108764  0.79891236  0.49703948  1
  Sr  Sr4  1  0.59782472  0.79891236  0.49703948  1
  Sr  Sr5  1  0.20108764  0.40217528  0.49703948  1
  Sr  Sr6  1  0.33333300  0.66666700  0.08470522  1
  Sr  Sr7  1  0.79891236  0.20108764  0.99703948  1
  Br  Br8  1  0.53475217  0.06950434  0.29315033  1
  Br  Br9  1  0.46524783  0.93049566  0.79315033  1
  Br  Br10  1  0.53475217  0.46524783  0.29315033  1
  Br  Br11  1  0.13915542  0.86084458  0.11436826  1
  Br  Br12  1  0.72168916  0.86084458  0.11436826  1
  Br  Br13  1  0.86084458  0.72168916  0.61436826  1
  Br  Br14  1  0.06950434  0.53475217  0.79315033  1
  Br  Br15  1  0.93049566  0.46524783  0.29315033  1
  Br  Br16  1  0.27831084  0.13915542  0.61436826  1
  Br  Br17  1  0.13915542  0.27831084  0.11436826  1
  Br  Br18  1  0.46524783  0.53475217  0.79315033  1
  Br  Br19  1  0.86084458  0.13915542  0.61436826  1
  O  O20  1  0.33333300  0.66666700  0.39692058  1
  O  O21  1  0.66666700  0.33333300  0.89692058  1
