# generated using pymatgen
data_AgBiSCl2
_symmetry_space_group_name_H-M   'P 1'
_cell_length_a   4.07054279
_cell_length_b   7.37172961
_cell_length_c   8.70450217
_cell_angle_alpha   90.00000000
_cell_angle_beta   90.00000000
_cell_angle_gamma   106.02706706
_symmetry_Int_Tables_number   1
_chemical_formula_structural   AgBiSCl2
_chemical_formula_sum   'Ag2 Bi2 S2 Cl4'
_cell_volume   251.04317234
_cell_formula_units_Z   2
loop_
 _symmetry_equiv_pos_site_id
 _symmetry_equiv_pos_as_xyz
  1  'x, y, z'
loop_
 _atom_site_type_symbol
 _atom_site_label
 _atom_site_symmetry_multiplicity
 _atom_site_fract_x
 _atom_site_fract_y
 _atom_site_fract_z
 _atom_site_occupancy
  Ag  Ag0  1  0.00000000  0.00000000  0.50000000  1
  Ag  Ag1  1  0.00000000  0.00000000  0.00000000  1
  Bi  Bi2  1  0.29105292  0.58210584  0.75000000  1
  Bi  Bi3  1  0.70894708  0.41789416  0.25000000  1
  S  S4  1  0.91728863  0.83457727  0.75000000  1
  S  S5  1  0.08271137  0.16542273  0.25000000  1
  Cl  Cl6  1  0.65932657  0.31865314  0.56240206  1
  Cl  Cl7  1  0.34067343  0.68134686  0.43759794  1
  Cl  Cl8  1  0.34067343  0.68134686  0.06240206  1
  Cl  Cl9  1  0.65932657  0.31865314  0.93759794  1
