# generated using pymatgen
data_Cs3Ta2S11
_symmetry_space_group_name_H-M   'P 1'
_cell_length_a   8.34414482
_cell_length_b   12.32683744
_cell_length_c   20.08221423
_cell_angle_alpha   102.25822117
_cell_angle_beta   90.00000000
_cell_angle_gamma   90.00000000
_symmetry_Int_Tables_number   1
_chemical_formula_structural   Cs3Ta2S11
_chemical_formula_sum   'Cs12 Ta8 S44'
_cell_volume   2018.50042638
_cell_formula_units_Z   4
loop_
 _symmetry_equiv_pos_site_id
 _symmetry_equiv_pos_as_xyz
  1  'x, y, z'
loop_
 _atom_site_type_symbol
 _atom_site_label
 _atom_site_symmetry_multiplicity
 _atom_site_fract_x
 _atom_site_fract_y
 _atom_site_fract_z
 _atom_site_occupancy
  Cs  Cs0  1  0.84063921  0.03626694  0.64189455  1
  Cs  Cs1  1  0.81829023  0.49661049  0.66269113  1
  Cs  Cs2  1  0.68170977  0.49661049  0.16269113  1
  Cs  Cs3  1  0.68729565  0.27097042  0.38171933  1
  Cs  Cs4  1  0.18170977  0.50338951  0.33730887  1
  Cs  Cs5  1  0.65936079  0.03626694  0.14189455  1
  Cs  Cs6  1  0.31829023  0.50338951  0.83730887  1
  Cs  Cs7  1  0.18729565  0.72902958  0.11828067  1
  Cs  Cs8  1  0.81270435  0.27097042  0.88171933  1
  Cs  Cs9  1  0.15936079  0.96373306  0.35810545  1
  Cs  Cs10  1  0.31270435  0.72902958  0.61828067  1
  Cs  Cs11  1  0.34063921  0.96373306  0.85810545  1
  Ta  Ta12  1  0.14337969  0.21021269  0.15673686  1
  Ta  Ta13  1  0.77822226  0.69316812  0.49341876  1
  Ta  Ta14  1  0.27822226  0.30683188  0.00658124  1
  Ta  Ta15  1  0.22177774  0.30683188  0.50658124  1
  Ta  Ta16  1  0.35662031  0.21021269  0.65673686  1
  Ta  Ta17  1  0.64337969  0.78978731  0.34326314  1
  Ta  Ta18  1  0.72177774  0.69316812  0.99341876  1
  Ta  Ta19  1  0.85662031  0.78978731  0.84326314  1
  S  S20  1  0.47046827  0.41546562  0.54413724  1
  S  S21  1  0.94899258  0.25288543  0.53092569  1
  S  S22  1  0.72605327  0.61166114  0.84557748  1
  S  S23  1  0.12223230  0.49998327  0.51271653  1
  S  S24  1  0.42287435  0.02185899  0.59278371  1
  S  S25  1  0.74531822  0.75008908  0.60606295  1
  S  S26  1  0.02953173  0.41546562  0.04413724  1
  S  S27  1  0.11349953  0.29119347  0.71488758  1
  S  S28  1  0.98563596  0.75242719  0.95188875  1
  S  S29  1  0.37776770  0.49998327  0.01271653  1
  S  S30  1  0.48563596  0.24757281  0.54811125  1
  S  S31  1  0.93651675  0.26370342  0.22714476  1
  S  S32  1  0.06348325  0.73629658  0.77285524  1
  S  S33  1  0.01436404  0.24757281  0.04811125  1
  S  S34  1  0.38650047  0.29119347  0.21488758  1
  S  S35  1  0.62223230  0.50001673  0.98728347  1
  S  S36  1  0.92287435  0.97814101  0.90721629  1
  S  S37  1  0.55100742  0.25288543  0.03092569  1
  S  S38  1  0.43651675  0.73629658  0.27285524  1
  S  S39  1  0.71841752  0.97206662  0.32057361  1
  S  S40  1  0.51436404  0.75242719  0.45188875  1
  S  S41  1  0.21841752  0.02793338  0.17942639  1
  S  S42  1  0.88650047  0.70880653  0.28511242  1
  S  S43  1  0.61349953  0.70880653  0.78511242  1
  S  S44  1  0.22605327  0.38833886  0.65442252  1
  S  S45  1  0.12867535  0.13777624  0.54080361  1
  S  S46  1  0.56348325  0.26370342  0.72714476  1
  S  S47  1  0.07712565  0.02185899  0.09278371  1
  S  S48  1  0.44899258  0.74711457  0.96907431  1
  S  S49  1  0.87132465  0.86222376  0.45919639  1
  S  S50  1  0.87776770  0.50001673  0.48728347  1
  S  S51  1  0.97046827  0.58453438  0.95586276  1
  S  S52  1  0.28158248  0.02793338  0.67942639  1
  S  S53  1  0.27394673  0.38833886  0.15442252  1
  S  S54  1  0.52953173  0.58453438  0.45586276  1
  S  S55  1  0.75468178  0.75008908  0.10606295  1
  S  S56  1  0.05100742  0.74711457  0.46907431  1
  S  S57  1  0.25468178  0.24991092  0.39393705  1
  S  S58  1  0.62867535  0.86222376  0.95919639  1
  S  S59  1  0.37132465  0.13777624  0.04080361  1
  S  S60  1  0.77394673  0.61166114  0.34557748  1
  S  S61  1  0.57712565  0.97814101  0.40721629  1
  S  S62  1  0.24531822  0.24991092  0.89393705  1
  S  S63  1  0.78158248  0.97206662  0.82057361  1
