# generated using pymatgen
data_Rb2LiTaS4
_symmetry_space_group_name_H-M   'P 1'
_cell_length_a   7.20433754
_cell_length_b   11.56634369
_cell_length_c   12.06142602
_cell_angle_alpha   71.52676234
_cell_angle_beta   87.61049424
_cell_angle_gamma   83.52163990
_symmetry_Int_Tables_number   1
_chemical_formula_structural   Rb2LiTaS4
_chemical_formula_sum   'Rb8 Li4 Ta4 S16'
_cell_volume   947.15818016
_cell_formula_units_Z   4
loop_
 _symmetry_equiv_pos_site_id
 _symmetry_equiv_pos_as_xyz
  1  'x, y, z'
loop_
 _atom_site_type_symbol
 _atom_site_label
 _atom_site_symmetry_multiplicity
 _atom_site_fract_x
 _atom_site_fract_y
 _atom_site_fract_z
 _atom_site_occupancy
  Rb  Rb0  1  0.68347473  0.09694089  0.24947162  1
  Rb  Rb1  1  0.73531243  0.62352049  0.72324887  1
  Rb  Rb2  1  0.24889826  0.84516019  0.14252900  1
  Rb  Rb3  1  0.75117153  0.65050694  0.34946390  1
  Rb  Rb4  1  0.31652527  0.90305911  0.75052838  1
  Rb  Rb5  1  0.24882847  0.34949306  0.65053610  1
  Rb  Rb6  1  0.26468757  0.37647951  0.27675113  1
  Rb  Rb7  1  0.75110174  0.15483981  0.85747100  1
  Li  Li8  1  0.78061973  0.47843702  0.07155568  1
  Li  Li9  1  0.82421313  0.98880630  0.58525285  1
  Li  Li10  1  0.17578687  0.01119370  0.41474715  1
  Li  Li11  1  0.21938027  0.52156298  0.92844432  1
  Ta  Ta12  1  0.21617748  0.23076527  0.01454078  1
  Ta  Ta13  1  0.77664470  0.27251221  0.48538574  1
  Ta  Ta14  1  0.22335530  0.72748779  0.51461426  1
  Ta  Ta15  1  0.78382252  0.76923473  0.98545922  1
  S  S16  1  0.53514773  0.66047534  0.99427596  1
  S  S17  1  0.96705010  0.37306964  0.94082730  1
  S  S18  1  0.23728072  0.62124582  0.70988254  1
  S  S19  1  0.05267776  0.14692674  0.53172954  1
  S  S20  1  0.26672446  0.10577190  0.90111493  1
  S  S21  1  0.16963237  0.11779158  0.20494125  1
  S  S22  1  0.46485227  0.33952466  0.00572404  1
  S  S23  1  0.83036763  0.88220842  0.79505875  1
  S  S24  1  0.25202109  0.60020315  0.40318822  1
  S  S25  1  0.03294990  0.62693036  0.05917270  1
  S  S26  1  0.76271928  0.37875418  0.29011746  1
  S  S27  1  0.73327554  0.89422810  0.09888507  1
  S  S28  1  0.54746786  0.14445465  0.53111821  1
  S  S29  1  0.45253214  0.85554535  0.46888179  1
  S  S30  1  0.74797891  0.39979685  0.59681178  1
  S  S31  1  0.94732224  0.85307326  0.46827046  1
