# generated using pymatgen
data_Sn(WO4)2
_symmetry_space_group_name_H-M   'P 1'
_cell_length_a   5.09640837
_cell_length_b   5.88362018
_cell_length_c   9.58223478
_cell_angle_alpha   90.00000000
_cell_angle_beta   90.99569288
_cell_angle_gamma   90.00000000
_symmetry_Int_Tables_number   1
_chemical_formula_structural   Sn(WO4)2
_chemical_formula_sum   'Sn2 W4 O16'
_cell_volume   287.28309748
_cell_formula_units_Z   2
loop_
 _symmetry_equiv_pos_site_id
 _symmetry_equiv_pos_as_xyz
  1  'x, y, z'
loop_
 _atom_site_type_symbol
 _atom_site_label
 _atom_site_symmetry_multiplicity
 _atom_site_fract_x
 _atom_site_fract_y
 _atom_site_fract_z
 _atom_site_occupancy
  Sn  Sn0  1  0.75000000  0.33924380  0.25000000  1
  Sn  Sn1  1  0.25000000  0.66075520  0.75000000  1
  W  W2  1  0.23574203  0.16885937  0.50881508  1
  W  W3  1  0.26425697  0.16885937  0.99118592  1
  W  W4  1  0.76425797  0.83114063  0.49118492  1
  W  W5  1  0.73574303  0.83114063  0.00881408  1
  O  O6  1  0.41263811  0.34445509  0.13219665  1
  O  O7  1  0.08736089  0.34445509  0.36780235  1
  O  O8  1  0.58736189  0.65554391  0.86780335  1
  O  O9  1  0.91263811  0.65554391  0.63219765  1
  O  O10  1  0.42603357  0.89293151  0.60526364  1
  O  O11  1  0.07396643  0.89293151  0.89473636  1
  O  O12  1  0.57396643  0.10706849  0.39473636  1
  O  O13  1  0.92603357  0.10706849  0.10526364  1
  O  O14  1  0.86783949  0.60505246  0.12023149  1
  O  O15  1  0.63216051  0.60505246  0.37976851  1
  O  O16  1  0.13216051  0.39494854  0.87976851  1
  O  O17  1  0.36783949  0.39494854  0.62023149  1
  O  O18  1  0.44090710  0.89629987  0.10978554  1
  O  O19  1  0.55909290  0.10370113  0.89021446  1
  O  O20  1  0.05909390  0.89629987  0.39021546  1
  O  O21  1  0.94090610  0.10370113  0.60978454  1
