# generated using pymatgen
data_Cs2Zr(IO3)6
_symmetry_space_group_name_H-M   'P 1'
_cell_length_a   8.05073133
_cell_length_b   8.05073161
_cell_length_c   8.05073132
_cell_angle_alpha   97.29798021
_cell_angle_beta   97.29798052
_cell_angle_gamma   97.29798295
_symmetry_Int_Tables_number   1
_chemical_formula_structural   Cs2Zr(IO3)6
_chemical_formula_sum   'Cs2 Zr1 I6 O18'
_cell_volume   507.91788582
_cell_formula_units_Z   1
loop_
 _symmetry_equiv_pos_site_id
 _symmetry_equiv_pos_as_xyz
  1  'x, y, z'
loop_
 _atom_site_type_symbol
 _atom_site_label
 _atom_site_symmetry_multiplicity
 _atom_site_fract_x
 _atom_site_fract_y
 _atom_site_fract_z
 _atom_site_occupancy
  Cs  Cs0  1  0.16379295  0.16379295  0.16379295  1
  Cs  Cs1  1  0.83620705  0.83620705  0.83620705  1
  Zr  Zr2  1  0.50000000  0.50000000  0.50000000  1
  I  I3  1  0.33876422  0.70163423  0.12248162  1
  I  I4  1  0.87751838  0.66123578  0.29836577  1
  I  I5  1  0.70163423  0.12248162  0.33876422  1
  I  I6  1  0.29836577  0.87751838  0.66123578  1
  I  I7  1  0.66123578  0.29836577  0.87751838  1
  I  I8  1  0.12248162  0.33876422  0.70163423  1
  O  O9  1  0.40128231  0.89239835  0.27794319  1
  O  O10  1  0.72205681  0.59871769  0.10760165  1
  O  O11  1  0.10760165  0.72205681  0.59871769  1
  O  O12  1  0.72399109  0.64280042  0.45526205  1
  O  O13  1  0.10985011  0.68904316  0.09485472  1
  O  O14  1  0.64280042  0.45526205  0.72399109  1
  O  O15  1  0.54473795  0.27600891  0.35719958  1
  O  O16  1  0.27600891  0.35719958  0.54473795  1
  O  O17  1  0.09485472  0.10985011  0.68904316  1
  O  O18  1  0.31095684  0.90514528  0.89014989  1
  O  O19  1  0.45526205  0.72399109  0.64280042  1
  O  O20  1  0.59871769  0.10760165  0.72205681  1
  O  O21  1  0.35719958  0.54473795  0.27600891  1
  O  O22  1  0.89014989  0.31095684  0.90514528  1
  O  O23  1  0.90514528  0.89014989  0.31095684  1
  O  O24  1  0.27794319  0.40128231  0.89239835  1
  O  O25  1  0.89239835  0.27794319  0.40128231  1
  O  O26  1  0.68904316  0.09485472  0.10985011  1
