# generated using pymatgen
data_Ga3Pb5F19
_symmetry_space_group_name_H-M   'P 1'
_cell_length_a   7.83379923
_cell_length_b   11.01261068
_cell_length_c   11.01261065
_cell_angle_alpha   82.73237914
_cell_angle_beta   69.16524283
_cell_angle_gamma   69.16524203
_symmetry_Int_Tables_number   1
_chemical_formula_structural   Ga3Pb5F19
_chemical_formula_sum   'Ga6 Pb10 F38'
_cell_volume   829.87739202
_cell_formula_units_Z   2
loop_
 _symmetry_equiv_pos_site_id
 _symmetry_equiv_pos_as_xyz
  1  'x, y, z'
loop_
 _atom_site_type_symbol
 _atom_site_label
 _atom_site_symmetry_multiplicity
 _atom_site_fract_x
 _atom_site_fract_y
 _atom_site_fract_z
 _atom_site_occupancy
  Ga  Ga0  1  0.66967554  0.00000000  0.00000000  1
  Ga  Ga1  1  0.81201879  0.82143165  0.50000000  1
  Ga  Ga2  1  0.16967554  0.00000000  0.00000000  1
  Ga  Ga3  1  0.13345044  0.17856835  0.50000000  1
  Ga  Ga4  1  0.31201879  0.50000000  0.82143165  1
  Ga  Ga5  1  0.63345044  0.50000000  0.17856835  1
  Pb  Pb6  1  0.29706672  0.29819664  0.15548145  1
  Pb  Pb7  1  0.75074481  0.70180336  0.84451855  1
  Pb  Pb8  1  0.79706672  0.15548145  0.29819664  1
  Pb  Pb9  1  0.63124442  0.50000000  0.50000000  1
  Pb  Pb10  1  0.59526336  0.15548145  0.70180336  1
  Pb  Pb11  1  0.95254817  0.29819664  0.84451855  1
  Pb  Pb12  1  0.09526336  0.70180336  0.15548145  1
  Pb  Pb13  1  0.25074481  0.84451855  0.70180336  1
  Pb  Pb14  1  0.13124442  0.50000000  0.50000000  1
  Pb  Pb15  1  0.45254817  0.84451855  0.29819664  1
  F  F16  1  0.63302130  0.26834054  0.50000000  1
  F  F17  1  0.29336979  1.00385738  0.50000000  1
  F  F18  1  0.31045967  0.50000000  0.64682969  1
  F  F19  1  0.45728937  0.50000000  0.35317031  1
  F  F20  1  0.56944403  0.85829664  0.64496198  1
  F  F21  1  0.07101797  0.75756964  0.37235626  1
  F  F22  1  0.95728937  0.35317031  0.50000000  1
  F  F23  1  0.20094387  0.24243036  0.62764374  1
  F  F24  1  0.91504382  1.00000000  1.00000000  1
  F  F25  1  0.77652274  0.93989390  0.82555950  1
  F  F26  1  0.71440601  0.85829664  0.35503802  1
  F  F27  1  0.40136184  0.73165946  0.50000000  1
  F  F28  1  0.94337423  0.75756964  0.62764374  1
  F  F29  1  0.21440601  0.35503802  0.85829664  1
  F  F30  1  0.54197614  0.06010610  0.17444050  1
  F  F31  1  0.57270264  0.35503802  0.14170336  1
  F  F32  1  0.10208224  0.93989390  0.17444050  1
  F  F33  1  0.06944403  0.64496198  0.85829664  1
  F  F34  1  0.44337423  0.62764374  0.75756964  1
  F  F35  1  0.60208224  0.17444050  0.93989390  1
  F  F36  1  0.29722717  0.50000000  -0.00385738  1
  F  F37  1  0.79722717  -0.00385738  0.50000000  1
  F  F38  1  0.71641664  0.82555950  0.06010610  1
  F  F39  1  0.32858761  0.24243036  0.37235626  1
  F  F40  1  0.07270264  0.14170336  0.35503802  1
  F  F41  1  0.41504382  1.00000000  1.00000000  1
  F  F42  1  0.81045967  0.64682969  0.50000000  1
  F  F43  1  0.79336979  0.50000000  1.00385738  1
  F  F44  1  0.90136184  0.50000000  0.73165946  1
  F  F45  1  0.42774067  0.64496198  0.14170336  1
  F  F46  1  0.27652274  0.82555950  0.93989390  1
  F  F47  1  0.21641664  0.06010610  0.82555950  1
  F  F48  1  0.04197614  0.17444050  0.06010610  1
  F  F49  1  0.82858761  0.37235626  0.24243036  1
  F  F50  1  0.13302130  0.50000000  0.26834054  1
  F  F51  1  0.70094387  0.62764374  0.24243036  1
  F  F52  1  0.92774067  0.14170336  0.64496198  1
  F  F53  1  0.57101797  0.37235626  0.75756964  1
