# generated using pymatgen
data_BaCa(PO3)4
_symmetry_space_group_name_H-M   'P 1'
_cell_length_a   7.35596783
_cell_length_b   9.38750560
_cell_length_c   15.42852016
_cell_angle_alpha   90.00000000
_cell_angle_beta   91.02573879
_cell_angle_gamma   90.00000000
_symmetry_Int_Tables_number   1
_chemical_formula_structural   BaCa(PO3)4
_chemical_formula_sum   'Ba4 Ca4 P16 O48'
_cell_volume   1065.23322282
_cell_formula_units_Z   4
loop_
 _symmetry_equiv_pos_site_id
 _symmetry_equiv_pos_as_xyz
  1  'x, y, z'
loop_
 _atom_site_type_symbol
 _atom_site_label
 _atom_site_symmetry_multiplicity
 _atom_site_fract_x
 _atom_site_fract_y
 _atom_site_fract_z
 _atom_site_occupancy
  Ba  Ba0  1  0.48615130  0.89194662  0.63295589  1
  Ba  Ba1  1  0.01384870  0.39194662  0.86704411  1
  Ba  Ba2  1  0.51384870  0.10805338  0.36704411  1
  Ba  Ba3  1  0.98615130  0.60805338  0.13295589  1
  Ca  Ca4  1  0.50166412  0.76449339  0.15517655  1
  Ca  Ca5  1  0.49833588  0.23550661  0.84482345  1
  Ca  Ca6  1  -0.00166412  0.26449339  0.34482345  1
  Ca  Ca7  1  1.00166412  0.73550661  0.65517655  1
  P  P8  1  0.63336114  0.51954794  0.32725249  1
  P  P9  1  0.26144162  0.10148799  0.17743426  1
  P  P10  1  0.13336114  0.98045206  0.82725249  1
  P  P11  1  0.73855838  0.89851201  0.82256574  1
  P  P12  1  0.36663886  0.48045206  0.67274751  1
  P  P13  1  0.37304864  0.33759193  0.06089141  1
  P  P14  1  0.23651459  0.74825037  0.95663197  1
  P  P15  1  0.86663886  0.01954794  0.17274751  1
  P  P16  1  0.76144162  0.39851201  0.67743426  1
  P  P17  1  0.62695136  0.66240807  0.93910859  1
  P  P18  1  0.76348541  0.25174963  0.04336803  1
  P  P19  1  0.12695136  0.83759193  0.43910859  1
  P  P20  1  0.23855838  0.60148799  0.32256574  1
  P  P21  1  0.87304864  0.16240807  0.56089141  1
  P  P22  1  0.26348541  0.24825037  0.54336803  1
  P  P23  1  0.73651459  0.75174963  0.45663197  1
  O  O24  1  0.08241123  0.49976296  0.30859314  1
  O  O25  1  0.73076558  0.22542446  0.94813590  1
  O  O26  1  0.21485322  0.90341512  0.91291322  1
  O  O27  1  0.21441204  0.68492466  0.41230882  1
  O  O28  1  0.33147342  0.39404033  0.75280879  1
  O  O29  1  0.41488889  0.68631327  0.91093750  1
  O  O30  1  0.83147342  0.10595967  0.25280879  1
  O  O31  1  0.91758877  0.50023704  0.69140686  1
  O  O32  1  0.91488889  0.81368673  0.41093750  1
  O  O33  1  0.07948916  0.65257045  0.93360394  1
  O  O34  1  0.58511111  0.31368673  0.08906250  1
  O  O35  1  0.91841176  0.98888502  0.84613722  1
  O  O36  1  0.80016258  0.86842531  0.16798610  1
  O  O37  1  0.64968566  0.65754965  0.03645857  1
  O  O38  1  0.23076558  0.27457554  0.44813590  1
  O  O39  1  0.66852658  0.60595967  0.24719121  1
  O  O40  1  0.76923442  0.72542446  0.55186410  1
  O  O41  1  0.78558796  0.31507534  0.58769118  1
  O  O42  1  0.85031434  0.15754965  0.46354143  1
  O  O43  1  0.58241123  0.00023704  0.80859314  1
  O  O44  1  0.30016258  0.63157469  0.66798610  1
  O  O45  1  0.57948916  0.84742955  0.43360394  1
  O  O46  1  0.19983742  0.13157469  0.83201390  1
  O  O47  1  0.30481190  0.45765532  0.11429204  1
  O  O48  1  0.23090407  0.20280519  0.25143586  1
  O  O49  1  0.69518810  0.54234468  0.88570796  1
  O  O50  1  0.35031434  0.34245035  0.96354143  1
  O  O51  1  0.28514678  0.40341512  0.58708678  1
  O  O52  1  0.16852658  0.89404033  0.74719121  1
  O  O53  1  0.71485322  0.59658488  0.41291322  1
  O  O54  1  0.73090407  0.29719481  0.75143586  1
  O  O55  1  0.71441204  0.81507534  0.91230882  1
  O  O56  1  0.76909593  0.79719481  0.74856414  1
  O  O57  1  0.26909593  0.70280519  0.24856414  1
  O  O58  1  0.41841176  0.51111498  0.34613722  1
  O  O59  1  0.80481190  0.04234468  0.61429204  1
  O  O60  1  0.42051084  0.15257045  0.56639606  1
  O  O61  1  0.26923442  0.77457554  0.05186410  1
  O  O62  1  0.58158824  0.48888502  0.65386278  1
  O  O63  1  0.08158824  0.01111498  0.15386278  1
  O  O64  1  0.28558796  0.18492466  0.08769118  1
  O  O65  1  0.14968566  0.84245035  0.53645857  1
  O  O66  1  0.41758877  0.99976296  0.19140686  1
  O  O67  1  0.78514678  0.09658488  0.08708678  1
  O  O68  1  0.69983742  0.36842531  0.33201390  1
  O  O69  1  0.08511111  0.18631327  0.58906250  1
  O  O70  1  0.19518810  0.95765532  0.38570796  1
  O  O71  1  0.92051084  0.34742955  0.06639606  1
