# generated using pymatgen
data_Cs3Ga2F9
_symmetry_space_group_name_H-M   'P 1'
_cell_length_a   11.11359761
_cell_length_b   11.11359757
_cell_length_c   15.21529944
_cell_angle_alpha   90.00000000
_cell_angle_beta   90.00000000
_cell_angle_gamma   120.00000010
_symmetry_Int_Tables_number   1
_chemical_formula_structural   Cs3Ga2F9
_chemical_formula_sum   'Cs18 Ga12 F54'
_cell_volume   1627.49802340
_cell_formula_units_Z   6
loop_
 _symmetry_equiv_pos_site_id
 _symmetry_equiv_pos_as_xyz
  1  'x, y, z'
loop_
 _atom_site_type_symbol
 _atom_site_label
 _atom_site_symmetry_multiplicity
 _atom_site_fract_x
 _atom_site_fract_y
 _atom_site_fract_z
 _atom_site_occupancy
  Cs  Cs0  1  0.68026713  0.68026713  0.18200123  1
  Cs  Cs1  1  0.65539513  0.65539513  0.49947847  1
  Cs  Cs2  1  1.00000000  0.68026713  0.68200123  1
  Cs  Cs3  1  0.31973287  0.00000000  0.18200123  1
  Cs  Cs4  1  1.00000000  0.66283116  0.35202430  1
  Cs  Cs5  1  0.31973287  0.31973287  0.68200123  1
  Cs  Cs6  1  0.34460487  0.00000000  0.49947847  1
  Cs  Cs7  1  0.65539513  0.00000000  0.99947847  1
  Cs  Cs8  1  0.00000000  0.34460487  0.49947847  1
  Cs  Cs9  1  0.66283116  0.00000000  0.35202430  1
  Cs  Cs10  1  0.33716884  0.00000000  0.85202430  1
  Cs  Cs11  1  0.66283116  0.66283116  0.85202430  1
  Cs  Cs12  1  0.68026713  0.00000000  0.68200123  1
  Cs  Cs13  1  0.00000000  0.31973287  0.18200123  1
  Cs  Cs14  1  0.00000000  0.33716884  0.85202430  1
  Cs  Cs15  1  0.34460487  0.34460487  0.99947847  1
  Cs  Cs16  1  0.33716884  0.33716884  0.35202430  1
  Cs  Cs17  1  1.00000000  0.65539513  0.99947847  1
  Ga  Ga18  1  0.00000000  0.00000000  0.40698029  1
  Ga  Ga19  1  0.66666700  0.33333300  0.27408351  1
  Ga  Ga20  1  0.00000000  0.00000000  0.90698029  1
  Ga  Ga21  1  0.33333300  0.66666700  0.27408351  1
  Ga  Ga22  1  0.33333300  0.66666700  0.58412021  1
  Ga  Ga23  1  0.33333300  0.66666700  0.08412021  1
  Ga  Ga24  1  0.66666700  0.33333300  0.58412021  1
  Ga  Ga25  1  0.66666700  0.33333300  0.77408351  1
  Ga  Ga26  1  0.33333300  0.66666700  0.77408351  1
  Ga  Ga27  1  0.00000000  0.00000000  0.09694927  1
  Ga  Ga28  1  0.66666700  0.33333300  0.08412021  1
  Ga  Ga29  1  0.00000000  0.00000000  0.59694927  1
  F  F30  1  0.18625089  0.51745520  0.33065036  1
  F  F31  1  0.20110562  0.66361559  0.17945526  1
  F  F32  1  0.51643014  0.32961901  0.52793759  1
  F  F33  1  0.18681113  0.67038099  0.52793759  1
  F  F34  1  0.85116617  0.85116617  0.35185643  1
  F  F35  1  0.79889438  0.33638441  0.67945526  1
  F  F36  1  0.14873299  0.14873299  0.15230952  1
  F  F37  1  0.79889438  0.46250997  0.17945526  1
  F  F38  1  0.48254480  0.66879569  0.33065036  1
  F  F39  1  0.00000000  0.85116617  0.85185643  1
  F  F40  1  0.81374911  0.33120431  0.33065036  1
  F  F41  1  0.33120431  0.51745520  0.83065036  1
  F  F42  1  0.66361559  0.20110562  0.17945526  1
  F  F43  1  0.66361559  0.46250997  0.67945526  1
  F  F44  1  0.51745520  0.33120431  0.83065036  1
  F  F45  1  0.85116617  0.00000000  0.85185643  1
  F  F46  1  0.18625089  0.66879569  0.83065036  1
  F  F47  1  0.32961901  0.81318887  0.02793759  1
  F  F48  1  0.46250997  0.79889438  0.17945526  1
  F  F49  1  0.53749003  0.20110562  0.67945526  1
  F  F50  1  1.00000000  0.14873299  0.65230952  1
  F  F51  1  0.33638441  0.79889438  0.67945526  1
  F  F52  1  1.00000000  0.14883383  0.35185643  1
  F  F53  1  0.85126701  0.85126701  0.65230952  1
  F  F54  1  0.53749003  0.33638441  0.17945526  1
  F  F55  1  0.13084897  0.13084897  0.50176462  1
  F  F56  1  0.66879569  0.48254480  0.33065036  1
  F  F57  1  0.32961901  0.51643014  0.52793759  1
  F  F58  1  0.85126701  0.00000000  0.15230952  1
  F  F59  1  0.48356986  0.81318887  0.52793759  1
  F  F60  1  0.67038099  0.48356986  0.02793759  1
  F  F61  1  0.00000000  0.86915103  0.50176462  1
  F  F62  1  0.14873299  0.00000000  0.65230952  1
  F  F63  1  0.33120431  0.81374911  0.33065036  1
  F  F64  1  0.18681113  0.51643014  0.02793759  1
  F  F65  1  0.00000000  0.85126701  0.15230952  1
  F  F66  1  0.48356986  0.67038099  0.02793759  1
  F  F67  1  0.86915103  0.00000000  0.50176462  1
  F  F68  1  0.14883383  0.14883383  0.85185643  1
  F  F69  1  0.46250997  0.66361559  0.67945526  1
  F  F70  1  0.86915103  0.86915103  0.00176462  1
  F  F71  1  0.51745520  0.18625089  0.33065036  1
  F  F72  1  0.67038099  0.18681113  0.52793759  1
  F  F73  1  0.51643014  0.18681113  0.02793759  1
  F  F74  1  0.33638441  0.53749003  0.17945526  1
  F  F75  1  0.48254480  0.81374911  0.83065036  1
  F  F76  1  1.00000000  0.13084897  0.00176462  1
  F  F77  1  0.20110562  0.53749003  0.67945526  1
  F  F78  1  0.81318887  0.48356986  0.52793759  1
  F  F79  1  0.13084897  0.00000000  0.00176462  1
  F  F80  1  0.66879569  0.18625089  0.83065036  1
  F  F81  1  0.14883383  0.00000000  0.35185643  1
  F  F82  1  0.81374911  0.48254480  0.83065036  1
  F  F83  1  0.81318887  0.32961901  0.02793759  1
