# generated using pymatgen
data_Na2BHO3
_symmetry_space_group_name_H-M   'P 1'
_cell_length_a   3.54370117
_cell_length_b   8.68484510
_cell_length_c   9.95542204
_cell_angle_alpha   90.00000000
_cell_angle_beta   90.00000000
_cell_angle_gamma   90.00000000
_symmetry_Int_Tables_number   1
_chemical_formula_structural   Na2BHO3
_chemical_formula_sum   'Na8 B4 H4 O12'
_cell_volume   306.39300403
_cell_formula_units_Z   4
loop_
 _symmetry_equiv_pos_site_id
 _symmetry_equiv_pos_as_xyz
  1  'x, y, z'
loop_
 _atom_site_type_symbol
 _atom_site_label
 _atom_site_symmetry_multiplicity
 _atom_site_fract_x
 _atom_site_fract_y
 _atom_site_fract_z
 _atom_site_occupancy
  Na  Na0  1  0.25000000  0.57205548  0.89654894  1
  Na  Na1  1  0.75000000  0.42794452  0.10345106  1
  Na  Na2  1  0.75000000  0.82749952  0.05331437  1
  Na  Na3  1  0.75000000  0.92794452  0.39654894  1
  Na  Na4  1  0.75000000  0.32749952  0.44668563  1
  Na  Na5  1  0.25000000  0.67250048  0.55331437  1
  Na  Na6  1  0.25000000  0.17250048  0.94668563  1
  Na  Na7  1  0.25000000  0.07205548  0.60345106  1
  B  B8  1  0.25000000  0.63735091  0.25881609  1
  B  B9  1  0.25000000  0.13735091  0.24118391  1
  B  B10  1  0.75000000  0.36264909  0.74118391  1
  B  B11  1  0.75000000  0.86264909  0.75881609  1
  H  H12  1  0.25000000  0.40311834  0.27132291  1
  H  H13  1  0.25000000  0.90311834  0.22867709  1
  H  H14  1  0.75000000  0.09688166  0.77132291  1
  H  H15  1  0.75000000  0.59688166  0.72867709  1
  O  O16  1  0.75000000  0.50375919  0.66303216  1
  O  O17  1  0.25000000  0.62848768  0.12181639  1
  O  O18  1  0.25000000  0.49624081  0.33696784  1
  O  O19  1  0.75000000  0.37151232  0.87818361  1
  O  O20  1  0.25000000  0.77087855  0.33164624  1
  O  O21  1  0.25000000  0.99624081  0.16303216  1
  O  O22  1  0.75000000  0.22912145  0.66835376  1
  O  O23  1  0.25000000  0.12848768  0.37818361  1
  O  O24  1  0.75000000  0.72912145  0.83164624  1
  O  O25  1  0.75000000  0.87151232  0.62181639  1
  O  O26  1  0.75000000  0.00375919  0.83696784  1
  O  O27  1  0.25000000  0.27087855  0.16835376  1
