# generated using pymatgen
data_Nd6Nb5S16
_symmetry_space_group_name_H-M   'P 1'
_cell_length_a   5.77097135
_cell_length_b   8.90151591
_cell_length_c   22.94816967
_cell_angle_alpha   90.00000000
_cell_angle_beta   90.00000000
_cell_angle_gamma   108.91448942
_symmetry_Int_Tables_number   1
_chemical_formula_structural   Nd6Nb5S16
_chemical_formula_sum   'Nd12 Nb10 S32'
_cell_volume   1115.20227466
_cell_formula_units_Z   2
loop_
 _symmetry_equiv_pos_site_id
 _symmetry_equiv_pos_as_xyz
  1  'x, y, z'
loop_
 _atom_site_type_symbol
 _atom_site_label
 _atom_site_symmetry_multiplicity
 _atom_site_fract_x
 _atom_site_fract_y
 _atom_site_fract_z
 _atom_site_occupancy
  Nd  Nd0  1  0.93030134  0.00000000  0.32922011  1
  Nd  Nd1  1  0.62187657  0.33277342  0.32637779  1
  Nd  Nd2  1  0.79611944  0.66511857  0.82731386  1
  Nd  Nd3  1  0.28910315  0.66722658  0.67362221  1
  Nd  Nd4  1  0.13100087  0.33488143  0.82731386  1
  Nd  Nd5  1  0.13100087  0.33488143  0.17268614  1
  Nd  Nd6  1  0.79611944  0.66511857  0.17268614  1
  Nd  Nd7  1  0.93030134  0.00000000  0.67077989  1
  Nd  Nd8  1  0.62187657  0.33277342  0.67362221  1
  Nd  Nd9  1  0.28910315  0.66722658  0.32637779  1
  Nd  Nd10  1  0.43879890  0.00000000  0.82627651  1
  Nd  Nd11  1  0.43879890  0.00000000  0.17372349  1
  Nb  Nb12  1  0.27205510  0.79848594  0.50000000  1
  Nb  Nb13  1  0.47356916  0.20151406  0.50000000  1
  Nb  Nb14  1  0.67612143  0.60192303  0.50000000  1
  Nb  Nb15  1  0.62774746  0.20100487  0.00000000  1
  Nb  Nb16  1  0.86755906  0.00000000  0.50000000  1
  Nb  Nb17  1  0.23178976  0.39785509  0.00000000  1
  Nb  Nb18  1  0.42674260  0.79899513  0.00000000  1
  Nb  Nb19  1  0.02594376  0.00000000  0.00000000  1
  Nb  Nb20  1  0.83393467  0.60214491  0.00000000  1
  Nb  Nb21  1  0.07419839  0.39807697  0.50000000  1
  S  S22  1  0.44225542  0.00000000  0.70024852  1
  S  S23  1  0.78638374  0.66675124  0.70076914  1
  S  S24  1  0.20365937  0.00000000  0.56741623  1
  S  S25  1  0.40919688  0.40455154  0.56869435  1
  S  S26  1  0.29091258  0.66718393  0.79928835  1
  S  S27  1  0.11963250  0.33324876  0.29923086  1
  S  S28  1  0.94709311  0.00000000  0.79840916  1
  S  S29  1  0.09684448  0.80500166  0.92983990  1
  S  S30  1  0.40919688  0.40455154  0.43130565  1
  S  S31  1  0.62372866  0.33281607  0.79928835  1
  S  S32  1  0.89826224  0.40111257  0.06859220  1
  S  S33  1  0.60686288  0.79933156  0.42979209  1
  S  S34  1  0.09684448  0.80500166  0.07016010  1
  S  S35  1  0.11963250  0.33324876  0.70076914  1
  S  S36  1  0.60686288  0.79933156  0.57020791  1
  S  S37  1  0.89826224  0.40111257  0.93140780  1
  S  S38  1  0.80753132  0.20066844  0.57020791  1
  S  S39  1  0.78638374  0.66675124  0.29923086  1
  S  S40  1  0.44225542  0.00000000  0.29975148  1
  S  S41  1  0.29184282  0.19499834  0.07016010  1
  S  S42  1  0.29091258  0.66718393  0.20071165  1
  S  S43  1  0.69436802  0.00000000  0.93206492  1
  S  S44  1  0.62372866  0.33281607  0.20071165  1
  S  S45  1  0.80753132  0.20066844  0.42979209  1
  S  S46  1  0.49714968  0.59888743  0.93140780  1
  S  S47  1  0.20365937  0.00000000  0.43258377  1
  S  S48  1  0.94709311  0.00000000  0.20159084  1
  S  S49  1  0.49714968  0.59888743  0.06859220  1
  S  S50  1  0.29184282  0.19499834  0.92983990  1
  S  S51  1  0.00464534  0.59544846  0.43130565  1
  S  S52  1  0.00464534  0.59544846  0.56869435  1
  S  S53  1  0.69436802  0.00000000  0.06793508  1
