# generated using pymatgen
data_SrB2F8
_symmetry_space_group_name_H-M   'P 1'
_cell_length_a   9.31923107
_cell_length_b   9.76466221
_cell_length_c   13.99792721
_cell_angle_alpha   90.00000000
_cell_angle_beta   90.00000000
_cell_angle_gamma   90.00000000
_symmetry_Int_Tables_number   1
_chemical_formula_structural   SrB2F8
_chemical_formula_sum   'Sr8 B16 F64'
_cell_volume   1273.79938626
_cell_formula_units_Z   8
loop_
 _symmetry_equiv_pos_site_id
 _symmetry_equiv_pos_as_xyz
  1  'x, y, z'
loop_
 _atom_site_type_symbol
 _atom_site_label
 _atom_site_symmetry_multiplicity
 _atom_site_fract_x
 _atom_site_fract_y
 _atom_site_fract_z
 _atom_site_occupancy
  Sr  Sr0  1  0.28025922  0.46518809  0.60347026  1
  Sr  Sr1  1  0.78025922  0.53481191  0.89652974  1
  Sr  Sr2  1  0.21974078  0.96518809  0.39652974  1
  Sr  Sr3  1  0.71974078  0.03481191  0.10347026  1
  Sr  Sr4  1  0.28025922  0.96518809  0.89652974  1
  Sr  Sr5  1  0.78025922  0.03481191  0.60347026  1
  Sr  Sr6  1  0.21974078  0.46518809  0.10347026  1
  Sr  Sr7  1  0.71974078  0.53481191  0.39652974  1
  B  B8  1  0.00496370  0.77714634  0.06001089  1
  B  B9  1  0.49503630  0.77714634  0.56001089  1
  B  B10  1  0.50496370  0.72285366  0.06001089  1
  B  B11  1  0.81697826  0.89679444  0.34321236  1
  B  B12  1  0.50496370  0.22285366  0.43998911  1
  B  B13  1  0.31697826  0.60320556  0.34321236  1
  B  B14  1  0.99503630  0.72285366  0.56001089  1
  B  B15  1  0.31697826  0.10320556  0.15678764  1
  B  B16  1  0.00496370  0.27714634  0.43998911  1
  B  B17  1  0.18302174  0.60320556  0.84321236  1
  B  B18  1  0.18302174  0.10320556  0.65678764  1
  B  B19  1  0.68302174  0.89679444  0.84321236  1
  B  B20  1  0.49503630  0.27714634  0.93998911  1
  B  B21  1  0.99503630  0.22285366  0.93998911  1
  B  B22  1  0.81697826  0.39679444  0.15678764  1
  B  B23  1  0.68302174  0.39679444  0.65678764  1
  F  F24  1  0.10388536  0.20281014  0.38369696  1
  F  F25  1  0.90826077  0.18245528  0.48287357  1
  F  F26  1  0.53236477  0.91520408  0.83665227  1
  F  F27  1  0.59173923  0.18245528  0.98287357  1
  F  F28  1  0.92249631  0.64970939  0.48720597  1
  F  F29  1  0.25262448  0.51277856  0.77925237  1
  F  F30  1  0.60388536  0.79718986  0.11630304  1
  F  F31  1  0.07750369  0.35029061  0.51279403  1
  F  F32  1  0.72836725  0.92413026  0.93803449  1
  F  F33  1  0.10388536  0.70281014  0.11630304  1
  F  F34  1  0.09173923  0.31754472  0.98287357  1
  F  F35  1  0.89611464  0.29718986  0.88369696  1
  F  F36  1  0.92249631  0.14970939  0.01279403  1
  F  F37  1  0.40826077  0.81754472  0.01712643  1
  F  F38  1  0.22836725  0.57586974  0.93803449  1
  F  F39  1  0.42249631  0.35029061  0.01279403  1
  F  F40  1  0.96763523  0.41520408  0.16334773  1
  F  F41  1  0.21950739  0.73992104  0.81927534  1
  F  F42  1  0.71950739  0.76007896  0.81927534  1
  F  F43  1  0.71950739  0.26007896  0.68072466  1
  F  F44  1  0.28049261  0.73992104  0.31927534  1
  F  F45  1  0.74737552  0.48722144  0.22074763  1
  F  F46  1  0.74737552  0.98722144  0.27925237  1
  F  F47  1  0.03236477  0.58479592  0.83665227  1
  F  F48  1  0.78049261  0.76007896  0.31927534  1
  F  F49  1  0.40826077  0.31754472  0.48287357  1
  F  F50  1  0.07267682  0.62978338  0.61756859  1
  F  F51  1  0.21950739  0.23992104  0.68072466  1
  F  F52  1  0.77163275  0.42413026  0.06196551  1
  F  F53  1  0.28049261  0.23992104  0.18072466  1
  F  F54  1  0.07750369  0.85029061  0.98720597  1
  F  F55  1  0.92732318  0.37021662  0.38243141  1
  F  F56  1  0.57750369  0.14970939  0.51279403  1
  F  F57  1  0.42249631  0.85029061  0.48720597  1
  F  F58  1  0.57267682  0.37021662  0.88243141  1
  F  F59  1  0.89611464  0.79718986  0.61630304  1
  F  F60  1  0.78049261  0.26007896  0.18072466  1
  F  F61  1  0.09173923  0.81754472  0.51712643  1
  F  F62  1  0.77163275  0.92413026  0.43803449  1
  F  F63  1  0.42732318  0.12978338  0.38243141  1
  F  F64  1  0.27163275  0.07586974  0.06196551  1
  F  F65  1  0.57750369  0.64970939  0.98720597  1
  F  F66  1  0.25262448  0.01277856  0.72074763  1
  F  F67  1  0.46763523  0.58479592  0.33665227  1
  F  F68  1  0.42732318  0.62978338  0.11756859  1
  F  F69  1  0.39611464  0.70281014  0.61630304  1
  F  F70  1  0.96763523  0.91520408  0.33665227  1
  F  F71  1  0.92732318  0.87021662  0.11756859  1
  F  F72  1  0.22836725  0.07586974  0.56196551  1
  F  F73  1  0.75262448  0.98722144  0.77925237  1
  F  F74  1  0.46763523  0.08479592  0.16334773  1
  F  F75  1  0.39611464  0.20281014  0.88369696  1
  F  F76  1  0.72836725  0.42413026  0.56196551  1
  F  F77  1  0.59173923  0.68245528  0.51712643  1
  F  F78  1  0.53236477  0.41520408  0.66334773  1
  F  F79  1  0.07267682  0.12978338  0.88243141  1
  F  F80  1  0.03236477  0.08479592  0.66334773  1
  F  F81  1  0.57267682  0.87021662  0.61756859  1
  F  F82  1  0.27163275  0.57586974  0.43803449  1
  F  F83  1  0.75262448  0.48722144  0.72074763  1
  F  F84  1  0.24737552  0.01277856  0.22074763  1
  F  F85  1  0.60388536  0.29718986  0.38369696  1
  F  F86  1  0.90826077  0.68245528  0.01712643  1
  F  F87  1  0.24737552  0.51277856  0.27925237  1
