# generated using pymatgen
data_Y(WF5)3
_symmetry_space_group_name_H-M   'P 1'
_cell_length_a   10.09149041
_cell_length_b   6.12264411
_cell_length_c   10.63965606
_cell_angle_alpha   90.00000000
_cell_angle_beta   90.00000000
_cell_angle_gamma   102.71004965
_symmetry_Int_Tables_number   1
_chemical_formula_structural   Y(WF5)3
_chemical_formula_sum   'Y2 W6 F30'
_cell_volume   641.27955722
_cell_formula_units_Z   2
loop_
 _symmetry_equiv_pos_site_id
 _symmetry_equiv_pos_as_xyz
  1  'x, y, z'
loop_
 _atom_site_type_symbol
 _atom_site_label
 _atom_site_symmetry_multiplicity
 _atom_site_fract_x
 _atom_site_fract_y
 _atom_site_fract_z
 _atom_site_occupancy
  Y  Y0  1  0.91750972  0.45641766  0.25000000  1
  Y  Y1  1  0.41582328  0.54358234  0.75000000  1
  W  W2  1  0.16666700  -0.00000000  0.50000000  1
  W  W3  1  0.50877207  0.01836633  0.44813562  1
  W  W4  1  0.82456093  0.98163367  0.55186438  1
  W  W5  1  0.16666700  -0.00000000  0.00000000  1
  W  W6  1  0.50877207  0.01836633  0.05186438  1
  W  W7  1  0.82456093  0.98163367  0.94813562  1
  F  F8  1  0.09114935  0.69904901  0.25000000  1
  F  F9  1  0.49640314  0.96441230  0.25000000  1
  F  F10  1  0.79330275  0.66604403  0.25000000  1
  F  F11  1  0.24218365  0.30095099  0.75000000  1
  F  F12  1  0.54003125  0.33395597  0.75000000  1
  F  F13  1  0.83692986  0.03558770  0.75000000  1
  F  F14  1  0.03113454  0.13496602  0.60253248  1
  F  F15  1  0.36850773  0.17659163  0.54112976  1
  F  F16  1  0.65565012  0.12156991  0.58896749  1
  F  F17  1  0.30219946  0.86503398  0.39746752  1
  F  F18  1  0.67768288  0.87843009  0.41103251  1
  F  F19  1  0.96482527  0.82340837  0.45887024  1
  F  F20  1  0.16622907  0.76041636  0.87925958  1
  F  F21  1  0.45527055  0.75982213  0.92118005  1
  F  F22  1  0.74254729  0.68489985  0.88624267  1
  F  F23  1  0.16710493  0.23958364  0.12074042  1
  F  F24  1  0.59078571  0.31510015  0.11375733  1
  F  F25  1  0.87806245  0.24017787  0.07881995  1
  F  F26  1  0.16710493  0.23958364  0.37925958  1
  F  F27  1  0.59078571  0.31510015  0.38624267  1
  F  F28  1  0.87806245  0.24017787  0.42118005  1
  F  F29  1  0.16622907  0.76041636  0.62074042  1
  F  F30  1  0.45527055  0.75982213  0.57881995  1
  F  F31  1  0.74254729  0.68489985  0.61375733  1
  F  F32  1  0.03113454  0.13496602  0.89746752  1
  F  F33  1  0.36850773  0.17659163  0.95887024  1
  F  F34  1  0.65565012  0.12156991  0.91103251  1
  F  F35  1  0.30219946  0.86503398  0.10253248  1
  F  F36  1  0.67768288  0.87843009  0.08896749  1
  F  F37  1  0.96482527  0.82340837  0.04112976  1
