# generated using pymatgen
data_NaZr2FeF11
_symmetry_space_group_name_H-M   'P 1'
_cell_length_a   5.77706209
_cell_length_b   5.77706244
_cell_length_c   7.93713450
_cell_angle_alpha   69.12445964
_cell_angle_beta   69.12445831
_cell_angle_gamma   73.05544867
_symmetry_Int_Tables_number   1
_chemical_formula_structural   NaZr2FeF11
_chemical_formula_sum   'Na1 Zr2 Fe1 F11'
_cell_volume   227.12055046
_cell_formula_units_Z   1
loop_
 _symmetry_equiv_pos_site_id
 _symmetry_equiv_pos_as_xyz
  1  'x, y, z'
loop_
 _atom_site_type_symbol
 _atom_site_label
 _atom_site_symmetry_multiplicity
 _atom_site_fract_x
 _atom_site_fract_y
 _atom_site_fract_z
 _atom_site_occupancy
  Na  Na0  1  0.00000000  0.00000000  0.00000000  1
  Zr  Zr1  1  0.50456696  0.50456696  0.76502986  1
  Zr  Zr2  1  0.49543304  0.49543304  0.23497014  1
  Fe  Fe3  1  0.00000000  0.00000000  0.50000000  1
  F  F4  1  0.80650772  0.22304416  0.69163033  1
  F  F5  1  0.77695584  0.19349228  0.30836967  1
  F  F6  1  0.19349228  0.77695584  0.30836967  1
  F  F7  1  0.22304416  0.80650772  0.69163033  1
  F  F8  1  0.50000000  0.50000000  0.50000000  1
  F  F9  1  0.33022491  0.66977509  0.00000000  1
  F  F10  1  0.66977509  0.33022491  0.00000000  1
  F  F11  1  0.24688243  0.24688243  0.35228514  1
  F  F12  1  0.75311757  0.75311757  0.64771486  1
  F  F13  1  0.26647822  0.26647822  0.89105448  1
  F  F14  1  0.73352178  0.73352178  0.10894552  1
