# generated using pymatgen
data_Pr3Si2S8Cl
_symmetry_space_group_name_H-M   'P 1'
_cell_length_a   7.73864485
_cell_length_b   8.80605599
_cell_length_c   11.05109707
_cell_angle_alpha   96.88223102
_cell_angle_beta   90.00000000
_cell_angle_gamma   116.06518082
_symmetry_Int_Tables_number   1
_chemical_formula_structural   Pr3Si2S8Cl
_chemical_formula_sum   'Pr6 Si4 S16 Cl2'
_cell_volume   670.45834642
_cell_formula_units_Z   2
loop_
 _symmetry_equiv_pos_site_id
 _symmetry_equiv_pos_as_xyz
  1  'x, y, z'
loop_
 _atom_site_type_symbol
 _atom_site_label
 _atom_site_symmetry_multiplicity
 _atom_site_fract_x
 _atom_site_fract_y
 _atom_site_fract_z
 _atom_site_occupancy
  Pr  Pr0  1  0.31812772  0.39117200  0.18550395  1
  Pr  Pr1  1  0.62196960  0.00000000  0.25000000  1
  Pr  Pr2  1  0.07304429  0.39117200  0.68550395  1
  Pr  Pr3  1  0.92695571  0.60882800  0.31449605  1
  Pr  Pr4  1  0.37803040  0.00000000  0.75000000  1
  Pr  Pr5  1  0.68187228  0.60882800  0.81449605  1
  Si  Si6  1  0.30787581  0.68042446  0.97076710  1
  Si  Si7  1  0.62745135  0.31957554  0.52923290  1
  Si  Si8  1  0.69212419  0.31957554  0.02923290  1
  Si  Si9  1  0.37254865  0.68042446  0.47076710  1
  S  S10  1  0.72334750  0.13176920  0.54896485  1
  S  S11  1  0.39628631  0.29249750  0.64208061  1
  S  S12  1  0.71105296  0.56766074  0.08541929  1
  S  S13  1  0.26302467  0.70516550  0.16055840  1
  S  S14  1  0.10378881  0.70750250  0.85791939  1
  S  S15  1  0.28894704  0.43233926  0.91458071  1
  S  S16  1  0.59157830  0.86823080  0.95103515  1
  S  S17  1  0.73697533  0.29483450  0.83944160  1
  S  S18  1  0.85660778  0.56766074  0.58541929  1
  S  S19  1  0.55785916  0.29483450  0.33944160  1
  S  S20  1  0.89621119  0.29249750  0.14208061  1
  S  S21  1  0.14339222  0.43233926  0.41458071  1
  S  S22  1  0.60371369  0.70750250  0.35791939  1
  S  S23  1  0.44214084  0.70516550  0.66055840  1
  S  S24  1  0.40842170  0.13176920  0.04896485  1
  S  S25  1  0.27665250  0.86823080  0.45103515  1
  Cl  Cl26  1  0.99324666  0.00000000  0.25000000  1
  Cl  Cl27  1  0.00675334  0.00000000  0.75000000  1
