# generated using pymatgen
data_Cs2Cu2Si8O19
_symmetry_space_group_name_H-M   'P 1'
_cell_length_a   8.65341618
_cell_length_b   10.13748904
_cell_length_c   11.84531174
_cell_angle_alpha   94.53544932
_cell_angle_beta   90.00023573
_cell_angle_gamma   89.99997275
_symmetry_Int_Tables_number   1
_chemical_formula_structural   Cs2Cu2Si8O19
_chemical_formula_sum   'Cs4 Si16 Cu4 O38'
_cell_volume   1035.86318967
_cell_formula_units_Z   2
loop_
 _symmetry_equiv_pos_site_id
 _symmetry_equiv_pos_as_xyz
  1  'x, y, z'
loop_
 _atom_site_type_symbol
 _atom_site_label
 _atom_site_symmetry_multiplicity
 _atom_site_fract_x
 _atom_site_fract_y
 _atom_site_fract_z
 _atom_site_occupancy
  Cs  Cs0  1  0.24999614  0.49139522  0.45424561  1
  Cs  Cs1  1  0.75000389  0.50861241  0.54575857  1
  Cs  Cs2  1  0.75000416  0.89910589  0.01921606  1
  Cs  Cs3  1  0.24999940  0.10088892  0.98078123  1
  Si  Si4  1  0.56966430  0.67685297  0.27962580  1
  Si  Si5  1  0.93418052  0.55226305  0.88396655  1
  Si  Si6  1  0.06582360  0.44773502  0.11603679  1
  Si  Si7  1  0.43033628  0.32315268  0.72038137  1
  Si  Si8  1  0.43584178  0.79226224  0.76590267  1
  Cu  Cu9  1  0.50790973  0.84927643  0.51487178  1
  Si  Si10  1  0.56416449  0.20774359  0.23407897  1
  Si  Si11  1  0.43344850  0.94230929  0.26396115  1
  Cu  Cu12  1  0.49207312  0.15079717  0.48510448  1
  Si  Si13  1  0.06416088  0.79225922  0.76591330  1
  Si  Si14  1  0.93033621  0.67684063  0.27961434  1
  Si  Si15  1  0.93584549  0.20773444  0.23409529  1
  Cu  Cu16  1  0.99213633  0.84919591  0.51486396  1
  Si  Si17  1  0.06654531  0.94230484  0.26396769  1
  Si  Si18  1  0.56655302  0.05769528  0.73603013  1
  Si  Si19  1  0.56582543  0.55226422  0.88396386  1
  Si  Si20  1  0.06966638  0.32314859  0.72038631  1
  Si  Si21  1  0.43417931  0.44774595  0.11603790  1
  Cu  Cu22  1  0.00783111  0.15074882  0.48517154  1
  Si  Si23  1  0.93345217  0.05768805  0.73603860  1
  O  O24  1  0.53187291  0.69485050  0.41214693  1
  O  O25  1  0.02413246  0.97708350  0.39697299  1
  O  O26  1  0.25000984  0.81638715  0.77955163  1
  O  O27  1  0.01504549  0.69321768  0.86396842  1
  O  O28  1  0.53808806  0.44458006  0.77759593  1
  O  O29  1  0.48625634  0.06275625  0.18653206  1
  O  O30  1  0.02902014  0.18944673  0.78728507  1
  O  O31  1  0.96813000  0.69479980  0.41213524  1
  O  O32  1  0.25000688  0.91485407  0.23885919  1
  O  O33  1  0.97098670  0.81054251  0.21271306  1
  O  O34  1  0.99572199  0.25780839  0.35794426  1
  O  O35  1  0.97585105  0.02288364  0.60303464  1
  O  O36  1  0.98626567  0.93724830  0.81347076  1
  O  O37  1  0.50426931  0.25786309  0.35791232  1
  O  O38  1  0.74999960  0.58136290  0.89948487  1
  O  O39  1  0.03808212  0.55540042  0.22241044  1
  O  O40  1  0.47098586  0.18944995  0.78728141  1
  O  O41  1  0.74999609  0.08513756  0.76113968  1
  O  O42  1  0.25000542  0.36231104  0.75208743  1
  O  O43  1  0.03187918  0.30516139  0.58786809  1
  O  O44  1  0.98496552  0.30677275  0.13603194  1
  O  O45  1  0.01373957  0.06274438  0.18652918  1
  O  O46  1  0.51373680  0.93725012  0.81345701  1
  O  O47  1  0.52415544  0.02293240  0.60301901  1
  O  O48  1  0.46811754  0.30518241  0.58786066  1
  O  O49  1  0.25000621  0.41864543  0.10051793  1
  O  O50  1  0.52902387  0.81055665  0.21271877  1
  O  O51  1  0.00425042  0.74214503  0.64207888  1
  O  O52  1  0.96192047  0.44458430  0.77759755  1
  O  O53  1  0.74999250  0.18360490  0.22042530  1
  O  O54  1  0.49574199  0.74217405  0.64206036  1
  O  O55  1  0.51504631  0.30678331  0.13602731  1
  O  O56  1  0.48495931  0.69321889  0.86395374  1
  O  O57  1  0.50000137  0.50001309  0.00000371  1
  O  O58  1  0.46191875  0.55541776  0.22241347  1
  O  O59  1  0.47584875  0.97711563  0.39696688  1
  O  O60  1  1.00000083  0.50000813  0.00000539  1
  O  O61  1  0.74999169  0.63768504  0.24792455  1
