# generated using pymatgen
data_CaB4O7
_symmetry_space_group_name_H-M   'P 1'
_cell_length_a   7.91491657
_cell_length_b   9.97107275
_cell_length_c   12.48652098
_cell_angle_alpha   90.00000000
_cell_angle_beta   91.97019358
_cell_angle_gamma   90.00000000
_symmetry_Int_Tables_number   1
_chemical_formula_structural   CaB4O7
_chemical_formula_sum   'Ca8 B32 O56'
_cell_volume   984.85629961
_cell_formula_units_Z   8
loop_
 _symmetry_equiv_pos_site_id
 _symmetry_equiv_pos_as_xyz
  1  'x, y, z'
loop_
 _atom_site_type_symbol
 _atom_site_label
 _atom_site_symmetry_multiplicity
 _atom_site_fract_x
 _atom_site_fract_y
 _atom_site_fract_z
 _atom_site_occupancy
  Ca  Ca0  1  0.66652287  0.11501039  0.15511765  1
  Ca  Ca1  1  0.70478807  0.91728694  0.56250001  1
  Ca  Ca2  1  0.33347713  0.88498961  0.84488235  1
  Ca  Ca3  1  0.79521193  0.41728694  0.93749999  1
  Ca  Ca4  1  0.20478807  0.58271306  0.06250001  1
  Ca  Ca5  1  0.16652287  0.38498961  0.65511765  1
  Ca  Ca6  1  0.83347713  0.61501039  0.34488235  1
  Ca  Ca7  1  0.29521193  0.08271306  0.43749999  1
  B  B8  1  0.40645878  0.67149271  0.63105087  1
  B  B9  1  0.40175758  0.56942115  0.81792209  1
  B  B10  1  0.09354122  0.17149271  0.86894913  1
  B  B11  1  0.57808891  0.70861601  0.94739474  1
  B  B12  1  0.92191109  0.20861601  0.55260526  1
  B  B13  1  0.42191109  0.29138399  0.05260526  1
  B  B14  1  0.59824242  0.43057885  0.18207791  1
  B  B15  1  0.75529081  0.91448879  0.96436832  1
  B  B16  1  0.74470919  0.41448879  0.53563168  1
  B  B17  1  0.14720114  0.39230188  0.34639064  1
  B  B18  1  0.09824242  0.06942115  0.68207791  1
  B  B19  1  0.42184442  0.10976051  0.69705413  1
  B  B20  1  0.51463662  0.32087430  0.79109958  1
  B  B21  1  0.92184442  0.39023949  0.19705413  1
  B  B22  1  0.07815558  0.60976051  0.80294587  1
  B  B23  1  0.24470919  0.08551121  0.03563168  1
  B  B24  1  0.59354122  0.32850729  0.36894913  1
  B  B25  1  0.57815558  0.89023949  0.30294587  1
  B  B26  1  0.64720114  0.10769812  0.84639064  1
  B  B27  1  0.48536338  0.67912570  0.20890042  1
  B  B28  1  0.98536338  0.82087430  0.70890042  1
  B  B29  1  0.90175758  0.93057885  0.31792209  1
  B  B30  1  0.07808891  0.79138399  0.44739474  1
  B  B31  1  0.90645878  0.82850729  0.13105087  1
  B  B32  1  0.85279886  0.60769812  0.65360936  1
  B  B33  1  0.89598051  0.70844167  0.95836101  1
  B  B34  1  0.60401949  0.20844167  0.54163899  1
  B  B35  1  0.01463662  0.17912570  0.29109958  1
  B  B36  1  0.25529081  0.58551121  0.46436832  1
  B  B37  1  0.39598051  0.79155833  0.45836101  1
  B  B38  1  0.35279886  0.89230188  0.15360936  1
  B  B39  1  0.10401949  0.29155833  0.04163899  1
  O  O40  1  0.76158511  0.55336764  0.57110390  1
  O  O41  1  0.69884338  0.42353933  0.41706362  1
  O  O42  1  0.96069820  0.72020274  0.07241605  1
  O  O43  1  0.27105162  0.02665757  0.69773144  1
  O  O44  1  0.73841489  0.05336764  0.92889610  1
  O  O45  1  0.84879943  0.74823434  0.66147813  1
  O  O46  1  0.45554447  0.66840430  0.73763268  1
  O  O47  1  0.62465018  0.33618433  0.59157265  1
  O  O48  1  0.08016407  0.65363357  0.45465195  1
  O  O49  1  0.07952581  0.14781569  0.57622383  1
  O  O50  1  0.22894838  0.52665757  0.80226856  1
  O  O51  1  0.54472091  0.03878835  0.77405776  1
  O  O52  1  0.01768578  0.04780694  0.32126786  1
  O  O53  1  0.98785520  0.38803194  0.08915235  1
  O  O54  1  0.60992325  0.74809271  0.26481548  1
  O  O55  1  0.12465018  0.16381567  0.09157265  1
  O  O56  1  0.41983593  0.15363357  0.04534805  1
  O  O57  1  0.15120057  0.25176566  0.33852187  1
  O  O58  1  0.57952581  0.35218431  0.07622383  1
  O  O59  1  0.04472091  0.46121165  0.27405776  1
  O  O60  1  0.77105162  0.47334243  0.19773144  1
  O  O61  1  0.98231422  0.95219306  0.67873214  1
  O  O62  1  0.27645910  0.36374585  0.04008221  1
  O  O63  1  0.65120057  0.24823434  0.83852187  1
  O  O64  1  0.54445553  0.33159570  0.26236732  1
  O  O65  1  0.51214480  0.88803194  0.41084765  1
  O  O66  1  0.46069820  0.77979726  0.57241605  1
  O  O67  1  0.72354090  0.63625415  0.95991779  1
  O  O68  1  0.19884338  0.07646067  0.91706362  1
  O  O69  1  0.51768578  0.45219306  0.82126786  1
  O  O70  1  0.72894838  0.97334243  0.30226856  1
  O  O71  1  0.10992325  0.75190729  0.76481548  1
  O  O72  1  0.87534982  0.83618433  0.90842735  1
  O  O73  1  0.95554447  0.83159570  0.23763268  1
  O  O74  1  0.37534982  0.66381567  0.40842735  1
  O  O75  1  0.45527909  0.96121165  0.22594224  1
  O  O76  1  0.39007675  0.25190729  0.73518452  1
  O  O77  1  0.04445553  0.16840430  0.76236732  1
  O  O78  1  0.30115662  0.57646067  0.58293638  1
  O  O79  1  0.23841489  0.44663236  0.42889610  1
  O  O80  1  0.01214480  0.61196806  0.91084765  1
  O  O81  1  0.48785520  0.11196806  0.58915235  1
  O  O82  1  0.48231422  0.54780694  0.17873214  1
  O  O83  1  0.26158511  0.94663236  0.07110390  1
  O  O84  1  0.80115662  0.92353933  0.08293638  1
  O  O85  1  0.34879943  0.75176566  0.16147813  1
  O  O86  1  0.95527909  0.53878835  0.72594224  1
  O  O87  1  0.91983593  0.34636643  0.54534805  1
  O  O88  1  0.42047419  0.64781569  0.92377617  1
  O  O89  1  0.53930180  0.22020274  0.42758395  1
  O  O90  1  0.92047419  0.85218431  0.42377617  1
  O  O91  1  0.22354090  0.86374585  0.45991779  1
  O  O92  1  0.89007675  0.24809271  0.23518452  1
  O  O93  1  0.77645910  0.13625415  0.54008221  1
  O  O94  1  0.03930180  0.27979726  0.92758395  1
  O  O95  1  0.58016407  0.84636643  0.95465195  1
