# generated using pymatgen
data_BaYCuBiO5
_symmetry_space_group_name_H-M   'P 1'
_cell_length_a   3.93959478
_cell_length_b   3.93956521
_cell_length_c   9.21615093
_cell_angle_alpha   90.00085025
_cell_angle_beta   89.99705368
_cell_angle_gamma   90.02001393
_symmetry_Int_Tables_number   1
_chemical_formula_structural   BaYCuBiO5
_chemical_formula_sum   'Ba1 Y1 Cu1 Bi1 O5'
_cell_volume   143.03733124
_cell_formula_units_Z   1
loop_
 _symmetry_equiv_pos_site_id
 _symmetry_equiv_pos_as_xyz
  1  'x, y, z'
loop_
 _atom_site_type_symbol
 _atom_site_label
 _atom_site_symmetry_multiplicity
 _atom_site_fract_x
 _atom_site_fract_y
 _atom_site_fract_z
 _atom_site_occupancy
  Ba  Ba0  1  0.00002820  0.99997032  0.05188839  1
  Y  Y1  1  0.99998373  0.00000217  0.44619586  1
  Cu  Cu2  1  0.50002490  0.49996460  0.26127303  1
  Bi  Bi3  1  0.49996285  0.50001020  0.71260319  1
  O  O4  1  0.99995045  0.49999668  0.58971036  1
  O  O5  1  0.49996522  0.00001952  0.58971041  1
  O  O6  1  0.00000800  0.49998854  0.28148860  1
  O  O7  1  0.50001441  0.00003376  0.28148901  1
  O  O8  1  0.50005524  0.50000821  0.97355714  1
