# generated using pymatgen
data_Rb3Y2(BO3)3
_symmetry_space_group_name_H-M   'P 1'
_cell_length_a   8.81202870
_cell_length_b   9.68968179
_cell_length_c   12.37772628
_cell_angle_alpha   90.00000000
_cell_angle_beta   90.00000000
_cell_angle_gamma   90.00000000
_symmetry_Int_Tables_number   1
_chemical_formula_structural   Rb3Y2(BO3)3
_chemical_formula_sum   'Rb12 Y8 B12 O36'
_cell_volume   1056.88149156
_cell_formula_units_Z   4
loop_
 _symmetry_equiv_pos_site_id
 _symmetry_equiv_pos_as_xyz
  1  'x, y, z'
loop_
 _atom_site_type_symbol
 _atom_site_label
 _atom_site_symmetry_multiplicity
 _atom_site_fract_x
 _atom_site_fract_y
 _atom_site_fract_z
 _atom_site_occupancy
  Rb  Rb0  1  0.35286838  0.35840594  0.74264884  1
  Rb  Rb1  1  0.20393933  0.03284906  0.57764013  1
  Rb  Rb2  1  0.79606067  0.96715094  0.07764013  1
  Rb  Rb3  1  0.09311741  0.69465183  0.59268991  1
  Rb  Rb4  1  0.14713162  0.85840594  0.24264884  1
  Rb  Rb5  1  0.85286838  0.14159406  0.74264884  1
  Rb  Rb6  1  0.29606067  0.53284906  0.07764013  1
  Rb  Rb7  1  0.90688259  0.30534817  0.09268991  1
  Rb  Rb8  1  0.70393933  0.46715094  0.57764013  1
  Rb  Rb9  1  0.64713162  0.64159406  0.24264884  1
  Rb  Rb10  1  0.59311741  0.80534817  0.59268991  1
  Rb  Rb11  1  0.40688259  0.19465183  0.09268991  1
  Y  Y12  1  0.01017501  0.50864541  0.33008265  1
  Y  Y13  1  0.64318500  0.61362790  0.89830556  1
  Y  Y14  1  0.98982499  0.49135459  0.83008265  1
  Y  Y15  1  0.48982499  0.00864541  0.83008265  1
  Y  Y16  1  0.35681500  0.38637210  0.39830556  1
  Y  Y17  1  0.85681500  0.11362790  0.39830556  1
  Y  Y18  1  0.14318500  0.88637210  0.89830556  1
  Y  Y19  1  0.51017501  0.99135459  0.33008265  1
  B  B20  1  0.13676467  0.17533572  0.90661231  1
  B  B21  1  0.36323533  0.67533572  0.40661231  1
  B  B22  1  0.16932374  0.19607282  0.28876876  1
  B  B23  1  0.86323533  0.82466428  0.40661231  1
  B  B24  1  0.33067626  0.69607282  0.78876876  1
  B  B25  1  0.66932374  0.30392718  0.28876876  1
  B  B26  1  0.03533124  0.34812099  0.56402598  1
  B  B27  1  0.46466876  0.84812099  0.06402598  1
  B  B28  1  0.96466876  0.65187901  0.06402598  1
  B  B29  1  0.83067626  0.80392718  0.78876876  1
  B  B30  1  0.53533124  0.15187901  0.56402598  1
  B  B31  1  0.63676467  0.32466428  0.90661231  1
  O  O32  1  0.47620996  0.90484059  0.16679254  1
  O  O33  1  0.53954050  0.37886019  0.27457134  1
  O  O34  1  0.38085260  0.91844612  0.98567896  1
  O  O35  1  0.88085260  0.58155388  0.98567896  1
  O  O36  1  0.30386408  0.14083067  0.33252137  1
  O  O37  1  0.25147707  0.61075424  0.34199863  1
  O  O38  1  0.96150582  0.22701161  0.53769478  1
  O  O39  1  0.61713573  0.18223311  0.90777819  1
  O  O40  1  0.61914740  0.08155388  0.48567896  1
  O  O41  1  0.80386408  0.35916933  0.33252137  1
  O  O42  1  0.97620996  0.59515941  0.16679254  1
  O  O43  1  0.95414071  0.91209467  0.46683123  1
  O  O44  1  0.67423360  0.16275555  0.26158881  1
  O  O45  1  0.88286427  0.68223311  0.40777819  1
  O  O46  1  0.46150582  0.27298839  0.53769478  1
  O  O47  1  0.45414071  0.58790533  0.46683123  1
  O  O48  1  0.32576640  0.83724445  0.76158881  1
  O  O49  1  0.54585929  0.41209467  0.96683123  1
  O  O50  1  0.17423360  0.33724445  0.26158881  1
  O  O51  1  0.24852293  0.11075424  0.84199863  1
  O  O52  1  0.04585929  0.08790533  0.96683123  1
  O  O53  1  0.52379004  0.09515941  0.66679254  1
  O  O54  1  0.03954050  0.12113981  0.27457134  1
  O  O55  1  0.11914740  0.41844612  0.48567896  1
  O  O56  1  0.38286427  0.81776689  0.40777819  1
  O  O57  1  0.69613592  0.85916933  0.83252137  1
  O  O58  1  0.82576640  0.66275555  0.76158881  1
  O  O59  1  0.19613592  0.64083067  0.83252137  1
  O  O60  1  0.75147707  0.88924576  0.34199863  1
  O  O61  1  0.96045950  0.87886019  0.77457134  1
  O  O62  1  0.03849418  0.77298839  0.03769478  1
  O  O63  1  0.02379004  0.40484059  0.66679254  1
  O  O64  1  0.11713573  0.31776689  0.90777819  1
  O  O65  1  0.74852293  0.38924576  0.84199863  1
  O  O66  1  0.46045950  0.62113981  0.77457134  1
  O  O67  1  0.53849418  0.72701161  0.03769478  1
