# generated using pymatgen
data_Bi2CO5
_symmetry_space_group_name_H-M   'P 1'
_cell_length_a   5.55540561
_cell_length_b   5.53552065
_cell_length_c   28.02601674
_cell_angle_alpha   90.00000000
_cell_angle_beta   90.00000000
_cell_angle_gamma   90.00000000
_symmetry_Int_Tables_number   1
_chemical_formula_structural   Bi2CO5
_chemical_formula_sum   'Bi16 C8 O40'
_cell_volume   861.85781767
_cell_formula_units_Z   8
loop_
 _symmetry_equiv_pos_site_id
 _symmetry_equiv_pos_as_xyz
  1  'x, y, z'
loop_
 _atom_site_type_symbol
 _atom_site_label
 _atom_site_symmetry_multiplicity
 _atom_site_fract_x
 _atom_site_fract_y
 _atom_site_fract_z
 _atom_site_occupancy
  Bi  Bi0  1  0.51056780  0.01598480  0.54564369  1
  Bi  Bi1  1  0.46106471  0.50386543  0.79520396  1
  Bi  Bi2  1  0.50253978  0.02695921  0.04517982  1
  Bi  Bi3  1  0.01773301  0.50194390  0.20484079  1
  Bi  Bi4  1  0.98226699  0.00194390  0.79515921  1
  Bi  Bi5  1  0.96106471  0.50386543  0.70479604  1
  Bi  Bi6  1  0.48943220  0.51598480  0.45435631  1
  Bi  Bi7  1  0.98943220  0.51598480  0.04564369  1
  Bi  Bi8  1  0.00253978  0.02695921  0.45482018  1
  Bi  Bi9  1  0.01056780  0.01598480  0.95435631  1
  Bi  Bi10  1  0.99746022  0.52695921  0.54517982  1
  Bi  Bi11  1  0.03893529  0.00386543  0.29520396  1
  Bi  Bi12  1  0.53893529  0.00386543  0.20479604  1
  Bi  Bi13  1  0.49746022  0.52695921  0.95482018  1
  Bi  Bi14  1  0.51773301  0.50194390  0.29515921  1
  Bi  Bi15  1  0.48226699  0.00194390  0.70484079  1
  C  C16  1  0.00797549  0.50964991  0.37474787  1
  C  C17  1  0.99036185  0.01950329  0.12584984  1
  C  C18  1  0.00963815  0.51950329  0.87415016  1
  C  C19  1  0.50963815  0.51950329  0.62584984  1
  C  C20  1  0.99202451  0.00964991  0.62525213  1
  C  C21  1  0.50797549  0.50964991  0.12525213  1
  C  C22  1  0.49036185  0.01950329  0.37415016  1
  C  C23  1  0.49202451  0.00964991  0.87474787  1
  O  O24  1  0.05816086  0.45036297  0.41888435  1
  O  O25  1  0.64729687  0.17633075  0.86633889  1
  O  O26  1  0.36162009  0.67465933  0.60813551  1
  O  O27  1  0.35270313  0.67633075  0.13366111  1
  O  O28  1  0.14729687  0.17633075  0.63366111  1
  O  O29  1  0.73156817  0.24273549  0.74994272  1
  O  O30  1  0.55816086  0.45036297  0.08111565  1
  O  O31  1  0.25906811  0.26005861  0.49992684  1
  O  O32  1  0.64659079  0.38700713  0.59893737  1
  O  O33  1  0.72276743  0.75049897  0.75155807  1
  O  O34  1  0.85270313  0.67633075  0.36633889  1
  O  O35  1  0.94183914  0.95036297  0.58111565  1
  O  O36  1  0.22276743  0.75049897  0.74844193  1
  O  O37  1  0.63837991  0.17465933  0.39186449  1
  O  O38  1  0.97497204  -0.00346194  0.17232368  1
  O  O39  1  0.74093189  0.76005861  0.50007316  1
  O  O40  1  0.26843183  0.74273549  0.25005728  1
  O  O41  1  0.77723257  0.25049897  0.25155807  1
  O  O42  1  0.35340921  0.88700713  0.40106263  1
  O  O43  1  0.24093189  0.76005861  -0.00007316  1
  O  O44  1  0.14659079  0.38700713  0.90106263  1
  O  O45  1  0.23156817  0.24273549  0.75005728  1
  O  O46  1  0.75295007  0.26285347  0.50001816  1
  O  O47  1  0.13837991  0.17465933  0.10813551  1
  O  O48  1  0.85340921  0.88700713  0.09893737  1
  O  O49  1  0.47497204  -0.00346194  0.32767632  1
  O  O50  1  0.02502796  0.49653806  0.82767632  1
  O  O51  1  0.44183914  0.95036297  0.91888435  1
  O  O52  1  0.74704993  0.76285347  1.00001816  1
  O  O53  1  0.24704993  0.76285347  0.49998184  1
  O  O54  1  0.76843183  0.74273549  0.24994272  1
  O  O55  1  0.52502796  0.49653806  0.67232368  1
  O  O56  1  0.27723257  0.25049897  0.24844193  1
  O  O57  1  0.11785881  0.40104870  0.33957435  1
  O  O58  1  0.25295007  0.26285347  -0.00001816  1
  O  O59  1  0.61785881  0.40104870  0.16042565  1
  O  O60  1  0.88214119  0.90104870  0.66042565  1
  O  O61  1  0.38214119  0.90104870  0.83957435  1
  O  O62  1  0.75906811  0.26005861  1.00007316  1
  O  O63  1  0.86162009  0.67465933  0.89186449  1
