# generated using pymatgen
data_SiPb4(BrO)4
_symmetry_space_group_name_H-M   'P 1'
_cell_length_a   8.57520531
_cell_length_b   9.19468309
_cell_length_c   16.50110045
_cell_angle_alpha   90.00000000
_cell_angle_beta   90.00000000
_cell_angle_gamma   92.13030109
_symmetry_Int_Tables_number   1
_chemical_formula_structural   SiPb4(BrO)4
_chemical_formula_sum   'Si4 Pb16 Br16 O16'
_cell_volume   1300.15144867
_cell_formula_units_Z   4
loop_
 _symmetry_equiv_pos_site_id
 _symmetry_equiv_pos_as_xyz
  1  'x, y, z'
loop_
 _atom_site_type_symbol
 _atom_site_label
 _atom_site_symmetry_multiplicity
 _atom_site_fract_x
 _atom_site_fract_y
 _atom_site_fract_z
 _atom_site_occupancy
  Si  Si0  1  0.85767659  0.36914771  0.85056526  1
  Si  Si1  1  0.35767659  0.36914771  0.64943474  1
  Si  Si2  1  0.64232341  0.63085229  0.35056526  1
  Si  Si3  1  0.14232341  0.63085229  0.14943474  1
  Pb  Pb4  1  0.57882570  0.11955507  0.74358371  1
  Pb  Pb5  1  0.42117430  0.88044493  0.25641629  1
  Pb  Pb6  1  0.01420429  0.55970898  0.70329277  1
  Pb  Pb7  1  0.51420429  0.55970898  0.79670723  1
  Pb  Pb8  1  0.98579571  0.44029102  0.29670723  1
  Pb  Pb9  1  0.07882570  0.11955507  0.75641629  1
  Pb  Pb10  1  0.80266817  0.83231558  0.48294270  1
  Pb  Pb11  1  0.85728396  0.65048870  0.96526917  1
  Pb  Pb12  1  0.64271604  0.34951130  0.46526917  1
  Pb  Pb13  1  0.14271604  0.34951130  0.03473083  1
  Pb  Pb14  1  0.69733183  0.16768442  0.98294270  1
  Pb  Pb15  1  0.48579571  0.44029102  0.20329277  1
  Pb  Pb16  1  0.35728396  0.65048870  0.53473083  1
  Pb  Pb17  1  0.92117430  0.88044493  0.24358371  1
  Pb  Pb18  1  0.30266817  0.83231558  0.01705730  1
  Pb  Pb19  1  0.19733183  0.16768442  0.51705730  1
  Br  Br20  1  0.13355226  0.72468458  0.84777213  1
  Br  Br21  1  0.38400142  0.12855739  0.11171100  1
  Br  Br22  1  0.88400142  0.12855739  0.38828900  1
  Br  Br23  1  0.36644774  0.27531542  0.34777213  1
  Br  Br24  1  0.83891043  0.17891973  0.62227807  1
  Br  Br25  1  0.61599858  0.87144261  0.88828900  1
  Br  Br26  1  0.66108957  0.82108027  0.12227807  1
  Br  Br27  1  0.86644774  0.27531542  0.15222787  1
  Br  Br28  1  0.16108957  0.82108027  0.37772193  1
  Br  Br29  1  0.33891043  0.17891973  0.87772193  1
  Br  Br30  1  0.11599858  0.87144261  0.61171100  1
  Br  Br31  1  0.00000000  0.00000000  0.00000000  1
  Br  Br32  1  0.63355226  0.72468458  0.65222787  1
  Br  Br33  1  0.50000000  0.00000000  0.50000000  1
  Br  Br34  1  0.50000000  0.50000000  0.00000000  1
  Br  Br35  1  0.00000000  0.50000000  0.50000000  1
  O  O36  1  0.25838566  0.77816730  0.15777134  1
  O  O37  1  0.51096066  0.35420267  0.70859246  1
  O  O38  1  0.75838566  0.77816730  0.34222866  1
  O  O39  1  0.48903934  0.64579733  0.29140754  1
  O  O40  1  0.77605760  0.52318547  0.82750990  1
  O  O41  1  0.27605760  0.52318547  0.67249010  1
  O  O42  1  0.10110205  0.62175192  0.05096460  1
  O  O43  1  0.39889795  0.37824808  0.55096460  1
  O  O44  1  0.98903934  0.64579733  0.20859246  1
  O  O45  1  0.01096066  0.35420267  0.79140754  1
  O  O46  1  0.60110205  0.62175192  0.44903540  1
  O  O47  1  0.72394240  0.47681453  0.32750990  1
  O  O48  1  0.74161434  0.22183270  0.84222866  1
  O  O49  1  0.22394240  0.47681453  0.17249010  1
  O  O50  1  0.89889795  0.37824808  0.94903540  1
  O  O51  1  0.24161434  0.22183270  0.65777134  1
