# generated using pymatgen
data_NaB3O5
_symmetry_space_group_name_H-M   'P 1'
_cell_length_a   10.24992643
_cell_length_b   10.97455812
_cell_length_c   11.58234650
_cell_angle_alpha   90.00000000
_cell_angle_beta   90.00000000
_cell_angle_gamma   104.70189749
_symmetry_Int_Tables_number   1
_chemical_formula_structural   NaB3O5
_chemical_formula_sum   'Na12 B36 O60'
_cell_volume   1260.22264652
_cell_formula_units_Z   12
loop_
 _symmetry_equiv_pos_site_id
 _symmetry_equiv_pos_as_xyz
  1  'x, y, z'
loop_
 _atom_site_type_symbol
 _atom_site_label
 _atom_site_symmetry_multiplicity
 _atom_site_fract_x
 _atom_site_fract_y
 _atom_site_fract_z
 _atom_site_occupancy
  Na  Na0  1  0.92919506  0.12246378  0.63360393  1
  Na  Na1  1  0.92919506  0.62246378  0.86639607  1
  Na  Na2  1  0.07080494  0.87753622  0.36639607  1
  Na  Na3  1  0.41045427  0.08670440  0.36783551  1
  Na  Na4  1  0.64985934  0.61205308  0.34692717  1
  Na  Na5  1  0.58954573  0.91329560  0.63216449  1
  Na  Na6  1  0.64985934  0.11205308  0.15307283  1
  Na  Na7  1  0.35014066  0.88794692  0.84692717  1
  Na  Na8  1  0.41045427  0.58670440  0.13216449  1
  Na  Na9  1  0.07080494  0.37753622  0.13360393  1
  Na  Na10  1  0.35014066  0.38794692  0.65307283  1
  Na  Na11  1  0.58954573  0.41329560  0.86783551  1
  B  B12  1  0.29151349  0.40659728  0.90990068  1
  B  B13  1  0.58812581  0.38364897  0.17543784  1
  B  B14  1  0.72724675  0.50369098  0.60258961  1
  B  B15  1  0.72724675  0.00369098  0.89741039  1
  B  B16  1  0.41187419  0.11635103  0.67543784  1
  B  B17  1  0.29497857  0.71280722  0.47378087  1
  B  B18  1  0.29151349  0.90659728  0.59009932  1
  B  B19  1  0.08824430  0.90633216  0.69916872  1
  B  B20  1  0.91175570  0.09366784  0.30083128  1
  B  B21  1  0.08824430  0.40633216  0.80083128  1
  B  B22  1  0.70848651  0.59340272  0.09009932  1
  B  B23  1  0.70502143  0.28719278  0.52621913  1
  B  B24  1  0.79083066  0.73354043  0.55453245  1
  B  B25  1  0.38662392  0.34485129  0.30520361  1
  B  B26  1  0.19733355  0.08455890  0.57204278  1
  B  B27  1  0.80266645  0.91544110  0.42795722  1
  B  B28  1  0.12165106  0.62600468  0.33006258  1
  B  B29  1  0.41187419  0.61635103  0.82456216  1
  B  B30  1  0.38662392  0.84485129  0.19479639  1
  B  B31  1  0.80266645  0.41544110  0.07204278  1
  B  B32  1  0.70848651  0.09340272  0.40990068  1
  B  B33  1  0.87834894  0.37399532  0.66993742  1
  B  B34  1  0.87834894  0.87399532  0.83006258  1
  B  B35  1  0.70502143  0.78719278  0.97378087  1
  B  B36  1  0.79083066  0.23354043  0.94546755  1
  B  B37  1  0.20916934  0.26645957  0.44546755  1
  B  B38  1  0.58812581  0.88364897  0.32456216  1
  B  B39  1  0.61337608  0.15514871  0.80520361  1
  B  B40  1  0.27275325  0.99630902  0.10258961  1
  B  B41  1  0.19733355  0.58455890  0.92795722  1
  B  B42  1  0.27275325  0.49630902  0.39741039  1
  B  B43  1  0.91175570  0.59366784  0.19916872  1
  B  B44  1  0.12165106  0.12600468  0.16993742  1
  B  B45  1  0.61337608  0.65514871  0.69479639  1
  B  B46  1  0.20916934  0.76645957  0.05453245  1
  B  B47  1  0.29497857  0.21280722  0.02621913  1
  O  O48  1  0.59757871  0.00994848  0.33526842  1
  O  O49  1  0.38015275  0.96603893  0.17893694  1
  O  O50  1  0.24314575  0.98700253  0.50740443  1
  O  O51  1  0.09746633  0.02617919  0.66167837  1
  O  O52  1  0.32052964  0.67251241  0.87184465  1
  O  O53  1  0.78726644  0.61202081  0.52627762  1
  O  O54  1  0.75685425  0.51299747  0.00740443  1
  O  O55  1  0.18326395  0.84309613  0.67145328  1
  O  O56  1  0.98371313  0.34448217  0.72821989  1
  O  O57  1  0.64269385  0.18577226  0.46017141  1
  O  O58  1  0.48201930  0.30800243  0.23895141  1
  O  O59  1  0.21273356  0.88797919  0.02627762  1
  O  O60  1  0.66241244  0.39570843  0.52993881  1
  O  O61  1  0.40242129  0.49005152  0.83526842  1
  O  O62  1  0.70388708  0.75576709  0.64188163  1
  O  O63  1  0.16572679  0.51963127  0.31927797  1
  O  O64  1  0.98371313  0.84448217  0.77178011  1
  O  O65  1  0.33758756  0.60429157  0.47006119  1
  O  O66  1  0.24314575  0.48700253  0.99259557  1
  O  O67  1  0.01628687  0.15551783  0.22821989  1
  O  O68  1  0.51798070  0.19199757  0.73895141  1
  O  O69  1  0.16572679  0.01963127  0.18072203  1
  O  O70  1  0.70388708  0.25576709  0.85811837  1
  O  O71  1  0.29611292  0.24423291  0.35811837  1
  O  O72  1  0.21273356  0.38797919  0.47372238  1
  O  O73  1  0.59757871  0.50994848  0.16473158  1
  O  O74  1  0.78726644  0.11202081  0.97372238  1
  O  O75  1  0.67947036  0.32748759  0.12815535  1
  O  O76  1  0.61984725  0.03396107  0.82106306  1
  O  O77  1  0.13277386  0.66541508  0.99636094  1
  O  O78  1  0.40242129  0.99005152  0.66473158  1
  O  O79  1  0.81455057  0.27737369  0.59502872  1
  O  O80  1  0.86722614  0.83458492  0.49636094  1
  O  O81  1  0.09746633  0.52617919  0.83832163  1
  O  O82  1  0.83427321  0.48036873  0.68072203  1
  O  O83  1  0.61984725  0.53396107  0.67893694  1
  O  O84  1  0.18544943  0.22262631  0.09502872  1
  O  O85  1  0.81673605  0.65690387  0.17145328  1
  O  O86  1  0.75685425  0.01299747  0.49259557  1
  O  O87  1  0.83427321  0.98036873  0.81927797  1
  O  O88  1  0.13277386  0.16541508  0.50363906  1
  O  O89  1  0.18326395  0.34309613  0.82854672  1
  O  O90  1  0.86722614  0.33458492  0.00363906  1
  O  O91  1  0.29611292  0.74423291  0.14188163  1
  O  O92  1  0.35730615  0.31422774  0.96017141  1
  O  O93  1  0.51798070  0.69199757  0.76104859  1
  O  O94  1  0.18544943  0.72262631  0.40497128  1
  O  O95  1  0.90253367  0.47382081  0.16167837  1
  O  O96  1  0.66241244  0.89570843  0.97006119  1
  O  O97  1  0.81455057  0.77737369  0.90497128  1
  O  O98  1  0.67947036  0.82748759  0.37184465  1
  O  O99  1  0.90253367  0.97382081  0.33832163  1
  O  O100  1  0.01628687  0.65551783  0.27178011  1
  O  O101  1  0.38015275  0.46603893  0.32106306  1
  O  O102  1  0.32052964  0.17251241  0.62815535  1
  O  O103  1  0.48201930  0.80800243  0.26104859  1
  O  O104  1  0.64269385  0.68577226  0.03982859  1
  O  O105  1  0.35730615  0.81422774  0.53982859  1
  O  O106  1  0.33758756  0.10429157  0.02993881  1
  O  O107  1  0.81673605  0.15690387  0.32854672  1
