# generated using pymatgen
data_FeF3
_symmetry_space_group_name_H-M   'P 1'
_cell_length_a   5.45738580
_cell_length_b   5.45738490
_cell_length_c   5.45738520
_cell_angle_alpha   58.05263875
_cell_angle_beta   58.05264469
_cell_angle_gamma   58.05264259
_symmetry_Int_Tables_number   1
_chemical_formula_structural   FeF3
_chemical_formula_sum   'Fe2 F6'
_cell_volume   109.79889399
_cell_formula_units_Z   2
loop_
 _symmetry_equiv_pos_site_id
 _symmetry_equiv_pos_as_xyz
  1  'x, y, z'
loop_
 _atom_site_type_symbol
 _atom_site_label
 _atom_site_symmetry_multiplicity
 _atom_site_fract_x
 _atom_site_fract_y
 _atom_site_fract_z
 _atom_site_occupancy
  Fe  Fe0  1  0.00000000  0.00000000  0.00000000  1
  Fe  Fe1  1  0.50000000  0.50000000  0.50000000  1
  F  F2  1  0.75000000  0.34070307  0.15929693  1
  F  F3  1  0.34070307  0.15929693  0.75000000  1
  F  F4  1  0.25000000  0.65929693  0.84070307  1
  F  F5  1  0.15929693  0.75000000  0.34070307  1
  F  F6  1  0.84070307  0.25000000  0.65929693  1
  F  F7  1  0.65929693  0.84070307  0.25000000  1
