# generated using pymatgen
data_Na7Al3O8
_symmetry_space_group_name_H-M   'P 1'
_cell_length_a   5.91862041
_cell_length_b   8.03631338
_cell_length_c   11.40940435
_cell_angle_alpha   69.45781884
_cell_angle_beta   89.77377758
_cell_angle_gamma   71.08815557
_symmetry_Int_Tables_number   1
_chemical_formula_structural   Na7Al3O8
_chemical_formula_sum   'Na14 Al6 O16'
_cell_volume   477.03153307
_cell_formula_units_Z   2
loop_
 _symmetry_equiv_pos_site_id
 _symmetry_equiv_pos_as_xyz
  1  'x, y, z'
loop_
 _atom_site_type_symbol
 _atom_site_label
 _atom_site_symmetry_multiplicity
 _atom_site_fract_x
 _atom_site_fract_y
 _atom_site_fract_z
 _atom_site_occupancy
  Na  Na0  1  0.15143068  0.09965206  0.66724360  1
  Na  Na1  1  0.27661745  0.48304538  0.44761669  1
  Na  Na2  1  0.55311559  0.69273819  0.23797719  1
  Na  Na3  1  0.37155885  0.91239941  0.44411614  1
  Na  Na4  1  0.62844115  0.08760059  0.55588386  1
  Na  Na5  1  0.52866629  0.70763635  0.72947047  1
  Na  Na6  1  0.72338255  0.51695462  0.55238331  1
  Na  Na7  1  0.84856932  0.90034794  0.33275640  1
  Na  Na8  1  0.74482095  0.49062827  0.05635243  1
  Na  Na9  1  0.34071511  0.90211661  0.94848280  1
  Na  Na10  1  0.25517905  0.50937173  0.94364757  1
  Na  Na11  1  0.47133371  0.29236365  0.27052953  1
  Na  Na12  1  0.44688441  0.30726181  0.76202281  1
  Na  Na13  1  0.65928489  0.09788339  0.05151720  1
  Al  Al14  1  0.16534596  0.09394249  0.15930317  1
  Al  Al15  1  0.83465404  0.90605751  0.84069683  1
  Al  Al16  1  0.04122864  0.67577190  0.64552144  1
  Al  Al17  1  0.95877136  0.32422810  0.35447856  1
  Al  Al18  1  0.93073399  0.29993911  0.86412490  1
  Al  Al19  1  0.06926601  0.70006089  0.13587510  1
  O  O20  1  0.84634206  0.76743099  0.00487843  1
  O  O21  1  0.36067144  0.59508597  0.10412625  1
  O  O22  1  0.97886272  0.55721736  0.27187378  1
  O  O23  1  0.04973168  0.78430041  0.76009252  1
  O  O24  1  0.31993675  0.63280190  0.58245593  1
  O  O25  1  0.93164803  0.09675042  0.83430026  1
  O  O26  1  0.77885293  0.79990704  0.53568561  1
  O  O27  1  0.95026832  0.21569959  0.23990748  1
  O  O28  1  0.63932856  0.40491403  0.89587375  1
  O  O29  1  0.02113728  0.44278264  0.72812622  1
  O  O30  1  0.06835197  0.90324958  0.16569974  1
  O  O31  1  0.22114707  0.20009296  0.46431439  1
  O  O32  1  0.53575406  0.99019075  0.76927590  1
  O  O33  1  0.15365794  0.23256901  0.99512157  1
  O  O34  1  0.46424594  0.00980925  0.23072410  1
  O  O35  1  0.68006325  0.36719810  0.41754407  1
