# generated using pymatgen
data_Cs5Nb2S4Br9
_symmetry_space_group_name_H-M   'P 1'
_cell_length_a   7.71726107
_cell_length_b   10.88893853
_cell_length_c   10.88893809
_cell_angle_alpha   62.11853107
_cell_angle_beta   69.24562552
_cell_angle_gamma   69.24562583
_symmetry_Int_Tables_number   1
_chemical_formula_structural   Cs5Nb2S4Br9
_chemical_formula_sum   'Cs5 Nb2 S4 Br9'
_cell_volume   736.36162810
_cell_formula_units_Z   1
loop_
 _symmetry_equiv_pos_site_id
 _symmetry_equiv_pos_as_xyz
  1  'x, y, z'
loop_
 _atom_site_type_symbol
 _atom_site_label
 _atom_site_symmetry_multiplicity
 _atom_site_fract_x
 _atom_site_fract_y
 _atom_site_fract_z
 _atom_site_occupancy
  Cs  Cs0  1  0.33907098  0.43743106  0.88442698  1
  Cs  Cs1  1  0.33907098  0.88442698  0.43743106  1
  Cs  Cs2  1  0.00000000  0.50000000  0.50000000  1
  Cs  Cs3  1  0.66092902  0.56256894  0.11557302  1
  Cs  Cs4  1  0.66092902  0.11557302  0.56256894  1
  Nb  Nb5  1  0.91341659  0.08658341  0.08658341  1
  Nb  Nb6  1  0.08658341  0.91341659  0.91341659  1
  S  S7  1  0.77032197  0.08981480  0.91018520  1
  S  S8  1  0.77032197  0.91018520  0.08981480  1
  S  S9  1  0.22967803  0.91018520  0.08981480  1
  S  S10  1  0.22967803  0.08981480  0.91018520  1
  Br  Br11  1  0.03610503  0.20408570  0.20408570  1
  Br  Br12  1  0.12704641  0.11723471  0.62867247  1
  Br  Br13  1  0.87295359  0.37132753  0.88276529  1
  Br  Br14  1  0.55572358  0.20408570  0.20408570  1
  Br  Br15  1  0.44427642  0.79591430  0.79591430  1
  Br  Br16  1  0.12704641  0.62867247  0.11723471  1
  Br  Br17  1  0.96389497  0.79591430  0.79591430  1
  Br  Br18  1  0.50000000  0.50000000  0.50000000  1
  Br  Br19  1  0.87295359  0.88276529  0.37132753  1
