# generated using pymatgen
data_CaTiBiO5
_symmetry_space_group_name_H-M   'P 1'
_cell_length_a   5.59250092
_cell_length_b   11.34420274
_cell_length_c   16.01546633
_cell_angle_alpha   90.00000000
_cell_angle_beta   90.00000000
_cell_angle_gamma   90.00000000
_symmetry_Int_Tables_number   1
_chemical_formula_structural   CaTiBiO5
_chemical_formula_sum   'Ca8 Ti8 Bi8 O40'
_cell_volume   1016.06065025
_cell_formula_units_Z   8
loop_
 _symmetry_equiv_pos_site_id
 _symmetry_equiv_pos_as_xyz
  1  'x, y, z'
loop_
 _atom_site_type_symbol
 _atom_site_label
 _atom_site_symmetry_multiplicity
 _atom_site_fract_x
 _atom_site_fract_y
 _atom_site_fract_z
 _atom_site_occupancy
  Ca  Ca0  1  0.49513526  0.36043773  0.45389585  1
  Ca  Ca1  1  0.99513526  0.13956227  0.45389585  1
  Ca  Ca2  1  0.99513526  0.63956227  0.04610415  1
  Ca  Ca3  1  0.00486474  0.36043773  0.95389585  1
  Ca  Ca4  1  0.50486474  0.13956227  0.95389585  1
  Ca  Ca5  1  0.00486474  0.86043773  0.54610415  1
  Ca  Ca6  1  0.50486474  0.63956227  0.54610415  1
  Ca  Ca7  1  0.49513526  0.86043773  0.04610415  1
  Ti  Ti8  1  0.98667693  0.39974507  0.59821330  1
  Ti  Ti9  1  0.51332307  0.89974507  0.40178670  1
  Ti  Ti10  1  0.01332307  0.60025493  0.40178670  1
  Ti  Ti11  1  0.48667693  0.10025493  0.59821330  1
  Ti  Ti12  1  0.01332307  0.10025493  0.09821330  1
  Ti  Ti13  1  0.98667693  0.89974507  0.90178670  1
  Ti  Ti14  1  0.51332307  0.39974507  0.09821330  1
  Ti  Ti15  1  0.48667693  0.60025493  0.90178670  1
  Bi  Bi16  1  0.93734060  0.84207353  0.22895439  1
  Bi  Bi17  1  0.06265940  0.15792647  0.77104561  1
  Bi  Bi18  1  0.56265940  0.34207353  0.77104561  1
  Bi  Bi19  1  0.06265940  0.65792647  0.72895439  1
  Bi  Bi20  1  0.43734060  0.15792647  0.27104561  1
  Bi  Bi21  1  0.43734060  0.65792647  0.22895439  1
  Bi  Bi22  1  0.56265940  0.84207353  0.72895439  1
  Bi  Bi23  1  0.93734060  0.34207353  0.27104561  1
  O  O24  1  0.89126896  0.30638974  0.69369010  1
  O  O25  1  0.28353850  0.03914731  0.05772441  1
  O  O26  1  0.21646150  0.53914731  0.94227559  1
  O  O27  1  0.24387942  0.77995865  0.15422822  1
  O  O28  1  0.25612058  0.27995865  0.84577178  1
  O  O29  1  0.89126896  0.80638974  0.80630990  1
  O  O30  1  0.25612058  0.77995865  0.65422822  1
  O  O31  1  0.60873104  0.80638974  0.30630990  1
  O  O32  1  0.28353850  0.53914731  0.44227559  1
  O  O33  1  0.10873104  0.69361026  0.30630990  1
  O  O34  1  0.60873104  0.30638974  0.19369010  1
  O  O35  1  0.63699081  0.19012828  0.52508195  1
  O  O36  1  0.78353850  0.96085269  0.44227559  1
  O  O37  1  0.75612058  0.72004135  0.65422822  1
  O  O38  1  0.19249113  0.01845161  0.85590983  1
  O  O39  1  0.78353850  0.46085269  0.05772441  1
  O  O40  1  0.10873104  0.19361026  0.19369010  1
  O  O41  1  0.74387942  0.22004135  0.34577178  1
  O  O42  1  0.13699081  0.80987172  0.97491805  1
  O  O43  1  0.21646150  0.03914731  0.55772441  1
  O  O44  1  0.36300919  0.80987172  0.47491805  1
  O  O45  1  0.80750887  0.98154839  0.14409017  1
  O  O46  1  0.75612058  0.22004135  0.84577178  1
  O  O47  1  0.69249113  0.98154839  0.64409017  1
  O  O48  1  0.36300919  0.30987172  0.02508195  1
  O  O49  1  0.13699081  0.30987172  0.52508195  1
  O  O50  1  0.71646150  0.46085269  0.55772441  1
  O  O51  1  0.71646150  0.96085269  0.94227559  1
  O  O52  1  0.69249113  0.48154839  0.85590983  1
  O  O53  1  0.86300919  0.69012828  0.47491805  1
  O  O54  1  0.86300919  0.19012828  0.02508195  1
  O  O55  1  0.63699081  0.69012828  0.97491805  1
  O  O56  1  0.80750887  0.48154839  0.35590983  1
  O  O57  1  0.74387942  0.72004135  0.15422822  1
  O  O58  1  0.24387942  0.27995865  0.34577178  1
  O  O59  1  0.19249113  0.51845161  0.64409017  1
  O  O60  1  0.30750887  0.51845161  0.14409017  1
  O  O61  1  0.39126896  0.19361026  0.69369010  1
  O  O62  1  0.30750887  0.01845161  0.35590983  1
  O  O63  1  0.39126896  0.69361026  0.80630990  1
