# generated using pymatgen
data_La3Si2S8Cl
_symmetry_space_group_name_H-M   'P 1'
_cell_length_a   7.82899914
_cell_length_b   8.82741739
_cell_length_c   11.09180232
_cell_angle_alpha   96.26117621
_cell_angle_beta   90.00000000
_cell_angle_gamma   116.32407757
_symmetry_Int_Tables_number   1
_chemical_formula_structural   La3Si2S8Cl
_chemical_formula_sum   'La6 Si4 S16 Cl2'
_cell_volume   681.95612907
_cell_formula_units_Z   2
loop_
 _symmetry_equiv_pos_site_id
 _symmetry_equiv_pos_as_xyz
  1  'x, y, z'
loop_
 _atom_site_type_symbol
 _atom_site_label
 _atom_site_symmetry_multiplicity
 _atom_site_fract_x
 _atom_site_fract_y
 _atom_site_fract_z
 _atom_site_occupancy
  La  La0  1  0.68862342  0.61589097  0.81467280  1
  La  La1  1  0.07273245  0.38410903  0.68532720  1
  La  La2  1  0.92726755  0.61589097  0.31467280  1
  La  La3  1  0.61756941  0.00000000  0.25000000  1
  La  La4  1  0.31137658  0.38410903  0.18532720  1
  La  La5  1  0.38243059  0.00000000  0.75000000  1
  Si  Si6  1  0.69158923  0.32056117  0.03001124  1
  Si  Si7  1  0.30841077  0.67943883  0.96998876  1
  Si  Si8  1  0.37102806  0.67943883  0.46998876  1
  Si  Si9  1  0.62897194  0.32056117  0.53001124  1
  S  S10  1  0.58899219  0.86876122  0.94885761  1
  S  S11  1  0.73826510  0.29710614  0.84149042  1
  S  S12  1  0.59996340  0.70615803  0.35796777  1
  S  S13  1  0.10619463  0.70615803  0.85796777  1
  S  S14  1  0.44115896  0.70289386  0.65850958  1
  S  S15  1  0.41100781  0.13123878  0.05114239  1
  S  S16  1  0.29052311  0.43278406  0.91540735  1
  S  S17  1  0.55884104  0.29710614  0.34149042  1
  S  S18  1  0.72023097  0.13123878  0.55114239  1
  S  S19  1  0.85773905  0.56721594  0.58459265  1
  S  S20  1  0.70947689  0.56721594  0.08459265  1
  S  S21  1  0.27976903  0.86876122  0.44885761  1
  S  S22  1  0.14226095  0.43278406  0.41540735  1
  S  S23  1  0.89380537  0.29384197  0.14203223  1
  S  S24  1  0.40003660  0.29384197  0.64203223  1
  S  S25  1  0.26173490  0.70289386  0.15850958  1
  Cl  Cl26  1  0.00432830  0.00000000  0.75000000  1
  Cl  Cl27  1  0.99567170  0.00000000  0.25000000  1
