# generated using pymatgen
data_Na3BeAl(SiO4)2
_symmetry_space_group_name_H-M   'P 1'
_cell_length_a   6.93183895
_cell_length_b   7.26002014
_cell_length_c   7.37408271
_cell_angle_alpha   90.00000000
_cell_angle_beta   90.00000000
_cell_angle_gamma   90.00000000
_symmetry_Int_Tables_number   1
_chemical_formula_structural   Na3BeAl(SiO4)2
_chemical_formula_sum   'Na6 Be2 Al2 Si4 O16'
_cell_volume   371.10285370
_cell_formula_units_Z   2
loop_
 _symmetry_equiv_pos_site_id
 _symmetry_equiv_pos_as_xyz
  1  'x, y, z'
loop_
 _atom_site_type_symbol
 _atom_site_label
 _atom_site_symmetry_multiplicity
 _atom_site_fract_x
 _atom_site_fract_y
 _atom_site_fract_z
 _atom_site_occupancy
  Na  Na0  1  0.24703289  0.28664660  0.32396114  1
  Na  Na1  1  0.75296711  0.71335340  0.32396114  1
  Na  Na2  1  0.50000000  0.00000000  0.03335700  1
  Na  Na3  1  0.00000000  0.50000000  0.96664300  1
  Na  Na4  1  0.74703289  0.21335340  0.67603886  1
  Na  Na5  1  0.25296711  0.78664660  0.67603886  1
  Be  Be6  1  0.00000000  0.50000000  0.56662706  1
  Be  Be7  1  0.50000000  0.00000000  0.43337294  1
  Al  Al8  1  0.00000000  0.00000000  0.03321561  1
  Al  Al9  1  0.50000000  0.50000000  0.96678439  1
  Si  Si10  1  0.76454539  0.30059406  0.25963632  1
  Si  Si11  1  0.26454539  0.19940594  0.74036368  1
  Si  Si12  1  0.23545461  0.69940594  0.25963632  1
  Si  Si13  1  0.73545461  0.80059406  0.74036368  1
  O  O14  1  0.04468789  0.80361048  0.16880618  1
  O  O15  1  0.17149396  0.58838059  0.44148479  1
  O  O16  1  0.79719223  0.95879564  0.89420143  1
  O  O17  1  0.20280777  0.04120436  0.89420143  1
  O  O18  1  0.41591030  0.83830516  0.29427959  1
  O  O19  1  0.45531211  0.30361048  0.83119382  1
  O  O20  1  0.95531211  0.19638952  0.16880618  1
  O  O21  1  0.32850604  0.08838059  0.55851521  1
  O  O22  1  0.08408970  0.33830516  0.70572041  1
  O  O23  1  0.67149396  0.91161941  0.55851521  1
  O  O24  1  0.54468789  0.69638952  0.83119382  1
  O  O25  1  0.82850604  0.41161941  0.44148479  1
  O  O26  1  0.29719223  0.54120436  0.10579857  1
  O  O27  1  0.58408970  0.16169484  0.29427959  1
  O  O28  1  0.70280777  0.45879564  0.10579857  1
  O  O29  1  0.91591030  0.66169484  0.70572041  1
