# generated using pymatgen
data_Ba3NaBiO6
_symmetry_space_group_name_H-M   'P 1'
_cell_length_a   7.35353084
_cell_length_b   7.35353123
_cell_length_c   7.35353073
_cell_angle_alpha   91.80812324
_cell_angle_beta   91.80812334
_cell_angle_gamma   91.80812211
_symmetry_Int_Tables_number   1
_chemical_formula_structural   Ba3NaBiO6
_chemical_formula_sum   'Ba6 Na2 Bi2 O12'
_cell_volume   397.03113873
_cell_formula_units_Z   2
loop_
 _symmetry_equiv_pos_site_id
 _symmetry_equiv_pos_as_xyz
  1  'x, y, z'
loop_
 _atom_site_type_symbol
 _atom_site_label
 _atom_site_symmetry_multiplicity
 _atom_site_fract_x
 _atom_site_fract_y
 _atom_site_fract_z
 _atom_site_occupancy
  Ba  Ba0  1  0.89890257  0.25000000  0.60109743  1
  Ba  Ba1  1  0.10109743  0.75000000  0.39890257  1
  Ba  Ba2  1  0.60109743  0.89890257  0.25000000  1
  Ba  Ba3  1  0.75000000  0.39890257  0.10109743  1
  Ba  Ba4  1  0.39890257  0.10109743  0.75000000  1
  Ba  Ba5  1  0.25000000  0.60109743  0.89890257  1
  Na  Na6  1  0.75000000  0.75000000  0.75000000  1
  Na  Na7  1  0.25000000  0.25000000  0.25000000  1
  Bi  Bi8  1  0.00000000  0.00000000  0.00000000  1
  Bi  Bi9  1  0.50000000  0.50000000  0.50000000  1
  O  O10  1  0.91810079  0.72098725  0.05258538  1
  O  O11  1  0.72098725  0.05258538  0.91810079  1
  O  O12  1  0.94741462  0.08189921  0.27901275  1
  O  O13  1  0.05258538  0.91810079  0.72098725  1
  O  O14  1  0.58189921  0.44741462  0.77901275  1
  O  O15  1  0.77901275  0.58189921  0.44741462  1
  O  O16  1  0.08189921  0.27901275  0.94741462  1
  O  O17  1  0.27901275  0.94741462  0.08189921  1
  O  O18  1  0.55258538  0.22098725  0.41810079  1
  O  O19  1  0.41810079  0.55258538  0.22098725  1
  O  O20  1  0.22098725  0.41810079  0.55258538  1
  O  O21  1  0.44741462  0.77901275  0.58189921  1
