# generated using pymatgen
data_Li3Fe2(AsO4)3
_symmetry_space_group_name_H-M   'P 1'
_cell_length_a   8.76483403
_cell_length_b   9.09356756
_cell_length_c   12.45563515
_cell_angle_alpha   90.00000000
_cell_angle_beta   90.76975363
_cell_angle_gamma   90.00000000
_symmetry_Int_Tables_number   1
_chemical_formula_structural   Li3Fe2(AsO4)3
_chemical_formula_sum   'Li12 Fe8 As12 O48'
_cell_volume   992.66949975
_cell_formula_units_Z   4
loop_
 _symmetry_equiv_pos_site_id
 _symmetry_equiv_pos_as_xyz
  1  'x, y, z'
loop_
 _atom_site_type_symbol
 _atom_site_label
 _atom_site_symmetry_multiplicity
 _atom_site_fract_x
 _atom_site_fract_y
 _atom_site_fract_z
 _atom_site_occupancy
  Li  Li0  1  0.68170155  0.72065120  0.68124829  1
  Li  Li1  1  0.81829845  0.22065120  0.81875171  1
  Li  Li2  1  0.31829845  0.27934880  0.31875171  1
  Li  Li3  1  0.18170155  0.77934880  0.18124829  1
  Li  Li4  1  0.42674984  0.58715098  0.80340215  1
  Li  Li5  1  0.07325016  0.08715098  0.69659785  1
  Li  Li6  1  0.57325016  0.41284902  0.19659785  1
  Li  Li7  1  0.92674984  0.91284902  0.30340215  1
  Li  Li8  1  0.93657398  0.49134155  0.65690264  1
  Li  Li9  1  0.56342602  0.99134155  0.84309736  1
  Li  Li10  1  0.06342602  0.50865845  0.34309736  1
  Li  Li11  1  0.43657398  0.00865845  0.15690264  1
  Fe  Fe12  1  0.75402546  0.53276014  0.88848891  1
  Fe  Fe13  1  0.74597454  0.03276014  0.61151109  1
  Fe  Fe14  1  0.24597454  0.46723986  0.11151109  1
  Fe  Fe15  1  0.25402546  0.96723986  0.38848891  1
  Fe  Fe16  1  0.25483673  0.52341128  0.60451398  1
  Fe  Fe17  1  0.24516327  0.02341128  0.89548602  1
  Fe  Fe18  1  0.74516327  0.47658872  0.39548602  1
  Fe  Fe19  1  0.75483673  0.97658872  0.10451398  1
  As  As20  1  0.88690867  0.88496624  0.85667965  1
  As  As21  1  0.61309133  0.38496624  0.64332035  1
  As  As22  1  0.11309133  0.11503376  0.14332035  1
  As  As23  1  0.38690867  0.61503376  0.35667965  1
  As  As24  1  0.38444908  0.87923855  0.64929872  1
  As  As25  1  0.11555092  0.37923855  0.85070128  1
  As  As26  1  0.61555092  0.12076145  0.35070128  1
  As  As27  1  0.88444908  0.62076145  0.14929872  1
  As  As28  1  0.96141640  0.75180589  0.50893515  1
  As  As29  1  0.53858360  0.25180589  0.99106485  1
  As  As30  1  0.03858360  0.24819411  0.49106485  1
  As  As31  1  0.46141640  0.74819411  0.00893515  1
  O  O32  1  0.57033843  0.92047153  0.69138996  1
  O  O33  1  0.92966157  0.42047153  0.80861004  1
  O  O34  1  0.42966157  0.07952847  0.30861004  1
  O  O35  1  0.07033843  0.57952847  0.19138996  1
  O  O36  1  0.06689066  0.88667730  0.90896449  1
  O  O37  1  0.43310934  0.38667730  0.59103551  1
  O  O38  1  0.93310934  0.11332270  0.09103551  1
  O  O39  1  0.56689066  0.61332270  0.40896449  1
  O  O40  1  0.62761012  0.51376758  0.74597827  1
  O  O41  1  0.87238988  0.01376758  0.75402173  1
  O  O42  1  0.37238988  0.48623242  0.25402173  1
  O  O43  1  0.12761012  0.98623242  0.24597827  1
  O  O44  1  0.24016601  0.47720876  0.77364049  1
  O  O45  1  0.25983399  0.97720876  0.72635951  1
  O  O46  1  0.75983399  0.52279124  0.22635951  1
  O  O47  1  0.74016601  0.02279124  0.27364049  1
  O  O48  1  0.74804916  0.94835657  0.94364816  1
  O  O49  1  0.75195084  0.44835657  0.55635184  1
  O  O50  1  0.25195084  0.05164343  0.05635184  1
  O  O51  1  0.24804916  0.55164343  0.44364816  1
  O  O52  1  0.36291392  0.91279224  0.51631626  1
  O  O53  1  0.13708608  0.41279224  0.98368374  1
  O  O54  1  0.63708608  0.08720776  0.48368374  1
  O  O55  1  0.86291392  0.58720776  0.01631626  1
  O  O56  1  0.55261739  0.61653783  0.93510262  1
  O  O57  1  0.94738261  0.11653783  0.56489738  1
  O  O58  1  0.44738261  0.38346217  0.06489738  1
  O  O59  1  0.05261739  0.88346217  0.43510262  1
  O  O60  1  0.06329920  0.66363768  0.60858480  1
  O  O61  1  0.43670080  0.16363768  0.89141520  1
  O  O62  1  0.93670080  0.33636232  0.39141520  1
  O  O63  1  0.56329920  0.83636232  0.10858480  1
  O  O64  1  0.80272205  0.82430667  0.56890898  1
  O  O65  1  0.69727795  0.32430667  0.93109102  1
  O  O66  1  0.19727795  0.17569333  0.43109102  1
  O  O67  1  0.30272205  0.67569333  0.06890898  1
  O  O68  1  0.40278712  0.86542492  0.90716244  1
  O  O69  1  0.09721288  0.36542492  0.59283756  1
  O  O70  1  0.59721288  0.13457508  0.09283756  1
  O  O71  1  0.90278712  0.63457508  0.40716244  1
  O  O72  1  0.82549580  0.71805197  0.80810774  1
  O  O73  1  0.67450420  0.21805197  0.69189226  1
  O  O74  1  0.17450420  0.28194803  0.19189226  1
  O  O75  1  0.32549580  0.78194803  0.30810774  1
  O  O76  1  0.38242476  0.69021522  0.66527730  1
  O  O77  1  0.11757524  0.19021522  0.83472270  1
  O  O78  1  0.61757524  0.30978478  0.33472270  1
  O  O79  1  0.88242476  0.80978478  0.16527730  1
