# generated using pymatgen
data_K4Pt2(SO4)5
_symmetry_space_group_name_H-M   'P 1'
_cell_length_a   9.96628539
_cell_length_b   13.64958688
_cell_length_c   15.17121672
_cell_angle_alpha   101.35519234
_cell_angle_beta   96.01724299
_cell_angle_gamma   102.43534018
_symmetry_Int_Tables_number   1
_chemical_formula_structural   K4Pt2(SO4)5
_chemical_formula_sum   'K16 Pt8 S20 O80'
_cell_volume   1952.45637081
_cell_formula_units_Z   4
loop_
 _symmetry_equiv_pos_site_id
 _symmetry_equiv_pos_as_xyz
  1  'x, y, z'
loop_
 _atom_site_type_symbol
 _atom_site_label
 _atom_site_symmetry_multiplicity
 _atom_site_fract_x
 _atom_site_fract_y
 _atom_site_fract_z
 _atom_site_occupancy
  K  K0  1  0.13807549  0.68775419  0.27546898  1
  K  K1  1  0.04457918  0.62247366  0.93886763  1
  K  K2  1  0.41801238  0.89014826  0.05743859  1
  K  K3  1  0.88071435  0.95571427  0.68658452  1
  K  K4  1  0.37150853  0.41818468  0.65579702  1
  K  K5  1  0.33032376  0.79578621  0.68541763  1
  K  K6  1  0.62849147  0.58181532  0.34420298  1
  K  K7  1  0.86192451  0.31224581  0.72453102  1
  K  K8  1  0.76296822  0.84900881  0.27231612  1
  K  K9  1  0.58198762  0.10985174  0.94256141  1
  K  K10  1  0.95542082  0.37752634  0.06113237  1
  K  K11  1  0.11928565  0.04428573  0.31341548  1
  K  K12  1  0.69063787  0.65312747  0.69163639  1
  K  K13  1  0.23703178  0.15099119  0.72768388  1
  K  K14  1  0.66967624  0.20421379  0.31458237  1
  K  K15  1  0.30936213  0.34687253  0.30836361  1
  Pt  Pt16  1  0.98947656  0.58568869  0.48460674  1
  Pt  Pt17  1  0.61814864  0.05877735  0.50454939  1
  Pt  Pt18  1  0.38185136  0.94122265  0.49545061  1
  Pt  Pt19  1  0.51411318  0.58512929  0.97676160  1
  Pt  Pt20  1  0.89488198  0.93064716  0.95674609  1
  Pt  Pt21  1  0.10511802  0.06935284  0.04325391  1
  Pt  Pt22  1  0.01052344  0.41431131  0.51539326  1
  Pt  Pt23  1  0.48588682  0.41487071  0.02323840  1
  S  S24  1  0.57281459  0.79050377  0.87727013  1
  S  S25  1  0.94912273  0.41349855  0.30785138  1
  S  S26  1  0.64051025  0.42808221  0.85528984  1
  S  S27  1  0.37754116  0.17060150  0.49249252  1
  S  S28  1  0.53403674  0.05021659  0.69282542  1
  S  S29  1  0.23494844  0.42162803  0.88631446  1
  S  S30  1  0.42718541  0.20949623  0.12272987  1
  S  S31  1  0.76505156  0.57837197  0.11368554  1
  S  S32  1  0.46596326  0.94978341  0.30717458  1
  S  S33  1  0.93159654  0.14260134  0.89819555  1
  S  S34  1  0.35948975  0.57191779  0.14471016  1
  S  S35  1  0.29185484  0.55199775  0.49058847  1
  S  S36  1  0.16098265  0.93079156  0.86852379  1
  S  S37  1  0.05087727  0.58650145  0.69214862  1
  S  S38  1  0.95897548  0.16671294  0.53077780  1
  S  S39  1  0.83901735  0.06920844  0.13147621  1
  S  S40  1  0.62245884  0.82939850  0.50750748  1
  S  S41  1  0.04102452  0.83328706  0.46922220  1
  S  S42  1  0.06840346  0.85739866  0.10180445  1
  S  S43  1  0.70814516  0.44800225  0.50941153  1
  O  O44  1  0.28282710  0.37035606  0.96207052  1
  O  O45  1  0.57876199  0.52432626  0.85866721  1
  O  O46  1  0.35306929  0.60122082  0.58450640  1
  O  O47  1  0.98350065  0.12214709  0.60991281  1
  O  O48  1  0.42123801  0.47567374  0.14133279  1
  O  O49  1  0.08498682  0.48285925  0.64943057  1
  O  O50  1  0.00608579  0.88587896  0.55331608  1
  O  O51  1  0.50355734  0.72097946  0.79028444  1
  O  O52  1  0.79380551  0.05544335  0.21737293  1
  O  O53  1  0.81236527  0.39150797  0.54656803  1
  O  O54  1  0.93918711  0.34700593  0.38059568  1
  O  O55  1  0.03417789  0.17783104  0.98848408  1
  O  O56  1  0.99865456  0.90237083  0.84887771  1
  O  O57  1  0.50539198  0.12018936  0.76995746  1
  O  O58  1  0.49460802  0.87981064  0.23004254  1
  O  O59  1  0.15215256  0.78198485  0.10165473  1
  O  O60  1  0.96582211  0.82216896  0.01151592  1
  O  O61  1  0.46344859  0.10970580  0.10449900  1
  O  O62  1  0.46372709  0.25756571  0.04310811  1
  O  O63  1  0.59918439  0.97065921  0.71402070  1
  O  O64  1  0.61005145  0.99950909  0.36872990  1
  O  O65  1  0.49644266  0.27902054  0.20971556  1
  O  O66  1  0.27111302  0.19565268  0.12637484  1
  O  O67  1  0.37495313  0.21653239  0.58695523  1
  O  O68  1  0.20781494  0.03877498  0.93457391  1
  O  O69  1  0.80850982  0.17656616  0.51583867  1
  O  O70  1  0.99500598  0.87161602  0.17954787  1
  O  O71  1  0.83870985  0.36002941  0.23309828  1
  O  O72  1  0.78539373  0.45744149  0.89817479  1
  O  O73  1  0.79218506  0.96122502  0.06542609  1
  O  O74  1  0.70595799  0.94377457  0.53182123  1
  O  O75  1  0.40081561  0.02934079  0.28597930  1
  O  O76  1  0.00134544  0.09762917  0.15112229  1
  O  O77  1  0.62504687  0.78346761  0.41304477  1
  O  O78  1  0.52865160  0.17209383  0.47523093  1
  O  O79  1  0.21460627  0.54255851  0.10182521  1
  O  O80  1  0.44971302  0.64457108  0.09515466  1
  O  O81  1  0.53655141  0.89029420  0.89550100  1
  O  O82  1  0.60988573  0.45689350  0.57296075  1
  O  O83  1  0.17100947  0.96032518  0.10000020  1
  O  O84  1  0.06081289  0.65299407  0.61940432  1
  O  O85  1  0.79054566  0.56096689  0.51415099  1
  O  O86  1  0.00499402  0.12838398  0.82045213  1
  O  O87  1  0.31925965  0.21977192  0.42616289  1
  O  O88  1  0.37460830  0.88206989  0.35999741  1
  O  O89  1  0.64693071  0.39877918  0.41549360  1
  O  O90  1  0.47134840  0.82790617  0.52476907  1
  O  O91  1  0.72888698  0.80434732  0.87362516  1
  O  O92  1  0.62539170  0.11793011  0.64000259  1
  O  O93  1  0.38314511  0.62423018  0.24028232  1
  O  O94  1  0.99391421  0.11412104  0.44668392  1
  O  O95  1  0.73576669  0.62976638  0.20075881  1
  O  O96  1  0.38994855  0.00049091  0.63127010  1
  O  O97  1  0.82899053  0.03967482  0.89999980  1
  O  O98  1  0.08811937  0.43363575  0.28290036  1
  O  O99  1  0.55028698  0.35542892  0.90484534  1
  O  O100  1  0.39011427  0.54310650  0.42703925  1
  O  O101  1  0.91501318  0.51714075  0.35056943  1
  O  O102  1  0.53627291  0.74243429  0.95689189  1
  O  O103  1  0.04388310  0.27908770  0.56088865  1
  O  O104  1  0.20972648  0.85432483  0.90836431  1
  O  O105  1  0.61685489  0.37576982  0.75971768  1
  O  O106  1  0.68803370  0.46264820  0.08797566  1
  O  O107  1  0.91214460  0.58150538  0.11203949  1
  O  O108  1  0.29404201  0.05622543  0.46817877  1
  O  O109  1  0.08785540  0.41849462  0.88796051  1
  O  O110  1  0.31196630  0.53735180  0.91202434  1
  O  O111  1  0.20945434  0.43903311  0.48584901  1
  O  O112  1  0.95611690  0.72091230  0.43911135  1
  O  O113  1  0.68074035  0.78022808  0.57383711  1
  O  O114  1  0.79027352  0.14567517  0.09163569  1
  O  O115  1  0.19149018  0.82343384  0.48416133  1
  O  O116  1  0.18763473  0.60849203  0.45343197  1
  O  O117  1  0.01649935  0.87785291  0.39008719  1
  O  O118  1  0.16129015  0.63997059  0.76690172  1
  O  O119  1  0.26423331  0.37023362  0.79924119  1
  O  O120  1  0.91188063  0.56636425  0.71709964  1
  O  O121  1  0.84784744  0.21801515  0.89834527  1
  O  O122  1  0.20619449  0.94455665  0.78262707  1
  O  O123  1  0.71717290  0.62964394  0.03792948  1
