# generated using pymatgen
data_CuBi2(SeO3)4
_symmetry_space_group_name_H-M   'P 1'
_cell_length_a   7.46305325
_cell_length_b   8.18020917
_cell_length_c   10.83381132
_cell_angle_alpha   110.60962827
_cell_angle_beta   90.00000000
_cell_angle_gamma   90.00000000
_symmetry_Int_Tables_number   1
_chemical_formula_structural   CuBi2(SeO3)4
_chemical_formula_sum   'Cu2 Bi4 Se8 O24'
_cell_volume   619.06784921
_cell_formula_units_Z   2
loop_
 _symmetry_equiv_pos_site_id
 _symmetry_equiv_pos_as_xyz
  1  'x, y, z'
loop_
 _atom_site_type_symbol
 _atom_site_label
 _atom_site_symmetry_multiplicity
 _atom_site_fract_x
 _atom_site_fract_y
 _atom_site_fract_z
 _atom_site_occupancy
  Cu  Cu0  1  0.00000000  0.00000000  0.00000000  1
  Cu  Cu1  1  0.50000000  0.50000000  0.00000000  1
  Bi  Bi2  1  0.11515927  0.25206843  0.39887607  1
  Bi  Bi3  1  0.61515927  0.24793157  0.60112393  1
  Bi  Bi4  1  0.88484073  0.74793157  0.60112393  1
  Bi  Bi5  1  0.38484073  0.75206843  0.39887607  1
  Se  Se6  1  0.17208183  0.14456642  0.68666560  1
  Se  Se7  1  0.83417237  0.61087844  0.86903607  1
  Se  Se8  1  0.32791817  0.64456642  0.68666560  1
  Se  Se9  1  0.66582763  0.11087844  0.86903607  1
  Se  Se10  1  0.67208183  0.35543358  0.31333440  1
  Se  Se11  1  0.82791817  0.85543358  0.31333440  1
  Se  Se12  1  0.16582763  0.38912156  0.13096393  1
  Se  Se13  1  0.33417237  0.88912156  0.13096393  1
  O  O14  1  0.27418856  0.97840630  0.29493126  1
  O  O15  1  0.14480083  0.57961837  0.57692075  1
  O  O16  1  0.85519917  0.42038163  0.42307925  1
  O  O17  1  0.48322009  0.69431502  0.58759540  1
  O  O18  1  0.77418856  0.52159370  0.70506874  1
  O  O19  1  0.22581144  0.47840630  0.29493126  1
  O  O20  1  0.35519917  0.07961837  0.57692075  1
  O  O21  1  0.10970527  0.18734023  0.14673296  1
  O  O22  1  0.88502439  0.05961306  0.31148433  1
  O  O23  1  0.72581144  0.02159370  0.70506874  1
  O  O24  1  0.86218882  0.17451055  0.95746963  1
  O  O25  1  0.63781118  0.67451055  0.95746963  1
  O  O26  1  0.11497561  0.94038694  0.68851567  1
  O  O27  1  0.89029473  0.81265977  0.85326704  1
  O  O28  1  0.60970527  0.31265977  0.85326704  1
  O  O29  1  0.64480083  0.92038163  0.42307925  1
  O  O30  1  0.39029473  0.68734023  0.14673296  1
  O  O31  1  0.51677991  0.30568498  0.41240460  1
  O  O32  1  0.98322009  0.80568498  0.41240460  1
  O  O33  1  0.01677991  0.19431502  0.58759540  1
  O  O34  1  0.38502439  0.44038694  0.68851567  1
  O  O35  1  0.36218882  0.32548945  0.04253037  1
  O  O36  1  0.13781118  0.82548945  0.04253037  1
  O  O37  1  0.61497561  0.55961306  0.31148433  1
