# generated using pymatgen
data_Ba3Sn2S7
_symmetry_space_group_name_H-M   'P 1'
_cell_length_a   6.89121569
_cell_length_b   11.25710730
_cell_length_c   19.00972107
_cell_angle_alpha   100.65513643
_cell_angle_beta   90.00000000
_cell_angle_gamma   90.00000000
_symmetry_Int_Tables_number   1
_chemical_formula_structural   Ba3Sn2S7
_chemical_formula_sum   'Ba12 Sn8 S28'
_cell_volume   1449.25539705
_cell_formula_units_Z   4
loop_
 _symmetry_equiv_pos_site_id
 _symmetry_equiv_pos_as_xyz
  1  'x, y, z'
loop_
 _atom_site_type_symbol
 _atom_site_label
 _atom_site_symmetry_multiplicity
 _atom_site_fract_x
 _atom_site_fract_y
 _atom_site_fract_z
 _atom_site_occupancy
  Ba  Ba0  1  0.77555916  0.74348515  0.33481049  1
  Ba  Ba1  1  0.78087235  0.51254270  0.60904009  1
  Ba  Ba2  1  0.21912765  0.48745730  0.39095991  1
  Ba  Ba3  1  0.26678219  0.05730719  0.38863009  1
  Ba  Ba4  1  0.73321781  0.94269281  0.61136991  1
  Ba  Ba5  1  0.23321781  0.05730719  0.88863009  1
  Ba  Ba6  1  0.27555916  0.25651485  0.16518951  1
  Ba  Ba7  1  0.28087235  0.48745730  0.89095991  1
  Ba  Ba8  1  0.22444084  0.25651485  0.66518951  1
  Ba  Ba9  1  0.76678219  0.94269281  0.11136991  1
  Ba  Ba10  1  0.72444084  0.74348515  0.83481049  1
  Ba  Ba11  1  0.71912765  0.51254270  0.10904009  1
  Sn  Sn12  1  0.29952642  0.72461408  0.69575279  1
  Sn  Sn13  1  0.79733019  0.20618232  0.49637196  1
  Sn  Sn14  1  0.79952642  0.27538592  0.80424721  1
  Sn  Sn15  1  0.70047358  0.27538592  0.30424721  1
  Sn  Sn16  1  0.70266981  0.20618232  0.99637196  1
  Sn  Sn17  1  0.20266981  0.79381768  0.50362804  1
  Sn  Sn18  1  0.20047358  0.72461408  0.19575279  1
  Sn  Sn19  1  0.29733019  0.79381768  0.00362804  1
  S  S20  1  0.58013250  0.32514520  0.43213959  1
  S  S21  1  0.18095942  0.76659174  0.88268245  1
  S  S22  1  0.72481198  0.00162546  0.93976444  1
  S  S23  1  0.55843003  0.45204518  0.26920560  1
  S  S24  1  0.59785691  0.68223642  0.98915307  1
  S  S25  1  0.47240355  0.90345969  0.74658815  1
  S  S26  1  0.04399052  0.24906026  0.30676045  1
  S  S27  1  0.22481198  0.99837454  0.56023556  1
  S  S28  1  0.41986750  0.67485480  0.56786041  1
  S  S29  1  0.27518802  0.99837454  0.06023556  1
  S  S30  1  0.91986750  0.32514520  0.93213959  1
  S  S31  1  0.05843003  0.54795482  0.23079440  1
  S  S32  1  0.44156997  0.54795482  0.73079440  1
  S  S33  1  0.54399052  0.75093974  0.19323955  1
  S  S34  1  0.09785691  0.31776358  0.51084693  1
  S  S35  1  0.31904058  0.76659174  0.38268245  1
  S  S36  1  0.52759645  0.09654031  0.25341185  1
  S  S37  1  0.90214309  0.68223642  0.48915307  1
  S  S38  1  0.40214309  0.31776358  0.01084693  1
  S  S39  1  0.77518802  0.00162546  0.43976444  1
  S  S40  1  0.95600948  0.75093974  0.69323955  1
  S  S41  1  0.81904058  0.23340826  0.11731755  1
  S  S42  1  0.94156997  0.45204518  0.76920560  1
  S  S43  1  0.97240355  0.09654031  0.75341185  1
  S  S44  1  0.45600948  0.24906026  0.80676045  1
  S  S45  1  0.68095942  0.23340826  0.61731755  1
  S  S46  1  0.02759645  0.90345969  0.24658815  1
  S  S47  1  0.08013250  0.67485480  0.06786041  1
