# generated using pymatgen
data_Dy3S3N
_symmetry_space_group_name_H-M   'P 1'
_cell_length_a   3.82922932
_cell_length_b   11.93909703
_cell_length_c   12.90313394
_cell_angle_alpha   90.00000000
_cell_angle_beta   90.00000000
_cell_angle_gamma   90.00000000
_symmetry_Int_Tables_number   1
_chemical_formula_structural   Dy3S3N
_chemical_formula_sum   'Dy12 S12 N4'
_cell_volume   589.89954721
_cell_formula_units_Z   4
loop_
 _symmetry_equiv_pos_site_id
 _symmetry_equiv_pos_as_xyz
  1  'x, y, z'
loop_
 _atom_site_type_symbol
 _atom_site_label
 _atom_site_symmetry_multiplicity
 _atom_site_fract_x
 _atom_site_fract_y
 _atom_site_fract_z
 _atom_site_occupancy
  Dy  Dy0  1  0.25000000  0.21295474  0.86028031  1
  Dy  Dy1  1  0.75000000  0.43173072  0.13213880  1
  Dy  Dy2  1  0.75000000  0.28704526  0.36028031  1
  Dy  Dy3  1  0.75000000  0.93173072  0.36786120  1
  Dy  Dy4  1  0.75000000  0.45420337  0.64300879  1
  Dy  Dy5  1  0.25000000  0.71295474  0.63971969  1
  Dy  Dy6  1  0.75000000  0.95420337  0.85699121  1
  Dy  Dy7  1  0.25000000  0.56826928  0.86786120  1
  Dy  Dy8  1  0.75000000  0.78704526  0.13971969  1
  Dy  Dy9  1  0.25000000  0.04579663  0.14300879  1
  Dy  Dy10  1  0.25000000  0.54579663  0.35699121  1
  Dy  Dy11  1  0.25000000  0.06826928  0.63213880  1
  S  S12  1  0.75000000  0.13417984  0.99149423  1
  S  S13  1  0.75000000  0.63417984  0.50850577  1
  S  S14  1  0.25000000  0.09187641  0.40077271  1
  S  S15  1  0.75000000  0.22624766  0.69280808  1
  S  S16  1  0.75000000  0.40812359  0.90077271  1
  S  S17  1  0.25000000  0.27375234  0.19280808  1
  S  S18  1  0.75000000  0.90812359  0.59922729  1
  S  S19  1  0.25000000  0.59187641  0.09922729  1
  S  S20  1  0.25000000  0.77375234  0.30719192  1
  S  S21  1  0.25000000  0.36582016  0.49149423  1
  S  S22  1  0.25000000  0.86582016  0.00850577  1
  S  S23  1  0.75000000  0.72624766  0.80719192  1
  N  N24  1  0.25000000  0.03641490  0.79830768  1
  N  N25  1  0.75000000  0.46358510  0.29830768  1
  N  N26  1  0.25000000  0.53641490  0.70169232  1
  N  N27  1  0.75000000  0.96358510  0.20169232  1
