# generated using pymatgen
data_Ba3EuRu2O9
_symmetry_space_group_name_H-M   'P 1'
_cell_length_a   6.00928301
_cell_length_b   6.00928299
_cell_length_c   14.72075774
_cell_angle_alpha   90.00000000
_cell_angle_beta   90.00000000
_cell_angle_gamma   120.00000008
_symmetry_Int_Tables_number   1
_chemical_formula_structural   Ba3EuRu2O9
_chemical_formula_sum   'Ba6 Eu2 Ru4 O18'
_cell_volume   460.36904136
_cell_formula_units_Z   2
loop_
 _symmetry_equiv_pos_site_id
 _symmetry_equiv_pos_as_xyz
  1  'x, y, z'
loop_
 _atom_site_type_symbol
 _atom_site_label
 _atom_site_symmetry_multiplicity
 _atom_site_fract_x
 _atom_site_fract_y
 _atom_site_fract_z
 _atom_site_occupancy
  Eu  Eu0  1  0.00000000  0.00000000  0.50000000  1
  Eu  Eu1  1  0.00000000  0.00000000  0.00000000  1
  Ba  Ba2  1  0.66666700  0.33333300  0.40190512  1
  Ba  Ba3  1  0.33333300  0.66666700  0.90190512  1
  Ba  Ba4  1  0.66666700  0.33333300  0.09809488  1
  Ba  Ba5  1  0.00000000  0.00000000  0.25000000  1
  Ba  Ba6  1  0.33333300  0.66666700  0.59809488  1
  Ba  Ba7  1  0.00000000  0.00000000  0.75000000  1
  Ru  Ru8  1  0.33333300  0.66666700  0.16529661  1
  Ru  Ru9  1  0.33333300  0.66666700  0.33470339  1
  Ru  Ru10  1  0.66666700  0.33333300  0.66529661  1
  Ru  Ru11  1  0.66666700  0.33333300  0.83470339  1
  O  O12  1  0.35784251  0.17892126  0.59137726  1
  O  O13  1  0.82107874  0.64215749  0.90862274  1
  O  O14  1  0.82107874  0.17892126  0.90862274  1
  O  O15  1  0.98257736  0.49128868  0.75000000  1
  O  O16  1  0.17892126  0.82107874  0.09137726  1
  O  O17  1  0.50871132  0.01742264  0.75000000  1
  O  O18  1  0.17892126  0.35784251  0.40862274  1
  O  O19  1  0.49128868  0.98257736  0.25000000  1
  O  O20  1  0.35784251  0.17892126  0.90862274  1
  O  O21  1  0.01742264  0.50871132  0.25000000  1
  O  O22  1  0.49128868  0.50871132  0.25000000  1
  O  O23  1  0.64215749  0.82107874  0.40862274  1
  O  O24  1  0.64215749  0.82107874  0.09137726  1
  O  O25  1  0.50871132  0.49128868  0.75000000  1
  O  O26  1  0.17892126  0.35784251  0.09137726  1
  O  O27  1  0.82107874  0.17892126  0.59137726  1
  O  O28  1  0.82107874  0.64215749  0.59137726  1
  O  O29  1  0.17892126  0.82107874  0.40862274  1
