# generated using pymatgen
data_CaCoBiO5
_symmetry_space_group_name_H-M   'P 1'
_cell_length_a   5.56914820
_cell_length_b   11.34785254
_cell_length_c   15.51648524
_cell_angle_alpha   90.00000000
_cell_angle_beta   90.00000000
_cell_angle_gamma   90.00000000
_symmetry_Int_Tables_number   1
_chemical_formula_structural   CaCoBiO5
_chemical_formula_sum   'Ca8 Co8 Bi8 O40'
_cell_volume   980.60885658
_cell_formula_units_Z   8
loop_
 _symmetry_equiv_pos_site_id
 _symmetry_equiv_pos_as_xyz
  1  'x, y, z'
loop_
 _atom_site_type_symbol
 _atom_site_label
 _atom_site_symmetry_multiplicity
 _atom_site_fract_x
 _atom_site_fract_y
 _atom_site_fract_z
 _atom_site_occupancy
  Ca  Ca0  1  0.50327536  0.35944369  0.44917511  1
  Ca  Ca1  1  0.00327536  0.14055631  0.44917511  1
  Ca  Ca2  1  0.00327536  0.64055631  0.05082489  1
  Ca  Ca3  1  0.99672464  0.35944369  0.94917511  1
  Ca  Ca4  1  0.49672464  0.14055631  0.94917511  1
  Ca  Ca5  1  0.99672464  0.85944369  0.55082489  1
  Ca  Ca6  1  0.49672464  0.64055631  0.55082489  1
  Ca  Ca7  1  0.50327536  0.85944369  0.05082489  1
  Co  Co8  1  0.98190542  0.40559377  0.59930301  1
  Co  Co9  1  0.51809458  0.90559377  0.40069699  1
  Co  Co10  1  0.01809458  0.59440623  0.40069699  1
  Co  Co11  1  0.48190542  0.09440623  0.59930301  1
  Co  Co12  1  0.01809458  0.09440623  0.09930301  1
  Co  Co13  1  0.98190542  0.90559377  0.90069699  1
  Co  Co14  1  0.51809458  0.40559377  0.09930301  1
  Co  Co15  1  0.48190542  0.59440623  0.90069699  1
  Bi  Bi16  1  0.94468492  0.84413254  0.23251274  1
  Bi  Bi17  1  0.05531508  0.15586746  0.76748726  1
  Bi  Bi18  1  0.55531508  0.34413254  0.76748726  1
  Bi  Bi19  1  0.05531508  0.65586746  0.73251274  1
  Bi  Bi20  1  0.44468492  0.15586746  0.26748726  1
  Bi  Bi21  1  0.44468492  0.65586746  0.23251274  1
  Bi  Bi22  1  0.55531508  0.84413254  0.73251274  1
  Bi  Bi23  1  0.94468492  0.34413254  0.26748726  1
  O  O24  1  0.92810001  0.32485308  0.69791419  1
  O  O25  1  0.30666195  0.04770301  0.07057126  1
  O  O26  1  0.19333805  0.54770301  0.92942874  1
  O  O27  1  0.23862161  0.77106664  0.15151392  1
  O  O28  1  0.26137839  0.27106664  0.84848608  1
  O  O29  1  0.92810001  0.82485308  0.80208581  1
  O  O30  1  0.26137839  0.77106664  0.65151392  1
  O  O31  1  0.57189999  0.82485308  0.30208581  1
  O  O32  1  0.30666195  0.54770301  0.42942874  1
  O  O33  1  0.07189999  0.67514692  0.30208581  1
  O  O34  1  0.57189999  0.32485308  0.19791419  1
  O  O35  1  0.62426976  0.18027352  0.52346266  1
  O  O36  1  0.80666195  0.95229699  0.42942874  1
  O  O37  1  0.76137839  0.72893336  0.65151392  1
  O  O38  1  0.17382360  0.02596727  0.86866637  1
  O  O39  1  0.80666195  0.45229699  0.07057126  1
  O  O40  1  0.07189999  0.17514692  0.19791419  1
  O  O41  1  0.73862161  0.22893336  0.34848608  1
  O  O42  1  0.12426976  0.81972648  0.97653734  1
  O  O43  1  0.19333805  0.04770301  0.57057126  1
  O  O44  1  0.37573024  0.81972648  0.47653734  1
  O  O45  1  0.82617640  0.97403273  0.13133363  1
  O  O46  1  0.76137839  0.22893336  0.84848608  1
  O  O47  1  0.67382360  0.97403273  0.63133363  1
  O  O48  1  0.37573024  0.31972648  0.02346266  1
  O  O49  1  0.12426976  0.31972648  0.52346266  1
  O  O50  1  0.69333805  0.45229699  0.57057126  1
  O  O51  1  0.69333805  0.95229699  0.92942874  1
  O  O52  1  0.67382360  0.47403273  0.86866637  1
  O  O53  1  0.87573024  0.68027352  0.47653734  1
  O  O54  1  0.87573024  0.18027352  0.02346266  1
  O  O55  1  0.62426976  0.68027352  0.97653734  1
  O  O56  1  0.82617640  0.47403273  0.36866637  1
  O  O57  1  0.73862161  0.72893336  0.15151392  1
  O  O58  1  0.23862161  0.27106664  0.34848608  1
  O  O59  1  0.17382360  0.52596727  0.63133363  1
  O  O60  1  0.32617640  0.52596727  0.13133363  1
  O  O61  1  0.42810001  0.17514692  0.69791419  1
  O  O62  1  0.32617640  0.02596727  0.36866637  1
  O  O63  1  0.42810001  0.67514692  0.80208581  1
