# generated using pymatgen
data_TeAs(ClF2)3
_symmetry_space_group_name_H-M   'P 1'
_cell_length_a   9.05043217
_cell_length_b   10.24578682
_cell_length_c   10.85093961
_cell_angle_alpha   90.00000000
_cell_angle_beta   108.29254466
_cell_angle_gamma   90.00000000
_symmetry_Int_Tables_number   1
_chemical_formula_structural   TeAs(ClF2)3
_chemical_formula_sum   'Te4 As4 Cl12 F24'
_cell_volume   955.34788501
_cell_formula_units_Z   4
loop_
 _symmetry_equiv_pos_site_id
 _symmetry_equiv_pos_as_xyz
  1  'x, y, z'
loop_
 _atom_site_type_symbol
 _atom_site_label
 _atom_site_symmetry_multiplicity
 _atom_site_fract_x
 _atom_site_fract_y
 _atom_site_fract_z
 _atom_site_occupancy
  Te  Te0  1  0.93648762  0.85898393  0.68064799  1
  Te  Te1  1  0.06351238  0.14101607  0.31935201  1
  Te  Te2  1  0.56351238  0.35898393  0.81935201  1
  Te  Te3  1  0.43648762  0.64101607  0.18064799  1
  As  As4  1  0.89032560  0.79147724  0.27633363  1
  As  As5  1  0.10967440  0.20852276  0.72366637  1
  As  As6  1  0.60967440  0.29147724  0.22366637  1
  As  As7  1  0.39032560  0.70852276  0.77633363  1
  Cl  Cl8  1  0.91222493  0.84881963  0.88621343  1
  Cl  Cl9  1  0.41222493  0.65118037  0.38621343  1
  Cl  Cl10  1  0.39210077  0.85979193  0.13509691  1
  Cl  Cl11  1  0.81611585  0.42789738  0.92231577  1
  Cl  Cl12  1  0.68388415  0.92789738  0.57768423  1
  Cl  Cl13  1  0.10789923  0.35979193  0.36490309  1
  Cl  Cl14  1  0.31611585  0.07210262  0.42231577  1
  Cl  Cl15  1  0.60789923  0.14020807  0.86490309  1
  Cl  Cl16  1  0.58777507  0.34881963  0.61378657  1
  Cl  Cl17  1  0.89210077  0.64020807  0.63509691  1
  Cl  Cl18  1  0.08777507  0.15118037  0.11378657  1
  Cl  Cl19  1  0.18388415  0.57210262  0.07768423  1
  F  F20  1  0.22259954  0.76864155  0.81434432  1
  F  F21  1  0.77740046  0.23135845  0.18565568  1
  F  F22  1  0.28767848  0.56316783  0.71583506  1
  F  F23  1  0.50327963  0.15263371  0.15523909  1
  F  F24  1  0.32429734  0.78162515  0.62256547  1
  F  F25  1  0.94412082  0.13835894  0.75442061  1
  F  F26  1  0.27740046  0.26864155  0.68565568  1
  F  F27  1  0.72259954  0.73135845  0.31434432  1
  F  F28  1  0.21232152  0.06316783  0.78416494  1
  F  F29  1  0.54560971  0.36895730  0.06458870  1
  F  F30  1  0.45439029  0.63104270  0.93541130  1
  F  F31  1  0.17570266  0.28162515  0.87743453  1
  F  F32  1  0.78767848  0.93683217  0.21583506  1
  F  F33  1  0.71232152  0.43683217  0.28416494  1
  F  F34  1  0.44412082  0.36164106  0.25442061  1
  F  F35  1  0.55587918  0.63835894  0.74557939  1
  F  F36  1  0.49672037  0.84736629  0.84476091  1
  F  F37  1  0.00327963  0.34736629  0.65523909  1
  F  F38  1  0.99672037  0.65263371  0.34476091  1
  F  F39  1  0.82429734  0.71837485  0.12256547  1
  F  F40  1  0.04560971  0.13104270  0.56458870  1
  F  F41  1  0.67570266  0.21837485  0.37743453  1
  F  F42  1  0.05587918  0.86164106  0.24557939  1
  F  F43  1  0.95439029  0.86895730  0.43541130  1
