# generated using pymatgen
data_PrB2ClO4
_symmetry_space_group_name_H-M   'P 1'
_cell_length_a   4.25151693
_cell_length_b   6.60949953
_cell_length_c   8.18621829
_cell_angle_alpha   82.12509977
_cell_angle_beta   89.02291001
_cell_angle_gamma   72.20450952
_symmetry_Int_Tables_number   1
_chemical_formula_structural   PrB2ClO4
_chemical_formula_sum   'Pr2 B4 Cl2 O8'
_cell_volume   216.88889082
_cell_formula_units_Z   2
loop_
 _symmetry_equiv_pos_site_id
 _symmetry_equiv_pos_as_xyz
  1  'x, y, z'
loop_
 _atom_site_type_symbol
 _atom_site_label
 _atom_site_symmetry_multiplicity
 _atom_site_fract_x
 _atom_site_fract_y
 _atom_site_fract_z
 _atom_site_occupancy
  Pr  Pr0  1  0.20690880  0.03403829  0.22185289  1
  Pr  Pr1  1  0.79309120  0.96596171  0.77814711  1
  B  B2  1  0.83101242  0.65173186  0.14868399  1
  B  B3  1  0.43361798  0.43777362  0.19569063  1
  B  B4  1  0.56638202  0.56222638  0.80430937  1
  B  B5  1  0.16898758  0.34826814  0.85131601  1
  Cl  Cl6  1  0.85389001  0.80036000  0.45675692  1
  Cl  Cl7  1  0.14610999  0.19964000  0.54324308  1
  O  O8  1  0.36978082  0.76429597  0.78928685  1
  O  O9  1  0.90451091  0.53550631  0.82089881  1
  O  O10  1  0.16257463  0.15273263  0.92135263  1
  O  O11  1  0.63021918  0.23570403  0.21071315  1
  O  O12  1  0.09548909  0.46449369  0.17910119  1
  O  O13  1  0.83742537  0.84726737  0.07864737  1
  O  O14  1  0.51806833  0.62772692  0.18460533  1
  O  O15  1  0.48193167  0.37227308  0.81539467  1
