# generated using pymatgen
data_Tc2O5F4
_symmetry_space_group_name_H-M   'P 1'
_cell_length_a   5.48703128
_cell_length_b   8.63694714
_cell_length_c   15.40851985
_cell_angle_alpha   90.00000000
_cell_angle_beta   90.00000000
_cell_angle_gamma   90.42823697
_symmetry_Int_Tables_number   1
_chemical_formula_structural   Tc2O5F4
_chemical_formula_sum   'Tc8 O20 F16'
_cell_volume   730.20783632
_cell_formula_units_Z   4
loop_
 _symmetry_equiv_pos_site_id
 _symmetry_equiv_pos_as_xyz
  1  'x, y, z'
loop_
 _atom_site_type_symbol
 _atom_site_label
 _atom_site_symmetry_multiplicity
 _atom_site_fract_x
 _atom_site_fract_y
 _atom_site_fract_z
 _atom_site_occupancy
  Tc  Tc0  1  0.67617342  0.62603783  0.87584123  1
  Tc  Tc1  1  0.17617342  0.62603783  0.62415877  1
  Tc  Tc2  1  0.82382658  0.37396217  0.37584123  1
  Tc  Tc3  1  0.51706049  0.12653366  0.64672771  1
  Tc  Tc4  1  0.98293951  0.87346634  0.14672771  1
  Tc  Tc5  1  0.32382658  0.37396217  0.12415877  1
  Tc  Tc6  1  0.48293951  0.87346634  0.35327229  1
  Tc  Tc7  1  0.01706049  0.12653366  0.85327229  1
  O  O8  1  0.28813986  0.11608564  0.90434904  1
  O  O9  1  0.68174336  0.88757208  0.43654260  1
  O  O10  1  0.21186014  0.88391436  0.40434904  1
  O  O11  1  0.07655942  0.35870627  0.05765423  1
  O  O12  1  0.99605373  0.78239220  0.60535160  1
  O  O13  1  0.51790918  0.46239519  0.90305446  1
  O  O14  1  0.18174336  0.88757208  0.06345740  1
  O  O15  1  0.50394627  0.21760780  0.10535160  1
  O  O16  1  0.71186014  0.88391436  0.09565096  1
  O  O17  1  0.57655942  0.35870627  0.44234577  1
  O  O18  1  0.42344058  0.64129373  0.55765423  1
  O  O19  1  0.49605373  0.78239220  0.89464840  1
  O  O20  1  0.92344058  0.64129373  0.94234577  1
  O  O21  1  0.98209082  0.53760481  0.40305446  1
  O  O22  1  0.00394627  0.21760780  0.39464840  1
  O  O23  1  0.01790918  0.46239519  0.59694554  1
  O  O24  1  0.31825664  0.11242792  0.56345740  1
  O  O25  1  0.81825664  0.11242792  0.93654260  1
  O  O26  1  0.48209082  0.53760481  0.09694554  1
  O  O27  1  0.78813986  0.11608564  0.59565096  1
  F  F28  1  0.49444232  0.92097258  0.68461614  1
  F  F29  1  0.22614900  0.38104881  0.24009824  1
  F  F30  1  0.00555768  0.07902742  0.18461614  1
  F  F31  1  0.00789659  0.34101079  0.83737031  1
  F  F32  1  0.99210341  0.65898921  0.16262969  1
  F  F33  1  0.78751337  0.85519756  0.26662767  1
  F  F34  1  0.49210341  0.65898921  0.33737031  1
  F  F35  1  0.77385100  0.61895119  0.75990176  1
  F  F36  1  0.27385100  0.61895119  0.74009824  1
  F  F37  1  0.21248663  0.14480244  0.73337233  1
  F  F38  1  0.50789659  0.34101079  0.66262969  1
  F  F39  1  0.28751337  0.85519756  0.23337233  1
  F  F40  1  0.71248663  0.14480244  0.76662767  1
  F  F41  1  0.99444232  0.92097258  0.81538386  1
  F  F42  1  0.72614900  0.38104881  0.25990176  1
  F  F43  1  0.50555768  0.07902742  0.31538386  1
