# generated using pymatgen
data_KNaSmNbO5
_symmetry_space_group_name_H-M   'P 1'
_cell_length_a   5.74662577
_cell_length_b   5.74662577
_cell_length_c   8.36281629
_cell_angle_alpha   90.00000000
_cell_angle_beta   90.00000000
_cell_angle_gamma   90.00000000
_symmetry_Int_Tables_number   1
_chemical_formula_structural   KNaSmNbO5
_chemical_formula_sum   'K2 Na2 Sm2 Nb2 O10'
_cell_volume   276.17120105
_cell_formula_units_Z   2
loop_
 _symmetry_equiv_pos_site_id
 _symmetry_equiv_pos_as_xyz
  1  'x, y, z'
loop_
 _atom_site_type_symbol
 _atom_site_label
 _atom_site_symmetry_multiplicity
 _atom_site_fract_x
 _atom_site_fract_y
 _atom_site_fract_z
 _atom_site_occupancy
  K  K0  1  0.25000000  0.75000000  0.00000000  1
  K  K1  1  0.75000000  0.25000000  0.00000000  1
  Na  Na2  1  0.75000000  0.75000000  0.24127995  1
  Na  Na3  1  0.25000000  0.25000000  0.75872005  1
  Sm  Sm4  1  0.75000000  0.25000000  0.50000000  1
  Sm  Sm5  1  0.25000000  0.75000000  0.50000000  1
  Nb  Nb6  1  0.25000000  0.25000000  0.25942877  1
  Nb  Nb7  1  0.75000000  0.75000000  0.74057123  1
  O  O8  1  0.75000000  0.75000000  0.96456145  1
  O  O9  1  0.51807372  0.98192628  0.66741174  1
  O  O10  1  0.01807372  0.48192628  0.33258826  1
  O  O11  1  0.51807372  0.51807372  0.66741174  1
  O  O12  1  0.98192628  0.51807372  0.66741174  1
  O  O13  1  0.98192628  0.98192628  0.66741174  1
  O  O14  1  0.01807372  0.01807372  0.33258826  1
  O  O15  1  0.48192628  0.48192628  0.33258826  1
  O  O16  1  0.25000000  0.25000000  0.03543855  1
  O  O17  1  0.48192628  0.01807372  0.33258826  1
