# generated using pymatgen
data_Sr4Pt4PbO11
_symmetry_space_group_name_H-M   'P 1'
_cell_length_a   5.76505373
_cell_length_b   10.12320281
_cell_length_c   10.22092324
_cell_angle_alpha   89.54841054
_cell_angle_beta   89.82540154
_cell_angle_gamma   89.99267744
_symmetry_Int_Tables_number   1
_chemical_formula_structural   Sr4Pt4PbO11
_chemical_formula_sum   'Sr8 Pt8 Pb2 O22'
_cell_volume   596.48003933
_cell_formula_units_Z   2
loop_
 _symmetry_equiv_pos_site_id
 _symmetry_equiv_pos_as_xyz
  1  'x, y, z'
loop_
 _atom_site_type_symbol
 _atom_site_label
 _atom_site_symmetry_multiplicity
 _atom_site_fract_x
 _atom_site_fract_y
 _atom_site_fract_z
 _atom_site_occupancy
  Sr  Sr0  1  0.25020892  0.12442987  0.95298765  1
  Sr  Sr1  1  0.24882359  0.03389224  0.60506781  1
  Sr  Sr2  1  0.75090658  0.61557313  0.48434292  1
  Sr  Sr3  1  0.25109260  0.46710340  0.87273679  1
  Sr  Sr4  1  0.74890740  0.53289660  0.12726321  1
  Sr  Sr5  1  0.24909342  0.38442687  0.51565708  1
  Sr  Sr6  1  0.74979108  0.87557013  0.04701235  1
  Sr  Sr7  1  0.75117641  0.96610776  0.39493219  1
  Pt  Pt8  1  0.24915418  0.37119418  0.18405956  1
  Pt  Pt9  1  0.74977462  0.20296435  0.10729810  1
  Pt  Pt10  1  0.75084582  0.62880582  0.81594044  1
  Pt  Pt11  1  0.74916230  0.29285724  0.35406768  1
  Pt  Pt12  1  0.75052914  0.87686784  0.72352725  1
  Pt  Pt13  1  0.25083770  0.70714276  0.64593232  1
  Pt  Pt14  1  0.25022538  0.79703565  0.89270190  1
  Pt  Pt15  1  0.24947086  0.12313216  0.27647275  1
  Pb  Pb16  1  0.71573946  0.25531272  0.72900955  1
  Pb  Pb17  1  0.28426054  0.74468728  0.27099045  1
  O  O18  1  0.67641673  0.74739265  0.26356659  1
  O  O19  1  0.24989599  0.63204956  0.46356848  1
  O  O20  1  0.00316281  0.33227214  0.04432369  1
  O  O21  1  0.99582165  0.43230036  0.30948562  1
  O  O22  1  0.75507144  0.05549968  0.63408904  1
  O  O23  1  0.00905315  0.93887591  0.84931388  1
  O  O24  1  0.24492856  0.94450032  0.36591096  1
  O  O25  1  0.50147174  0.66670144  0.95462457  1
  O  O26  1  0.01240784  0.17131048  0.41568049  1
  O  O27  1  0.49852826  0.33329856  0.04537543  1
  O  O28  1  0.51130736  0.83093721  0.58531881  1
  O  O29  1  0.75010401  0.36795044  0.53643152  1
  O  O30  1  0.00417835  0.56769964  0.69051438  1
  O  O31  1  0.49438238  0.93802218  0.85157767  1
  O  O32  1  0.99094685  0.06112409  0.15068612  1
  O  O33  1  0.48869264  0.16906279  0.41468119  1
  O  O34  1  0.32358327  0.25260735  0.73643341  1
  O  O35  1  0.98759216  0.82868952  0.58431951  1
  O  O36  1  0.49983235  0.56926000  0.68981391  1
  O  O37  1  0.50561762  0.06197782  0.14842233  1
  O  O38  1  0.99683719  0.66772786  0.95567631  1
  O  O39  1  0.50016765  0.43074000  0.31018609  1
