# generated using pymatgen
data_Cs2Ga2B2O7
_symmetry_space_group_name_H-M   'P 1'
_cell_length_a   8.14366188
_cell_length_b   9.02223166
_cell_length_c   12.40552480
_cell_angle_alpha   103.92016111
_cell_angle_beta   90.00000000
_cell_angle_gamma   90.00000000
_symmetry_Int_Tables_number   1
_chemical_formula_structural   Cs2Ga2B2O7
_chemical_formula_sum   'Cs8 Ga8 B8 O28'
_cell_volume   884.71502963
_cell_formula_units_Z   4
loop_
 _symmetry_equiv_pos_site_id
 _symmetry_equiv_pos_as_xyz
  1  'x, y, z'
loop_
 _atom_site_type_symbol
 _atom_site_label
 _atom_site_symmetry_multiplicity
 _atom_site_fract_x
 _atom_site_fract_y
 _atom_site_fract_z
 _atom_site_occupancy
  Cs  Cs0  1  0.62361364  0.46578017  0.86895043  1
  Cs  Cs1  1  0.37930269  0.06752643  0.65285222  1
  Cs  Cs2  1  0.12069731  0.06752643  0.15285222  1
  Cs  Cs3  1  0.87638636  0.46578017  0.36895043  1
  Cs  Cs4  1  0.62069731  0.93247357  0.34714778  1
  Cs  Cs5  1  0.37638636  0.53421983  0.13104957  1
  Cs  Cs6  1  0.87930269  0.93247357  0.84714778  1
  Cs  Cs7  1  0.12361364  0.53421983  0.63104957  1
  Ga  Ga8  1  0.11095736  0.83936088  0.38686769  1
  Ga  Ga9  1  0.61095736  0.16063912  0.11313231  1
  Ga  Ga10  1  0.43616710  0.31401112  0.36939717  1
  Ga  Ga11  1  0.56383290  0.68598888  0.63060283  1
  Ga  Ga12  1  0.38904264  0.83936088  0.88686769  1
  Ga  Ga13  1  0.06383290  0.31401112  0.86939717  1
  Ga  Ga14  1  0.88904264  0.16063912  0.61313231  1
  Ga  Ga15  1  0.93616710  0.68598888  0.13060283  1
  B  B16  1  0.64340683  0.83093908  0.06365055  1
  B  B17  1  0.85659317  0.83093908  0.56365055  1
  B  B18  1  0.60948902  0.35219234  0.57786964  1
  B  B19  1  0.35659317  0.16906092  0.93634945  1
  B  B20  1  0.14340683  0.16906092  0.43634945  1
  B  B21  1  0.39051098  0.64780766  0.42213036  1
  B  B22  1  0.10948902  0.64780766  0.92213036  1
  B  B23  1  0.89051098  0.35219234  0.07786964  1
  O  O24  1  0.48287724  0.51837067  0.37671261  1
  O  O25  1  0.21928786  0.02753387  0.40716676  1
  O  O26  1  0.21756464  0.29563177  0.41130969  1
  O  O27  1  0.99118770  0.19283363  0.48649612  1
  O  O28  1  0.27344530  0.69109884  0.35503152  1
  O  O29  1  0.49118770  0.80716637  0.01350388  1
  O  O30  1  0.42109900  0.73935652  0.52704523  1
  O  O31  1  0.28071214  0.02753387  0.90716676  1
  O  O32  1  0.46772666  0.18833398  0.23067888  1
  O  O33  1  0.51712276  0.48162933  0.62328739  1
  O  O34  1  0.01712276  0.51837067  0.87671261  1
  O  O35  1  0.00881230  0.80716637  0.51350388  1
  O  O36  1  0.07890100  0.73935652  0.02704523  1
  O  O37  1  0.57890100  0.26064348  0.47295477  1
  O  O38  1  0.50881230  0.19283363  0.98649612  1
  O  O39  1  0.78071214  0.97246613  0.59283324  1
  O  O40  1  0.22655470  0.69109884  0.85503152  1
  O  O41  1  0.53227334  0.81166602  0.76932112  1
  O  O42  1  0.98287724  0.48162933  0.12328739  1
  O  O43  1  0.92109900  0.26064348  0.97295477  1
  O  O44  1  0.71928786  0.97246613  0.09283324  1
  O  O45  1  0.96772666  0.81166602  0.26932112  1
  O  O46  1  0.78243536  0.70436823  0.58869031  1
  O  O47  1  0.03227334  0.18833398  0.73067888  1
  O  O48  1  0.28243536  0.29563177  0.91130969  1
  O  O49  1  0.71756464  0.70436823  0.08869031  1
  O  O50  1  0.77344530  0.30890116  0.14496848  1
  O  O51  1  0.72655470  0.30890116  0.64496848  1
