# generated using pymatgen
data_CaZr4(PO4)6
_symmetry_space_group_name_H-M   'P 1'
_cell_length_a   9.21760841
_cell_length_b   9.21760870
_cell_length_c   9.21760857
_cell_angle_alpha   58.06164443
_cell_angle_beta   58.06164325
_cell_angle_gamma   58.06164615
_symmetry_Int_Tables_number   1
_chemical_formula_structural   CaZr4(PO4)6
_chemical_formula_sum   'Ca1 Zr4 P6 O24'
_cell_volume   529.16818378
_cell_formula_units_Z   1
loop_
 _symmetry_equiv_pos_site_id
 _symmetry_equiv_pos_as_xyz
  1  'x, y, z'
loop_
 _atom_site_type_symbol
 _atom_site_label
 _atom_site_symmetry_multiplicity
 _atom_site_fract_x
 _atom_site_fract_y
 _atom_site_fract_z
 _atom_site_occupancy
  Ca  Ca0  1  0.50000000  0.50000000  0.50000000  1
  Zr  Zr1  1  0.35122554  0.35122554  0.35122554  1
  Zr  Zr2  1  0.86048425  0.86048425  0.86048425  1
  Zr  Zr3  1  0.64877446  0.64877446  0.64877446  1
  Zr  Zr4  1  0.13951575  0.13951575  0.13951575  1
  P  P5  1  0.46929766  0.04602618  0.74301128  1
  P  P6  1  0.04602618  0.74301128  0.46929766  1
  P  P7  1  0.25698872  0.53070234  0.95397382  1
  P  P8  1  0.74301128  0.46929766  0.04602618  1
  P  P9  1  0.53070234  0.95397382  0.25698872  1
  P  P10  1  0.95397382  0.25698872  0.53070234  1
  O  O11  1  0.10765556  0.30932074  0.49446497  1
  O  O12  1  0.42991074  0.23342250  0.58691962  1
  O  O13  1  0.41308038  0.57008926  0.76657750  1
  O  O14  1  0.69809106  0.94817141  0.08228873  1
  O  O15  1  0.05182859  0.91771127  0.30190894  1
  O  O16  1  0.08228873  0.69809106  0.94817141  1
  O  O17  1  0.49446497  0.10765556  0.30932074  1
  O  O18  1  0.23420090  0.36191513  0.98552665  1
  O  O19  1  0.91771127  0.30190894  0.05182859  1
  O  O20  1  0.50553503  0.89234444  0.69067926  1
  O  O21  1  0.30190894  0.05182859  0.91771127  1
  O  O22  1  0.23342250  0.58691962  0.42991074  1
  O  O23  1  0.94817141  0.08228873  0.69809106  1
  O  O24  1  0.69067926  0.50553503  0.89234444  1
  O  O25  1  0.63808487  0.01447335  0.76579910  1
  O  O26  1  0.76657750  0.41308038  0.57008926  1
  O  O27  1  0.76579910  0.63808487  0.01447335  1
  O  O28  1  0.36191513  0.98552665  0.23420090  1
  O  O29  1  0.89234444  0.69067926  0.50553503  1
  O  O30  1  0.01447335  0.76579910  0.63808487  1
  O  O31  1  0.58691962  0.42991074  0.23342250  1
  O  O32  1  0.98552665  0.23420090  0.36191513  1
  O  O33  1  0.30932074  0.49446497  0.10765556  1
  O  O34  1  0.57008926  0.76657750  0.41308038  1
