# generated using pymatgen
data_K2PbO2
_symmetry_space_group_name_H-M   'P 1'
_cell_length_a   7.45422641
_cell_length_b   7.65825455
_cell_length_c   10.16413057
_cell_angle_alpha   85.13777634
_cell_angle_beta   69.92330372
_cell_angle_gamma   61.26936518
_symmetry_Int_Tables_number   1
_chemical_formula_structural   K2PbO2
_chemical_formula_sum   'K8 Pb4 O8'
_cell_volume   475.60853297
_cell_formula_units_Z   4
loop_
 _symmetry_equiv_pos_site_id
 _symmetry_equiv_pos_as_xyz
  1  'x, y, z'
loop_
 _atom_site_type_symbol
 _atom_site_label
 _atom_site_symmetry_multiplicity
 _atom_site_fract_x
 _atom_site_fract_y
 _atom_site_fract_z
 _atom_site_occupancy
  K  K0  1  0.23359803  0.27763303  0.49472722  1
  K  K1  1  0.08032366  0.92726955  0.17128800  1
  K  K2  1  0.93457491  0.54719591  0.83391545  1
  K  K3  1  0.91967634  0.07273045  0.82871200  1
  K  K4  1  0.60157241  0.43382492  0.14035755  1
  K  K5  1  0.06542509  0.45280409  0.16608455  1
  K  K6  1  0.39842759  0.56617508  0.85964245  1
  K  K7  1  0.76640197  0.72236697  0.50527278  1
  Pb  Pb8  1  0.59863514  0.94135807  0.13200591  1
  Pb  Pb9  1  0.29854210  0.71460693  0.47493142  1
  Pb  Pb10  1  0.70145790  0.28539307  0.52506858  1
  Pb  Pb11  1  0.40136486  0.05864193  0.86799409  1
  O  O12  1  0.49854130  0.79773921  0.00626485  1
  O  O13  1  0.81255325  0.39911840  0.64940577  1
  O  O14  1  0.94174061  0.78286071  0.01749680  1
  O  O15  1  0.50145870  0.20226079  0.99373515  1
  O  O16  1  0.05825939  0.21713929  0.98250320  1
  O  O17  1  0.18744675  0.60088160  0.35059423  1
  O  O18  1  0.66425452  0.51767961  0.36861587  1
  O  O19  1  0.33574548  0.48232039  0.63138413  1
