# generated using pymatgen
data_LaPb6ClO7
_symmetry_space_group_name_H-M   'P 1'
_cell_length_a   8.20532688
_cell_length_b   9.81468630
_cell_length_c   10.38557902
_cell_angle_alpha   115.94888499
_cell_angle_beta   113.26813207
_cell_angle_gamma   90.00000099
_symmetry_Int_Tables_number   1
_chemical_formula_structural   LaPb6ClO7
_chemical_formula_sum   'La2 Pb12 Cl2 O14'
_cell_volume   675.59578210
_cell_formula_units_Z   2
loop_
 _symmetry_equiv_pos_site_id
 _symmetry_equiv_pos_as_xyz
  1  'x, y, z'
loop_
 _atom_site_type_symbol
 _atom_site_label
 _atom_site_symmetry_multiplicity
 _atom_site_fract_x
 _atom_site_fract_y
 _atom_site_fract_z
 _atom_site_occupancy
  La  La0  1  0.00000000  0.00000000  0.50000000  1
  La  La1  1  0.50000000  0.00000000  0.50000000  1
  Pb  Pb2  1  0.20094721  0.27012623  0.40189442  1
  Pb  Pb3  1  0.10023715  0.44057181  0.73421878  1
  Pb  Pb4  1  0.05449802  0.82608695  0.10899604  1
  Pb  Pb5  1  0.43794875  0.23786804  0.87589750  1
  Pb  Pb6  1  0.36601836  0.55942819  0.26578122  1
  Pb  Pb7  1  0.34552830  0.79542643  0.69105660  1
  Pb  Pb8  1  0.65447170  0.20457357  0.30894340  1
  Pb  Pb9  1  0.56205125  0.76213196  0.12410250  1
  Pb  Pb10  1  0.79905279  0.72987377  0.59810558  1
  Pb  Pb11  1  0.63398164  0.44057181  0.73421878  1
  Pb  Pb12  1  0.89976285  0.55942819  0.26578122  1
  Pb  Pb13  1  0.94550198  0.17391305  0.89100396  1
  Cl  Cl14  1  0.26634500  0.00000000  0.00000000  1
  Cl  Cl15  1  0.73365500  1.00000000  1.00000000  1
  O  O16  1  0.47715456  0.74091203  0.51812378  1
  O  O17  1  0.33024284  0.01056651  0.66048569  1
  O  O18  1  0.65385053  0.62231837  0.30770105  1
  O  O19  1  0.66945542  0.24232224  0.78350377  1
  O  O20  1  0.11404836  0.24232224  0.78350377  1
  O  O21  1  0.33054458  0.75767776  0.21649623  1
  O  O22  1  0.66975716  0.98943349  0.33951431  1
  O  O23  1  0.88595164  0.75767776  0.21649623  1
  O  O24  1  0.04096922  0.74091203  0.51812378  1
  O  O25  1  0.81954215  0.97160598  0.63908429  1
  O  O26  1  0.95903078  0.25908797  0.48187622  1
  O  O27  1  0.34614947  0.37768163  0.69229895  1
  O  O28  1  0.18045785  0.02839402  0.36091571  1
  O  O29  1  0.52284544  0.25908797  0.48187622  1
